data_PCOD8036118
_publ_section_title
;
Structure prediction by ZEFSAII (Michael W. Deem and Ramdas Pophale) SiO2 
 PCOD8036118
Probable space group: P -1
;
_chemical_formula_sum "Si O2"
_cell_formula_units_Z 16
_cell_length_a 10.537428
_cell_length_b 16.306035
_cell_length_c 4.943064
_cell_angle_alpha 51.568018
_cell_angle_beta 111.275499
_cell_angle_gamma 90.662998
_cell_volume 592.745769
_symmetry_space_group_name_H-M "P -1"
_symmetry_group_IT_number 2
_symmetry_cell_setting 'triclinic'
loop_
_space_group_symop_operation_xyz
x,y,z
-x,-y,-z
loop_
_atom_site_type_symbol
_atom_site_label
_atom_site_fract_x
_atom_site_fract_y
_atom_site_fract_z
Si Si1 0.309966 0.416509 0.978107
Si Si2 0.979238 0.239159 0.399053
Si Si3 0.479239 0.739153 0.899053
Si Si4 0.364966 0.100223 0.125069
Si Si5 0.864965 0.600220 0.625061
Si Si6 0.201272 0.852716 0.194428
Si Si7 0.701273 0.352716 0.694442
Si Si8 0.809966 0.916504 0.478103
O O1 0.181379 0.405593 0.708476
O O2 0.334158 0.534977 0.726018
O O3 0.455356 0.323714 0.198780
O O4 0.268128 0.401908 0.283746
O O5 0.096477 0.286532 0.534555
O O6 0.044644 0.176293 0.301218
O O7 0.939596 0.150338 0.744376
O O8 0.837065 0.339877 0.025113
O O9 0.596476 0.786530 0.034542
O O10 0.337066 0.839869 0.525115
O O11 0.439598 0.650331 0.244377
O O12 0.231874 0.098095 0.216267
O O13 0.500000 0.000000 0.500000
O O14 0.318621 0.094413 0.791525
O O15 0.000000 0.500000 0.000000
O O16 0.249997 0.750007 0.249953
O O17 0.165837 0.965031 0.773983
#
# Coordination Sequence:
#
# PCOD8036118 Si02
#       8
#     2   2   2   2   2   2   2   2
#     4  12  27  46  74 102 137 183 230 285 340 410
#     4  11  26  45  69 105 136 182 231 280 346 405
#     4  11  26  45  69 105 136 182 231 280 346 405
#     4  12  25  47  74 101 140 179 230 288 343 401
#     4  12  25  47  74 101 140 179 230 288 343 401
#     4  11  26  45  71  98 144 183 225 286 338 413
#     4  11  26  45  71  98 144 183 225 286 338 413
#     4  12  27  46  74 102 137 183 230 285 340 410
#
# _framework density 26.993020000000001
#
# number of rings (size 3 to 8) (size 9 to 14) (size 15 to 20)
#    0.000    0.500    2.500    4.500   10.500    1.000 
#    0.000    0.000    0.000    0.000    0.000    0.000 
#    0.000    0.000    0.000    0.000    0.000    0.000 
#
# Total GULP energy -198552.190697 kJ/mol
# GULP energy per Si atom -12409.511919 kJ/mol
# Density = 2.693158 g / cm^3
# Si number density = 26.993020 Si / 1000 Ang^3
#
#
#
# Elastic Constant Matrix: (Units=GPa)
#
#
# Indices 1 2 3 4 5 6 
#
# 1 167.6848 16.4388 18.7156 -20.2015 -12.8712 -1.8943
# 2 16.4388 87.9430 -2.4269 -20.9170 -9.5986 1.2345
# 3 18.7156 -2.4269 58.4870 -23.3110 -13.5112 11.8915
# 4 -20.2015 -20.9170 -23.3110 46.9100 0.4340 -4.1123
# 5 -12.8712 -9.5986 -13.5112 0.4340 38.5749 -8.8483
# 6 -1.8943 1.2345 11.8915 -4.1123 -8.8483 48.3707
#
#
#
# Elastic Compliance Matrix: (Units=1/GPa)
#
#
# Indices 1 2 3 4 5 6 
#
# 1 0.006549 -0.000554 -0.001047 0.002128 0.001899 0.001056
# 2 -0.000554 0.014287 0.005485 0.008806 0.005183 -0.000038
# 3 -0.001047 0.005485 0.026419 0.014711 0.009247 -0.003734
# 4 0.002128 0.008806 0.014711 0.033443 0.007795 0.000511
# 5 0.001899 0.005183 0.009247 0.007795 0.031956 0.004177
# 6 0.001056 -0.000038 -0.003734 0.000511 0.004177 0.022441
#
#
# Mechanical properties :
#
#
# Convention : Reuss Voigt Hill
#
# Bulk Modulus (GPa) = 18.17420 42.17443 30.17431
# Shear Modulus (GPa) = 34.32461 45.53026 39.92743
#
# Velocity S-wave (km/s) = 3.56983 4.11145 3.85018
# Velocity P-wave (km/s) = 4.87228 6.18036 5.56489
#
# Compressibility (1/GPa) = 0.05502306
#
# Stress axis : x y z
#
# Youngs Moduli (GPa) = 152.70031 69.99450 37.85176
#
# Poissons Ratio (x) = 0.03881 0.03961
# Poissons Ratio (y) = 0.08467 -0.20763
# Poissons Ratio (z) = 0.15980 -0.38394
#
# Static dielectric constant tensor:
#      x y z
#    x 5.272280 0.171350 0.203980 
#    y 0.171350 4.888900 0.003630 
#    z 0.203980 0.003630 4.923780 
# 
# 
# High freq. dielectric constant tensor:
#      x y z
#    x 2.105030 0.007370 0.012320 
#    y 0.007370 2.088740 -0.004160 
#    z 0.012320 -0.004160 2.090540 
# 
# From -- ./inp_files/38000.got.cif
#   From: 2010.06.25/outbox.cif.g09.slc.cpg/sg2_19_cif.got.tgz:38000.got - 2010.06.27 13:26:56.
