data_PCOD8036619
_publ_section_title
;
Structure prediction by ZEFSAII (Michael W. Deem and Ramdas Pophale) SiO2 
 PCOD8036619
Probable space group: P -1
;
_chemical_formula_sum "Si O2"
_cell_formula_units_Z 16
_cell_length_a 11.057393
_cell_length_b 13.961038
_cell_length_c 9.561902
_cell_angle_alpha 101.448768
_cell_angle_beta 66.922183
_cell_angle_gamma 149.029961
_cell_volume 668.624828
_symmetry_space_group_name_H-M "P -1"
_symmetry_group_IT_number 2
_symmetry_cell_setting 'triclinic'
loop_
_space_group_symop_operation_xyz
x,y,z
-x,-y,-z
loop_
_atom_site_type_symbol
_atom_site_label
_atom_site_fract_x
_atom_site_fract_y
_atom_site_fract_z
Si Si1 0.665463 0.684543 0.563845
Si Si2 0.278186 0.227449 0.922839
Si Si3 0.012860 0.247395 0.070178
Si Si4 0.585195 0.362729 0.089081
Si Si5 0.442276 0.240665 0.575647
Si Si6 0.528506 0.118445 0.936370
Si Si7 0.912752 0.160017 0.405713
Si Si8 0.972109 0.393909 0.590903
O O1 0.500000 0.500000 0.500000
O O2 0.494446 0.642365 0.730286
O O3 0.759823 0.822963 0.442304
O O4 0.900364 0.782764 0.563092
O O5 0.448506 0.283550 0.743875
O O6 0.426379 0.315177 0.026223
O O7 0.221320 0.303220 0.929178
O O8 0.000000 0.000000 0.000000
O O9 0.046447 0.265610 0.227228
O O10 0.718526 0.032015 0.098037
O O11 0.107163 0.413078 0.014796
O O12 0.533574 0.212919 0.069139
O O13 0.735300 0.440944 0.439931
O O14 0.355594 0.072186 0.561783
O O15 0.791482 0.299332 0.778731
O O16 0.500000 0.000000 0.000000
O O17 0.841074 0.216409 0.524453
O O18 0.000000 0.500000 0.500000
#
# Coordination Sequence:
#
# PCOD8036619 Si02
#       8
#     2   2   2   2   2   2   2   2
#     4  12  26  47  74 117 156 192 247 320 401 452
#     4  12  21  45  80 116 152 187 249 320 388 458
#     4  12  25  45  80 113 148 195 257 310 379 462
#     4  12  26  48  80 109 151 202 248 317 388 454
#     4  12  26  45  77 113 153 195 249 317 387 450
#     4  12  31  52  75 111 155 208 262 312 372 457
#     4  12  25  46  77 113 147 199 245 317 389 452
#     4  12  28  51  75 105 157 202 264 306 366 460
#
# _framework density 23.929713
#
# number of rings (size 3 to 8) (size 9 to 14) (size 15 to 20)
#    0.000    0.000    5.000    4.500    3.500    4.500 
#    0.000    0.000    0.000    0.000    0.000    0.000 
#    0.000    0.000    0.000    0.000    0.000    0.000 
#
# Total GULP energy -198413.435613 kJ/mol
# GULP energy per Si atom -12400.839726 kJ/mol
# Density = 2.387525 g / cm^3
# Si number density = 23.929713 Si / 1000 Ang^3
#
#
#
# Elastic Constant Matrix: (Units=GPa)
#
#
# Indices 1 2 3 4 5 6 
#
# 1 107.8723 29.0289 41.4433 8.7425 -1.7677 -25.7455
# 2 29.0289 116.7306 49.6899 10.3282 -13.1502 -22.6293
# 3 41.4433 49.6899 115.5745 13.1645 -6.4871 -6.4181
# 4 8.7425 10.3282 13.1645 43.5464 -4.1046 -3.1330
# 5 -1.7677 -13.1502 -6.4871 -4.1046 37.1723 -4.3674
# 6 -25.7455 -22.6293 -6.4181 -3.1330 -4.3674 46.2136
#
#
#
# Elastic Compliance Matrix: (Units=1/GPa)
#
#
# Indices 1 2 3 4 5 6 
#
# 1 0.012381 -0.000040 -0.003952 -0.000775 0.000543 0.006328
# 2 -0.000040 0.012139 -0.004584 -0.000696 0.004076 0.005623
# 3 -0.003952 -0.004584 0.012092 -0.002011 -0.000266 -0.002929
# 4 -0.000775 -0.000696 -0.002011 0.024149 0.002125 0.000786
# 5 0.000543 0.004076 -0.000266 0.002125 0.029164 0.005162
# 6 0.006328 0.005623 -0.002929 0.000786 0.005162 0.028052
#
#
# Mechanical properties :
#
#
# Convention : Reuss Voigt Hill
#
# Bulk Modulus (GPa) = 51.39029 64.50017 57.94523
# Shear Modulus (GPa) = 35.30628 40.05416 37.68022
#
# Velocity S-wave (km/s) = 3.84528 4.09568 3.97245
# Velocity P-wave (km/s) = 6.42161 7.02699 6.73111
#
# Compressibility (1/GPa) = 0.01945893
#
# Stress axis : x y z
#
# Youngs Moduli (GPa) = 80.76613 82.37883 82.69861
#
# Poissons Ratio (x) = 0.00331 0.32686
# Poissons Ratio (y) = 0.00325 0.37911
# Poissons Ratio (z) = 0.31922 0.37764
#
# Static dielectric constant tensor:
#      x y z
#    x 4.548920 -0.029820 -0.012930 
#    y -0.029820 4.449270 -0.117000 
#    z -0.012930 -0.117000 4.219340 
# 
# 
# High freq. dielectric constant tensor:
#      x y z
#    x 1.950510 -0.013230 0.006940 
#    y -0.013230 1.970650 0.007170 
#    z 0.006940 0.007170 1.946680 
# 
# From -- ./inp_files/273351.got.cif
#   From: 2010.06.25/outbox.cif.g09.slc.cpg/sg2_137_cif.got.tgz:273351.got - 2010.06.27 13:26:56.
