data_PCOD8036882
_publ_section_title
;
Structure prediction by ZEFSAII (Michael W. Deem and Ramdas Pophale) SiO2 
 PCOD8036882
Probable space group: P -1
;
_chemical_formula_sum "Si O2"
_cell_formula_units_Z 16
_cell_length_a 11.472737
_cell_length_b 10.660744
_cell_length_c 6.509811
_cell_angle_alpha 104.029451
_cell_angle_beta 90.972024
_cell_angle_gamma 113.747073
_cell_volume 701.138871
_symmetry_space_group_name_H-M "P -1"
_symmetry_group_IT_number 2
_symmetry_cell_setting 'triclinic'
loop_
_space_group_symop_operation_xyz
x,y,z
-x,-y,-z
loop_
_atom_site_type_symbol
_atom_site_label
_atom_site_fract_x
_atom_site_fract_y
_atom_site_fract_z
Si Si1 0.837059 0.746623 0.407896
Si Si2 0.911551 0.585323 0.038901
Si Si3 0.627486 0.045366 0.650268
Si Si4 0.354983 0.670388 0.140265
Si Si5 0.435990 0.163244 0.097146
Si Si6 0.009511 0.148760 0.151165
Si Si7 0.779125 0.965652 0.292062
Si Si8 0.556720 0.647980 0.455124
O O1 0.874974 0.790750 0.660020
O O2 0.870050 0.884971 0.318272
O O3 0.683713 0.662107 0.345940
O O4 0.906122 0.647912 0.289750
O O5 0.765392 0.481301 0.936155
O O6 0.969308 0.723975 0.952875
O O7 0.000000 0.500000 0.000000
O O8 0.697137 0.216594 0.732556
O O9 0.500000 0.000000 0.500000
O O10 0.581647 0.986461 0.857749
O O11 0.722932 0.992216 0.515810
O O12 0.457082 0.659799 0.296233
O O13 0.424541 0.732422 0.947491
O O14 0.403595 0.234581 0.320824
O O15 0.333846 0.131718 0.900181
O O16 0.872710 0.112936 0.245053
O O17 0.000000 0.000000 0.000000
O O18 0.500000 0.500000 0.500000
#
# Coordination Sequence:
#
# PCOD8036882 Si02
#       8
#     2   2   2   2   2   2   2   2
#     4  12  25  50  74 110 148 188 258 306 367 444
#     4  12  32  51  72 110 154 204 248 304 375 447
#     4  12  24  45  71 112 149 190 245 305 374 446
#     4  12  27  47  73 110 154 193 244 305 376 448
#     4  12  23  43  75 111 144 191 242 306 381 435
#     4  12  28  49  82 106 146 203 251 308 370 440
#     4  12  26  43  78 109 141 190 253 312 362 439
#     4  12  25  43  74 107 148 191 241 308 373 440
#
# _framework density 22.820015999999999
#
# number of rings (size 3 to 8) (size 9 to 14) (size 15 to 20)
#    0.000    0.000    6.250    3.000    5.250    1.500 
#    2.250    0.000    0.000    0.000    0.000    0.000 
#    0.000    0.000    0.000    0.000    0.000    0.000 
#
# Total GULP energy -198321.289840 kJ/mol
# GULP energy per Si atom -12395.080615 kJ/mol
# Density = 2.276808 g / cm^3
# Si number density = 22.820016 Si / 1000 Ang^3
#
#
#
# Elastic Constant Matrix: (Units=GPa)
#
#
# Indices 1 2 3 4 5 6 
#
# 1 118.0831 52.2650 55.7896 0.2110 -12.9951 -6.2369
# 2 52.2650 166.3770 54.3551 -16.3802 -7.7866 1.3107
# 3 55.7896 54.3551 121.5448 -4.5964 -6.2157 -8.0199
# 4 0.2110 -16.3802 -4.5964 36.7468 1.1797 -1.9144
# 5 -12.9951 -7.7866 -6.2157 1.1797 36.4204 -3.7620
# 6 -6.2369 1.3107 -8.0199 -1.9144 -3.7620 42.4787
#
#
#
# Elastic Compliance Matrix: (Units=1/GPa)
#
#
# Indices 1 2 3 4 5 6 
#
# 1 0.011952 -0.002399 -0.004231 -0.001706 0.003212 0.001238
# 2 -0.002399 0.007858 -0.002339 0.003171 0.000232 -0.000873
# 3 -0.004231 -0.002339 0.011345 0.000483 0.000078 0.001621
# 4 -0.001706 0.003171 0.000483 0.028770 -0.000679 0.000979
# 5 0.003212 0.000232 0.000078 -0.000679 0.029000 0.003017
# 6 0.001238 -0.000873 0.001621 0.000979 0.003017 0.024367
#
#
# Mechanical properties :
#
#
# Convention : Reuss Voigt Hill
#
# Bulk Modulus (GPa) = 75.66809 81.20270 78.43539
# Shear Modulus (GPa) = 36.86334 39.36886 38.11610
#
# Velocity S-wave (km/s) = 4.02356 4.15805 4.09135
# Velocity P-wave (km/s) = 7.40378 7.66249 7.53424
#
# Compressibility (1/GPa) = 0.01321561
#
# Stress axis : x y z
#
# Youngs Moduli (GPa) = 83.66957 127.25605 88.14630
#
# Poissons Ratio (x) = 0.30534 0.37299
# Poissons Ratio (y) = 0.20076 0.20614
# Poissons Ratio (z) = 0.35404 0.29761
#
# Static dielectric constant tensor:
#      x y z
#    x 4.217590 0.003750 -0.301780 
#    y 0.003750 4.604800 -0.123200 
#    z -0.301780 -0.123200 4.388880 
# 
# 
# High freq. dielectric constant tensor:
#      x y z
#    x 1.894180 0.003970 -0.010010 
#    y 0.003970 1.920480 -0.007140 
#    z -0.010010 -0.007140 1.909640 
# 
# From -- ./inp_files/71300.got.cif
#   From: 2010.06.25/outbox.cif.g09.slc.cpg/sg2_36_cif.got.tgz:71300.got - 2010.06.27 13:26:56.
