data_PCOD8036004
_publ_section_title
;
Structure prediction by ZEFSAII (Michael W. Deem and Ramdas Pophale) SiO2 
 PCOD8036004
Probable space group: P -1
;
_chemical_formula_sum "Si O2"
_cell_formula_units_Z 8
_cell_length_a 5.107255
_cell_length_b 8.381826
_cell_length_c 13.146592
_cell_angle_alpha 45.090813
_cell_angle_beta 126.295386
_cell_angle_gamma 119.489607
_cell_volume 318.505644
_symmetry_space_group_name_H-M "P -1"
_symmetry_group_IT_number 2
_symmetry_cell_setting 'triclinic'
loop_
_space_group_symop_operation_xyz
x,y,z
-x,-y,-z
loop_
_atom_site_type_symbol
_atom_site_label
_atom_site_fract_x
_atom_site_fract_y
_atom_site_fract_z
Si Si1 0.845042 0.323762 0.649626
Si Si2 0.563167 0.910322 0.166069
Si Si3 0.185526 0.252454 0.433968
Si Si4 0.816351 0.377737 0.106064
O O1 0.753807 0.205074 0.792528
O O2 0.574254 0.240172 0.538128
O O3 0.887904 0.598658 0.550172
O O4 0.188552 0.271917 0.709894
O O5 0.719254 0.113919 0.181117
O O6 0.500000 0.000000 0.000000
O O7 0.078418 0.396139 0.249229
O O8 0.000000 0.000000 0.500000
O O9 0.500000 0.500000 0.000000
O O10 0.000000 0.500000 0.000000
#
# Coordination Sequence:
#
# PCOD8036004 Si02
#       4
#     2   2   2   2
#     4  11  26  46  72 105 140 190 234 292 353 419
#     4  12  24  46  71 104 147 184 235 295 353 419
#     4  11  25  49  74 106 145 187 239 293 352 425
#     4  12  26  45  71 106 141 186 236 290 351 420
#
# _framework density 25.117294999999999
#
# number of rings (size 3 to 8) (size 9 to 14) (size 15 to 20)
#    0.000    0.500    2.500    5.250    0.000    7.000 
#    0.000    0.000    0.000    0.000    0.000    0.000 
#    0.000    0.000    0.000    0.000    0.000    0.000 
#
# Total GULP energy -99165.540387 kJ/mol
# GULP energy per Si atom -12395.692548 kJ/mol
# Density = 2.506013 g / cm^3
# Si number density = 25.117295 Si / 1000 Ang^3
#
#
#
# Elastic Constant Matrix: (Units=GPa)
#
#
# Indices 1 2 3 4 5 6 
#
# 1 129.7622 12.3710 37.3348 -12.9500 -13.8208 2.3747
# 2 12.3710 163.2451 11.9259 -11.3122 -2.3586 -4.1472
# 3 37.3348 11.9259 139.4664 35.7406 -21.2890 2.3106
# 4 -12.9500 -11.3122 35.7406 57.6354 -9.7064 -4.4631
# 5 -13.8208 -2.3586 -21.2890 -9.7064 47.1189 -14.9450
# 6 2.3747 -4.1472 2.3106 -4.4631 -14.9450 21.4045
#
#
#
# Elastic Compliance Matrix: (Units=1/GPa)
#
#
# Indices 1 2 3 4 5 6 
#
# 1 0.009443 -0.000024 -0.003359 0.004902 0.003039 0.002454
# 2 -0.000024 0.006443 -0.000992 0.002279 0.001179 0.002656
# 3 -0.003359 -0.000992 0.010265 -0.007109 0.001765 -0.001178
# 4 0.004902 0.002279 -0.007109 0.025323 0.006990 0.010826
# 5 0.003039 0.001179 0.001765 0.006990 0.031826 0.023380
# 6 0.002454 0.002656 -0.001178 0.010826 0.023380 0.065671
#
#
# Mechanical properties :
#
#
# Convention : Reuss Voigt Hill
#
# Bulk Modulus (GPa) = 57.47238 61.74855 59.61046
# Shear Modulus (GPa) = 30.57714 49.95455 40.26584
#
# Velocity S-wave (km/s) = 3.49287 4.46449 4.00823
# Velocity P-wave (km/s) = 6.26084 7.15633 6.72351
#
# Compressibility (1/GPa) = 0.01739966
#
# Stress axis : x y z
#
# Youngs Moduli (GPa) = 105.89822 155.21873 97.42007
#
# Poissons Ratio (x) = 0.00377 0.32720
# Poissons Ratio (y) = 0.00258 0.09668
# Poissons Ratio (z) = 0.35567 0.15404
#
# Static dielectric constant tensor:
#      x y z
#    x 4.633540 0.329950 -0.113280 
#    y 0.329950 6.061380 0.056030 
#    z -0.113280 0.056030 5.067220 
# 
# 
# High freq. dielectric constant tensor:
#      x y z
#    x 1.994580 -0.006950 -0.010760 
#    y -0.006950 2.021530 -0.001950 
#    z -0.010760 -0.001950 2.029950 
# 
# From -- ./inp_files/2127.got.cif
#   From: 2010.06.25/outbox.cif.g09.slc.cpg/sg2_2_cif.got.tgz:2127.got - 2010.06.27 13:26:56.
