data_PCOD8036836
_publ_section_title
;
Structure prediction by ZEFSAII (Michael W. Deem and Ramdas Pophale) SiO2 
 PCOD8036836
Probable space group: P -1
;
_chemical_formula_sum "Si O2"
_cell_formula_units_Z 12
_cell_length_a 8.543393
_cell_length_b 17.119769
_cell_length_c 13.337276
_cell_angle_alpha 156.401574
_cell_angle_beta 133.126212
_cell_angle_gamma 58.545417
_cell_volume 532.165052
_symmetry_space_group_name_H-M "P -1"
_symmetry_group_IT_number 2
_symmetry_cell_setting 'triclinic'
loop_
_space_group_symop_operation_xyz
x,y,z
-x,-y,-z
loop_
_atom_site_type_symbol
_atom_site_label
_atom_site_fract_x
_atom_site_fract_y
_atom_site_fract_z
Si Si1 0.964802 0.900006 0.167050
Si Si2 0.743525 0.410589 0.819667
Si Si3 0.201768 0.591105 0.923462
Si Si4 0.040794 0.877646 0.778576
Si Si5 0.592962 0.777362 0.165904
Si Si6 0.531759 0.938609 0.121451
O O1 0.711699 0.859535 0.050403
O O2 0.999881 0.002210 0.193937
O O3 0.155715 0.051793 0.503297
O O4 0.992982 0.674905 0.913462
O O5 0.622325 0.187160 0.455530
O O6 0.732330 0.408787 0.932227
O O7 0.612929 0.555368 0.889724
O O8 0.000000 0.500000 0.000000
O O9 0.139154 0.359513 0.578641
O O10 0.423780 0.754818 0.158841
O O11 0.293053 0.864362 0.869808
O O12 0.000000 0.000000 0.000000
O O13 0.483494 0.846060 0.102919
#
# Coordination Sequence:
#
# PCOD8036836 Si02
#       6
#     2   2   2   2   2   2
#     4  12  25  45  72 100 139 180 228 284 339 402
#     4  12  23  42  72 103 134 177 229 279 337 403
#     4  12  26  43  72 102 137 181 230 277 343 405
#     4  12  28  47  68 100 142 181 226 283 343 405
#     4  12  24  42  73 103 136 177 229 285 332 402
#     4  12  26  45  71 105 138 177 228 284 340 405
#
# _framework density 22.549395000000001
#
# number of rings (size 3 to 8) (size 9 to 14) (size 15 to 20)
#    0.000    0.000    5.000    5.000    2.333    4.667 
#    0.000    0.000    0.000    0.000    0.000    0.000 
#    0.000    0.000    0.000    0.000    0.000    0.000 
#
# Total GULP energy -148900.519603 kJ/mol
# GULP energy per Si atom -12408.376634 kJ/mol
# Density = 2.249807 g / cm^3
# Si number density = 22.549395 Si / 1000 Ang^3
#
#
#
# Elastic Constant Matrix: (Units=GPa)
#
#
# Indices 1 2 3 4 5 6 
#
# 1 76.8938 -23.7789 2.9896 4.6537 4.9034 -5.2456
# 2 -23.7789 81.0259 8.2746 7.8954 -4.6585 3.7116
# 3 2.9896 8.2746 50.3331 2.0170 3.2604 7.7694
# 4 4.6537 7.8954 2.0170 30.9723 -4.5603 6.9666
# 5 4.9034 -4.6585 3.2604 -4.5603 35.1468 1.8350
# 6 -5.2456 3.7116 7.7694 6.9666 1.8350 41.6516
#
#
#
# Elastic Compliance Matrix: (Units=1/GPa)
#
#
# Indices 1 2 3 4 5 6 
#
# 1 0.015123 0.004802 -0.001791 -0.004261 -0.001996 0.002611
# 2 0.004802 0.014460 -0.002626 -0.004207 0.000920 0.000469
# 3 -0.001791 -0.002626 0.021116 0.000166 -0.001833 -0.003877
# 4 -0.004261 -0.004207 0.000166 0.036188 0.005055 -0.006468
# 5 -0.001996 0.000920 -0.001833 0.005055 0.029791 -0.002149
# 6 0.002611 0.000469 -0.003877 -0.006468 -0.002149 0.026196
#
#
# Mechanical properties :
#
#
# Convention : Reuss Voigt Hill
#
# Bulk Modulus (GPa) = 19.42876 20.35817 19.89346
# Shear Modulus (GPa) = 31.39524 36.27197 33.83360
#
# Velocity S-wave (km/s) = 3.73538 4.01503 3.87773
# Velocity P-wave (km/s) = 5.21909 5.52647 5.37498
#
# Compressibility (1/GPa) = 0.05147009
#
# Stress axis : x y z
#
# Youngs Moduli (GPa) = 66.12511 69.15427 47.35677
#
# Poissons Ratio (x) = -0.33207 0.08480
# Poissons Ratio (y) = -0.31752 0.12435
# Poissons Ratio (z) = 0.11841 0.18159
#
# Static dielectric constant tensor:
#      x y z
#    x 4.184460 -0.079970 0.106530 
#    y -0.079970 4.595400 0.219730 
#    z 0.106530 0.219730 3.935280 
# 
# 
# High freq. dielectric constant tensor:
#      x y z
#    x 1.902190 -0.006440 0.004420 
#    y -0.006440 1.906480 0.016400 
#    z 0.004420 0.016400 1.884550 
# 
# From -- ./inp_files/87741.got.cif
#   From: 2010.06.25/outbox.cif.g09.slc.cpg/sg2_44_cif.got.tgz:87741.got - 2010.06.27 13:26:56.
