data_PCOD8036353
_publ_section_title
;
Structure prediction by ZEFSAII (Michael W. Deem and Ramdas Pophale) SiO2 
 PCOD8036353
Probable space group: P -1
;
_chemical_formula_sum "Si O2"
_cell_formula_units_Z 10
_cell_length_a 14.838461
_cell_length_b 8.703727
_cell_length_c 14.406232
_cell_angle_alpha 128.723922
_cell_angle_beta 19.872072
_cell_angle_gamma 139.007901
_cell_volume 384.073616
_symmetry_space_group_name_H-M "P -1"
_symmetry_group_IT_number 2
_symmetry_cell_setting 'triclinic'
loop_
_space_group_symop_operation_xyz
x,y,z
-x,-y,-z
loop_
_atom_site_type_symbol
_atom_site_label
_atom_site_fract_x
_atom_site_fract_y
_atom_site_fract_z
Si Si1 0.740047 0.424655 0.843349
Si Si2 0.556939 0.410104 0.316353
Si Si3 0.197402 0.922187 0.830403
Si Si4 0.835267 0.714497 0.529914
Si Si5 0.578987 0.105807 0.711038
O O1 0.509278 0.206433 0.907111
O O2 0.905948 0.340405 0.719280
O O3 0.020890 0.692587 0.624266
O O4 0.499825 0.458937 0.146535
O O5 0.500000 0.500000 0.500000
O O6 0.273991 0.355718 0.497686
O O7 0.514368 0.160659 0.278572
O O8 0.938655 0.623043 0.988717
O O9 0.500000 0.000000 0.500000
O O10 0.351727 0.077077 0.835212
O O11 0.000000 0.000000 0.000000
O O12 0.000000 0.000000 0.500000
#
# Coordination Sequence:
#
# PCOD8036353 Si02
#       5
#     2   2   2   2   2
#     4  11  27  49  79 111 153 201 254 315 377 455
#     4  12  28  48  81 116 156 201 258 320 381 458
#     4  12  27  49  73 106 155 198 247 307 385 452
#     4  12  26  50  77 110 155 200 257 306 382 451
#     4  11  26  48  77 114 152 199 259 314 378 450
#
# _framework density 26.036677999999998
#
# number of rings (size 3 to 8) (size 9 to 14) (size 15 to 20)
#    0.000    0.400    2.000    4.800    2.800    8.000 
#    0.000    0.000    0.000    0.000    0.000    0.000 
#    0.000    0.000    0.000    0.000    0.000    0.000 
#
# Total GULP energy -124072.803811 kJ/mol
# GULP energy per Si atom -12407.280381 kJ/mol
# Density = 2.597742 g / cm^3
# Si number density = 26.036678 Si / 1000 Ang^3
#
#
#
# Elastic Constant Matrix: (Units=GPa)
#
#
# Indices 1 2 3 4 5 6 
#
# 1 231.1857 58.1536 49.6708 5.8674 -18.1885 38.6243
# 2 58.1536 150.1684 39.4536 -35.1818 6.8643 0.7712
# 3 49.6708 39.4536 105.4046 -11.2956 -5.1956 -6.8467
# 4 5.8674 -35.1818 -11.2956 35.2826 -7.3806 -0.2035
# 5 -18.1885 6.8643 -5.1956 -7.3806 39.6910 -12.1968
# 6 38.6243 0.7712 -6.8467 -0.2035 -12.1968 48.1883
#
#
#
# Elastic Compliance Matrix: (Units=1/GPa)
#
#
# Indices 1 2 3 4 5 6 
#
# 1 0.006872 -0.003061 -0.002980 -0.005061 0.000578 -0.005757
# 2 -0.003061 0.010709 -0.001351 0.010583 -0.000876 0.001913
# 3 -0.002980 -0.001351 0.012231 0.003642 0.002630 0.004829
# 4 -0.005061 0.010583 0.003642 0.042204 0.006055 0.006115
# 5 0.000578 -0.000876 0.002630 0.006055 0.029348 0.007378
# 6 -0.005757 0.001913 0.004829 0.006115 0.007378 0.027916
#
#
# Mechanical properties :
#
#
# Convention : Reuss Voigt Hill
#
# Bulk Modulus (GPa) = 66.54425 86.81276 76.67850
# Shear Modulus (GPa) = 33.54063 47.26441 40.40252
#
# Velocity S-wave (km/s) = 3.59305 4.26526 3.94350
# Velocity P-wave (km/s) = 6.54422 7.59417 7.08866
#
# Compressibility (1/GPa) = 0.01502760
#
# Stress axis : x y z
#
# Youngs Moduli (GPa) = 145.52810 93.38063 81.75875
#
# Poissons Ratio (x) = 0.28580 0.24367
# Poissons Ratio (y) = 0.44540 0.11045
# Poissons Ratio (z) = 0.43373 0.12616
#
# Static dielectric constant tensor:
#      x y z
#    x 5.431330 0.302980 0.048890 
#    y 0.302980 5.160520 -0.548330 
#    z 0.048890 -0.548330 4.798180 
# 
# 
# High freq. dielectric constant tensor:
#      x y z
#    x 2.068510 0.004050 -0.000180 
#    y 0.004050 2.059090 -0.018770 
#    z -0.000180 -0.018770 2.041130 
# 
# From -- ./inp_files/30676.got.cif
#   From: 2010.06.25/outbox.cif.g09.slc.cpg/sg2_16_cif.got.tgz:30676.got - 2010.06.27 13:26:56.
