data_PCOD8036678
_publ_section_title
;
Structure prediction by ZEFSAII (Michael W. Deem and Ramdas Pophale) SiO2 
 PCOD8036678
Probable space group: P -1
;
_chemical_formula_sum "Si O2"
_cell_formula_units_Z 16
_cell_length_a 11.871605
_cell_length_b 14.599972
_cell_length_c 12.039186
_cell_angle_alpha 94.467651
_cell_angle_beta 65.493977
_cell_angle_gamma 149.349904
_cell_volume 773.387369
_symmetry_space_group_name_H-M "P -1"
_symmetry_group_IT_number 2
_symmetry_cell_setting 'triclinic'
loop_
_space_group_symop_operation_xyz
x,y,z
-x,-y,-z
loop_
_atom_site_type_symbol
_atom_site_label
_atom_site_fract_x
_atom_site_fract_y
_atom_site_fract_z
Si Si1 0.855690 0.212453 0.190953
Si Si2 0.748995 0.111200 0.608176
Si Si3 0.848027 0.464232 0.472667
Si Si4 0.244239 0.975689 0.174836
Si Si5 0.889768 0.411542 0.855353
Si Si6 0.121969 0.393847 0.870064
Si Si7 0.182932 0.962708 0.636264
Si Si8 0.823196 0.878535 0.676576
O O1 0.965331 0.215135 0.240535
O O2 0.993977 0.406527 0.169253
O O3 0.493412 0.973676 0.330619
O O4 0.953375 0.241357 0.033816
O O5 0.646981 0.000699 0.756316
O O6 0.734611 0.021376 0.515890
O O7 0.080553 0.382938 0.501930
O O8 0.000000 0.500000 0.500000
O O9 0.023331 0.571526 0.296028
O O10 0.488140 0.210355 0.588479
O O11 0.972910 0.735301 0.205725
O O12 0.125671 0.995488 0.259763
O O13 0.527712 0.169399 0.993659
O O14 0.037526 0.443994 0.890161
O O15 0.477281 0.626601 0.764376
O O16 0.938407 0.876484 0.710550
O O17 0.000000 0.000000 0.500000
#
# Coordination Sequence:
#
# PCOD8036678 Si02
#       8
#     2   2   2   2   2   2   2   2
#     4  12  23  42  71  98 138 173 219 279 343 395
#     4  12  22  42  70 103 133 172 220 283 343 390
#     4  12  24  40  69 104 138 171 217 278 341 398
#     4  12  25  43  73 103 129 175 230 279 336 392
#     4  12  22  42  71 105 134 169 225 283 338 395
#     4  12  25  44  70 100 135 173 224 285 333 393
#     4  12  27  45  65  99 140 182 222 271 334 403
#     4  12  27  47  68  93 137 185 227 271 330 406
#
# _framework density 20.688207999999999
#
# number of rings (size 3 to 8) (size 9 to 14) (size 15 to 20)
#    0.000    0.000    7.500    4.125    0.000    2.000 
#    0.000    0.625    0.000    0.000    0.000    0.000 
#    0.000    0.000    0.000    0.000    0.000    0.000 
#
# Total GULP energy -198451.607053 kJ/mol
# GULP energy per Si atom -12403.225441 kJ/mol
# Density = 2.064112 g / cm^3
# Si number density = 20.688208 Si / 1000 Ang^3
#
#
#
# Elastic Constant Matrix: (Units=GPa)
#
#
# Indices 1 2 3 4 5 6 
#
# 1 154.0708 55.7181 42.9957 -5.6872 -4.5123 -1.6695
# 2 55.7181 128.5471 24.5728 -16.9963 -6.4092 -2.7558
# 3 42.9957 24.5728 69.8087 -7.3285 -3.9422 -0.9771
# 4 -5.6872 -16.9963 -7.3285 28.2806 2.1539 3.0162
# 5 -4.5123 -6.4092 -3.9422 2.1539 34.9133 -2.4729
# 6 -1.6695 -2.7558 -0.9771 3.0162 -2.4729 24.3516
#
#
#
# Elastic Compliance Matrix: (Units=1/GPa)
#
#
# Indices 1 2 3 4 5 6 
#
# 1 0.008827 -0.003132 -0.004458 -0.001302 0.000160 0.000249
# 2 -0.003132 0.010057 -0.001018 0.005032 0.001042 0.000365
# 3 -0.004458 -0.001018 0.017807 0.003022 0.001063 0.000027
# 4 -0.001302 0.005032 0.003022 0.039507 -0.001656 -0.004460
# 5 0.000160 0.001042 0.001063 -0.001656 0.029314 0.003354
# 6 0.000249 0.000365 0.000027 -0.004460 0.003354 0.042018
#
#
# Mechanical properties :
#
#
# Convention : Reuss Voigt Hill
#
# Bulk Modulus (GPa) = 51.35471 66.55552 58.95511
# Shear Modulus (GPa) = 29.19917 32.78508 30.99213
#
# Velocity S-wave (km/s) = 3.76093 3.98518 3.87467
# Velocity P-wave (km/s) = 6.61336 7.30863 6.96967
#
# Compressibility (1/GPa) = 0.01947241
#
# Stress axis : x y z
#
# Youngs Moduli (GPa) = 113.29185 99.43541 56.15867
#
# Poissons Ratio (x) = 0.31148 0.25035
# Poissons Ratio (y) = 0.35489 0.05720
# Poissons Ratio (z) = 0.50505 0.10127
#
# Static dielectric constant tensor:
#      x y z
#    x 3.736840 -0.342610 0.033660 
#    y -0.342610 3.290060 -0.060620 
#    z 0.033660 -0.060620 3.773070 
# 
# 
# High freq. dielectric constant tensor:
#      x y z
#    x 1.807580 -0.004560 0.016870 
#    y -0.004560 1.824100 0.001600 
#    z 0.016870 0.001600 1.806240 
# 
# From -- ./inp_files/278750.got.cif
#   From: 2010.06.25/outbox.cif.g09.slc.cpg/sg2_140_cif.got.tgz:278750.got - 2010.06.27 13:26:56.
