data_PCOD8036821
_publ_section_title
;
Structure prediction by ZEFSAII (Michael W. Deem and Ramdas Pophale) SiO2 
 PCOD8036821
Probable space group: P -1
;
_chemical_formula_sum "Si O2"
_cell_formula_units_Z 12
_cell_length_a 9.403195
_cell_length_b 9.161919
_cell_length_c 14.121691
_cell_angle_alpha 58.170323
_cell_angle_beta 122.122406
_cell_angle_gamma 150.717320
_cell_volume 497.989625
_symmetry_space_group_name_H-M "P -1"
_symmetry_group_IT_number 2
_symmetry_cell_setting 'triclinic'
loop_
_space_group_symop_operation_xyz
x,y,z
-x,-y,-z
loop_
_atom_site_type_symbol
_atom_site_label
_atom_site_fract_x
_atom_site_fract_y
_atom_site_fract_z
Si Si1 0.716423 0.140857 0.941532
Si Si2 0.997581 0.799505 0.540443
Si Si3 0.166174 0.662074 0.790859
Si Si4 0.720675 0.555067 0.222941
Si Si5 0.896113 0.854381 0.910907
Si Si6 0.491721 0.792702 0.544157
O O1 0.922672 0.465310 0.857593
O O2 0.497241 0.902868 0.861682
O O3 0.964293 0.213745 0.036687
O O4 0.500000 0.000000 0.000000
O O5 0.155358 0.830579 0.671514
O O6 0.697656 0.440841 0.532770
O O7 0.171586 0.950212 0.452078
O O8 0.000000 0.000000 0.500000
O O9 0.119973 0.462189 0.773322
O O10 0.604118 0.394289 0.335956
O O11 0.458180 0.439767 0.117085
O O12 0.980707 0.912364 0.205565
O O13 0.000000 0.000000 0.000000
O O14 0.500000 0.000000 0.500000
#
# Coordination Sequence:
#
# PCOD8036821 Si02
#       6
#     2   2   2   2   2   2
#     4  12  27  44  68 102 142 186 237 295 358 438
#     4  12  28  48  74 108 151 191 237 302 369 437
#     4  12  24  45  73  99 142 192 235 293 372 423
#     4  12  24  41  74 106 137 187 240 300 353 422
#     4  12  23  42  68 100 138 181 240 291 353 421
#     4  12  26  46  75 110 142 188 251 298 352 433
#
# _framework density 24.096886000000001
#
# number of rings (size 3 to 8) (size 9 to 14) (size 15 to 20)
#    0.000    0.000    5.000    5.000    2.333    4.000 
#    0.000    0.000    0.000    0.000    0.000    0.000 
#    0.000    0.000    0.000    0.000    0.000    0.000 
#
# Total GULP energy -148658.707680 kJ/mol
# GULP energy per Si atom -12388.225640 kJ/mol
# Density = 2.404204 g / cm^3
# Si number density = 24.096886 Si / 1000 Ang^3
#
#
#
# Elastic Constant Matrix: (Units=GPa)
#
#
# Indices 1 2 3 4 5 6 
#
# 1 139.5593 19.5700 39.4445 -11.0936 12.2571 4.4844
# 2 19.5700 100.6926 16.1408 -13.3252 3.3885 -3.0506
# 3 39.4445 16.1408 117.7798 -29.8001 5.1467 1.4691
# 4 -11.0936 -13.3252 -29.8001 44.9835 8.2619 -5.5628
# 5 12.2571 3.3885 5.1467 8.2619 33.7431 -11.7917
# 6 4.4844 -3.0506 1.4691 -5.5628 -11.7917 48.1430
#
#
#
# Elastic Compliance Matrix: (Units=1/GPa)
#
#
# Indices 1 2 3 4 5 6 
#
# 1 0.008362 -0.001108 -0.002338 0.000594 -0.003240 -0.001503
# 2 -0.001108 0.010651 -0.000299 0.002984 -0.001046 0.000876
# 3 -0.002338 -0.000299 0.011271 0.007287 -0.002604 0.000059
# 4 0.000594 0.002984 0.007287 0.029804 -0.008478 0.001279
# 5 -0.003240 -0.001046 -0.002604 -0.008478 0.036262 0.008217
# 6 -0.001503 0.000876 0.000059 0.001279 0.008217 0.023125
#
#
# Mechanical properties :
#
#
# Convention : Reuss Voigt Hill
#
# Bulk Modulus (GPa) = 43.86964 56.48246 50.17605
# Shear Modulus (GPa) = 37.15746 44.23236 40.69491
#
# Velocity S-wave (km/s) = 3.93109 4.28904 4.11396
# Velocity P-wave (km/s) = 6.23295 6.92954 6.59046
#
# Compressibility (1/GPa) = 0.02279481
#
# Stress axis : x y z
#
# Youngs Moduli (GPa) = 119.59362 93.88650 88.72283
#
# Poissons Ratio (x) = 0.10405 0.20741
# Poissons Ratio (y) = 0.13253 0.02649
# Poissons Ratio (z) = 0.27958 0.02804
#
# Static dielectric constant tensor:
#      x y z
#    x 3.480730 1.486850 1.012400 
#    y 1.486850 2.790500 -1.459890 
#    z 1.012400 -1.459890 3.617500 
# 
# 
# High freq. dielectric constant tensor:
#      x y z
#    x 1.947810 0.017160 -0.004250 
#    y 0.017160 1.974180 -0.013440 
#    z -0.004250 -0.013440 1.966370 
# 
# From -- ./inp_files/195454.got.cif
#   From: 2010.06.25/outbox.cif.g09.slc.cpg/sg2_98_cif.got.tgz:195454.got - 2010.06.27 13:26:56.
