data_PCOD8036998
_publ_section_title
;
Structure prediction by ZEFSAII (Michael W. Deem and Ramdas Pophale) SiO2 
 PCOD8036998
Probable space group: P -1
;
_chemical_formula_sum "Si O2"
_cell_formula_units_Z 16
_cell_length_a 9.494596
_cell_length_b 26.691906
_cell_length_c 9.034260
_cell_angle_alpha 28.217584
_cell_angle_beta 45.179890
_cell_angle_gamma 40.588785
_cell_volume 699.563374
_symmetry_space_group_name_H-M "P -1"
_symmetry_group_IT_number 2
_symmetry_cell_setting 'triclinic'
loop_
_space_group_symop_operation_xyz
x,y,z
-x,-y,-z
loop_
_atom_site_type_symbol
_atom_site_label
_atom_site_fract_x
_atom_site_fract_y
_atom_site_fract_z
Si Si1 0.934139 0.870455 0.195972
Si Si2 0.892776 0.907961 0.801428
Si Si3 0.502950 0.509797 0.799260
Si Si4 0.474894 0.951438 0.804850
Si Si5 0.583783 0.225942 0.867600
Si Si6 0.903104 0.531160 0.829595
Si Si7 0.041240 0.678268 0.143987
Si Si8 0.862945 0.699625 0.896016
O O1 0.975279 0.751356 0.560118
O O2 0.177922 0.867396 0.013597
O O3 0.764439 0.976541 0.138499
O O4 0.844059 0.873250 0.091063
O O5 0.662848 0.954798 0.763606
O O6 0.000000 0.000000 0.500000
O O7 0.064939 0.793399 0.887582
O O8 0.430482 0.645074 0.469982
O O9 0.730465 0.430861 0.761086
O O10 0.500000 0.500000 0.000000
O O11 0.337265 0.460180 0.988764
O O12 0.500000 0.000000 0.500000
O O13 0.479159 0.822643 0.111739
O O14 0.399146 0.234996 0.102247
O O15 0.901267 0.648273 0.453026
O O16 0.000000 0.500000 0.000000
O O17 0.043004 0.436190 0.852329
O O18 0.915242 0.715410 0.985955
#
# Coordination Sequence:
#
# PCOD8036998 Si02
#       8
#     2   2   2   2   2   2   2   2
#     4  12  26  47  74 108 152 189 247 312 371 431
#     4  12  29  51  74 112 148 195 249 312 374 435
#     4  12  25  43  75 112 145 195 249 297 367 448
#     4  12  25  49  77 105 144 201 247 303 369 442
#     4  12  24  44  77 107 146 194 249 296 366 445
#     4  12  26  45  72 112 153 192 240 305 377 435
#     4  12  25  48  76 104 150 200 247 304 363 448
#     4  12  23  46  77 105 151 196 249 300 364 447
#
# _framework density 22.871409
#
# number of rings (size 3 to 8) (size 9 to 14) (size 15 to 20)
#    0.000    0.000    6.250    3.375    0.000    3.500 
#    2.250    0.000    0.000    0.000    0.000    0.000 
#    0.000    0.000    0.000    0.000    0.000    0.000 
#
# Total GULP energy -198323.577760 kJ/mol
# GULP energy per Si atom -12395.223610 kJ/mol
# Density = 2.281935 g / cm^3
# Si number density = 22.871409 Si / 1000 Ang^3
#
#
#
# Elastic Constant Matrix: (Units=GPa)
#
#
# Indices 1 2 3 4 5 6 
#
# 1 151.2388 37.6878 61.7678 14.6191 -0.1565 -1.4376
# 2 37.6878 130.6172 38.3308 -5.0558 -6.7484 -13.4448
# 3 61.7678 38.3308 110.1128 -0.1314 -6.3077 10.7804
# 4 14.6191 -5.0558 -0.1314 41.7190 9.1618 1.0248
# 5 -0.1565 -6.7484 -6.3077 9.1618 41.7263 10.9156
# 6 -1.4376 -13.4448 10.7804 1.0248 10.9156 52.5955
#
#
#
# Elastic Compliance Matrix: (Units=1/GPa)
#
#
# Indices 1 2 3 4 5 6 
#
# 1 0.009259 -0.001279 -0.004886 -0.003340 -0.000462 0.001089
# 2 -0.001279 0.009185 -0.002758 0.001484 -0.000008 0.002851
# 3 -0.004886 -0.002758 0.013321 0.000993 0.002400 -0.004086
# 4 -0.003340 0.001484 0.000993 0.026545 -0.005644 0.000739
# 5 -0.000462 -0.000008 0.002400 -0.005644 0.027142 -0.006030
# 6 0.001089 0.002851 -0.004086 0.000739 -0.006030 0.021846
#
#
# Mechanical properties :
#
#
# Convention : Reuss Voigt Hill
#
# Bulk Modulus (GPa) = 71.83816 74.17129 73.00473
# Shear Modulus (GPa) = 38.52627 44.15365 41.33996
#
# Velocity S-wave (km/s) = 4.10869 4.39853 4.25608
# Velocity P-wave (km/s) = 7.34753 7.63520 7.49274
#
# Compressibility (1/GPa) = 0.01392018
#
# Stress axis : x y z
#
# Youngs Moduli (GPa) = 108.00532 108.87658 75.07028
#
# Poissons Ratio (x) = 0.13924 0.36676
# Poissons Ratio (y) = 0.13813 0.20702
# Poissons Ratio (z) = 0.52767 0.30024
#
# Static dielectric constant tensor:
#      x y z
#    x 4.147220 0.019700 -0.151750 
#    y 0.019700 4.628020 -0.301250 
#    z -0.151750 -0.301250 4.277910 
# 
# 
# High freq. dielectric constant tensor:
#      x y z
#    x 1.902680 -0.007290 -0.004430 
#    y -0.007290 1.918700 -0.004470 
#    z -0.004430 -0.004470 1.908710 
# 
# From -- ./inp_files/225814.got.cif
#   From: 2010.06.25/outbox.cif.g09.slc.cpg/sg2_113_cif.got.tgz:225814.got - 2010.06.27 13:26:56.
