data_PCOD8036685
_publ_section_title
;
Structure prediction by ZEFSAII (Michael W. Deem and Ramdas Pophale) SiO2 
 PCOD8036685
Probable space group: P -1
;
_chemical_formula_sum "Si O2"
_cell_formula_units_Z 12
_cell_length_a 9.988519
_cell_length_b 12.778947
_cell_length_c 8.362063
_cell_angle_alpha 119.960812
_cell_angle_beta 101.844403
_cell_angle_gamma 35.746122
_cell_volume 496.218906
_symmetry_space_group_name_H-M "P -1"
_symmetry_group_IT_number 2
_symmetry_cell_setting 'triclinic'
loop_
_space_group_symop_operation_xyz
x,y,z
-x,-y,-z
loop_
_atom_site_type_symbol
_atom_site_label
_atom_site_fract_x
_atom_site_fract_y
_atom_site_fract_z
Si Si1 0.447971 0.208835 0.701732
Si Si2 0.000011 0.571447 0.390887
Si Si3 0.571430 0.579028 0.636851
Si Si4 0.676802 0.460967 0.926660
Si Si5 0.782517 0.988348 0.326681
Si Si6 0.344890 0.166434 0.947064
O O1 0.527539 0.096097 0.807855
O O2 0.287279 0.221811 0.580154
O O3 0.681574 0.076842 0.550442
O O4 0.284391 0.450954 0.881019
O O5 0.139240 0.597883 0.472838
O O6 0.000000 0.500000 0.500000
O O7 0.148552 0.404782 0.151622
O O8 0.500000 0.500000 0.500000
O O9 0.543332 0.602853 0.838761
O O10 0.383176 0.814803 0.690486
O O11 0.924526 0.197161 0.749366
O O12 0.500000 0.500000 0.000000
O O13 0.796606 0.836853 0.175978
O O14 0.500000 0.000000 0.000000
#
# Coordination Sequence:
#
# PCOD8036685 Si02
#       6
#     2   2   2   2   2   2
#     4  12  24  47  74 111 153 194 253 321 375 446
#     4  12  23  44  76 110 149 194 248 315 371 438
#     4  12  27  49  75 110 157 201 252 311 380 453
#     4  12  28  49  76 107 156 203 253 316 379 457
#     4  12  26  48  77 110 147 200 256 309 386 451
#     4  12  22  42  73 113 147 190 250 315 380 444
#
# _framework density 24.182876
#
# number of rings (size 3 to 8) (size 9 to 14) (size 15 to 20)
#    0.000    0.000    6.667    3.000    0.000    4.667 
#    0.000    0.000    0.000    0.000    0.000    0.000 
#    0.000    0.000    0.000    0.000    0.000    0.000 
#
# Total GULP energy -148703.028195 kJ/mol
# GULP energy per Si atom -12391.919016 kJ/mol
# Density = 2.412783 g / cm^3
# Si number density = 24.182876 Si / 1000 Ang^3
#
#
#
# Elastic Constant Matrix: (Units=GPa)
#
#
# Indices 1 2 3 4 5 6 
#
# 1 174.1912 50.6979 59.4606 -9.9931 -20.4227 -1.1077
# 2 50.6979 128.1511 43.7849 -9.3799 -36.5445 7.1165
# 3 59.4606 43.7849 129.2038 -7.9921 -27.6541 -3.1697
# 4 -9.9931 -9.3799 -7.9921 41.1400 6.5836 -11.1211
# 5 -20.4227 -36.5445 -27.6541 6.5836 62.4444 -9.9778
# 6 -1.1077 7.1165 -3.1697 -11.1211 -9.9778 36.7530
#
#
#
# Elastic Compliance Matrix: (Units=1/GPa)
#
#
# Indices 1 2 3 4 5 6 
#
# 1 0.007257 -0.001922 -0.002586 0.000993 0.000110 0.000698
# 2 -0.001922 0.010543 -0.001682 0.000659 0.004599 -0.000796
# 3 -0.002586 -0.001682 0.010258 0.001123 0.002958 0.002275
# 4 0.000993 0.000659 0.001123 0.027170 -0.000359 0.008123
# 5 0.000110 0.004599 0.002958 -0.000359 0.020877 0.004927
# 6 0.000698 -0.000796 0.002275 0.008123 0.004927 0.031376
#
#
# Mechanical properties :
#
#
# Convention : Reuss Voigt Hill
#
# Bulk Modulus (GPa) = 63.78978 82.15921 72.97449
# Shear Modulus (GPa) = 39.97158 46.57433 43.27296
#
# Velocity S-wave (km/s) = 4.06998 4.39329 4.23473
# Velocity P-wave (km/s) = 6.96575 7.73192 7.35881
#
# Compressibility (1/GPa) = 0.01567649
#
# Stress axis : x y z
#
# Youngs Moduli (GPa) = 137.78919 94.85339 97.48031
#
# Poissons Ratio (x) = 0.18232 0.25213
# Poissons Ratio (y) = 0.26484 0.16401
# Poissons Ratio (z) = 0.35638 0.15959
#
# Static dielectric constant tensor:
#      x y z
#    x 4.748960 0.062590 0.045090 
#    y 0.062590 4.394920 -0.317060 
#    z 0.045090 -0.317060 4.473240 
# 
# 
# High freq. dielectric constant tensor:
#      x y z
#    x 1.968590 0.014960 -0.008100 
#    y 0.014960 1.955540 -0.012570 
#    z -0.008100 -0.012570 1.971270 
# 
# From -- ./inp_files/183877.got.cif
#   From: 2010.06.25/outbox.cif.g09.slc.cpg/sg2_92_cif.got.tgz:183877.got - 2010.06.27 13:26:56.
