data_PCOD8036632
_publ_section_title
;
Structure prediction by ZEFSAII (Michael W. Deem and Ramdas Pophale) SiO2 
 PCOD8036632
Probable space group: P -1
;
_chemical_formula_sum "Si O2"
_cell_formula_units_Z 16
_cell_length_a 11.969839
_cell_length_b 13.915522
_cell_length_c 9.169256
_cell_angle_alpha 103.791384
_cell_angle_beta 117.434950
_cell_angle_gamma 128.428236
_cell_volume 696.639559
_symmetry_space_group_name_H-M "P -1"
_symmetry_group_IT_number 2
_symmetry_cell_setting 'triclinic'
loop_
_space_group_symop_operation_xyz
x,y,z
-x,-y,-z
loop_
_atom_site_type_symbol
_atom_site_label
_atom_site_fract_x
_atom_site_fract_y
_atom_site_fract_z
Si Si1 0.255836 0.289359 0.320024
Si Si2 0.735421 0.211192 0.148798
Si Si3 0.880100 0.113744 0.806023
Si Si4 0.474927 0.234927 0.387979
Si Si5 0.850290 0.650551 0.449800
Si Si6 0.098557 0.957533 0.519579
Si Si7 0.987623 0.396505 0.063016
Si Si8 0.481740 0.741005 0.902146
O O1 0.500000 0.500000 0.500000
O O2 0.314469 0.213779 0.357490
O O3 0.159005 0.276141 0.401202
O O4 0.069435 0.179811 0.039217
O O5 0.731360 0.321011 0.243893
O O6 0.955227 0.301794 0.381827
O O7 0.782048 0.253185 0.013906
O O8 0.500000 0.000000 0.000000
O O9 0.849520 0.034498 0.610467
O O10 0.949527 0.275454 0.892315
O O11 0.615894 0.927690 0.652303
O O12 0.395864 0.175156 0.151031
O O13 0.756422 0.441250 0.644938
O O14 0.606965 0.430369 0.189698
O O15 0.905037 0.747498 0.373154
O O16 0.000000 0.000000 0.500000
O O17 0.336881 0.103940 0.808999
O O18 0.000000 0.500000 0.000000
#
# Coordination Sequence:
#
# PCOD8036632 Si02
#       8
#     2   2   2   2   2   2   2   2
#     4  12  21  48  78 107 142 190 255 306 361 450
#     4  12  24  49  79 106 146 194 256 307 364 454
#     4  12  26  47  73 109 150 193 242 309 378 436
#     4  12  25  46  82 108 143 196 251 306 371 445
#     4  12  25  47  77 106 142 198 248 303 366 445
#     4  12  29  46  68 112 154 191 240 305 378 442
#     4  12  29  49  75 114 152 192 254 316 382 434
#     4  12  25  45  75 105 145 193 250 296 368 441
#
# _framework density 22.967400000000001
#
# number of rings (size 3 to 8) (size 9 to 14) (size 15 to 20)
#    0.000    0.000    6.250    3.750    3.500    1.000 
#    0.000    0.000    0.000    0.000    0.000    0.000 
#    0.000    0.000    0.000    0.000    0.000    0.000 
#
# Total GULP energy -198302.187343 kJ/mol
# GULP energy per Si atom -12393.886709 kJ/mol
# Density = 2.291512 g / cm^3
# Si number density = 22.967400 Si / 1000 Ang^3
#
#
#
# Elastic Constant Matrix: (Units=GPa)
#
#
# Indices 1 2 3 4 5 6 
#
# 1 113.9266 36.3400 33.0229 10.6089 -5.5052 -9.4940
# 2 36.3400 164.2941 40.9519 14.1588 -9.6942 7.8123
# 3 33.0229 40.9519 90.5482 14.1843 -25.4420 14.6708
# 4 10.6089 14.1588 14.1843 18.3701 -3.6306 2.5675
# 5 -5.5052 -9.6942 -25.4420 -3.6306 31.2151 1.1982
# 6 -9.4940 7.8123 14.6708 2.5675 1.1982 39.3146
#
#
#
# Elastic Compliance Matrix: (Units=1/GPa)
#
#
# Indices 1 2 3 4 5 6 
#
# 1 0.011103 -0.001475 -0.004451 -0.003054 -0.002672 0.004916
# 2 -0.001475 0.007241 -0.002173 -0.002961 -0.000096 -0.000788
# 3 -0.004451 -0.002173 0.020176 -0.007342 0.014443 -0.008133
# 4 -0.003054 -0.002961 -0.007342 0.064399 0.000110 -0.001618
# 5 -0.002672 -0.000096 0.014443 0.000110 0.043601 -0.007352
# 6 0.004916 -0.000788 -0.008133 -0.001618 -0.007352 0.030144
#
#
# Mechanical properties :
#
#
# Convention : Reuss Voigt Hill
#
# Bulk Modulus (GPa) = 44.79673 65.48872 55.14272
# Shear Modulus (GPa) = 24.96213 35.01022 29.98618
#
# Velocity S-wave (km/s) = 3.30032 3.90852 3.61723
# Velocity P-wave (km/s) = 5.83692 6.99603 6.44259
#
# Compressibility (1/GPa) = 0.02232306
#
# Stress axis : x y z
#
# Youngs Moduli (GPa) = 90.06451 138.09558 49.56424
#
# Poissons Ratio (x) = 0.20364 0.22062
# Poissons Ratio (y) = 0.13281 0.10769
# Poissons Ratio (z) = 0.40090 0.30005
#
# Static dielectric constant tensor:
#      x y z
#    x 4.341780 -0.004920 0.085130 
#    y -0.004920 4.588690 0.225320 
#    z 0.085130 0.225320 4.040890 
# 
# 
# High freq. dielectric constant tensor:
#      x y z
#    x 1.918820 -0.001700 -0.008660 
#    y -0.001700 1.925660 0.017080 
#    z -0.008660 0.017080 1.901730 
# 
# From -- ./inp_files/273866.got.cif
#   From: 2010.06.25/outbox.cif.g09.slc.cpg/sg2_137_cif.got.tgz:273866.got - 2010.06.27 13:26:56.
