data_PCOD8036693
_publ_section_title
;
Structure prediction by ZEFSAII (Michael W. Deem and Ramdas Pophale) SiO2 
 PCOD8036693
Probable space group: P -1
;
_chemical_formula_sum "Si O2"
_cell_formula_units_Z 14
_cell_length_a 20.867534
_cell_length_b 11.656880
_cell_length_c 5.563530
_cell_angle_alpha 58.983008
_cell_angle_beta 108.194434
_cell_angle_gamma 151.241550
_cell_volume 525.110071
_symmetry_space_group_name_H-M "P -1"
_symmetry_group_IT_number 2
_symmetry_cell_setting 'triclinic'
loop_
_space_group_symop_operation_xyz
x,y,z
-x,-y,-z
loop_
_atom_site_type_symbol
_atom_site_label
_atom_site_fract_x
_atom_site_fract_y
_atom_site_fract_z
Si Si1 0.142336 0.969278 0.738683
Si Si2 0.433226 0.658979 0.854462
Si Si3 0.838948 0.231142 0.674422
Si Si4 0.626583 0.715213 0.649099
Si Si5 0.852495 0.766391 0.209746
Si Si6 0.432968 0.111625 0.739111
Si Si7 0.832927 0.453530 0.746285
O O1 0.993274 0.693801 0.731985
O O2 0.273101 0.218262 0.442289
O O3 0.134217 0.075439 0.798030
O O4 0.184719 0.904409 0.979699
O O5 0.271621 0.429006 0.917911
O O6 0.499493 0.826309 0.497291
O O7 0.455569 0.533199 0.003827
O O8 0.501313 0.834176 0.993082
O O9 0.796074 0.307194 0.617729
O O10 0.000000 0.500000 0.500000
O O11 0.730847 0.003049 0.588024
O O12 0.538518 0.673975 0.435677
O O13 0.817193 0.583660 0.544820
O O14 0.000000 0.000000 0.000000
O O15 0.270153 0.776377 0.912359
#
# Coordination Sequence:
#
# PCOD8036693 Si02
#       7
#     2   2   2   2   2   2   2
#     4  12  24  47  78 116 152 200 264 324 394 460
#     4  12  28  51  78 112 158 213 266 318 390 483
#     4  12  22  42  74 116 157 191 255 331 393 445
#     4  12  24  47  79 115 158 201 267 327 394 458
#     4  12  28  52  80 114 154 207 263 326 399 474
#     4  12  28  48  79 116 160 212 260 326 390 471
#     4  12  26  47  75 120 161 206 258 325 397 465
#
# _framework density 26.661076999999999
#
# number of rings (size 3 to 8) (size 9 to 14) (size 15 to 20)
#    0.000    0.000    4.286    6.000    0.000    3.429 
#    0.000    0.000    0.000    0.000    0.000    0.000 
#    0.000    0.000    0.000    0.000    0.000    0.000 
#
# Total GULP energy -173605.292127 kJ/mol
# GULP energy per Si atom -12400.378009 kJ/mol
# Density = 2.660040 g / cm^3
# Si number density = 26.661077 Si / 1000 Ang^3
#
#
#
# Elastic Constant Matrix: (Units=GPa)
#
#
# Indices 1 2 3 4 5 6 
#
# 1 -14.4148 79.5540 7.1820 33.4049 0.1255 54.5307
# 2 79.5540 49.7458 45.4128 -8.8274 -25.1526 -4.4366
# 3 7.1820 45.4128 127.6963 6.9452 -5.5978 17.6556
# 4 33.4049 -8.8274 6.9452 33.9933 -11.7823 -11.7889
# 5 0.1255 -25.1526 -5.5978 -11.7823 43.3801 -0.4709
# 6 54.5307 -4.4366 17.6556 -11.7889 -0.4709 21.2010
#
#
#
# Elastic Compliance Matrix: (Units=1/GPa)
#
#
# Indices 1 2 3 4 5 6 
#
# 1 0.000417 0.006282 -0.003213 0.005707 0.004844 0.006200
# 2 0.006282 0.013115 -0.002551 -0.005125 0.005713 -0.014011
# 3 -0.003213 -0.002551 0.008711 0.001071 -0.000043 0.001069
# 4 0.005707 -0.005125 0.001071 0.021747 0.003008 -0.004485
# 5 0.004844 0.005713 -0.000043 0.003008 0.027065 -0.008953
# 6 0.006200 -0.014011 0.001069 -0.004485 -0.008953 0.024706
#
#
# Mechanical properties :
#
#
# Convention : Reuss Voigt Hill
#
# Bulk Modulus (GPa) = 42.95826 47.48055 45.21941
# Shear Modulus (GPa) = 48.78821 21.77343 35.28082
#
# Velocity S-wave (km/s) = 4.28242 2.86085 3.64168
# Velocity P-wave (km/s) = 6.37180 5.36286 5.88898
#
# Compressibility (1/GPa) = 0.02327841
#
# Stress axis : x y z
#
# Youngs Moduli (GPa) = 2400.95231 76.24802 114.79710
#
# Poissons Ratio (x) = -0.47896 0.36880
# Poissons Ratio (y) = -15.08198 0.29286
# Poissons Ratio (z) = 7.71345 0.19452
#
# Static dielectric constant tensor:
#      x y z
#    x 4.684030 0.063230 0.142850 
#    y 0.063230 4.438610 -0.228470 
#    z 0.142850 -0.228470 5.163700 
# 
# 
# High freq. dielectric constant tensor:
#      x y z
#    x 2.066140 0.010530 -0.002840 
#    y 0.010530 2.090470 -0.004390 
#    z -0.002840 -0.004390 2.082720 
# 
# From -- ./inp_files/118546.got.cif
#   From: 2010.06.25/outbox.cif.g09.slc.cpg/sg2_60_cif.got.tgz:118546.got - 2010.06.27 13:26:56.
