data_PCOD8036916
_publ_section_title
;
Structure prediction by ZEFSAII (Michael W. Deem and Ramdas Pophale) SiO2 
 PCOD8036916
Probable space group: P -1
;
_chemical_formula_sum "Si O2"
_cell_formula_units_Z 16
_cell_length_a 18.066008
_cell_length_b 8.545221
_cell_length_c 19.553534
_cell_angle_alpha 40.424520
_cell_angle_beta 22.101594
_cell_angle_gamma 42.120854
_cell_volume 728.232840
_symmetry_space_group_name_H-M "P -1"
_symmetry_group_IT_number 2
_symmetry_cell_setting 'triclinic'
loop_
_space_group_symop_operation_xyz
x,y,z
-x,-y,-z
loop_
_atom_site_type_symbol
_atom_site_label
_atom_site_fract_x
_atom_site_fract_y
_atom_site_fract_z
Si Si1 0.960550 0.725415 0.636546
Si Si2 0.897174 0.285798 0.129495
Si Si3 0.778056 0.462774 0.407931
Si Si4 0.743926 0.894819 0.195277
Si Si5 0.666671 0.099153 0.514311
Si Si6 0.179086 0.463204 0.412809
Si Si7 0.457293 0.280642 0.960736
Si Si8 0.398229 0.610116 0.771143
O O1 0.023047 0.649568 0.685472
O O2 0.089774 0.542064 0.536142
O O3 0.730169 0.690277 0.836616
O O4 0.000000 0.000000 0.500000
O O5 0.781275 0.162455 0.327616
O O6 0.754047 0.416731 0.150077
O O7 0.066060 0.072061 0.025607
O O8 0.000000 0.500000 0.000000
O O9 0.831062 0.672538 0.243544
O O10 0.711282 0.243904 0.494876
O O11 0.616097 0.579425 0.562488
O O12 0.568025 0.823175 0.322690
O O13 0.655574 0.124491 0.238707
O O14 0.719870 0.814993 0.579688
O O15 0.356415 0.623962 0.192489
O O16 0.000000 0.500000 0.500000
O O17 0.396190 0.414161 0.897413
O O18 0.500000 0.000000 0.000000
#
# Coordination Sequence:
#
# PCOD8036916 Si02
#       8
#     2   2   2   2   2   2   2   2
#     4  12  25  48  75 105 142 193 244 299 364 433
#     4  12  26  43  68 107 147 194 235 293 367 435
#     4  12  23  44  75 101 145 197 231 301 363 434
#     4  12  24  45  69 104 144 188 242 292 363 431
#     4  12  26  45  69 104 151 186 242 298 369 434
#     4  12  28  49  75 110 144 187 246 311 368 433
#     4  12  26  48  76 107 140 191 248 298 365 440
#     4  12  25  44  72 107 142 185 247 298 356 437
#
# _framework density 21.970994999999998
#
# number of rings (size 3 to 8) (size 9 to 14) (size 15 to 20)
#    0.000    0.000    6.250    3.375    3.500    0.500 
#    0.000    1.250    0.000    0.000    0.000    0.000 
#    0.000    0.000    0.000    0.000    0.000    0.000 
#
# Total GULP energy -198438.619018 kJ/mol
# GULP energy per Si atom -12402.413689 kJ/mol
# Density = 2.192099 g / cm^3
# Si number density = 21.970995 Si / 1000 Ang^3
#
#
#
# Elastic Constant Matrix: (Units=GPa)
#
#
# Indices 1 2 3 4 5 6 
#
# 1 111.4114 32.3229 33.1608 -4.2152 -28.6487 -10.5223
# 2 32.3229 120.6506 20.1342 -7.6912 -7.0789 -3.7823
# 3 33.1608 20.1342 130.0326 14.4477 -21.0666 -13.3644
# 4 -4.2152 -7.6912 14.4477 38.1871 7.5921 4.5639
# 5 -28.6487 -7.0789 -21.0666 7.5921 32.3663 4.2624
# 6 -10.5223 -3.7823 -13.3644 4.5639 4.2624 40.4118
#
#
#
# Elastic Compliance Matrix: (Units=1/GPa)
#
#
# Indices 1 2 3 4 5 6 
#
# 1 0.012757 -0.002682 -0.000897 -0.001022 0.010121 0.001822
# 2 -0.002682 0.009275 -0.001350 0.002476 -0.001756 -0.000371
# 3 -0.000897 -0.001350 0.010134 -0.005850 0.006488 0.002968
# 4 -0.001022 0.002476 -0.005850 0.031491 -0.010983 -0.004367
# 5 0.010121 -0.001756 0.006488 -0.010983 0.046139 0.000990
# 6 0.001822 -0.000371 0.002968 -0.004367 0.000990 0.026555
#
#
# Mechanical properties :
#
#
# Convention : Reuss Voigt Hill
#
# Bulk Modulus (GPa) = 44.82790 59.25895 52.04343
# Shear Modulus (GPa) = 32.54207 40.62481 36.58344
#
# Velocity S-wave (km/s) = 3.85273 4.30469 4.08496
# Velocity P-wave (km/s) = 6.34341 7.19285 6.78145
#
# Compressibility (1/GPa) = 0.02230754
#
# Stress axis : x y z
#
# Youngs Moduli (GPa) = 78.38904 107.81177 98.67419
#
# Poissons Ratio (x) = 0.28916 0.08856
# Poissons Ratio (y) = 0.21025 0.13321
# Poissons Ratio (z) = 0.07035 0.14555
#
# Static dielectric constant tensor:
#      x y z
#    x 4.361890 -0.180750 0.080830 
#    y -0.180750 4.266590 -0.134840 
#    z 0.080830 -0.134840 5.131430 
# 
# 
# High freq. dielectric constant tensor:
#      x y z
#    x 1.869430 0.001350 -0.006470 
#    y 0.001350 1.877980 0.011670 
#    z -0.006470 0.011670 1.879200 
# 
# From -- ./inp_files/278735.got.cif
#   From: 2010.06.25/outbox.cif.g09.slc.cpg/sg2_140_cif.got.tgz:278735.got - 2010.06.27 13:26:56.
