data_PCOD8036354
_publ_section_title
;
Structure prediction by ZEFSAII (Michael W. Deem and Ramdas Pophale) SiO2 
 PCOD8036354
Probable space group: P -1
;
_chemical_formula_sum "Si O2"
_cell_formula_units_Z 16
_cell_length_a 15.752215
_cell_length_b 14.590399
_cell_length_c 15.556131
_cell_angle_alpha 151.873878
_cell_angle_beta 152.853970
_cell_angle_gamma 46.341101
_cell_volume 690.970687
_symmetry_space_group_name_H-M "P -1"
_symmetry_group_IT_number 2
_symmetry_cell_setting 'triclinic'
loop_
_space_group_symop_operation_xyz
x,y,z
-x,-y,-z
loop_
_atom_site_type_symbol
_atom_site_label
_atom_site_fract_x
_atom_site_fract_y
_atom_site_fract_z
Si Si1 0.214880 0.774237 0.612135
Si Si2 0.823090 0.818382 0.313790
Si Si3 0.967402 0.697273 0.669624
Si Si4 0.239583 0.139895 0.519364
Si Si5 0.465880 0.640693 0.393937
Si Si6 0.619290 0.115417 0.330295
Si Si7 0.564502 0.011642 0.665199
Si Si8 0.900605 0.676203 0.791117
O O1 0.318512 0.768351 0.609671
O O2 0.083031 0.533626 0.330352
O O3 0.056466 0.880533 0.545461
O O4 0.390863 0.915816 0.955932
O O5 0.804694 0.764502 0.354240
O O6 0.781316 0.025595 0.430996
O O7 0.663666 0.613484 0.947842
O O8 0.800830 0.735958 0.494287
O O9 0.882009 0.657132 0.655643
O O10 0.000000 0.500000 0.500000
O O11 0.189726 0.905402 0.035257
O O12 0.478118 0.172034 0.763460
O O13 0.101682 0.883143 0.173764
O O14 0.376380 0.707207 0.451891
O O15 0.701639 0.688099 0.662888
O O16 0.453152 0.775499 0.411701
O O17 0.500000 0.000000 0.500000
#
# Coordination Sequence:
#
# PCOD8036354 Si02
#       8
#     2   2   2   2   2   2   2   2
#     4  11  26  48  78 103 144 184 239 294 364 425
#     4  12  26  47  75 108 141 187 241 294 358 423
#     4  12  28  43  69 104 146 190 238 288 354 422
#     4  12  25  45  71 101 144 191 233 292 352 418
#     4  12  26  46  76 103 150 185 236 299 351 424
#     4  11  26  52  72 108 141 188 236 300 358 424
#     4  12  25  45  70 102 143 187 239 288 345 423
#     4  12  24  48  71 105 144 191 236 294 357 422
#
# _framework density 23.155829000000001
#
# number of rings (size 3 to 8) (size 9 to 14) (size 15 to 20)
#    0.000    0.250    5.000    3.750    5.250    1.500 
#    2.250    0.000    0.000    0.000    0.000    0.000 
#    0.000    0.000    0.000    0.000    0.000    0.000 
#
# Total GULP energy -198521.130064 kJ/mol
# GULP energy per Si atom -12407.570629 kJ/mol
# Density = 2.310313 g / cm^3
# Si number density = 23.155829 Si / 1000 Ang^3
#
#
#
# Elastic Constant Matrix: (Units=GPa)
#
#
# Indices 1 2 3 4 5 6 
#
# 1 119.2489 18.5155 26.9438 8.5501 -15.4378 -7.7193
# 2 18.5155 97.3777 18.5020 -5.0172 2.8459 -13.7494
# 3 26.9438 18.5020 39.9665 8.7845 -10.5602 1.7356
# 4 8.5501 -5.0172 8.7845 38.1639 -8.6339 2.3711
# 5 -15.4378 2.8459 -10.5602 -8.6339 38.7857 -2.9664
# 6 -7.7193 -13.7494 1.7356 2.3711 -2.9664 43.1056
#
#
#
# Elastic Compliance Matrix: (Units=1/GPa)
#
#
# Indices 1 2 3 4 5 6 
#
# 1 0.010342 -0.000643 -0.005959 -0.000578 0.002573 0.002096
# 2 -0.000643 0.012373 -0.006578 0.002575 -0.002090 0.003811
# 3 -0.005959 -0.006578 0.035172 -0.006018 0.006055 -0.003834
# 4 -0.000578 0.002575 -0.006018 0.029070 0.004388 -0.000337
# 5 0.002573 -0.002090 0.006055 0.004388 0.029689 0.001352
# 6 0.002096 0.003811 -0.003834 -0.000337 0.001352 0.025056
#
#
# Mechanical properties :
#
#
# Convention : Reuss Voigt Hill
#
# Bulk Modulus (GPa) = 31.71832 42.72397 37.22114
# Shear Modulus (GPa) = 28.00005 36.85318 32.42662
#
# Velocity S-wave (km/s) = 3.48113 3.99373 3.74621
# Velocity P-wave (km/s) = 5.46673 6.30533 5.90095
#
# Compressibility (1/GPa) = 0.03152752
#
# Stress axis : x y z
#
# Youngs Moduli (GPa) = 96.69096 80.81880 28.43159
#
# Poissons Ratio (x) = 0.05200 0.16941
# Poissons Ratio (y) = 0.06221 0.18703
# Poissons Ratio (z) = 0.57613 0.53164
#
# Static dielectric constant tensor:
#      x y z
#    x 4.516930 -0.225140 0.258890 
#    y -0.225140 4.266860 -0.175170 
#    z 0.258890 -0.175170 4.284280 
# 
# 
# High freq. dielectric constant tensor:
#      x y z
#    x 1.926440 -0.010500 0.001130 
#    y -0.010500 1.929850 -0.009190 
#    z 0.001130 -0.009190 1.904350 
# 
# From -- ./inp_files/505047.got.cif
#   From: 2010.06.25/outbox.cif.g09.slc.cpg/sg2_253_cif.got.tgz:505047.got - 2010.06.27 13:26:56.
