data_PCOD8036217
_publ_section_title
;
Structure prediction by ZEFSAII (Michael W. Deem and Ramdas Pophale) SiO2 
 PCOD8036217
Probable space group: P -1
;
_chemical_formula_sum "Si O2"
_cell_formula_units_Z 14
_cell_length_a 19.403122
_cell_length_b 9.352406
_cell_length_c 5.162372
_cell_angle_alpha 94.481967
_cell_angle_beta 87.300483
_cell_angle_gamma 145.831856
_cell_volume 524.258775
_symmetry_space_group_name_H-M "P -1"
_symmetry_group_IT_number 2
_symmetry_cell_setting 'triclinic'
loop_
_space_group_symop_operation_xyz
x,y,z
-x,-y,-z
loop_
_atom_site_type_symbol
_atom_site_label
_atom_site_fract_x
_atom_site_fract_y
_atom_site_fract_z
Si Si1 0.945647 0.173792 0.840596
Si Si2 0.407939 0.496140 0.267848
Si Si3 0.190320 0.330150 0.205470
Si Si4 0.427229 0.020290 0.967475
Si Si5 0.201331 0.531385 0.724743
Si Si6 0.879833 0.212033 0.381614
Si Si7 0.358887 0.107775 0.377143
O O1 0.870691 0.067888 0.571866
O O2 0.092141 0.453523 0.816904
O O3 0.925884 0.972306 0.882692
O O4 0.895064 0.187455 0.080882
O O5 0.299317 0.422445 0.319467
O O6 0.354676 0.243413 0.209623
O O7 0.503004 0.662821 0.509303
O O8 0.482472 0.687499 0.036688
O O9 0.156206 0.384214 0.443754
O O10 0.227405 0.467127 0.948910
O O11 0.334563 0.838131 0.712256
O O12 0.500000 0.000000 0.000000
O O13 0.338699 0.922568 0.202014
O O14 0.000000 0.500000 0.500000
O O15 0.750957 0.076282 0.415094
#
# Coordination Sequence:
#
# PCOD8036217 Si02
#       7
#     2   2   2   2   2   2   2
#     4  12  26  48  75 108 150 197 252 308 372 448
#     4  11  26  46  75 105 153 196 259 296 382 445
#     4  12  25  48  75 109 153 197 251 303 378 452
#     4  12  26  46  75 110 153 194 249 316 380 444
#     4  12  27  45  77 111 152 194 247 315 376 439
#     4  12  27  47  75 109 150 196 252 310 370 444
#     4  11  27  47  75 108 149 206 246 312 373 456
#
# _framework density 26.704366
#
# number of rings (size 3 to 8) (size 9 to 14) (size 15 to 20)
#    0.000    0.286    2.857    5.143    6.000    2.286 
#    0.000    0.000    0.000    0.000    0.000    0.000 
#    0.000    0.000    0.000    0.000    0.000    0.000 
#
# Total GULP energy -173491.484559 kJ/mol
# GULP energy per Si atom -12392.248897 kJ/mol
# Density = 2.664359 g / cm^3
# Si number density = 26.704366 Si / 1000 Ang^3
#
#
#
# Elastic Constant Matrix: (Units=GPa)
#
#
# Indices 1 2 3 4 5 6 
#
# 1 109.2828 -6.7827 17.2407 -12.3918 -16.8378 8.5611
# 2 -6.7827 89.3675 6.7595 -4.7524 -24.0669 13.1623
# 3 17.2407 6.7595 108.6099 -3.4643 -26.3285 -9.1436
# 4 -12.3918 -4.7524 -3.4643 33.6129 -1.9769 -2.8809
# 5 -16.8378 -24.0669 -26.3285 -1.9769 53.9539 2.5790
# 6 8.5611 13.1623 -9.1436 -2.8809 2.5790 30.8466
#
#
#
# Elastic Compliance Matrix: (Units=1/GPa)
#
#
# Indices 1 2 3 4 5 6 
#
# 1 0.011096 0.003116 -0.001074 0.004293 0.004712 -0.004720
# 2 0.003116 0.014889 -0.000003 0.003077 0.008089 -0.007607
# 3 -0.001074 -0.000003 0.010869 0.001287 0.004860 0.003235
# 4 0.004293 0.003077 0.001287 0.032209 0.004496 0.000509
# 5 0.004712 0.008089 0.004860 0.004496 0.026393 -0.005105
# 6 -0.004720 -0.007607 0.003235 0.000509 -0.005105 0.038408
#
#
# Mechanical properties :
#
#
# Convention : Reuss Voigt Hill
#
# Bulk Modulus (GPa) = 24.43014 37.96612 31.19813
# Shear Modulus (GPa) = 34.86022 43.01885 38.93953
#
# Velocity S-wave (km/s) = 3.61697 4.01799 3.82274
# Velocity P-wave (km/s) = 5.15864 5.98112 5.58504
#
# Compressibility (1/GPa) = 0.04093304
#
# Stress axis : x y z
#
# Youngs Moduli (GPa) = 90.12396 67.16442 92.00075
#
# Poissons Ratio (x) = -0.20926 0.09877
# Poissons Ratio (y) = -0.28080 0.00025
# Poissons Ratio (z) = 0.09675 0.00018
#
# Static dielectric constant tensor:
#      x y z
#    x 5.151270 -0.231260 0.323670 
#    y -0.231260 5.324830 -0.327210 
#    z 0.323670 -0.327210 4.655030 
# 
# 
# High freq. dielectric constant tensor:
#      x y z
#    x 2.094320 0.002170 0.010770 
#    y 0.002170 2.093070 -0.013200 
#    z 0.010770 -0.013200 2.054760 
# 
# From -- ./inp_files/72583.got.cif
#   From: 2010.06.25/outbox.cif.g09.slc.cpg/sg2_37_cif.got.tgz:72583.got - 2010.06.27 13:26:56.
