data_PCOD8036611
_publ_section_title
;
Structure prediction by ZEFSAII (Michael W. Deem and Ramdas Pophale) SiO2 
 PCOD8036611
Probable space group: P -1
;
_chemical_formula_sum "Si O2"
_cell_formula_units_Z 14
_cell_length_a 11.236586
_cell_length_b 14.469138
_cell_length_c 8.616655
_cell_angle_alpha 125.547925
_cell_angle_beta 62.011782
_cell_angle_gamma 147.599377
_cell_volume 610.016188
_symmetry_space_group_name_H-M "P -1"
_symmetry_group_IT_number 2
_symmetry_cell_setting 'triclinic'
loop_
_space_group_symop_operation_xyz
x,y,z
-x,-y,-z
loop_
_atom_site_type_symbol
_atom_site_label
_atom_site_fract_x
_atom_site_fract_y
_atom_site_fract_z
Si Si1 0.521255 0.882645 0.853845
Si Si2 0.937182 0.205976 0.551022
Si Si3 0.335951 0.564905 0.133598
Si Si4 0.231226 0.690278 0.118717
Si Si5 0.816409 0.456704 0.489411
Si Si6 0.971007 0.824131 0.219728
Si Si7 0.162970 0.082077 0.835759
O O1 0.379063 0.750451 0.663196
O O2 0.771063 0.010121 0.815073
O O3 0.421232 0.769155 0.965853
O O4 0.500000 0.000000 0.000000
O O5 0.755993 0.163996 0.713105
O O6 0.068062 0.218533 0.612880
O O7 0.090695 0.401214 0.564538
O O8 0.833625 0.050733 0.335436
O O9 0.262805 0.644143 0.213971
O O10 0.300540 0.535409 0.310873
O O11 0.589625 0.710049 0.069515
O O12 0.171431 0.366583 0.963360
O O13 0.000000 0.500000 0.000000
O O14 0.000000 0.500000 0.500000
O O15 0.901302 0.899200 0.268070
O O16 0.000000 0.000000 0.000000
#
# Coordination Sequence:
#
# PCOD8036611 Si02
#       7
#     2   2   2   2   2   2   2
#     4  12  23  40  72 104 144 188 235 294 358 433
#     4  12  25  46  72 103 144 186 237 289 359 433
#     4  12  25  46  75 103 146 185 238 307 359 416
#     4  12  21  44  71 108 143 183 231 297 368 426
#     4  12  24  42  70 114 146 181 230 297 369 420
#     4  12  25  49  72 102 146 195 243 285 353 439
#     4  12  29  51  71 103 143 195 245 298 352 420
#
# _framework density 22.950209999999998
#
# number of rings (size 3 to 8) (size 9 to 14) (size 15 to 20)
#    0.000    0.000    5.714    4.286    0.000    1.714 
#    0.000    2.143    0.000    0.000    0.000    0.000 
#    0.000    0.000    0.000    0.000    0.000    0.000 
#
# Total GULP energy -173558.477270 kJ/mol
# GULP energy per Si atom -12397.034091 kJ/mol
# Density = 2.289797 g / cm^3
# Si number density = 22.950210 Si / 1000 Ang^3
#
#
#
# Elastic Constant Matrix: (Units=GPa)
#
#
# Indices 1 2 3 4 5 6 
#
# 1 111.9058 49.2255 18.0349 4.2182 3.7163 -1.1725
# 2 49.2255 139.2146 55.6307 3.3172 15.9729 19.6303
# 3 18.0349 55.6307 141.8769 10.5032 3.8410 13.7047
# 4 4.2182 3.3172 10.5032 47.0459 -4.6046 7.6964
# 5 3.7163 15.9729 3.8410 -4.6046 30.9270 1.1277
# 6 -1.1725 19.6303 13.7047 7.6964 1.1277 43.6682
#
#
#
# Elastic Compliance Matrix: (Units=1/GPa)
#
#
# Indices 1 2 3 4 5 6 
#
# 1 0.010830 -0.004258 0.000126 -0.001016 0.000646 0.002328
# 2 -0.004258 0.011105 -0.003340 0.000557 -0.004579 -0.004038
# 3 0.000126 -0.003340 0.008528 -0.001484 0.000464 -0.000922
# 4 -0.001016 0.000557 -0.001484 0.022621 0.003529 -0.003890
# 5 0.000646 -0.004579 0.000464 0.003529 0.035074 0.000403
# 6 0.002328 -0.004038 -0.000922 -0.003890 0.000403 0.025742
#
#
# Mechanical properties :
#
#
# Convention : Reuss Voigt Hill
#
# Bulk Modulus (GPa) = 64.43824 70.97549 67.70687
# Shear Modulus (GPa) = 37.30832 42.33532 39.82182
#
# Velocity S-wave (km/s) = 4.03627 4.29961 4.17002
# Velocity P-wave (km/s) = 7.06119 7.45935 7.26300
#
# Compressibility (1/GPa) = 0.01551874
#
# Stress axis : x y z
#
# Youngs Moduli (GPa) = 92.33600 90.05001 117.25432
#
# Poissons Ratio (x) = 0.38341 -0.01474
# Poissons Ratio (y) = 0.39315 0.39166
# Poissons Ratio (z) = -0.01161 0.30079
#
# Static dielectric constant tensor:
#      x y z
#    x 4.460310 -0.115550 0.011000 
#    y -0.115550 5.035920 -0.804490 
#    z 0.011000 -0.804490 4.793770 
# 
# 
# High freq. dielectric constant tensor:
#      x y z
#    x 1.902490 -0.013990 0.006970 
#    y -0.013990 1.920590 -0.003540 
#    z 0.006970 -0.003540 1.916630 
# 
# From -- ./inp_files/271422.got.cif
#   From: 2010.06.25/outbox.cif.g09.slc.cpg/sg2_136_cif.got.tgz:271422.got - 2010.06.27 13:26:56.
