data_PCOD8036545
_publ_section_title
;
Structure prediction by ZEFSAII (Michael W. Deem and Ramdas Pophale) SiO2 
 PCOD8036545
Probable space group: P -1
;
_chemical_formula_sum "Si O2"
_cell_formula_units_Z 16
_cell_length_a 9.477449
_cell_length_b 25.984585
_cell_length_c 8.168987
_cell_angle_alpha 136.959693
_cell_angle_beta 69.163068
_cell_angle_gamma 141.807808
_cell_volume 726.037309
_symmetry_space_group_name_H-M "P -1"
_symmetry_group_IT_number 2
_symmetry_cell_setting 'triclinic'
loop_
_space_group_symop_operation_xyz
x,y,z
-x,-y,-z
loop_
_atom_site_type_symbol
_atom_site_label
_atom_site_fract_x
_atom_site_fract_y
_atom_site_fract_z
Si Si1 0.289350 0.973779 0.458198
Si Si2 0.222517 0.581205 0.957483
Si Si3 0.285985 0.266914 0.712171
Si Si4 0.631068 0.545644 0.730048
Si Si5 0.703248 0.726238 0.649088
Si Si6 0.443907 0.756374 0.982668
Si Si7 0.229171 0.875740 0.915336
Si Si8 0.086668 0.672241 0.670147
O O1 0.022713 0.868279 0.429833
O O2 0.500000 0.000000 0.500000
O O3 0.210267 0.919967 0.183781
O O4 0.414159 0.107952 0.714558
O O5 0.234863 0.648845 0.964574
O O6 0.151938 0.472208 0.652208
O O7 0.519425 0.707243 0.204340
O O8 0.000000 0.500000 0.000000
O O9 0.314147 0.253426 0.482302
O O10 0.403327 0.398528 0.004048
O O11 0.500000 0.500000 0.500000
O O12 0.529220 0.429564 0.591317
O O13 0.949464 0.668848 0.856302
O O14 0.659056 0.778043 0.912505
O O15 0.983460 0.799484 0.727555
O O16 0.293750 0.702786 0.745716
O O17 0.224396 0.784257 0.742657
O O18 0.500000 0.000000 0.000000
#
# Coordination Sequence:
#
# PCOD8036545 Si02
#       8
#     2   2   2   2   2   2   2   2
#     4  12  25  50  73 103 140 186 241 290 359 431
#     4  12  27  45  69 107 143 185 236 293 360 419
#     4  12  25  45  72 105 144 185 237 289 350 429
#     4  12  20  44  72 101 140 180 233 292 346 415
#     4  12  26  44  71 106 140 187 237 291 356 415
#     4  12  27  47  74 100 146 188 232 300 357 419
#     4  12  26  46  74 104 141 188 238 290 349 427
#     4  12  24  46  74 101 144 184 231 292 357 420
#
# _framework density 22.037436
#
# number of rings (size 3 to 8) (size 9 to 14) (size 15 to 20)
#    0.000    0.000    6.250    3.000    3.500    2.500 
#    2.250    0.000    0.000    0.000    0.000    0.000 
#    0.000    0.000    0.000    0.000    0.000    0.000 
#
# Total GULP energy -198410.968347 kJ/mol
# GULP energy per Si atom -12400.685522 kJ/mol
# Density = 2.198728 g / cm^3
# Si number density = 22.037436 Si / 1000 Ang^3
#
#
#
# Elastic Constant Matrix: (Units=GPa)
#
#
# Indices 1 2 3 4 5 6 
#
# 1 112.7639 45.7309 30.1730 16.3154 2.8206 -8.7479
# 2 45.7309 131.7395 36.5317 17.1220 -4.5960 -11.1000
# 3 30.1730 36.5317 97.5395 8.5146 -10.5107 -19.2765
# 4 16.3154 17.1220 8.5146 42.5231 -2.0790 0.5258
# 5 2.8206 -4.5960 -10.5107 -2.0790 46.1748 3.7053
# 6 -8.7479 -11.1000 -19.2765 0.5258 3.7053 37.3037
#
#
#
# Elastic Compliance Matrix: (Units=1/GPa)
#
#
# Indices 1 2 3 4 5 6 
#
# 1 0.011118 -0.002897 -0.002122 -0.002765 -0.001643 0.000851
# 2 -0.002897 0.009622 -0.002261 -0.002301 0.000436 0.001004
# 3 -0.002122 -0.002261 0.013159 -0.000858 0.002428 0.005401
# 4 -0.002765 -0.002301 -0.000858 0.025757 0.001085 -0.002248
# 5 -0.001643 0.000436 0.002428 0.001085 0.022503 -0.001251
# 6 0.000851 0.001004 0.005401 -0.002248 -0.001251 0.030252
#
#
# Mechanical properties :
#
#
# Convention : Reuss Voigt Hill
#
# Bulk Modulus (GPa) = 51.70818 62.99046 57.34932
# Shear Modulus (GPa) = 37.47613 40.50748 38.99180
#
# Velocity S-wave (km/s) = 4.12827 4.29198 4.21092
# Velocity P-wave (km/s) = 6.79987 7.29431 7.05142
#
# Compressibility (1/GPa) = 0.01933930
#
# Stress axis : x y z
#
# Youngs Moduli (GPa) = 89.94444 103.92335 75.99149
#
# Poissons Ratio (x) = 0.30110 0.16123
# Poissons Ratio (y) = 0.26060 0.17184
# Poissons Ratio (z) = 0.19083 0.23500
#
# Static dielectric constant tensor:
#      x y z
#    x 4.134570 0.035640 0.018160 
#    y 0.035640 3.886790 0.045440 
#    z 0.018160 0.045440 4.066910 
# 
# 
# High freq. dielectric constant tensor:
#      x y z
#    x 1.872910 0.000250 0.002570 
#    y 0.000250 1.874700 0.002880 
#    z 0.002570 0.002880 1.870980 
# 
# From -- ./inp_files/227742.got.cif
#   From: 2010.06.25/outbox.cif.g09.slc.cpg/sg2_114_cif.got.tgz:227742.got - 2010.06.27 13:26:56.
