data_PCOD8036483
_publ_section_title
;
Structure prediction by ZEFSAII (Michael W. Deem and Ramdas Pophale) SiO2 
 PCOD8036483
Probable space group: P -1
;
_chemical_formula_sum "Si O2"
_cell_formula_units_Z 10
_cell_length_a 15.632218
_cell_length_b 15.865247
_cell_length_c 5.702037
_cell_angle_alpha 111.889548
_cell_angle_beta 70.063741
_cell_angle_gamma 162.032028
_cell_volume 404.333724
_symmetry_space_group_name_H-M "P -1"
_symmetry_group_IT_number 2
_symmetry_cell_setting 'triclinic'
loop_
_space_group_symop_operation_xyz
x,y,z
-x,-y,-z
loop_
_atom_site_type_symbol
_atom_site_label
_atom_site_fract_x
_atom_site_fract_y
_atom_site_fract_z
Si Si1 0.636994 0.419401 0.942021
Si Si2 0.922455 0.142170 0.372157
Si Si3 0.215936 0.282645 0.568245
Si Si4 0.728498 0.225101 0.327038
Si Si5 0.424964 0.078846 0.154589
O O1 0.875923 0.609549 0.734077
O O2 0.337814 0.148868 0.819023
O O3 0.756519 0.628175 0.135957
O O4 0.597231 0.315139 0.091309
O O5 0.125377 0.256581 0.402525
O O6 0.800448 0.089984 0.637008
O O7 0.500000 0.500000 0.500000
O O8 0.000000 0.000000 0.500000
O O9 0.660849 0.244775 0.240038
O O10 0.000000 0.500000 0.500000
O O11 0.500000 0.000000 0.500000
O O12 0.753607 0.155082 0.088459
#
# Coordination Sequence:
#
# PCOD8036483 Si02
#       5
#     2   2   2   2   2
#     4  12  27  47  77 110 146 195 246 301 366 435
#     4  12  27  47  77 110 146 195 246 301 366 435
#     4  12  27  48  73 109 150 189 243 304 363 436
#     4  11  28  49  75 108 149 195 242 303 367 430
#     4  11  27  50  77 110 150 192 249 304 359 437
#
# _framework density 24.732042
#
# number of rings (size 3 to 8) (size 9 to 14) (size 15 to 20)
#    0.000    0.400    0.000    7.200    0.000   24.000 
#    0.000    3.000    0.000    0.000    0.000    0.000 
#    0.000    0.000    0.000    0.000    0.000    0.000 
#
# Total GULP energy -124013.693087 kJ/mol
# GULP energy per Si atom -12401.369309 kJ/mol
# Density = 2.467575 g / cm^3
# Si number density = 24.732042 Si / 1000 Ang^3
#
#
#
# Elastic Constant Matrix: (Units=GPa)
#
#
# Indices 1 2 3 4 5 6 
#
# 1 90.5870 53.4041 53.3846 7.6205 -17.6657 -9.1042
# 2 53.4041 208.0471 88.1969 -0.0029 -4.2145 5.2353
# 3 53.3846 88.1969 158.1589 -0.0844 -3.4167 -15.6246
# 4 7.6205 -0.0029 -0.0844 66.7866 4.7456 12.1150
# 5 -17.6657 -4.2145 -3.4167 4.7456 32.2462 7.6446
# 6 -9.1042 5.2353 -15.6246 12.1150 7.6446 31.2231
#
#
#
# Elastic Compliance Matrix: (Units=1/GPa)
#
#
# Indices 1 2 3 4 5 6 
#
# 1 0.017002 -0.002634 -0.003834 -0.003012 0.008392 0.002595
# 2 -0.002634 0.007041 -0.003439 0.001037 -0.000079 -0.004053
# 3 -0.003834 -0.003439 0.009994 -0.000309 -0.002687 0.005238
# 4 -0.003012 0.001037 -0.000309 0.016778 -0.002322 -0.007149
# 5 0.008392 -0.000079 -0.002687 -0.002322 0.037345 -0.007127
# 6 0.002595 -0.004053 0.005238 -0.007149 -0.007127 0.040603
#
#
# Mechanical properties :
#
#
# Convention : Reuss Voigt Hill
#
# Bulk Modulus (GPa) = 70.30863 94.08492 82.19678
# Shear Modulus (GPa) = 32.61192 43.50500 38.05846
#
# Velocity S-wave (km/s) = 3.63521 4.19866 3.92705
# Velocity P-wave (km/s) = 6.79040 7.85043 7.33958
#
# Compressibility (1/GPa) = 0.01422301
#
# Stress axis : x y z
#
# Youngs Moduli (GPa) = 58.81575 142.02548 100.06408
#
# Poissons Ratio (x) = 0.37416 0.38362
# Poissons Ratio (y) = 0.15495 0.34409
# Poissons Ratio (z) = 0.22549 0.48838
#
# Static dielectric constant tensor:
#      x y z
#    x 4.818410 -0.042210 0.101120 
#    y -0.042210 4.497860 0.067920 
#    z 0.101120 0.067920 5.050080 
# 
# 
# High freq. dielectric constant tensor:
#      x y z
#    x 1.991480 0.006530 0.008180 
#    y 0.006530 2.005740 0.008360 
#    z 0.008180 0.008360 2.004930 
# 
# From -- ./inp_files/96084.got.cif
#   From: 2010.06.25/outbox.cif.g09.slc.cpg/sg2_49_cif.got.tgz:96084.got - 2010.06.27 13:26:56.
