data_PCOD8036971
_publ_section_title
;
Structure prediction by ZEFSAII (Michael W. Deem and Ramdas Pophale) SiO2 
 PCOD8036971
Probable space group: P -1
;
_chemical_formula_sum "Si O2"
_cell_formula_units_Z 12
_cell_length_a 8.723862
_cell_length_b 13.567571
_cell_length_c 9.869815
_cell_angle_alpha 143.006829
_cell_angle_beta 78.254149
_cell_angle_gamma 120.193327
_cell_volume 561.761567
_symmetry_space_group_name_H-M "P -1"
_symmetry_group_IT_number 2
_symmetry_cell_setting 'triclinic'
loop_
_space_group_symop_operation_xyz
x,y,z
-x,-y,-z
loop_
_atom_site_type_symbol
_atom_site_label
_atom_site_fract_x
_atom_site_fract_y
_atom_site_fract_z
Si Si1 0.887860 0.508954 0.402107
Si Si2 0.474981 0.886456 0.514490
Si Si3 0.090954 0.496409 0.119554
Si Si4 0.894426 0.032465 0.674240
Si Si5 0.825724 0.841643 0.770147
Si Si6 0.509535 0.881674 0.987046
O O1 0.802606 0.636403 0.578709
O O2 0.710606 0.296667 0.145589
O O3 0.000000 0.500000 0.500000
O O4 0.035528 0.600567 0.352951
O O5 0.322712 0.647884 0.249021
O O6 0.500000 0.000000 0.500000
O O7 0.675085 0.925737 0.557810
O O8 0.406911 0.975734 0.739396
O O9 0.000000 0.500000 0.000000
O O10 0.015197 0.273013 0.935340
O O11 0.878964 0.919493 0.691356
O O12 0.000000 0.000000 0.500000
O O13 0.636123 0.807327 0.830193
O O14 0.000000 0.000000 0.000000
O O15 0.500000 0.000000 0.000000
#
# Coordination Sequence:
#
# PCOD8036971 Si02
#       6
#     2   2   2   2   2   2
#     4  12  25  45  72 102 138 190 236 294 360 418
#     4  12  25  45  75 103 142 192 232 289 356 420
#     4  12  23  46  73 101 139 190 236 286 357 419
#     4  12  27  47  70 106 146 183 239 294 352 423
#     4  12  26  44  69 105 143 186 239 295 349 422
#     4  12  23  46  71 104 144 183 237 293 354 423
#
# _framework density 21.361374999999999
#
# number of rings (size 3 to 8) (size 9 to 14) (size 15 to 20)
#    0.000    0.000    5.000    5.500    2.333    0.667 
#    3.000    0.000    0.000    0.000    0.000    0.000 
#    0.000    0.000    0.000    0.000    0.000    0.000 
#
# Total GULP energy -148721.597322 kJ/mol
# GULP energy per Si atom -12393.466443 kJ/mol
# Density = 2.131276 g / cm^3
# Si number density = 21.361375 Si / 1000 Ang^3
#
#
#
# Elastic Constant Matrix: (Units=GPa)
#
#
# Indices 1 2 3 4 5 6 
#
# 1 139.1016 59.4945 63.2166 -1.3937 0.5256 -2.1988
# 2 59.4945 128.1075 50.3976 -18.8267 5.2261 -12.6867
# 3 63.2166 50.3976 124.1041 1.6734 13.5556 0.6768
# 4 -1.3937 -18.8267 1.6734 58.3563 10.7975 3.5140
# 5 0.5256 5.2261 13.5556 10.7975 53.6421 1.3222
# 6 -2.1988 -12.6867 0.6768 3.5140 1.3222 46.0509
#
#
#
# Elastic Compliance Matrix: (Units=1/GPa)
#
#
# Indices 1 2 3 4 5 6 
#
# 1 0.010532 -0.003536 -0.004075 -0.001025 0.001487 -0.000376
# 2 -0.003536 0.011407 -0.002766 0.003730 -0.001197 0.002764
# 3 -0.004075 -0.002766 0.011537 -0.000813 -0.002418 -0.000995
# 4 -0.001025 0.003730 -0.000813 0.019096 -0.003983 -0.000352
# 5 0.001487 -0.001197 -0.002418 -0.003983 0.020169 -0.000498
# 6 -0.000376 0.002764 -0.000995 -0.000352 -0.000498 0.022514
#
#
# Mechanical properties :
#
#
# Convention : Reuss Voigt Hill
#
# Bulk Modulus (GPa) = 78.60596 81.94784 80.27690
# Shear Modulus (GPa) = 41.57994 46.15682 43.86838
#
# Velocity S-wave (km/s) = 4.41670 4.65344 4.53662
# Velocity P-wave (km/s) = 7.93018 8.20479 8.06865
#
# Compressibility (1/GPa) = 0.01272168
#
# Stress axis : x y z
#
# Youngs Moduli (GPa) = 94.95173 87.66596 86.67703
#
# Poissons Ratio (x) = 0.31002 0.35322
# Poissons Ratio (y) = 0.33579 0.23971
# Poissons Ratio (z) = 0.38694 0.24244
#
# Static dielectric constant tensor:
#      x y z
#    x 3.615610 0.142350 0.153580 
#    y 0.142350 4.012480 0.050310 
#    z 0.153580 0.050310 3.956300 
# 
# 
# High freq. dielectric constant tensor:
#      x y z
#    x 1.847310 0.007030 0.009450 
#    y 0.007030 1.857350 -0.003940 
#    z 0.009450 -0.003940 1.852860 
# 
# From -- ./inp_files/152014.got.cif
#   From: 2010.06.25/outbox.cif.g09.slc.cpg/sg2_77_cif.got.tgz:152014.got - 2010.06.27 13:26:56.
