data_PCOD8036684
_publ_section_title
;
Structure prediction by ZEFSAII (Michael W. Deem and Ramdas Pophale) SiO2 
 PCOD8036684
Probable space group: P -1
;
_chemical_formula_sum "Si O2"
_cell_formula_units_Z 14
_cell_length_a 14.971383
_cell_length_b 10.339803
_cell_length_c 9.775234
_cell_angle_alpha 119.853623
_cell_angle_beta 47.049546
_cell_angle_gamma 149.718251
_cell_volume 541.411983
_symmetry_space_group_name_H-M "P -1"
_symmetry_group_IT_number 2
_symmetry_cell_setting 'triclinic'
loop_
_space_group_symop_operation_xyz
x,y,z
-x,-y,-z
loop_
_atom_site_type_symbol
_atom_site_label
_atom_site_fract_x
_atom_site_fract_y
_atom_site_fract_z
Si Si1 0.192740 0.755095 0.523995
Si Si2 0.582967 0.447962 0.791791
Si Si3 0.452334 0.024066 0.914790
Si Si4 0.429747 0.295168 0.224375
Si Si5 0.112687 0.211082 0.874539
Si Si6 0.190140 0.826884 0.858125
Si Si7 0.061147 0.891423 0.590637
O O1 0.408752 0.912243 0.314034
O O2 0.159776 0.901126 0.622812
O O3 0.000000 0.500000 0.500000
O O4 0.182312 0.706770 0.671866
O O5 0.628989 0.592793 0.684766
O O6 0.408633 0.146013 0.782627
O O7 0.809833 0.595287 0.672007
O O8 0.500000 0.500000 0.000000
O O9 0.213559 0.767873 0.953793
O O10 0.492540 0.245551 0.004786
O O11 0.500000 0.000000 0.000000
O O12 0.635328 0.503545 0.218082
O O13 0.216980 0.005420 0.361036
O O14 0.078705 0.084889 0.704127
O O15 0.000000 0.000000 0.000000
O O16 0.017023 0.277412 0.985281
#
# Coordination Sequence:
#
# PCOD8036684 Si02
#       7
#     2   2   2   2   2   2   2
#     4  12  26  46  73 103 146 201 253 294 350 444
#     4  12  22  42  77 108 139 187 245 310 370 436
#     4  12  26  48  70 100 149 199 243 299 360 431
#     4  12  24  44  70 103 153 188 237 312 371 429
#     4  12  22  42  73 108 140 187 247 306 370 435
#     4  12  25  45  78 109 140 191 257 301 361 441
#     4  12  24  42  69 108 148 186 238 311 377 425
#
# _framework density 25.858312999999999
#
# number of rings (size 3 to 8) (size 9 to 14) (size 15 to 20)
#    0.000    0.000    7.143    3.000    0.000    0.000 
#    0.000    2.857    0.000    0.000    0.000    0.000 
#    0.000    0.000    0.000    0.000    0.000    0.000 
#
# Total GULP energy -173454.696700 kJ/mol
# GULP energy per Si atom -12389.621193 kJ/mol
# Density = 2.579946 g / cm^3
# Si number density = 25.858313 Si / 1000 Ang^3
#
#
#
# Elastic Constant Matrix: (Units=GPa)
#
#
# Indices 1 2 3 4 5 6 
#
# 1 147.8044 -11.7150 31.7842 3.0575 6.1101 22.3352
# 2 -11.7150 58.4731 16.3082 5.5810 4.5055 27.4610
# 3 31.7842 16.3082 115.4034 7.7024 -2.3523 15.8819
# 4 3.0575 5.5810 7.7024 49.8934 11.6732 -3.7895
# 5 6.1101 4.5055 -2.3523 11.6732 40.0632 5.8247
# 6 22.3352 27.4610 15.8819 -3.7895 5.8247 39.9035
#
#
#
# Elastic Compliance Matrix: (Units=1/GPa)
#
#
# Indices 1 2 3 4 5 6 
#
# 1 0.009217 0.006936 -0.002166 -0.001578 -0.000524 -0.009144
# 2 0.006936 0.031509 -0.002513 -0.005601 0.000544 -0.025177
# 3 -0.002166 -0.002513 0.009969 -0.001681 0.001901 -0.001463
# 4 -0.001578 -0.005601 -0.001681 0.023396 -0.007309 0.008696
# 5 -0.000524 0.000544 0.001901 -0.007309 0.028038 -0.005624
# 6 -0.009144 -0.025177 -0.001463 0.008696 -0.005624 0.049734
#
#
# Mechanical properties :
#
#
# Convention : Reuss Voigt Hill
#
# Bulk Modulus (GPa) = 18.11273 43.82618 30.96945
# Shear Modulus (GPa) = 30.16526 44.99225 37.57875
#
# Velocity S-wave (km/s) = 3.41920 4.17580 3.81630
# Velocity P-wave (km/s) = 4.75476 6.34312 5.60548
#
# Compressibility (1/GPa) = 0.05520980
#
# Stress axis : x y z
#
# Youngs Moduli (GPa) = 108.49281 31.73667 100.30922
#
# Poissons Ratio (x) = -0.22012 0.21724
# Poissons Ratio (y) = -0.75250 0.25209
# Poissons Ratio (z) = 0.23496 0.07976
#
# Static dielectric constant tensor:
#      x y z
#    x 6.531340 -0.155330 -0.304640 
#    y -0.155330 4.645080 0.140640 
#    z -0.304640 0.140640 4.755100 
# 
# 
# High freq. dielectric constant tensor:
#      x y z
#    x 2.058300 0.012810 -0.014260 
#    y 0.012810 2.023980 0.007580 
#    z -0.014260 0.007580 2.037240 
# 
# From -- ./inp_files/242224.got.cif
#   From: 2010.06.25/outbox.cif.g09.slc.cpg/sg2_122_cif.got.tgz:242224.got - 2010.06.27 13:26:56.
