data_PCOD8036489
_publ_section_title
;
Structure prediction by ZEFSAII (Michael W. Deem and Ramdas Pophale) SiO2 
 PCOD8036489
Probable space group: P -1
;
_chemical_formula_sum "Si O2"
_cell_formula_units_Z 16
_cell_length_a 22.991828
_cell_length_b 6.820740
_cell_length_c 14.304813
_cell_angle_alpha 108.270820
_cell_angle_beta 19.845930
_cell_angle_gamma 108.286209
_cell_volume 721.946664
_symmetry_space_group_name_H-M "P -1"
_symmetry_group_IT_number 2
_symmetry_cell_setting 'triclinic'
loop_
_space_group_symop_operation_xyz
x,y,z
-x,-y,-z
loop_
_atom_site_type_symbol
_atom_site_label
_atom_site_fract_x
_atom_site_fract_y
_atom_site_fract_z
Si Si1 0.914278 0.660231 0.082116
Si Si2 0.410658 0.279388 0.856462
Si Si3 0.832921 0.050489 0.374923
Si Si4 0.375323 0.601549 0.628308
Si Si5 0.823355 0.370811 0.745621
Si Si6 0.196056 0.870738 0.077548
Si Si7 0.852413 0.969064 0.532339
Si Si8 0.501013 0.730863 0.073500
O O1 0.776134 0.556177 0.203845
O O2 0.812698 0.839421 0.313734
O O3 0.000000 0.500000 0.000000
O O4 0.067219 0.765900 0.804951
O O5 0.526246 0.297909 0.593226
O O6 0.520419 0.247006 0.778450
O O7 0.326220 0.490132 0.038713
O O8 0.264116 0.099504 0.036668
O O9 0.657655 0.134684 0.695989
O O10 0.929783 0.982811 0.312452
O O11 0.500000 0.500000 0.500000
O O12 0.291560 0.795548 0.830722
O O13 0.769849 0.285997 0.915040
O O14 0.000000 0.500000 0.500000
O O15 0.824685 0.198875 0.640163
O O16 0.992173 0.868323 0.371159
O O17 0.677748 0.831476 0.782832
O O18 0.500000 0.500000 0.000000
#
# Coordination Sequence:
#
# PCOD8036489 Si02
#       8
#     2   2   2   2   2   2   2   2
#     4  11  27  53  76 107 145 200 250 309 375 441
#     4  12  26  48  73 104 149 190 242 306 369 434
#     4  11  28  48  77 103 148 194 247 306 367 442
#     4  12  28  45  79 106 145 191 250 312 366 430
#     4  12  24  44  71 107 148 190 233 297 372 441
#     4  12  26  48  71 109 147 192 242 299 375 442
#     4  12  26  46  76 108 148 190 244 303 367 447
#     4  12  28  47  76 109 150 197 249 303 367 448
#
# _framework density 22.162302
#
# number of rings (size 3 to 8) (size 9 to 14) (size 15 to 20)
#    0.000    0.250    3.750    4.125   12.250    1.000 
#    0.000    0.000    0.000    0.000    0.000    0.000 
#    0.000    0.000    0.000    0.000    0.000    0.000 
#
# Total GULP energy -198411.065916 kJ/mol
# GULP energy per Si atom -12400.691620 kJ/mol
# Density = 2.211186 g / cm^3
# Si number density = 22.162302 Si / 1000 Ang^3
#
#
#
# Elastic Constant Matrix: (Units=GPa)
#
#
# Indices 1 2 3 4 5 6 
#
# 1 127.8601 43.1039 26.8256 -10.0996 5.7818 6.9098
# 2 43.1039 123.9758 44.1773 -1.6221 -3.8486 12.6456
# 3 26.8256 44.1773 96.7907 -1.3327 0.6747 10.5086
# 4 -10.0996 -1.6221 -1.3327 43.7970 -2.4641 10.3000
# 5 5.7818 -3.8486 0.6747 -2.4641 45.7600 -3.1265
# 6 6.9098 12.6456 10.5086 10.3000 -3.1265 39.3086
#
#
#
# Elastic Compliance Matrix: (Units=1/GPa)
#
#
# Indices 1 2 3 4 5 6 
#
# 1 0.009274 -0.002704 -0.001174 0.002192 -0.001341 -0.001128
# 2 -0.002704 0.010624 -0.003906 0.000151 0.001175 -0.001845
# 3 -0.001174 -0.003906 0.012674 0.000431 -0.000486 -0.002077
# 4 0.002192 0.000151 0.000431 0.025052 0.000596 -0.007066
# 5 -0.001341 0.001175 -0.000486 0.000596 0.022270 0.001603
# 6 -0.001128 -0.001845 -0.002077 -0.007066 0.001603 0.028766
#
#
# Mechanical properties :
#
#
# Convention : Reuss Voigt Hill
#
# Bulk Modulus (GPa) = 58.80535 64.09335 61.44935
# Shear Modulus (GPa) = 38.49220 41.40778 39.94999
#
# Velocity S-wave (km/s) = 4.17205 4.32717 4.25032
# Velocity P-wave (km/s) = 7.05688 7.34498 7.20237
#
# Compressibility (1/GPa) = 0.01700525
#
# Stress axis : x y z
#
# Youngs Moduli (GPa) = 107.83268 94.12210 78.89860
#
# Poissons Ratio (x) = 0.25449 0.09264
# Poissons Ratio (y) = 0.29156 0.30816
# Poissons Ratio (z) = 0.12661 0.36762
#
# Static dielectric constant tensor:
#      x y z
#    x 4.197580 -0.047050 -0.184340 
#    y -0.047050 4.317830 0.724110 
#    z -0.184340 0.724110 2.507470 
# 
# 
# High freq. dielectric constant tensor:
#      x y z
#    x 1.892730 -0.000270 0.006300 
#    y -0.000270 1.886990 0.003870 
#    z 0.006300 0.003870 1.879850 
# 
# From -- ./inp_files/84330.got.cif
#   From: 2010.06.25/outbox.cif.g09.slc.cpg/sg2_43_cif.got.tgz:84330.got - 2010.06.27 13:26:56.
