data_PCOD8036939
_publ_section_title
;
Structure prediction by ZEFSAII (Michael W. Deem and Ramdas Pophale) SiO2 
 PCOD8036939
Probable space group: P -1
;
_chemical_formula_sum "Si O2"
_cell_formula_units_Z 12
_cell_length_a 15.988829
_cell_length_b 9.309588
_cell_length_c 6.903628
_cell_angle_alpha 106.599169
_cell_angle_beta 143.209966
_cell_angle_gamma 62.086501
_cell_volume 536.028539
_symmetry_space_group_name_H-M "P -1"
_symmetry_group_IT_number 2
_symmetry_cell_setting 'triclinic'
loop_
_space_group_symop_operation_xyz
x,y,z
-x,-y,-z
loop_
_atom_site_type_symbol
_atom_site_label
_atom_site_fract_x
_atom_site_fract_y
_atom_site_fract_z
Si Si1 0.375405 0.506063 0.424430
Si Si2 0.040877 0.647862 0.678374
Si Si3 0.423530 0.159603 0.559561
Si Si4 0.930697 0.164460 0.548588
Si Si5 0.654802 0.202523 0.272709
Si Si6 0.161128 0.117250 0.285306
O O1 0.500000 0.500000 0.500000
O O2 0.400207 0.323128 0.460764
O O3 0.405814 0.610467 0.692862
O O4 0.201269 0.600999 0.065643
O O5 0.052383 0.699893 0.500850
O O6 0.000000 0.500000 0.500000
O O7 0.898504 0.779549 0.587496
O O8 0.261921 0.177336 0.354572
O O9 0.500000 0.000000 0.500000
O O10 0.524493 0.148665 0.932688
O O11 0.754812 0.200745 0.270978
O O12 0.009702 0.143850 0.895594
O O13 0.000000 0.000000 0.500000
O O14 0.744683 0.074296 0.560178
#
# Coordination Sequence:
#
# PCOD8036939 Si02
#       6
#     2   2   2   2   2   2
#     4  12  27  48  72 106 145 187 243 293 353 425
#     4  12  28  44  74 108 145 187 234 298 356 420
#     4  12  28  47  74 103 145 193 236 293 361 423
#     4  12  23  45  73 104 141 183 237 289 353 422
#     4  12  25  47  74 105 143 189 239 295 350 426
#     4  12  26  47  73 108 145 184 240 292 359 423
#
# _framework density 22.386869000000001
#
# number of rings (size 3 to 8) (size 9 to 14) (size 15 to 20)
#    0.000    0.000    3.333    6.500    7.000    1.333 
#    0.000    0.000    0.000    0.000    0.000    0.000 
#    0.000    0.000    0.000    0.000    0.000    0.000 
#
# Total GULP energy -148796.523833 kJ/mol
# GULP energy per Si atom -12399.710319 kJ/mol
# Density = 2.233592 g / cm^3
# Si number density = 22.386869 Si / 1000 Ang^3
#
#
#
# Elastic Constant Matrix: (Units=GPa)
#
#
# Indices 1 2 3 4 5 6 
#
# 1 136.2666 40.7785 2.0961 -3.2538 9.0079 4.5106
# 2 40.7785 144.2535 21.9737 9.3999 -7.1009 6.9217
# 3 2.0961 21.9737 91.7232 7.8025 -2.9574 -0.9758
# 4 -3.2538 9.3999 7.8025 42.5943 4.2847 -9.3174
# 5 9.0079 -7.1009 -2.9574 4.2847 39.8538 -4.5495
# 6 4.5106 6.9217 -0.9758 -9.3174 -4.5495 51.2664
#
#
#
# Elastic Compliance Matrix: (Units=1/GPa)
#
#
# Indices 1 2 3 4 5 6 
#
# 1 0.008316 -0.002579 0.000230 0.001336 -0.002507 -0.000359
# 2 -0.002579 0.008210 -0.001671 -0.002152 0.002025 -0.001125
# 3 0.000230 -0.001671 0.011471 -0.001749 0.000709 0.000169
# 4 0.001336 -0.002152 -0.001749 0.025674 -0.003058 0.004535
# 5 -0.002507 0.002025 0.000709 -0.003058 0.026602 0.001766
# 6 -0.000359 -0.001125 0.000169 0.004535 0.001766 0.020673
#
#
# Mechanical properties :
#
#
# Convention : Reuss Voigt Hill
#
# Bulk Modulus (GPa) = 50.11261 55.77111 52.94186
# Shear Modulus (GPa) = 43.23739 47.23590 45.23665
#
# Velocity S-wave (km/s) = 4.39951 4.59844 4.50007
# Velocity P-wave (km/s) = 6.94557 7.29114 7.12045
#
# Compressibility (1/GPa) = 0.01995506
#
# Stress axis : x y z
#
# Youngs Moduli (GPa) = 120.24531 121.80534 87.17633
#
# Poissons Ratio (x) = 0.31415 -0.02001
# Poissons Ratio (y) = 0.31013 0.14571
# Poissons Ratio (z) = -0.02760 0.20359
#
# Static dielectric constant tensor:
#      x y z
#    x 4.018240 0.034360 0.212190 
#    y 0.034360 4.265650 0.099570 
#    z 0.212190 0.099570 4.032690 
# 
# 
# High freq. dielectric constant tensor:
#      x y z
#    x 1.905800 0.003840 0.003720 
#    y 0.003840 1.895740 0.005110 
#    z 0.003720 0.005110 1.889280 
# 
# From -- ./inp_files/89419.got.cif
#   From: 2010.06.25/outbox.cif.g09.slc.cpg/sg2_45_cif.got.tgz:89419.got - 2010.06.27 13:26:56.
