data_PCOD8036744
_publ_section_title
;
Structure prediction by ZEFSAII (Michael W. Deem and Ramdas Pophale) SiO2 
 PCOD8036744
Probable space group: P -1
;
_chemical_formula_sum "Si O2"
_cell_formula_units_Z 14
_cell_length_a 17.684822
_cell_length_b 10.959202
_cell_length_c 15.570076
_cell_angle_alpha 47.023754
_cell_angle_beta 156.123723
_cell_angle_gamma 146.818996
_cell_volume 619.011951
_symmetry_space_group_name_H-M "P -1"
_symmetry_group_IT_number 2
_symmetry_cell_setting 'triclinic'
loop_
_space_group_symop_operation_xyz
x,y,z
-x,-y,-z
loop_
_atom_site_type_symbol
_atom_site_label
_atom_site_fract_x
_atom_site_fract_y
_atom_site_fract_z
Si Si1 0.481751 0.225309 0.923549
Si Si2 0.593020 0.452648 0.294868
Si Si3 0.773292 0.868171 0.569175
Si Si4 0.070801 0.678141 0.559026
Si Si5 0.958660 0.060811 0.017636
Si Si6 0.026701 0.257915 0.299245
Si Si7 0.250969 0.580834 0.074962
O O1 0.661413 0.208773 0.168762
O O2 0.508382 0.427686 0.895052
O O3 0.172743 0.965888 0.734251
O O4 0.561301 0.277095 0.881815
O O5 0.695018 0.529593 0.462655
O O6 0.828906 0.531406 0.444842
O O7 0.350984 0.166104 0.168168
O O8 0.922161 0.819382 0.694169
O O9 0.449223 0.652607 0.323802
O O10 0.837366 0.887359 0.726495
O O11 0.884553 0.116780 0.536202
O O12 0.000000 0.500000 0.500000
O O13 0.018441 0.294803 0.956044
O O14 0.000000 0.000000 0.000000
O O15 0.897461 0.345262 0.089276
#
# Coordination Sequence:
#
# PCOD8036744 Si02
#       7
#     2   2   2   2   2   2   2
#     4  12  22  44  75 109 144 182 236 296 363 418
#     4  12  25  45  75 109 150 188 233 295 367 423
#     4  12  26  47  75 104 143 187 245 301 351 425
#     4  12  27  43  74 114 148 184 236 303 365 426
#     4  12  28  49  72 101 149 201 236 291 360 430
#     4  12  24  43  76 113 136 184 244 300 359 419
#     4  12  25  46  75 106 145 193 241 288 350 437
#
# _framework density 22.616686000000001
#
# number of rings (size 3 to 8) (size 9 to 14) (size 15 to 20)
#    0.000    0.000    7.143    3.000    2.000    2.286 
#    0.000    1.429    0.000    0.000    0.000    0.000 
#    0.000    0.000    0.000    0.000    0.000    0.000 
#
# Total GULP energy -173709.124001 kJ/mol
# GULP energy per Si atom -12407.794571 kJ/mol
# Density = 2.256521 g / cm^3
# Si number density = 22.616686 Si / 1000 Ang^3
#
#
#
# Elastic Constant Matrix: (Units=GPa)
#
#
# Indices 1 2 3 4 5 6 
#
# 1 93.5155 42.9732 49.3168 -16.8709 -13.7330 -26.5532
# 2 42.9732 147.4240 60.9913 7.5198 6.5492 -17.7716
# 3 49.3168 60.9913 116.2589 -16.1193 -3.6239 -12.6674
# 4 -16.8709 7.5198 -16.1193 36.7039 -6.5114 2.8025
# 5 -13.7330 6.5492 -3.6239 -6.5114 38.3931 -6.3265
# 6 -26.5532 -17.7716 -12.6674 2.8025 -6.3265 33.5610
#
#
#
# Elastic Compliance Matrix: (Units=1/GPa)
#
#
# Indices 1 2 3 4 5 6 
#
# 1 0.023289 -0.004381 -0.003873 0.011014 0.013253 0.016223
# 2 -0.004381 0.010689 -0.004917 -0.007265 -0.005089 -0.000015
# 3 -0.003873 -0.004917 0.013558 0.005511 0.001549 -0.000718
# 4 0.011014 -0.007265 0.005511 0.038078 0.013188 0.006254
# 5 0.013253 -0.005089 0.001549 0.013188 0.036366 0.014130
# 6 0.016223 -0.000015 -0.000718 0.006254 0.014130 0.044494
#
#
# Mechanical properties :
#
#
# Convention : Reuss Voigt Hill
#
# Bulk Modulus (GPa) = 47.18228 73.75121 60.46674
# Shear Modulus (GPa) = 25.01483 35.32607 30.17045
#
# Velocity S-wave (km/s) = 3.32932 3.95644 3.65635
# Velocity P-wave (km/s) = 5.97379 7.31787 6.67972
#
# Compressibility (1/GPa) = 0.02119440
#
# Stress axis : x y z
#
# Youngs Moduli (GPa) = 42.93914 93.55171 73.75808
#
# Poissons Ratio (x) = 0.40988 0.28565
# Poissons Ratio (y) = 0.18813 0.36265
# Poissons Ratio (z) = 0.16629 0.45997
#
# Static dielectric constant tensor:
#      x y z
#    x 3.944760 -0.379220 0.304230 
#    y -0.379220 2.561590 1.714700 
#    z 0.304230 1.714700 2.997410 
# 
# 
# High freq. dielectric constant tensor:
#      x y z
#    x 1.886310 -0.008730 0.003170 
#    y -0.008730 1.909510 -0.000330 
#    z 0.003170 -0.000330 1.901070 
# 
# From -- ./inp_files/577961.got.cif
#   From: 2010.06.25/outbox.cif.g09.slc.cpg/sg2_289_cif.got.tgz:577961.got - 2010.06.27 13:26:56.
