data_PCOD8036815
_publ_section_title
;
Structure prediction by ZEFSAII (Michael W. Deem and Ramdas Pophale) SiO2 
 PCOD8036815
Probable space group: P -1
;
_chemical_formula_sum "Si O2"
_cell_formula_units_Z 16
_cell_length_a 14.437647
_cell_length_b 12.449304
_cell_length_c 12.152252
_cell_angle_alpha 105.582317
_cell_angle_beta 103.398193
_cell_angle_gamma 20.506284
_cell_volume 735.753971
_symmetry_space_group_name_H-M "P -1"
_symmetry_group_IT_number 2
_symmetry_cell_setting 'triclinic'
loop_
_space_group_symop_operation_xyz
x,y,z
-x,-y,-z
loop_
_atom_site_type_symbol
_atom_site_label
_atom_site_fract_x
_atom_site_fract_y
_atom_site_fract_z
Si Si1 0.937568 0.187256 0.581406
Si Si2 0.405051 0.783656 0.251530
Si Si3 0.253847 0.238532 0.571452
Si Si4 0.789249 0.632241 0.994502
Si Si5 0.621283 0.136262 0.479770
Si Si6 0.088353 0.734736 0.152117
Si Si7 0.154332 0.538165 0.799627
Si Si8 0.473206 0.580617 0.894506
O O1 0.657513 0.527577 0.552338
O O2 0.937824 0.186431 0.712208
O O3 0.000000 0.000000 0.500000
O O4 0.157417 0.027681 0.552447
O O5 0.379684 0.860503 0.387553
O O6 0.633685 0.595781 0.194939
O O7 0.474608 0.576338 0.221464
O O8 0.134796 0.093991 0.195140
O O9 0.204474 0.386575 0.686126
O O10 0.000000 0.500000 0.500000
O O11 0.500000 0.000000 0.500000
O O12 0.314269 0.057251 0.599966
O O13 0.842170 0.473346 0.879188
O O14 0.818793 0.543885 0.096495
O O15 0.000000 0.500000 0.000000
O O16 0.500000 0.000000 0.000000
O O17 0.317205 0.549611 0.099259
O O18 0.815515 0.051154 0.099325
O O19 0.500000 0.500000 0.000000
#
# Coordination Sequence:
#
# PCOD8036815 Si02
#       8
#     2   2   2   2   2   2   2   2
#     4  12  26  44  67  97 137 177 218 269 323 395
#     4  12  23  42  68 102 130 169 212 276 332 401
#     4  12  23  42  64 101 131 171 216 278 328 393
#     4  12  28  47  68  96 132 181 228 271 325 390
#     4  12  24  41  67  96 133 174 219 259 337 389
#     4  12  26  47  68 100 135 174 225 273 325 394
#     4  12  24  43  67  96 137 168 221 277 329 386
#     4  12  24  44  73  98 130 168 219 274 338 387
#
# _framework density 21.746399
#
# number of rings (size 3 to 8) (size 9 to 14) (size 15 to 20)
#    0.000    0.000    2.500    8.250    3.500    0.000 
#    0.000    0.000    0.000    0.000    0.000    0.000 
#    0.000    0.000    0.000    0.000    0.000    0.000 
#
# Total GULP energy -198501.901004 kJ/mol
# GULP energy per Si atom -12406.368813 kJ/mol
# Density = 2.169690 g / cm^3
# Si number density = 21.746399 Si / 1000 Ang^3
#
#
#
# Elastic Constant Matrix: (Units=GPa)
#
#
# Indices 1 2 3 4 5 6 
#
# 1 187.3411 77.6258 23.9366 5.3341 1.5014 -16.9542
# 2 77.6258 199.8161 26.2447 -9.4780 3.2405 -13.5120
# 3 23.9366 26.2447 96.8806 -3.0804 -4.6396 -3.5185
# 4 5.3341 -9.4780 -3.0804 38.4312 12.2395 9.2541
# 5 1.5014 3.2405 -4.6396 12.2395 43.6375 12.4171
# 6 -16.9542 -13.5120 -3.5185 9.2541 12.4171 55.3240
#
#
#
# Elastic Compliance Matrix: (Units=1/GPa)
#
#
# Indices 1 2 3 4 5 6 
#
# 1 0.006694 -0.002445 -0.000996 -0.002004 -0.000089 0.001746
# 2 -0.002445 0.006255 -0.001062 0.002038 -0.001250 0.000650
# 3 -0.000996 -0.001062 0.010920 0.000415 0.001218 -0.000213
# 4 -0.002004 0.002038 0.000415 0.030047 -0.007488 -0.003435
# 5 -0.000089 -0.001250 0.001218 -0.007488 0.026661 -0.004986
# 6 0.001746 0.000650 -0.000213 -0.003435 -0.004986 0.020450
#
#
# Mechanical properties :
#
#
# Convention : Reuss Voigt Hill
#
# Bulk Modulus (GPa) = 67.28389 82.18357 74.73373
# Shear Modulus (GPa) = 43.48360 51.22728 47.35544
#
# Velocity S-wave (km/s) = 4.47651 4.85879 4.67156
# Velocity P-wave (km/s) = 7.59778 8.32772 7.97111
#
# Compressibility (1/GPa) = 0.01486240
#
# Stress axis : x y z
#
# Youngs Moduli (GPa) = 149.38423 159.87340 91.57920
#
# Poissons Ratio (x) = 0.39094 0.09122
# Poissons Ratio (y) = 0.36529 0.09723
# Poissons Ratio (z) = 0.14880 0.16974
#
# Static dielectric constant tensor:
#      x y z
#    x 4.547080 0.244850 0.510120 
#    y 0.244850 4.472570 0.416330 
#    z 0.510120 0.416330 4.630450 
# 
# 
# High freq. dielectric constant tensor:
#      x y z
#    x 1.878840 -0.001000 0.007500 
#    y -0.001000 1.879940 0.005190 
#    z 0.007500 0.005190 1.862070 
# 
# From -- ./inp_files/452487.got.cif
#   From: 2010.06.25/outbox.cif.g09.slc.cpg/sg2_227_cif.got.tgz:452487.got - 2010.06.27 13:26:56.
