data_PCOD8036878
_publ_section_title
;
Structure prediction by ZEFSAII (Michael W. Deem and Ramdas Pophale) SiO2 
 PCOD8036878
Probable space group: P -1
;
_chemical_formula_sum "Si O2"
_cell_formula_units_Z 14
_cell_length_a 11.981085
_cell_length_b 8.669905
_cell_length_c 9.145686
_cell_angle_alpha 130.049103
_cell_angle_beta 57.715889
_cell_angle_gamma 99.089706
_cell_volume 588.949215
_symmetry_space_group_name_H-M "P -1"
_symmetry_group_IT_number 2
_symmetry_cell_setting 'triclinic'
loop_
_space_group_symop_operation_xyz
x,y,z
-x,-y,-z
loop_
_atom_site_type_symbol
_atom_site_label
_atom_site_fract_x
_atom_site_fract_y
_atom_site_fract_z
Si Si1 0.199619 0.120209 0.934583
Si Si2 0.464978 0.811437 0.993306
Si Si3 0.286567 0.920357 0.457466
Si Si4 0.768961 0.233779 0.078996
Si Si5 0.735369 0.522274 0.740494
Si Si6 0.021848 0.197094 0.685267
Si Si7 0.915035 0.431077 0.296027
O O1 0.298214 0.969029 0.651664
O O2 0.212857 0.993496 0.000659
O O3 0.261894 0.314606 0.033223
O O4 0.036550 0.208781 0.064224
O O5 0.413358 0.902157 0.246981
O O6 0.357066 0.724148 0.920901
O O7 0.595760 0.609629 0.797780
O O8 0.500000 0.000000 0.000000
O O9 0.253720 0.699256 0.326787
O O10 0.168117 0.124464 0.616474
O O11 0.771527 0.402702 0.308556
O O12 0.901018 0.270297 0.928826
O O13 0.871800 0.494839 0.531278
O O14 0.024227 0.388419 0.696645
O O15 0.000000 0.000000 0.500000
#
# Coordination Sequence:
#
# PCOD8036878 Si02
#       7
#     2   2   2   2   2   2   2
#     4  12  25  47  76 109 147 187 244 308 366 427
#     4  12  27  51  73 103 150 199 247 293 360 443
#     4  12  26  47  76 108 145 189 247 305 363 432
#     4  12  24  46  74 106 148 189 240 303 363 430
#     4  12  26  48  74 107 150 198 241 297 366 437
#     4  12  23  43  74 112 147 186 242 307 369 427
#     4  12  25  45  77 115 145 189 243 306 373 426
#
# _framework density 23.771151
#
# number of rings (size 3 to 8) (size 9 to 14) (size 15 to 20)
#    0.000    0.000    5.714    5.143    0.000    1.143 
#    0.000    0.000    0.000    0.000    0.000    0.000 
#    0.000    0.000    0.000    0.000    0.000    0.000 
#
# Total GULP energy -173507.313055 kJ/mol
# GULP energy per Si atom -12393.379504 kJ/mol
# Density = 2.371705 g / cm^3
# Si number density = 23.771151 Si / 1000 Ang^3
#
#
#
# Elastic Constant Matrix: (Units=GPa)
#
#
# Indices 1 2 3 4 5 6 
#
# 1 90.8467 1.6849 23.3570 1.7185 0.3454 0.2120
# 2 1.6849 134.9383 42.3028 -15.3044 -6.5181 11.3038
# 3 23.3570 42.3028 105.1088 -16.9431 -1.1748 19.0507
# 4 1.7185 -15.3044 -16.9431 41.4669 8.5627 5.1394
# 5 0.3454 -6.5181 -1.1748 8.5627 39.7882 11.3169
# 6 0.2120 11.3038 19.0507 5.1394 11.3169 26.6308
#
#
#
# Elastic Compliance Matrix: (Units=1/GPa)
#
#
# Indices 1 2 3 4 5 6 
#
# 1 0.012001 0.000513 -0.003766 -0.002110 -0.000535 0.003015
# 2 0.000513 0.008845 -0.002788 0.002106 0.001736 -0.002908
# 3 -0.003766 -0.002788 0.014478 0.006034 0.001862 -0.011100
# 4 -0.002110 0.002106 0.006034 0.029257 -0.003039 -0.009548
# 5 -0.000535 0.001736 0.001862 -0.003039 0.030202 -0.014313
# 6 0.003015 -0.002908 -0.011100 -0.009548 -0.014313 0.054626
#
#
# Mechanical properties :
#
#
# Convention : Reuss Voigt Hill
#
# Bulk Modulus (GPa) = 43.02438 51.73147 47.37793
# Shear Modulus (GPa) = 29.54428 39.14713 34.34570
#
# Velocity S-wave (km/s) = 3.52925 4.06252 3.80524
# Velocity P-wave (km/s) = 5.89459 6.61929 6.26742
#
# Compressibility (1/GPa) = 0.02324263
#
# Stress axis : x y z
#
# Youngs Moduli (GPa) = 83.32498 113.06241 69.07039
#
# Poissons Ratio (x) = -0.05800 0.26012
# Poissons Ratio (y) = -0.04275 0.19255
# Poissons Ratio (z) = 0.31380 0.31518
#
# Static dielectric constant tensor:
#      x y z
#    x 4.486070 -0.339890 0.196960 
#    y -0.339890 4.505550 -0.345850 
#    z 0.196960 -0.345850 4.483560 
# 
# 
# High freq. dielectric constant tensor:
#      x y z
#    x 1.937270 -0.002810 0.013140 
#    y -0.002810 1.954140 -0.006610 
#    z 0.013140 -0.006610 1.946050 
# 
# From -- ./inp_files/245763.got.cif
#   From: 2010.06.25/outbox.cif.g09.slc.cpg/sg2_123_cif.got.tgz:245763.got - 2010.06.27 13:26:56.
