data_PCOD8036633
_publ_section_title
;
Structure prediction by ZEFSAII (Michael W. Deem and Ramdas Pophale) SiO2 
 PCOD8036633
Probable space group: P -1
;
_chemical_formula_sum "Si O2"
_cell_formula_units_Z 14
_cell_length_a 15.199123
_cell_length_b 20.143263
_cell_length_c 11.650178
_cell_angle_alpha 159.637027
_cell_angle_beta 140.094652
_cell_angle_gamma 32.509776
_cell_volume 661.753682
_symmetry_space_group_name_H-M "P -1"
_symmetry_group_IT_number 2
_symmetry_cell_setting 'triclinic'
loop_
_space_group_symop_operation_xyz
x,y,z
-x,-y,-z
loop_
_atom_site_type_symbol
_atom_site_label
_atom_site_fract_x
_atom_site_fract_y
_atom_site_fract_z
Si Si1 0.464363 0.871379 0.161565
Si Si2 0.815414 0.197370 0.167703
Si Si3 0.930330 0.904623 0.126411
Si Si4 0.954864 0.435932 0.128828
Si Si5 0.809184 0.422771 0.314915
Si Si6 0.790100 0.391554 0.693896
Si Si7 0.701294 0.762344 0.576986
O O1 0.500000 0.000000 0.500000
O O2 0.454353 0.991215 0.222350
O O3 0.287327 0.908546 0.067327
O O4 0.601412 0.603209 0.859114
O O5 0.726575 0.357641 0.226280
O O6 0.829447 0.339118 0.514453
O O7 0.000000 0.000000 0.000000
O O8 0.808454 0.176832 0.431914
O O9 0.844882 0.775858 0.795836
O O10 0.978167 0.821154 0.171657
O O11 0.086410 0.797049 0.021473
O O12 0.777270 0.603584 0.283116
O O13 0.077841 0.515632 0.400784
O O14 0.916869 0.440638 0.962089
O O15 0.666059 0.635899 0.439291
#
# Coordination Sequence:
#
# PCOD8036633 Si02
#       7
#     2   2   2   2   2   2   2
#     4  12  25  43  64  91 125 167 209 252 311 376
#     4  12  24  42  64  94 127 161 208 260 312 360
#     4   9  17  34  63  91 121 161 213 250 297 368
#     4   9  18  34  61  96 119 161 212 251 297 367
#     4   9  19  38  63  89 122 162 204 254 304 358
#     4  12  22  35  65  93 129 158 211 256 305 371
#     4   9  17  38  62  83 122 168 206 240 302 375
#
# _framework density 21.155908
#
# number of rings (size 3 to 8) (size 9 to 14) (size 15 to 20)
#    0.000    1.714    4.286    3.429    0.000    0.571 
#    0.000    1.429    0.000    0.000    0.000    0.000 
#    0.000    0.000    0.000    0.000    0.000    0.000 
#
# Total GULP energy -173450.435514 kJ/mol
# GULP energy per Si atom -12389.316822 kJ/mol
# Density = 2.110776 g / cm^3
# Si number density = 21.155908 Si / 1000 Ang^3
#
#
#
# Elastic Constant Matrix: (Units=GPa)
#
#
# Indices 1 2 3 4 5 6 
#
# 1 78.4665 46.3472 29.0979 6.9694 -0.6496 30.6804
# 2 46.3472 103.2341 44.0241 16.2865 -0.6377 25.7454
# 3 29.0979 44.0241 88.2939 18.0713 -4.0893 3.7438
# 4 6.9694 16.2865 18.0713 45.2530 13.0502 3.3378
# 5 -0.6496 -0.6377 -4.0893 13.0502 28.2147 6.3355
# 6 30.6804 25.7454 3.7438 3.3378 6.3355 37.2024
#
#
#
# Elastic Compliance Matrix: (Units=1/GPa)
#
#
# Indices 1 2 3 4 5 6 
#
# 1 0.023594 -0.004466 -0.004708 0.000082 0.003423 -0.016484
# 2 -0.004466 0.016426 -0.005644 -0.003169 0.002548 -0.007266
# 3 -0.004708 -0.005644 0.016670 -0.005289 0.003273 0.006028
# 4 0.000082 -0.003169 -0.005289 0.029489 -0.015054 0.002575
# 5 0.003423 0.002548 0.003273 -0.015054 0.045559 -0.011323
# 6 -0.016484 -0.007266 0.006028 0.002575 -0.011323 0.046593
#
#
# Mechanical properties :
#
#
# Convention : Reuss Voigt Hill
#
# Bulk Modulus (GPa) = 36.96219 56.54810 46.75514
# Shear Modulus (GPa) = 23.04287 32.16905 27.60596
#
# Velocity S-wave (km/s) = 3.30387 3.90368 3.61623
# Velocity P-wave (km/s) = 5.66245 6.86335 6.29162
#
# Compressibility (1/GPa) = 0.02705468
#
# Stress axis : x y z
#
# Youngs Moduli (GPa) = 42.38304 60.87806 59.98767
#
# Poissons Ratio (x) = 0.27187 0.28245
# Poissons Ratio (y) = 0.18927 0.33856
# Poissons Ratio (z) = 0.19956 0.34359
#
# Static dielectric constant tensor:
#      x y z
#    x 3.732460 0.582570 0.085770 
#    y 0.582570 3.951130 0.088540 
#    z 0.085770 0.088540 3.919690 
# 
# 
# High freq. dielectric constant tensor:
#      x y z
#    x 1.793550 0.050440 0.008640 
#    y 0.050440 1.825180 0.003650 
#    z 0.008640 0.003650 1.835080 
# 
# From -- ./inp_files/234371.got.cif
#   From: 2010.06.25/outbox.cif.g09.slc.cpg/sg2_118_cif.got.tgz:234371.got - 2010.06.27 13:26:56.
