data_PCOD8036553
_publ_section_title
;
Structure prediction by ZEFSAII (Michael W. Deem and Ramdas Pophale) SiO2 
 PCOD8036553
Probable space group: P -1
;
_chemical_formula_sum "Si O2"
_cell_formula_units_Z 14
_cell_length_a 15.335089
_cell_length_b 13.117547
_cell_length_c 12.414364
_cell_angle_alpha 113.863535
_cell_angle_beta 114.488912
_cell_angle_gamma 18.297892
_cell_volume 712.973349
_symmetry_space_group_name_H-M "P -1"
_symmetry_group_IT_number 2
_symmetry_cell_setting 'triclinic'
loop_
_space_group_symop_operation_xyz
x,y,z
-x,-y,-z
loop_
_atom_site_type_symbol
_atom_site_label
_atom_site_fract_x
_atom_site_fract_y
_atom_site_fract_z
Si Si1 0.907425 0.174451 0.331718
Si Si2 0.974609 0.258245 0.056262
Si Si3 0.942097 0.233074 0.797404
Si Si4 0.205694 0.307598 0.926039
Si Si5 0.441357 0.678533 0.482023
Si Si6 0.558676 0.559850 0.099997
Si Si7 0.656800 0.062199 0.262507
O O1 0.702486 0.418049 0.429521
O O2 0.746107 0.359575 0.216494
O O3 0.062985 0.886889 0.296348
O O4 0.163988 0.979259 0.393893
O O5 0.882657 0.486308 0.096183
O O6 0.723120 0.455245 0.052762
O O7 0.081521 0.094218 0.925991
O O8 0.255971 0.943727 0.138052
O O9 0.629044 0.621533 0.816813
O O10 0.111820 0.111921 0.743114
O O11 0.221915 0.195342 0.793397
O O12 0.000000 0.500000 0.000000
O O13 0.500000 0.000000 0.000000
O O14 0.500000 0.500000 0.500000
O O15 0.409573 0.821981 0.602461
O O16 0.500000 0.500000 0.000000
#
# Coordination Sequence:
#
# PCOD8036553 Si02
#       7
#     2   2   2   2   2   2   2
#     4  12  24  39  59  91 126 162 202 249 303 374
#     4  12  24  40  62  92 129 162 201 253 311 370
#     4  12  21  35  64  91 128 156 200 244 306 386
#     4  12  23  40  64  93 125 161 202 257 315 363
#     4  12  23  38  62  88 127 162 201 251 313 360
#     4  12  26  40  63  90 125 168 206 249 310 365
#     4  12  23  38  60  95 125 162 197 249 315 374
#
# _framework density 19.636078000000001
#
# number of rings (size 3 to 8) (size 9 to 14) (size 15 to 20)
#    0.000    0.000    7.143    4.286    2.000    0.000 
#    0.000    0.000    0.000    5.143    0.000    0.000 
#    0.000    0.000    0.000    0.000    0.000    0.000 
#
# Total GULP energy -173586.022230 kJ/mol
# GULP energy per Si atom -12399.001588 kJ/mol
# Density = 1.959139 g / cm^3
# Si number density = 19.636078 Si / 1000 Ang^3
#
#
#
# Elastic Constant Matrix: (Units=GPa)
#
#
# Indices 1 2 3 4 5 6 
#
# 1 103.0667 51.8412 34.8371 10.7061 14.8989 17.5044
# 2 51.8412 129.1796 34.3805 2.2617 13.4200 -0.9149
# 3 34.8371 34.3805 115.8177 16.9756 22.9608 17.6110
# 4 10.7061 2.2617 16.9756 45.4225 -1.2554 6.1115
# 5 14.8989 13.4200 22.9608 -1.2554 35.7008 7.6598
# 6 17.5044 -0.9149 17.6110 6.1115 7.6598 34.9393
#
#
#
# Elastic Compliance Matrix: (Units=1/GPa)
#
#
# Indices 1 2 3 4 5 6 
#
# 1 0.014193 -0.005186 -0.001149 -0.001923 -0.002040 -0.005884
# 2 -0.005186 0.010516 -0.002046 0.000884 -0.001308 0.004037
# 3 -0.001149 -0.002046 0.011802 -0.003722 -0.005717 -0.003522
# 4 -0.001923 0.000884 -0.003722 0.024242 0.004210 -0.002301
# 5 -0.002040 -0.001308 -0.005717 0.004210 0.034111 -0.004345
# 6 -0.005884 0.004037 -0.003522 -0.002301 -0.004345 0.034805
#
#
# Mechanical properties :
#
#
# Convention : Reuss Voigt Hill
#
# Bulk Modulus (GPa) = 50.63508 65.57573 58.10540
# Shear Modulus (GPa) = 32.67699 38.34619 35.51159
#
# Velocity S-wave (km/s) = 4.08380 4.42389 4.25724
# Velocity P-wave (km/s) = 6.93392 7.71767 7.33627
#
# Compressibility (1/GPa) = 0.01974915
#
# Stress axis : x y z
#
# Youngs Moduli (GPa) = 70.45582 95.09376 84.73440
#
# Poissons Ratio (x) = 0.49318 0.09734
# Poissons Ratio (y) = 0.36540 0.17335
# Poissons Ratio (z) = 0.08094 0.19454
#
# Static dielectric constant tensor:
#      x y z
#    x 3.431260 -0.031390 -0.333250 
#    y -0.031390 3.741350 0.223000 
#    z -0.333250 0.223000 2.357420 
# 
# 
# High freq. dielectric constant tensor:
#      x y z
#    x 1.756620 -0.024190 0.008830 
#    y -0.024190 1.781550 0.003750 
#    z 0.008830 0.003750 1.762030 
# 
# From -- ./inp_files/71644.got.cif
#   From: 2010.06.25/outbox.cif.g09.slc.cpg/sg2_36_cif.got.tgz:71644.got - 2010.06.27 13:26:56.
