data_PCOD8036773
_publ_section_title
;
Structure prediction by ZEFSAII (Michael W. Deem and Ramdas Pophale) SiO2 
 PCOD8036773
Probable space group: P -1
;
_chemical_formula_sum "Si O2"
_cell_formula_units_Z 14
_cell_length_a 15.206533
_cell_length_b 14.737378
_cell_length_c 6.606570
_cell_angle_alpha 77.047495
_cell_angle_beta 64.249316
_cell_angle_gamma 29.030345
_cell_volume 604.658551
_symmetry_space_group_name_H-M "P -1"
_symmetry_group_IT_number 2
_symmetry_cell_setting 'triclinic'
loop_
_space_group_symop_operation_xyz
x,y,z
-x,-y,-z
loop_
_atom_site_type_symbol
_atom_site_label
_atom_site_fract_x
_atom_site_fract_y
_atom_site_fract_z
Si Si1 0.893171 0.314457 0.090702
Si Si2 0.250000 0.000000 0.583186
Si Si3 0.615280 0.997689 0.916166
Si Si4 0.606829 0.685543 0.691502
Si Si5 0.945150 0.447087 0.178896
Si Si6 0.884720 0.002311 0.644414
Si Si7 0.554850 0.552913 0.016283
O O1 0.813120 0.485486 0.152533
O O2 0.694143 0.424122 0.144979
O O3 0.983990 0.177229 0.253979
O O4 0.066025 0.193179 0.811410
O O5 0.355664 0.989318 0.345016
O O6 0.144336 0.010682 0.545661
O O7 0.433975 0.806821 0.636638
O O8 0.841610 0.789857 0.888080
O O9 0.500000 0.000000 0.000000
O O10 0.483990 0.177228 0.100812
O O11 0.805857 0.575878 0.457387
O O12 0.686880 0.514514 0.764259
O O13 0.000000 0.500000 0.000000
O O14 0.658390 0.210143 0.861157
O O15 0.000000 0.000000 0.500000
O O16 0.500000 0.500000 0.000000
#
# Coordination Sequence:
#
# PCOD8036773 Si02
#       7
#     2   2   2   2   2   2   2
#     4  12  27  50  76 110 154 196 257 315 378 460
#     4  12  22  50  76 100 154 192 246 318 370 450
#     4  12  27  48  75 109 147 202 250 312 386 442
#     4  12  27  50  76 110 154 196 257 315 378 460
#     4  12  27  47  74 112 149 200 254 311 384 451
#     4  12  27  48  75 109 147 202 250 312 386 442
#     4  12  27  47  74 112 149 200 254 311 384 451
#
# _framework density 23.153562000000001
#
# number of rings (size 3 to 8) (size 9 to 14) (size 15 to 20)
#    0.000    0.000    5.714    3.429    8.000    3.429 
#    0.000    0.000    0.000    0.000    0.000    0.000 
#    0.000    0.000    0.000    0.000    0.000    0.000 
#
# Total GULP energy -173538.589606 kJ/mol
# GULP energy per Si atom -12395.613543 kJ/mol
# Density = 2.310086 g / cm^3
# Si number density = 23.153562 Si / 1000 Ang^3
#
#
#
# Elastic Constant Matrix: (Units=GPa)
#
#
# Indices 1 2 3 4 5 6 
#
# 1 181.3139 44.8517 54.8357 -16.8615 -6.8158 11.4833
# 2 44.8517 92.7194 31.8443 -8.7375 3.6076 5.2140
# 3 54.8357 31.8443 128.8038 -3.9467 -12.5701 18.4148
# 4 -16.8615 -8.7375 -3.9467 36.7106 -1.9862 -0.8076
# 5 -6.8158 3.6076 -12.5701 -1.9862 43.9397 -4.8021
# 6 11.4833 5.2140 18.4148 -0.8076 -4.8021 39.8567
#
#
#
# Elastic Compliance Matrix: (Units=1/GPa)
#
#
# Indices 1 2 3 4 5 6 
#
# 1 0.007069 -0.002435 -0.002180 0.002459 0.000721 -0.000574
# 2 -0.002435 0.012995 -0.002305 0.001613 -0.002047 -0.000147
# 3 -0.002180 -0.002305 0.009960 -0.000429 0.002309 -0.003403
# 4 0.002459 0.001613 -0.000429 0.028786 0.001431 0.000034
# 5 0.000721 -0.002047 0.002309 0.001431 0.023973 0.001910
# 6 -0.000574 -0.000147 -0.003403 0.000034 0.001910 0.027078
#
#
# Mechanical properties :
#
#
# Convention : Reuss Voigt Hill
#
# Bulk Modulus (GPa) = 61.78871 73.98894 67.88882
# Shear Modulus (GPa) = 38.73121 42.18844 40.45983
#
# Velocity S-wave (km/s) = 4.09442 4.27325 4.18479
# Velocity P-wave (km/s) = 7.00691 7.50818 7.26187
#
# Compressibility (1/GPa) = 0.01618419
#
# Stress axis : x y z
#
# Youngs Moduli (GPa) = 141.46197 76.95375 100.39773
#
# Poissons Ratio (x) = 0.18738 0.21883
# Poissons Ratio (y) = 0.34445 0.23146
# Poissons Ratio (z) = 0.30834 0.17741
#
# Static dielectric constant tensor:
#      x y z
#    x 4.289340 -0.142860 0.047030 
#    y -0.142860 4.375790 0.020440 
#    z 0.047030 0.020440 4.491760 
# 
# 
# High freq. dielectric constant tensor:
#      x y z
#    x 1.927300 -0.008890 -0.003280 
#    y -0.008890 1.925370 0.003560 
#    z -0.003280 0.003560 1.928410 
# 
# From -- ./inp_files/97761.got.cif
#   From: 2010.06.25/outbox.cif.g09.slc.cpg/sg2_49_cif.got.tgz:97761.got - 2010.06.27 13:26:56.
