data_PCOD8036865
_publ_section_title
;
Structure prediction by ZEFSAII (Michael W. Deem and Ramdas Pophale) SiO2 
 PCOD8036865
Probable space group: P -1
;
_chemical_formula_sum "Si O2"
_cell_formula_units_Z 14
_cell_length_a 30.619645
_cell_length_b 16.948601
_cell_length_c 16.956962
_cell_angle_alpha 17.410607
_cell_angle_beta 17.200283
_cell_angle_gamma 17.184978
_cell_volume 676.326587
_symmetry_space_group_name_H-M "P -1"
_symmetry_group_IT_number 2
_symmetry_cell_setting 'triclinic'
loop_
_space_group_symop_operation_xyz
x,y,z
-x,-y,-z
loop_
_atom_site_type_symbol
_atom_site_label
_atom_site_fract_x
_atom_site_fract_y
_atom_site_fract_z
Si Si1 0.389481 0.497158 0.920721
Si Si2 0.893442 0.454063 0.941398
Si Si3 0.799643 0.672991 0.177211
Si Si4 0.116707 0.775206 0.262005
Si Si5 0.693107 0.314584 0.819138
Si Si6 0.892071 0.357167 0.855672
Si Si7 0.613856 0.796233 0.220319
O O1 0.462671 0.723402 0.564476
O O2 0.274973 0.604687 0.093469
O O3 0.283222 0.507567 0.017823
O O4 0.539252 0.155672 0.000275
O O5 0.846085 0.445353 0.941192
O O6 0.003493 0.616924 0.606352
O O7 0.713616 0.637545 0.120092
O O8 0.001468 0.120185 0.107631
O O9 0.725600 0.510537 0.513380
O O10 0.748026 0.664460 0.184965
O O11 0.000000 0.500000 0.000000
O O12 0.722047 0.012825 0.015754
O O13 0.182186 0.761869 0.249647
O O14 0.500000 0.500000 0.000000
O O15 0.000000 0.500000 0.500000
O O16 0.000000 0.000000 0.000000
#
# Coordination Sequence:
#
# PCOD8036865 Si02
#       7
#     2   2   2   2   2   2   2
#     4  12  25  43  70  98 138 171 217 282 329 391
#     4  12  25  44  70  97 133 172 223 272 319 410
#     4  12  25  45  66  94 138 182 219 272 329 396
#     4  12  23  43  69  98 126 180 227 269 325 390
#     4  12  25  42  66  98 132 172 227 280 324 384
#     4  12  23  46  70 102 129 170 224 266 332 393
#     4  12  26  43  65 103 136 174 219 272 342 380
#
# _framework density 20.700059
#
# number of rings (size 3 to 8) (size 9 to 14) (size 15 to 20)
#    0.000    0.000    2.857    8.571    0.000    1.143 
#    0.000    0.000    0.000    0.000    0.000    0.000 
#    0.000    0.000    0.000    0.000    0.000    0.000 
#
# Total GULP energy -173725.338670 kJ/mol
# GULP energy per Si atom -12408.952762 kJ/mol
# Density = 2.065294 g / cm^3
# Si number density = 20.700059 Si / 1000 Ang^3
#
#
#
# Elastic Constant Matrix: (Units=GPa)
#
#
# Indices 1 2 3 4 5 6 
#
# 1 146.9804 10.7266 25.9471 -2.5944 2.5299 -14.6020
# 2 10.7266 123.7983 44.6094 -4.2391 14.4835 11.4120
# 3 25.9471 44.6094 140.3039 -10.2391 -1.3688 8.8382
# 4 -2.5944 -4.2391 -10.2391 45.8934 -3.8105 3.4980
# 5 2.5299 14.4835 -1.3688 -3.8105 37.7653 2.0069
# 6 -14.6020 11.4120 8.8382 3.4980 2.0069 52.1016
#
#
#
# Elastic Compliance Matrix: (Units=1/GPa)
#
#
# Indices 1 2 3 4 5 6 
#
# 1 0.007321 -0.000275 -0.001434 -0.000162 -0.000580 0.002389
# 2 -0.000275 0.009762 -0.002989 0.000027 -0.003748 -0.001566
# 3 -0.001434 -0.002989 0.008581 0.001814 0.001811 -0.001394
# 4 -0.000162 0.000027 0.001814 0.022541 0.002445 -0.001967
# 5 -0.000580 -0.003748 0.001811 0.002445 0.028316 -0.000904
# 6 0.002389 -0.001566 -0.001394 -0.001967 -0.000904 0.020609
#
#
# Mechanical properties :
#
#
# Convention : Reuss Voigt Hill
#
# Bulk Modulus (GPa) = 61.47327 63.73877 62.60602
# Shear Modulus (GPa) = 44.66290 49.13870 46.90080
#
# Velocity S-wave (km/s) = 4.65006 4.87750 4.76514
# Velocity P-wave (km/s) = 7.65456 7.91065 7.78366
#
# Compressibility (1/GPa) = 0.01626723
#
# Stress axis : x y z
#
# Youngs Moduli (GPa) = 136.58628 102.43495 116.53868
#
# Poissons Ratio (x) = 0.02821 0.16716
# Poissons Ratio (y) = 0.03761 0.34832
# Poissons Ratio (z) = 0.19591 0.30617
#
# Static dielectric constant tensor:
#      x y z
#    x 4.256450 0.075790 0.040240 
#    y 0.075790 3.876460 -0.083540 
#    z 0.040240 -0.083540 3.974820 
# 
# 
# High freq. dielectric constant tensor:
#      x y z
#    x 1.832370 0.000990 0.001090 
#    y 0.000990 1.825080 -0.006040 
#    z 0.001090 -0.006040 1.832680 
# 
# From -- ./inp_files/55360.got.cif
#   From: 2010.06.25/outbox.cif.g09.slc.cpg/sg2_28_cif.got.tgz:55360.got - 2010.06.27 13:26:56.
