data_PCOD8036587
_publ_section_title
;
Structure prediction by ZEFSAII (Michael W. Deem and Ramdas Pophale) SiO2 
 PCOD8036587
Probable space group: P -1
;
_chemical_formula_sum "Si O2"
_cell_formula_units_Z 16
_cell_length_a 15.029212
_cell_length_b 9.113994
_cell_length_c 8.794409
_cell_angle_alpha 93.780204
_cell_angle_beta 54.535599
_cell_angle_gamma 58.042988
_cell_volume 700.747962
_symmetry_space_group_name_H-M "P -1"
_symmetry_group_IT_number 2
_symmetry_cell_setting 'triclinic'
loop_
_space_group_symop_operation_xyz
x,y,z
-x,-y,-z
loop_
_atom_site_type_symbol
_atom_site_label
_atom_site_fract_x
_atom_site_fract_y
_atom_site_fract_z
Si Si1 0.681159 0.063939 0.632911
Si Si2 0.855155 0.530690 0.659780
Si Si3 0.866024 0.991137 0.970422
Si Si4 0.364792 0.679408 0.540145
Si Si5 0.014929 0.870892 0.340238
Si Si6 0.404942 0.139272 0.459857
Si Si7 0.814065 0.431041 0.367107
Si Si8 0.663550 0.979329 0.970445
O O1 0.573653 0.274445 0.654771
O O2 0.685645 0.905412 0.532874
O O3 0.614413 0.103059 0.869958
O O4 0.850518 0.969820 0.458959
O O5 0.884537 0.365466 0.730910
O O6 0.809430 0.510957 0.541088
O O7 0.717903 0.759824 0.877079
O O8 0.000000 0.500000 0.500000
O O9 0.905053 0.117258 0.877054
O O10 0.798874 0.951152 0.902244
O O11 0.750765 0.114432 0.231688
O O12 0.015634 0.766896 0.869918
O O13 0.500000 0.500000 0.500000
O O14 0.281492 0.627438 0.532840
O O15 0.000000 0.000000 0.500000
O O16 0.271574 0.380334 0.654788
O O17 0.500000 0.000000 0.500000
O O18 0.517562 0.117285 0.231711
#
# Coordination Sequence:
#
# PCOD8036587 Si02
#       8
#     2   2   2   2   2   2   2   2
#     4  12  23  44  75 100 141 191 239 292 353 428
#     4  12  21  41  71 111 142 178 237 305 355 418
#     4  12  25  47  75 108 141 187 242 301 365 423
#     4  12  28  50  68 103 154 193 236 294 359 436
#     4  12  21  41  71 111 142 178 237 305 355 418
#     4  12  28  50  68 103 154 193 236 294 359 436
#     4  12  23  44  75 100 141 191 239 292 353 428
#     4  12  25  47  75 108 141 187 242 301 365 423
#
# _framework density 22.832746
#
# number of rings (size 3 to 8) (size 9 to 14) (size 15 to 20)
#    0.000    0.000    7.500    3.000    0.000    2.000 
#    0.000    2.500    0.000    0.000    0.000    0.000 
#    0.000    0.000    0.000    0.000    0.000    0.000 
#
# Total GULP energy -198421.878101 kJ/mol
# GULP energy per Si atom -12401.367381 kJ/mol
# Density = 2.278078 g / cm^3
# Si number density = 22.832746 Si / 1000 Ang^3
#
#
#
# Elastic Constant Matrix: (Units=GPa)
#
#
# Indices 1 2 3 4 5 6 
#
# 1 124.6089 49.4904 37.0271 0.7907 1.6799 2.4613
# 2 49.4904 204.7800 70.6134 1.0042 -2.2001 -24.3894
# 3 37.0271 70.6134 92.1881 1.3934 -0.1102 -10.1299
# 4 0.7907 1.0042 1.3934 36.7213 -1.0638 -0.2536
# 5 1.6799 -2.2001 -0.1102 -1.0638 30.9416 1.2689
# 6 2.4613 -24.3894 -10.1299 -0.2536 1.2689 41.4644
#
#
#
# Elastic Compliance Matrix: (Units=1/GPa)
#
#
# Indices 1 2 3 4 5 6 
#
# 1 0.009558 -0.001589 -0.002861 -0.000085 -0.000555 -0.002184
# 2 -0.001589 0.007220 -0.004539 0.000044 0.000453 0.003219
# 3 -0.002861 -0.004539 0.015624 -0.000403 -0.000180 0.001320
# 4 -0.000085 0.000044 -0.000403 0.027276 0.000941 0.000071
# 5 -0.000555 0.000453 -0.000180 0.000941 0.032443 -0.000732
# 6 -0.002184 0.003219 0.001320 0.000071 -0.000732 0.026485
#
#
# Mechanical properties :
#
#
# Convention : Reuss Voigt Hill
#
# Bulk Modulus (GPa) = 69.32760 81.75986 75.54373
# Shear Modulus (GPa) = 35.36259 39.45519 37.40889
#
# Velocity S-wave (km/s) = 3.93971 4.16144 4.05209
# Velocity P-wave (km/s) = 7.15012 7.67959 7.41958
#
# Compressibility (1/GPa) = 0.01442427
#
# Stress axis : x y z
#
# Youngs Moduli (GPa) = 104.62958 138.49538 64.00371
#
# Poissons Ratio (x) = 0.22007 0.18312
# Poissons Ratio (y) = 0.16625 0.29050
# Poissons Ratio (z) = 0.29935 0.62861
#
# Static dielectric constant tensor:
#      x y z
#    x 4.512210 0.048310 0.038340 
#    y 0.048310 4.738680 0.036630 
#    z 0.038340 0.036630 3.917530 
# 
# 
# High freq. dielectric constant tensor:
#      x y z
#    x 1.931960 0.003290 0.003670 
#    y 0.003290 1.918860 0.002060 
#    z 0.003670 0.002060 1.873810 
# 
# From -- ./inp_files/243859.got.cif
#   From: 2010.06.25/outbox.cif.g09.slc.cpg/sg2_122_cif.got.tgz:243859.got - 2010.06.27 13:26:56.
