data_PCOD8036003
_publ_section_title
;
Structure prediction by ZEFSAII (Michael W. Deem and Ramdas Pophale) SiO2 
 PCOD8036003
Probable space group: P -1
;
_chemical_formula_sum "Si O2"
_cell_formula_units_Z 14
_cell_length_a 6.803078
_cell_length_b 8.592913
_cell_length_c 22.439996
_cell_angle_alpha 37.242787
_cell_angle_beta 124.580467
_cell_angle_gamma 125.879497
_cell_volume 629.463123
_symmetry_space_group_name_H-M "P -1"
_symmetry_group_IT_number 2
_symmetry_cell_setting 'triclinic'
loop_
_space_group_symop_operation_xyz
x,y,z
-x,-y,-z
loop_
_atom_site_type_symbol
_atom_site_label
_atom_site_fract_x
_atom_site_fract_y
_atom_site_fract_z
Si Si1 0.461094 0.792994 0.609301
Si Si2 0.743976 0.553677 0.957107
Si Si3 0.878656 0.545092 0.728981
Si Si4 0.961618 0.489753 0.568183
Si Si5 0.196594 0.292512 0.944679
Si Si6 0.740233 0.965409 0.393297
Si Si7 0.693767 0.102111 0.733562
O O1 0.671314 0.637264 0.702735
O O2 0.445173 0.968140 0.610602
O O3 0.219677 0.558304 0.625685
O O4 0.500000 0.000000 0.500000
O O5 0.486829 0.323183 0.964671
O O6 0.749361 0.826999 0.842163
O O7 0.764182 0.582361 0.022141
O O8 0.000000 0.500000 0.000000
O O9 0.769365 0.299152 0.741943
O O10 0.081073 0.479061 0.826977
O O11 0.006681 0.801075 0.633051
O O12 0.821600 0.207276 0.659583
O O13 0.000000 0.500000 0.500000
O O14 0.802459 0.688909 0.501142
O O15 0.000000 0.000000 0.000000
O O16 0.601354 0.944788 0.311967
#
# Coordination Sequence:
#
# PCOD8036003 Si02
#       7
#     2   2   2   2   2   2   2
#     4  12  24  42  69 100 138 189 234 284 349 414
#     4  11  27  47  75 107 145 184 241 304 362 430
#     4  12  25  45  73 100 142 187 233 290 355 424
#     4  12  25  44  71 105 146 191 237 289 351 425
#     4  11  25  49  74 105 140 189 239 302 363 428
#     4  12  25  46  68 101 147 182 235 288 347 422
#     4  12  25  46  70 104 142 186 237 292 357 422
#
# _framework density 22.241174999999998
#
# number of rings (size 3 to 8) (size 9 to 14) (size 15 to 20)
#    0.000    0.286    5.714    3.429    2.000    1.714 
#    0.000    0.000    0.000    0.000    0.000    0.000 
#    0.000    0.000    0.000    0.000    0.000    0.000 
#
# Total GULP energy -173492.689502 kJ/mol
# GULP energy per Si atom -12392.334964 kJ/mol
# Density = 2.219055 g / cm^3
# Si number density = 22.241175 Si / 1000 Ang^3
#
#
#
# Elastic Constant Matrix: (Units=GPa)
#
#
# Indices 1 2 3 4 5 6 
#
# 1 147.4425 55.4395 44.7182 3.0038 21.5700 9.0494
# 2 55.4395 127.4055 39.4488 3.2904 4.6612 23.9414
# 3 44.7182 39.4488 86.6580 8.1385 8.5689 -0.4752
# 4 3.0038 3.2904 8.1385 38.6202 7.8265 1.1070
# 5 21.5700 4.6612 8.5689 7.8265 39.3359 12.7661
# 6 9.0494 23.9414 -0.4752 1.1070 12.7661 25.9224
#
#
#
# Elastic Compliance Matrix: (Units=1/GPa)
#
#
# Indices 1 2 3 4 5 6 
#
# 1 0.009598 -0.003569 -0.002908 0.001159 -0.005221 0.002414
# 2 -0.003569 0.013371 -0.004870 -0.000680 0.006179 -0.014207
# 3 -0.002908 -0.004870 0.015833 -0.002249 -0.003267 0.007508
# 4 0.001159 -0.000680 -0.002249 0.027535 -0.006215 0.002067
# 5 -0.005221 0.006179 -0.003267 -0.006215 0.036534 -0.021671
# 6 0.002414 -0.014207 0.007508 0.002067 -0.021671 0.061577
#
#
# Mechanical properties :
#
#
# Convention : Reuss Voigt Hill
#
# Bulk Modulus (GPa) = 62.08021 71.19098 66.63560
# Shear Modulus (GPa) = 25.97260 35.56899 30.77080
#
# Velocity S-wave (km/s) = 3.42097 4.00339 3.72359
# Velocity P-wave (km/s) = 6.60129 7.31079 6.96508
#
# Compressibility (1/GPa) = 0.01610819
#
# Stress axis : x y z
#
# Youngs Moduli (GPa) = 104.18769 74.78861 63.16105
#
# Poissons Ratio (x) = 0.26690 0.18366
# Poissons Ratio (y) = 0.37181 0.30761
# Poissons Ratio (z) = 0.30295 0.36424
#
# Static dielectric constant tensor:
#      x y z
#    x 4.470940 0.133120 0.151500 
#    y 0.133120 3.859130 0.138940 
#    z 0.151500 0.138940 4.104950 
# 
# 
# High freq. dielectric constant tensor:
#      x y z
#    x 1.875340 0.021400 0.002000 
#    y 0.021400 1.894280 0.011670 
#    z 0.002000 0.011670 1.881950 
# 
# From -- ./inp_files/52665.got.cif
#   From: 2010.06.25/outbox.cif.g09.slc.cpg/sg2_27_cif.got.tgz:52665.got - 2010.06.27 13:26:56.
