data_PCOD8036590
_publ_section_title
;
Structure prediction by ZEFSAII (Michael W. Deem and Ramdas Pophale) SiO2 
 PCOD8036590
Probable space group: P -1
;
_chemical_formula_sum "Si O2"
_cell_formula_units_Z 16
_cell_length_a 10.149549
_cell_length_b 11.994309
_cell_length_c 10.738993
_cell_angle_alpha 110.248524
_cell_angle_beta 44.163369
_cell_angle_gamma 120.710007
_cell_volume 782.646796
_symmetry_space_group_name_H-M "P -1"
_symmetry_group_IT_number 2
_symmetry_cell_setting 'triclinic'
loop_
_space_group_symop_operation_xyz
x,y,z
-x,-y,-z
loop_
_atom_site_type_symbol
_atom_site_label
_atom_site_fract_x
_atom_site_fract_y
_atom_site_fract_z
Si Si1 0.869374 0.294279 0.052934
Si Si2 0.248521 0.041284 0.590710
Si Si3 0.540780 0.704665 0.573199
Si Si4 0.770288 0.428688 0.679251
Si Si5 0.928954 0.455586 0.840467
Si Si6 0.351645 0.485061 0.433737
Si Si7 0.520210 0.129631 0.688823
Si Si8 0.882688 0.017994 0.967691
O O1 0.660935 0.267179 0.258185
O O2 0.047753 0.417817 0.046097
O O3 0.850659 0.329658 0.934906
O O4 0.918404 0.167948 0.984020
O O5 0.276094 0.157277 0.522005
O O6 0.391131 0.100739 0.638051
O O7 0.001720 0.978305 0.760838
O O8 0.317886 0.937259 0.440508
O O9 0.523568 0.611949 0.430568
O O10 0.592796 0.639061 0.633685
O O11 0.763213 0.443578 0.839077
O O12 0.644277 0.495198 0.710906
O O13 0.668208 0.278413 0.656130
O O14 0.000000 0.500000 0.500000
O O15 0.136673 0.462954 0.637358
O O16 0.359708 0.076381 0.893436
O O17 0.000000 0.000000 0.000000
#
# Coordination Sequence:
#
# PCOD8036590 Si02
#       8
#     2   2   2   2   2   2   2   2
#     4  10  19  37  57  86 116 148 203 242 293 345
#     4  10  19  33  62  86 118 152 194 246 288 343
#     4  10  17  31  58  84 114 150 191 244 289 335
#     4  10  20  37  61  83 120 156 194 242 303 352
#     4   9  20  35  60  82 115 158 189 248 294 348
#     4   9  18  31  55  85 112 150 195 237 289 350
#     4  10  20  36  57  88 117 154 196 241 294 352
#     4  10  21  34  59  89 118 149 195 250 290 344
#
# _framework density 20.443446999999999
#
# number of rings (size 3 to 8) (size 9 to 14) (size 15 to 20)
#    0.000    2.250    2.500    0.750    0.000    1.000 
#    0.000    1.250    5.500    3.750    0.000    0.000 
#    0.000    0.000    0.000    0.000    0.000    0.000 
#
# Total GULP energy -198265.786433 kJ/mol
# GULP energy per Si atom -12391.611652 kJ/mol
# Density = 2.039692 g / cm^3
# Si number density = 20.443447 Si / 1000 Ang^3
#
#
#
# Elastic Constant Matrix: (Units=GPa)
#
#
# Indices 1 2 3 4 5 6 
#
# 1 102.2842 42.2150 27.0725 -0.2693 19.2391 -24.6705
# 2 42.2150 104.7753 45.0052 -21.4895 -10.2207 -24.2780
# 3 27.0725 45.0052 95.7576 -7.4571 -12.5965 -8.4232
# 4 -0.2693 -21.4895 -7.4571 26.2815 -7.5347 -2.5184
# 5 19.2391 -10.2207 -12.5965 -7.5347 32.6819 -3.9437
# 6 -24.6705 -24.2780 -8.4232 -2.5184 -3.9437 37.2830
#
#
#
# Elastic Compliance Matrix: (Units=1/GPa)
#
#
# Indices 1 2 3 4 5 6 
#
# 1 0.019276 -0.010553 -0.004043 -0.014966 -0.019427 0.001904
# 2 -0.010553 0.025897 -0.003112 0.027490 0.021050 0.013261
# 3 -0.004043 -0.003112 0.014312 0.003648 0.007716 -0.000406
# 4 -0.014966 0.027490 0.003648 0.074023 0.038032 0.017845
# 5 -0.019427 0.021050 0.007716 0.038032 0.061771 0.011699
# 6 0.001904 0.013261 -0.000406 0.017845 0.011699 0.039068
#
#
# Mechanical properties :
#
#
# Convention : Reuss Voigt Hill
#
# Bulk Modulus (GPa) = 41.54705 59.04473 50.29589
# Shear Modulus (GPa) = 17.99940 31.81757 24.90849
#
# Velocity S-wave (km/s) = 2.97045 3.94937 3.49436
# Velocity P-wave (km/s) = 5.66850 7.05275 6.39817
#
# Compressibility (1/GPa) = 0.02406910
#
# Stress axis : x y z
#
# Youngs Moduli (GPa) = 51.87695 38.61421 69.87177
#
# Poissons Ratio (x) = 0.40751 0.28252
# Poissons Ratio (y) = 0.54747 0.21741
# Poissons Ratio (z) = 0.20976 0.12015
#
# Static dielectric constant tensor:
#      x y z
#    x 3.793530 -0.283900 0.151960 
#    y -0.283900 3.633260 -0.160520 
#    z 0.151960 -0.160520 3.714170 
# 
# 
# High freq. dielectric constant tensor:
#      x y z
#    x 1.776300 -0.031260 -0.005040 
#    y -0.031260 1.793190 -0.019720 
#    z -0.005040 -0.019720 1.795550 
# 
# From -- ./inp_files/387999.got.cif
#   From: 2010.06.25/outbox.cif.g09.slc.cpg/sg2_194_cif.got.tgz:387999.got - 2010.06.27 13:26:56.
