data_PCOD8036445
_publ_section_title
;
Structure prediction by ZEFSAII (Michael W. Deem and Ramdas Pophale) SiO2 
 PCOD8036445
Probable space group: P -1
;
_chemical_formula_sum "Si O2"
_cell_formula_units_Z 14
_cell_length_a 5.149318
_cell_length_b 14.714860
_cell_length_c 16.985621
_cell_angle_alpha 29.754072
_cell_angle_beta 115.064783
_cell_angle_gamma 102.911678
_cell_volume 547.938347
_symmetry_space_group_name_H-M "P -1"
_symmetry_group_IT_number 2
_symmetry_cell_setting 'triclinic'
loop_
_space_group_symop_operation_xyz
x,y,z
-x,-y,-z
loop_
_atom_site_type_symbol
_atom_site_label
_atom_site_fract_x
_atom_site_fract_y
_atom_site_fract_z
Si Si1 0.430631 0.522846 0.382272
Si Si2 0.237208 0.188621 0.119183
Si Si3 0.800964 0.762326 0.168328
Si Si4 0.815258 0.981443 0.157063
Si Si5 0.817733 0.381904 0.228964
Si Si6 0.699910 0.791623 0.712171
Si Si7 0.240162 0.183739 0.569003
O O1 0.500000 0.500000 0.500000
O O2 0.664604 0.606732 0.306072
O O3 0.454959 0.319309 0.497253
O O4 0.083996 0.662784 0.223323
O O5 0.145521 0.195252 0.194351
O O6 0.985602 0.137176 0.074196
O O7 0.566664 0.030067 0.272577
O O8 0.251230 0.391509 0.936158
O O9 0.916887 0.874180 0.167906
O O10 0.547486 0.911598 0.970068
O O11 0.893577 0.823922 0.355338
O O12 0.503350 0.346648 0.197742
O O13 0.038201 0.307128 0.240614
O O14 0.959740 0.265990 0.412850
O O15 0.500000 0.000000 0.500000
#
# Coordination Sequence:
#
# PCOD8036445 Si02
#       7
#     2   2   2   2   2   2   2
#     4  12  25  48  72 109 149 200 250 307 369 438
#     4  12  28  48  76 112 151 193 252 305 373 447
#     4  11  27  48  74 105 154 201 251 303 377 435
#     4  11  27  46  74 109 149 198 251 313 363 444
#     4  12  29  50  77 112 149 199 241 309 374 446
#     4  12  26  53  80 108 152 195 245 305 377 444
#     4  12  28  44  77 109 151 196 252 309 368 437
#
# _framework density 25.550319999999999
#
# number of rings (size 3 to 8) (size 9 to 14) (size 15 to 20)
#    0.000    0.286    2.857    4.286   10.000    1.143 
#    0.000    0.000    0.000    0.000    0.000    0.000 
#    0.000    0.000    0.000    0.000    0.000    0.000 
#
# Total GULP energy -173743.507224 kJ/mol
# GULP energy per Si atom -12410.250516 kJ/mol
# Density = 2.549217 g / cm^3
# Si number density = 25.550320 Si / 1000 Ang^3
#
#
#
# Elastic Constant Matrix: (Units=GPa)
#
#
# Indices 1 2 3 4 5 6 
#
# 1 -750.9080 -192.6874 -220.5867 552.9962 -309.9839 -132.4706
# 2 -192.6874 50.1891 -22.5614 140.3011 -94.3163 -28.0197
# 3 -220.5867 -22.5614 53.0717 154.6299 -89.5667 -56.8317
# 4 552.9962 140.3011 154.6299 -324.0271 206.2041 91.8920
# 5 -309.9839 -94.3163 -89.5667 206.2041 -80.1950 -65.5664
# 6 -132.4706 -28.0197 -56.8317 91.8920 -65.5664 1.7814
#
#
#
# Elastic Compliance Matrix: (Units=1/GPa)
#
#
# Indices 1 2 3 4 5 6 
#
# 1 0.009948 -0.002097 -0.003203 0.005202 -0.009454 -0.011716
# 2 -0.002097 0.012208 -0.004230 0.000333 0.003031 -0.004527
# 3 -0.003203 -0.004230 0.011396 0.002137 0.001676 0.010329
# 4 0.005202 0.000333 0.002137 0.015232 0.009082 0.008802
# 5 -0.009454 0.003031 0.001676 0.009082 0.029496 0.015280
# 6 -0.011716 -0.004527 0.010329 0.008802 0.015280 0.056786
#
#
# Mechanical properties :
#
#
# Convention : Reuss Voigt Hill
#
# Bulk Modulus (GPa) = 69.00001 -168.81313 -49.90656
# Shear Modulus (GPa) = 31.45497 -94.60890 -31.57696
#
# Velocity S-wave (km/s) = 3.51251 -6.09170 -3.51931
# Velocity P-wave (km/s) = 6.59655 10.75606 6.00742
#
# Compressibility (1/GPa) = 0.01449275
#
# Stress axis : x y z
#
# Youngs Moduli (GPa) = 100.52268 81.91222 87.74889
#
# Poissons Ratio (x) = 0.17177 0.28102
# Poissons Ratio (y) = 0.21080 0.37120
# Poissons Ratio (z) = 0.32193 0.34651
#
# Static dielectric constant tensor:
#      x y z
#    x 4.417150 0.058670 0.112510 
#    y 0.058670 4.875300 -0.006650 
#    z 0.112510 -0.006650 4.855600 
# 
# 
# High freq. dielectric constant tensor:
#      x y z
#    x 2.014980 0.003270 -0.002360 
#    y 0.003270 2.036830 0.001790 
#    z -0.002360 0.001790 2.039890 
# 
# From -- ./inp_files/549789.got.cif
#   From: 2010.06.25/outbox.cif.g09.slc.cpg/sg2_275_cif.got.tgz:549789.got - 2010.06.27 13:26:56.
