data_PCOD8036569
_publ_section_title
;
Structure prediction by ZEFSAII (Michael W. Deem and Ramdas Pophale) SiO2 
 PCOD8036569
Probable space group: P -1
;
_chemical_formula_sum "Si O2"
_cell_formula_units_Z 16
_cell_length_a 12.451549
_cell_length_b 14.514763
_cell_length_c 10.458168
_cell_angle_alpha 47.111961
_cell_angle_beta 35.905014
_cell_angle_gamma 66.868861
_cell_volume 754.930169
_symmetry_space_group_name_H-M "P -1"
_symmetry_group_IT_number 2
_symmetry_cell_setting 'triclinic'
loop_
_space_group_symop_operation_xyz
x,y,z
-x,-y,-z
loop_
_atom_site_type_symbol
_atom_site_label
_atom_site_fract_x
_atom_site_fract_y
_atom_site_fract_z
Si Si1 0.293454 0.490811 0.262839
Si Si2 0.382001 0.340618 0.792746
Si Si3 0.986451 0.215467 0.892103
Si Si4 0.650384 0.066595 0.177298
Si Si5 0.270859 0.639955 0.912172
Si Si6 0.341425 0.694998 0.231849
Si Si7 0.947599 0.583918 0.861549
Si Si8 0.326410 0.180046 0.738267
O O1 0.144556 0.338977 0.549216
O O2 0.310909 0.551707 0.330510
O O3 0.500000 0.500000 0.000000
O O4 0.206026 0.575892 0.174632
O O5 0.500000 0.500000 0.500000
O O6 0.484280 0.280843 0.858111
O O7 0.360593 0.240500 0.789646
O O8 0.161676 0.321553 0.066300
O O9 0.106981 0.150740 0.926464
O O10 0.864023 0.116901 0.991293
O O11 0.842678 0.256040 0.089107
O O12 0.500000 0.000000 0.500000
O O13 0.641855 0.961661 0.171202
O O14 0.602212 0.186826 0.040844
O O15 0.506839 0.712338 0.611927
O O16 0.206411 0.524295 0.978632
O O17 0.140993 0.682045 0.509893
O O18 0.000000 0.500000 0.000000
#
# Coordination Sequence:
#
# PCOD8036569 Si02
#       8
#     2   2   2   2   2   2   2   2
#     4  12  22  38  68 106 138 167 224 295 361 413
#     4  12  24  44  72 105 136 180 231 293 351 411
#     4  12  23  42  69  98 139 177 226 289 355 407
#     4  12  27  49  70  99 140 193 238 283 342 416
#     4  12  21  39  66 101 137 175 222 287 362 410
#     4  12  25  46  69 102 146 181 229 290 352 414
#     4  12  23  41  69 105 142 177 226 287 356 417
#     4  12  25  45  67  97 138 186 237 280 341 416
#
# _framework density 21.194013000000002
#
# number of rings (size 3 to 8) (size 9 to 14) (size 15 to 20)
#    0.000    0.000    7.500    3.750    0.000    0.500 
#    2.250    0.625    0.000    0.000    0.000    0.000 
#    0.000    0.000    0.000    0.000    0.000    0.000 
#
# Total GULP energy -198411.165135 kJ/mol
# GULP energy per Si atom -12400.697821 kJ/mol
# Density = 2.114577 g / cm^3
# Si number density = 21.194013 Si / 1000 Ang^3
#
#
#
# Elastic Constant Matrix: (Units=GPa)
#
#
# Indices 1 2 3 4 5 6 
#
# 1 142.1437 44.1239 41.0798 -3.7849 -1.2799 5.2059
# 2 44.1239 120.4658 40.6946 13.4048 -5.1688 19.3147
# 3 41.0798 40.6946 113.7712 10.8942 -5.1189 -2.1310
# 4 -3.7849 13.4048 10.8942 36.4740 -5.4362 -2.4197
# 5 -1.2799 -5.1688 -5.1189 -5.4362 32.9287 3.0769
# 6 5.2059 19.3147 -2.1310 -2.4197 3.0769 41.5179
#
#
#
# Elastic Compliance Matrix: (Units=1/GPa)
#
#
# Indices 1 2 3 4 5 6 
#
# 1 0.008620 -0.002666 -0.002406 0.002599 -0.000046 0.000191
# 2 -0.002666 0.011616 -0.002872 -0.003883 0.001149 -0.005528
# 3 -0.002406 -0.002872 0.010966 -0.002246 0.000600 0.002025
# 4 0.002599 -0.003883 -0.002246 0.030558 0.003920 0.002856
# 5 -0.000046 0.001149 0.000600 0.003920 0.031531 -0.002606
# 6 0.000191 -0.005528 0.002025 0.002856 -0.002606 0.027097
#
#
# Mechanical properties :
#
#
# Convention : Reuss Voigt Hill
#
# Bulk Modulus (GPa) = 65.30671 69.79747 67.55209
# Shear Modulus (GPa) = 35.36541 38.88296 37.12418
#
# Velocity S-wave (km/s) = 4.08934 4.28789 4.18979
# Velocity P-wave (km/s) = 7.29230 7.58412 7.43964
#
# Compressibility (1/GPa) = 0.01531236
#
# Stress axis : x y z
#
# Youngs Moduli (GPa) = 116.01007 86.09030 91.19404
#
# Poissons Ratio (x) = 0.22954 0.21942
# Poissons Ratio (y) = 0.30931 0.26192
# Poissons Ratio (z) = 0.27913 0.24726
#
# Static dielectric constant tensor:
#      x y z
#    x 4.011090 -0.105490 -0.111560 
#    y -0.105490 3.886250 0.173260 
#    z -0.111560 0.173260 3.874710 
# 
# 
# High freq. dielectric constant tensor:
#      x y z
#    x 1.841660 0.000320 -0.010820 
#    y 0.000320 1.833250 0.018480 
#    z -0.010820 0.018480 1.822800 
# 
# From -- ./inp_files/271738.got.cif
#   From: 2010.06.25/outbox.cif.g09.slc.cpg/sg2_136_cif.got.tgz:271738.got - 2010.06.27 13:26:56.
