data_PCOD8036107
_publ_section_title
;
Structure prediction by ZEFSAII (Michael W. Deem and Ramdas Pophale) SiO2 
 PCOD8036107
Probable space group: P -1
;
_chemical_formula_sum "Si O2"
_cell_formula_units_Z 16
_cell_length_a 12.209784
_cell_length_b 7.951398
_cell_length_c 17.237984
_cell_angle_alpha 95.694097
_cell_angle_beta 143.945549
_cell_angle_gamma 64.876418
_cell_volume 792.778305
_symmetry_space_group_name_H-M "P -1"
_symmetry_group_IT_number 2
_symmetry_cell_setting 'triclinic'
loop_
_space_group_symop_operation_xyz
x,y,z
-x,-y,-z
loop_
_atom_site_type_symbol
_atom_site_label
_atom_site_fract_x
_atom_site_fract_y
_atom_site_fract_z
Si Si1 0.190614 0.423628 0.669635
Si Si2 0.301242 0.360857 0.088954
Si Si3 0.398226 0.889189 0.475096
Si Si4 0.793970 0.661540 0.791638
Si Si5 0.043364 0.119644 0.419107
Si Si6 0.763306 0.960929 0.300269
Si Si7 0.669375 0.267487 0.875103
Si Si8 0.839199 0.034778 0.808078
O O1 0.187633 0.255523 0.713869
O O2 0.441696 0.289829 0.768905
O O3 0.000000 0.500000 0.500000
O O4 0.130578 0.630861 0.687990
O O5 0.301392 0.335949 0.179512
O O6 0.369517 0.516659 0.117737
O O7 0.491193 0.143358 0.146709
O O8 0.049498 0.451091 0.914094
O O9 0.619391 0.673893 0.628540
O O10 0.500000 0.000000 0.500000
O O11 0.230235 0.026516 0.454968
O O12 0.262352 0.858695 0.329418
O O13 0.795647 0.863505 0.796939
O O14 0.162457 0.069839 0.568576
O O15 0.903064 0.019011 0.330619
O O16 0.713466 0.221534 0.806558
O O17 0.886649 0.076207 0.038551
#
# Coordination Sequence:
#
# PCOD8036107 Si02
#       8
#     2   2   2   2   2   2   2   2
#     4  10  21  32  58  86 113 146 192 249 282 338
#     4  10  17  31  56  84 116 148 189 246 287 330
#     4  10  20  36  60  81 119 153 192 234 298 354
#     4   9  18  31  54  83 111 148 194 231 288 350
#     4  10  20  36  56  88 113 153 196 237 291 346
#     4  10  19  34  59  84 116 149 193 250 280 335
#     4  10  19  35  55  86 114 143 208 236 289 340
#     4   9  20  35  57  79 113 159 185 247 286 345
#
# _framework density 20.182188
#
# number of rings (size 3 to 8) (size 9 to 14) (size 15 to 20)
#    0.000    2.250    2.500    0.750    5.250    1.000 
#    0.000    1.250    5.500    0.750    0.000    0.000 
#    0.000    0.000    0.000    0.000    0.000    0.000 
#
# Total GULP energy -198289.962722 kJ/mol
# GULP energy per Si atom -12393.122670 kJ/mol
# Density = 2.013625 g / cm^3
# Si number density = 20.182188 Si / 1000 Ang^3
#
#
#
# Elastic Constant Matrix: (Units=GPa)
#
#
# Indices 1 2 3 4 5 6 
#
# 1 103.0393 35.8978 39.6114 -10.1133 18.7936 1.1576
# 2 35.8978 87.9290 31.2202 -20.2364 5.9498 12.8884
# 3 39.6114 31.2202 145.2796 -15.5184 3.7479 -10.5124
# 4 -10.1133 -20.2364 -15.5184 25.3659 -6.5719 -0.4531
# 5 18.7936 5.9498 3.7479 -6.5719 31.6477 -1.9123
# 6 1.1576 12.8884 -10.5124 -0.4531 -1.9123 23.1509
#
#
#
# Elastic Compliance Matrix: (Units=1/GPa)
#
#
# Indices 1 2 3 4 5 6 
#
# 1 0.013430 -0.004410 -0.002714 -0.001686 -0.007179 -0.000075
# 2 -0.004410 0.018058 -0.002254 0.011397 0.001221 -0.010532
# 3 -0.002714 -0.002254 0.008795 0.003113 0.001979 0.005609
# 4 -0.001686 0.011397 0.003113 0.052054 0.009113 -0.003075
# 5 -0.007179 0.001221 0.001979 0.009113 0.037523 0.003856
# 6 -0.000075 -0.010532 0.005609 -0.003075 0.003856 0.051867
#
#
# Mechanical properties :
#
#
# Convention : Reuss Voigt Hill
#
# Bulk Modulus (GPa) = 46.45769 61.07853 53.76811
# Shear Modulus (GPa) = 24.07794 31.33414 27.70604
#
# Velocity S-wave (km/s) = 3.45777 3.94453 3.70915
# Velocity P-wave (km/s) = 6.24586 7.14668 6.71140
#
# Compressibility (1/GPa) = 0.02152496
#
# Stress axis : x y z
#
# Youngs Moduli (GPa) = 74.46138 55.37744 113.69987
#
# Poissons Ratio (x) = 0.24424 0.30861
# Poissons Ratio (y) = 0.32840 0.25631
# Poissons Ratio (z) = 0.20210 0.12484
#
# Static dielectric constant tensor:
#      x y z
#    x 3.607620 0.228870 0.055230 
#    y 0.228870 3.795000 -0.244740 
#    z 0.055230 -0.244740 4.166310 
# 
# 
# High freq. dielectric constant tensor:
#      x y z
#    x 1.776280 0.015010 0.024240 
#    y 0.015010 1.768540 -0.026180 
#    z 0.024240 -0.026180 1.787120 
# 
# From -- ./inp_files/266836.got.cif
#   From: 2010.06.25/outbox.cif.g09.slc.cpg/sg2_134_cif.got.tgz:266836.got - 2010.06.27 13:26:56.
