data_PCOD8036117
_publ_section_title
;
Structure prediction by ZEFSAII (Michael W. Deem and Ramdas Pophale) SiO2 
 PCOD8036117
Probable space group: P -1
;
_chemical_formula_sum "Si O2"
_cell_formula_units_Z 16
_cell_length_a 8.750201
_cell_length_b 9.808833
_cell_length_c 17.067399
_cell_angle_alpha 90.609248
_cell_angle_beta 150.419501
_cell_angle_gamma 89.719221
_cell_volume 723.064189
_symmetry_space_group_name_H-M "P -1"
_symmetry_group_IT_number 2
_symmetry_cell_setting 'triclinic'
loop_
_space_group_symop_operation_xyz
x,y,z
-x,-y,-z
loop_
_atom_site_type_symbol
_atom_site_label
_atom_site_fract_x
_atom_site_fract_y
_atom_site_fract_z
Si Si1 0.906657 0.613653 0.899599
Si Si2 0.749492 0.113330 0.897320
Si Si3 0.407330 0.116962 0.900841
Si Si4 0.761947 0.199637 0.559909
Si Si5 0.743862 0.947030 0.445731
Si Si6 0.744226 0.444834 0.444883
Si Si7 0.762798 0.696235 0.557254
Si Si8 0.246922 0.614073 0.895190
O O1 0.535046 0.623031 0.729798
O O2 0.015169 0.574167 0.861035
O O3 0.000000 0.500000 0.000000
O O4 0.063290 0.749403 0.002654
O O5 0.509668 0.076264 0.859030
O O6 0.553058 0.119041 0.730045
O O7 0.000000 0.000000 0.000000
O O8 0.040640 0.144767 0.737470
O O9 0.584796 0.247378 0.009909
O O10 0.500000 0.000000 0.000000
O O11 0.884141 0.324962 0.561028
O O12 0.488387 0.253332 0.492377
O O13 0.631659 0.074404 0.448955
O O14 0.878801 0.825441 0.558556
O O15 0.000000 0.000000 0.500000
O O16 0.622099 0.573684 0.441324
O O17 0.000000 0.500000 0.500000
O O18 0.059496 0.631984 0.731541
O O19 0.500000 0.500000 0.000000
#
# Coordination Sequence:
#
# PCOD8036117 Si02
#       8
#     2   2   2   2   2   2   2   2
#     4  11  26  47  69 104 143 187 240 292 361 428
#     4  11  26  46  69 102 145 185 238 296 359 427
#     4  11  26  45  69 103 143 188 236 294 360 423
#     4  12  25  47  74 103 147 189 246 298 352 434
#     4  12  25  47  74 107 144 191 243 293 357 428
#     4  12  27  47  76 104 144 190 244 300 360 428
#     4  12  27  46  75 106 142 193 242 299 363 425
#     4  11  26  46  70 104 146 186 236 294 364 429
#
# _framework density 22.128050000000002
#
# number of rings (size 3 to 8) (size 9 to 14) (size 15 to 20)
#    0.000    0.500    2.500    4.500   10.500    1.000 
#    0.000    0.000    0.000    0.000    0.000    0.000 
#    0.000    0.000    0.000    0.000    0.000    0.000 
#
# Total GULP energy -198477.718861 kJ/mol
# GULP energy per Si atom -12404.857429 kJ/mol
# Density = 2.207769 g / cm^3
# Si number density = 22.128050 Si / 1000 Ang^3
#
#
#
# Elastic Constant Matrix: (Units=GPa)
#
#
# Indices 1 2 3 4 5 6 
#
# 1 95.6949 64.3597 62.3707 -4.4788 -4.5760 12.3486
# 2 64.3597 139.3236 49.0803 -20.0784 -10.8285 12.3348
# 3 62.3707 49.0803 148.6785 -13.9758 2.1185 10.2209
# 4 -4.4788 -20.0784 -13.9758 48.9875 -0.0342 -7.5538
# 5 -4.5760 -10.8285 2.1185 -0.0342 33.8846 -6.0352
# 6 12.3486 12.3348 10.2209 -7.5538 -6.0352 43.2352
#
#
#
# Elastic Compliance Matrix: (Units=1/GPa)
#
#
# Indices 1 2 3 4 5 6 
#
# 1 0.019179 -0.007005 -0.005857 -0.003192 0.000248 -0.002618
# 2 -0.007005 0.011357 -0.000480 0.003868 0.002704 -0.000072
# 3 -0.005857 -0.000480 0.009570 0.001945 -0.001601 -0.000336
# 4 -0.003192 0.003868 0.001945 0.022805 0.001333 0.003519
# 5 0.000248 0.002704 -0.001601 0.001333 0.031247 0.004131
# 6 -0.002618 -0.000072 -0.000336 0.003519 0.004131 0.025169
#
#
# Mechanical properties :
#
#
# Convention : Reuss Voigt Hill
#
# Bulk Modulus (GPa) = 74.50860 81.70205 78.10533
# Shear Modulus (GPa) = 33.22607 39.08054 36.15330
#
# Velocity S-wave (km/s) = 3.87917 4.20707 4.04644
# Velocity P-wave (km/s) = 7.33543 7.78471 7.56341
#
# Compressibility (1/GPa) = 0.01342127
#
# Stress axis : x y z
#
# Youngs Moduli (GPa) = 52.14120 88.05293 104.49275
#
# Poissons Ratio (x) = 0.61684 0.61197
# Poissons Ratio (y) = 0.36527 0.05018
# Poissons Ratio (z) = 0.30537 0.04228
#
# Static dielectric constant tensor:
#      x y z
#    x 4.143780 0.019680 -0.108610 
#    y 0.019680 3.975590 -0.281300 
#    z -0.108610 -0.281300 3.592070 
# 
# 
# High freq. dielectric constant tensor:
#      x y z
#    x 1.875190 0.000720 -0.007870 
#    y 0.000720 1.891700 0.001990 
#    z -0.007870 0.001990 1.883680 
# 
# From -- ./inp_files/557285.got.cif
#   From: 2010.06.25/outbox.cif.g09.slc.cpg/sg2_279_cif.got.tgz:557285.got - 2010.06.27 13:26:56.
