data_PCOD8036062
_publ_section_title
;
Structure prediction by ZEFSAII (Michael W. Deem and Ramdas Pophale) SiO2 
 PCOD8036062
Probable space group: P -1
;
_chemical_formula_sum "Si O2"
_cell_formula_units_Z 16
_cell_length_a 5.961992
_cell_length_b 17.643724
_cell_length_c 11.519548
_cell_angle_alpha 44.618943
_cell_angle_beta 85.527709
_cell_angle_gamma 61.004767
_cell_volume 670.432047
_symmetry_space_group_name_H-M "P -1"
_symmetry_group_IT_number 2
_symmetry_cell_setting 'triclinic'
loop_
_space_group_symop_operation_xyz
x,y,z
-x,-y,-z
loop_
_atom_site_type_symbol
_atom_site_label
_atom_site_fract_x
_atom_site_fract_y
_atom_site_fract_z
Si Si1 0.529904 0.986181 0.151654
Si Si2 0.461056 0.779766 0.046362
Si Si3 0.495264 0.616716 0.432613
Si Si4 0.128331 0.818726 0.617752
Si Si5 0.959313 0.488382 0.729623
Si Si6 0.690080 0.550119 0.904281
Si Si7 0.031590 0.080500 0.241838
Si Si8 0.031653 0.709413 0.527844
O O1 0.241980 0.055522 0.159673
O O2 0.733893 0.827998 0.351088
O O3 0.648714 0.066949 0.095900
O O4 0.500000 0.000000 0.000000
O O5 0.400461 0.731563 0.217687
O O6 0.791215 0.672493 0.116872
O O7 0.277395 0.792883 0.930885
O O8 0.500000 0.500000 0.500000
O O9 0.808092 0.546894 0.547577
O O10 0.277702 0.694632 0.461748
O O11 0.468150 0.715134 0.745397
O O12 0.939231 0.869509 0.688271
O O13 0.036314 0.743675 0.624879
O O14 0.060237 0.944774 0.409619
O O15 0.743422 0.507875 0.813213
O O16 0.086067 0.565869 0.679834
O O17 0.500000 0.500000 0.000000
O O18 0.000000 0.500000 0.000000
#
# Coordination Sequence:
#
# PCOD8036062 Si02
#       8
#     2   2   2   2   2   2   2   2
#     4  12  28  44  75 109 152 198 258 322 390 472
#     4  12  27  47  74 113 149 201 257 320 395 469
#     4  12  27  46  78 109 156 200 257 327 397 472
#     4  11  25  51  77 108 154 208 258 325 397 474
#     4  12  27  47  75 112 155 199 259 324 404 468
#     4  12  27  47  79 115 156 207 269 330 397 477
#     4  11  27  50  73 109 154 199 260 321 394 470
#     4  12  25  49  76 113 149 208 259 319 401 477
#
# _framework density 23.865207000000002
#
# number of rings (size 3 to 8) (size 9 to 14) (size 15 to 20)
#    0.000    0.250    3.750    4.125    7.000    1.500 
#    2.250    0.000    0.000    0.000    0.000    0.000 
#    0.000    0.000    0.000    0.000    0.000    0.000 
#
# Total GULP energy -198318.422058 kJ/mol
# GULP energy per Si atom -12394.901379 kJ/mol
# Density = 2.381089 g / cm^3
# Si number density = 23.865207 Si / 1000 Ang^3
#
#
#
# Elastic Constant Matrix: (Units=GPa)
#
#
# Indices 1 2 3 4 5 6 
#
# 1 96.8568 40.0771 42.7801 17.2441 3.2927 -5.2179
# 2 40.0771 141.8431 37.6223 23.3766 1.7926 -11.3281
# 3 42.7801 37.6223 130.4486 9.9503 16.5018 -13.1265
# 4 17.2441 23.3766 9.9503 47.7215 -6.7956 0.6535
# 5 3.2927 1.7926 16.5018 -6.7956 44.5390 5.9767
# 6 -5.2179 -11.3281 -13.1265 0.6535 5.9767 46.0063
#
#
#
# Elastic Compliance Matrix: (Units=1/GPa)
#
#
# Indices 1 2 3 4 5 6 
#
# 1 0.013364 -0.002369 -0.003467 -0.002953 -0.000057 -0.000008
# 2 -0.002369 0.008725 -0.001278 -0.003232 -0.000412 0.001614
# 3 -0.003467 -0.001278 0.009989 -0.000791 -0.003870 0.002656
# 4 -0.002953 -0.003232 -0.000791 0.024469 0.004685 -0.002313
# 5 -0.000057 -0.000412 -0.003870 0.004685 0.025233 -0.004557
# 6 -0.000008 0.001614 0.002656 -0.002313 -0.004557 0.023515
#
#
# Mechanical properties :
#
#
# Convention : Reuss Voigt Hill
#
# Bulk Modulus (GPa) = 56.02914 67.78971 61.90942
# Shear Modulus (GPa) = 39.84835 44.23129 42.03982
#
# Velocity S-wave (km/s) = 4.09066 4.30976 4.20164
# Velocity P-wave (km/s) = 6.77050 7.29605 7.03818
#
# Compressibility (1/GPa) = 0.01784786
#
# Stress axis : x y z
#
# Youngs Moduli (GPa) = 74.82912 114.60818 100.11141
#
# Poissons Ratio (x) = 0.27154 0.34714
# Poissons Ratio (y) = 0.17729 0.12797
# Poissons Ratio (z) = 0.25947 0.14650
#
# Static dielectric constant tensor:
#      x y z
#    x 4.383030 -0.118720 -0.078540 
#    y -0.118720 4.601440 0.106170 
#    z -0.078540 0.106170 4.754690 
# 
# 
# High freq. dielectric constant tensor:
#      x y z
#    x 1.932990 -0.004570 0.002430 
#    y -0.004570 1.964710 0.005040 
#    z 0.002430 0.005040 1.968250 
# 
# From -- ./inp_files/369361.got.cif
#   From: 2010.06.25/outbox.cif.g09.slc.cpg/sg2_185_cif.got.tgz:369361.got - 2010.06.27 13:26:56.
