data_PCOD8036277
_publ_section_title
;
Structure prediction by ZEFSAII (Michael W. Deem and Ramdas Pophale) SiO2 
 PCOD8036277
Probable space group: P -1
;
_chemical_formula_sum "Si O2"
_cell_formula_units_Z 14
_cell_length_a 8.649291
_cell_length_b 9.181143
_cell_length_c 11.282562
_cell_angle_alpha 106.879460
_cell_angle_beta 67.198102
_cell_angle_gamma 58.744305
_cell_volume 551.948909
_symmetry_space_group_name_H-M "P -1"
_symmetry_group_IT_number 2
_symmetry_cell_setting 'triclinic'
loop_
_space_group_symop_operation_xyz
x,y,z
-x,-y,-z
loop_
_atom_site_type_symbol
_atom_site_label
_atom_site_fract_x
_atom_site_fract_y
_atom_site_fract_z
Si Si1 0.945886 0.441000 0.184779
Si Si2 0.885197 0.206785 0.506638
Si Si3 0.605464 0.271097 0.951593
Si Si4 0.544195 0.664718 0.747841
Si Si5 0.106086 0.862324 0.773490
Si Si6 0.615919 0.784680 0.173563
Si Si7 0.228584 0.255033 0.466823
O O1 0.949163 0.270269 0.195142
O O2 0.736906 0.594130 0.186454
O O3 0.880881 0.609074 0.345590
O O4 0.199096 0.298608 0.008138
O O5 0.631811 0.432776 0.685082
O O6 0.796272 0.209709 0.405370
O O7 0.064864 0.231104 0.456291
O O8 0.000000 0.000000 0.500000
O O9 0.467625 0.270115 0.098109
O O10 0.500000 0.500000 0.000000
O O11 0.604731 0.163008 0.811458
O O12 0.870631 0.121184 0.892381
O O13 0.289786 0.834006 0.795363
O O14 0.749608 0.624727 0.608065
O O15 0.501191 0.004499 0.329118
#
# Coordination Sequence:
#
# PCOD8036277 Si02
#       7
#     2   2   2   2   2   2   2
#     4  11  26  47  76 111 157 199 256 317 389 454
#     4  12  27  46  74 108 151 196 250 316 385 447
#     4  12  26  47  75 107 157 199 256 316 388 454
#     4  12  27  46  78 110 150 201 258 310 386 456
#     4  12  26  47  74 108 153 195 255 317 380 454
#     4  11  26  47  74 113 152 203 253 320 381 458
#     4  12  26  48  80 112 151 203 261 312 386 460
#
# _framework density 25.364668000000002
#
# number of rings (size 3 to 8) (size 9 to 14) (size 15 to 20)
#    0.000    0.286    2.857    5.143    4.000    4.571 
#    0.000    0.000    0.000    0.000    0.000    0.000 
#    0.000    0.000    0.000    0.000    0.000    0.000 
#
# Total GULP energy -173446.382972 kJ/mol
# GULP energy per Si atom -12389.027355 kJ/mol
# Density = 2.530694 g / cm^3
# Si number density = 25.364668 Si / 1000 Ang^3
#
#
#
# Elastic Constant Matrix: (Units=GPa)
#
#
# Indices 1 2 3 4 5 6 
#
# 1 77.3023 50.8629 21.4434 -7.8239 6.8851 -3.2024
# 2 50.8629 159.6847 30.6931 22.7105 -1.5053 -12.2925
# 3 21.4434 30.6931 133.4933 10.6765 5.6016 -3.0632
# 4 -7.8239 22.7105 10.6765 49.3507 -7.5562 1.0645
# 5 6.8851 -1.5053 5.6016 -7.5562 34.5563 -2.5725
# 6 -3.2024 -12.2925 -3.0632 1.0645 -2.5725 31.7963
#
#
#
# Elastic Compliance Matrix: (Units=1/GPa)
#
#
# Indices 1 2 3 4 5 6 
#
# 1 0.018510 -0.006503 -0.001882 0.005986 -0.002449 -0.001230
# 2 -0.006503 0.009452 -0.000682 -0.005160 0.000927 0.003181
# 3 -0.001882 -0.000682 0.008173 -0.001972 -0.001389 0.000288
# 4 0.005986 -0.005160 -0.001972 0.024693 0.004147 -0.002073
# 5 -0.002449 0.000927 -0.001389 0.004147 0.030772 0.002328
# 6 -0.001230 0.003181 0.000288 -0.002073 0.002328 0.032842
#
#
# Mechanical properties :
#
#
# Convention : Reuss Voigt Hill
#
# Bulk Modulus (GPa) = 55.55383 64.05324 59.80354
# Shear Modulus (GPa) = 33.65254 40.97271 37.31262
#
# Velocity S-wave (km/s) = 3.64641 4.02350 3.83958
# Velocity P-wave (km/s) = 6.29905 6.84781 6.57915
#
# Compressibility (1/GPa) = 0.01800056
#
# Stress axis : x y z
#
# Youngs Moduli (GPa) = 54.02381 105.79426 122.35805
#
# Poissons Ratio (x) = 0.68800 0.23032
# Poissons Ratio (y) = 0.35133 0.08343
# Poissons Ratio (z) = 0.10169 0.07214
#
# Static dielectric constant tensor:
#      x y z
#    x 4.275920 -0.145480 0.005740 
#    y -0.145480 4.873460 0.197170 
#    z 0.005740 0.197170 5.174250 
# 
# 
# High freq. dielectric constant tensor:
#      x y z
#    x 1.993940 -0.015450 -0.002370 
#    y -0.015450 2.033870 0.008780 
#    z -0.002370 0.008780 2.040700 
# 
# From -- ./inp_files/185720.got.cif
#   From: 2010.06.25/outbox.cif.g09.slc.cpg/sg2_93_cif.got.tgz:185720.got - 2010.06.27 13:26:56.
