data_PCOD8036574
_publ_section_title
;
Structure prediction by ZEFSAII (Michael W. Deem and Ramdas Pophale) SiO2 
 PCOD8036574
Probable space group: P -1
;
_chemical_formula_sum "Si O2"
_cell_formula_units_Z 16
_cell_length_a 7.675919
_cell_length_b 20.546678
_cell_length_c 7.605779
_cell_angle_alpha 115.099194
_cell_angle_beta 140.822541
_cell_angle_gamma 70.702309
_cell_volume 686.223907
_symmetry_space_group_name_H-M "P -1"
_symmetry_group_IT_number 2
_symmetry_cell_setting 'triclinic'
loop_
_space_group_symop_operation_xyz
x,y,z
-x,-y,-z
loop_
_atom_site_type_symbol
_atom_site_label
_atom_site_fract_x
_atom_site_fract_y
_atom_site_fract_z
Si Si1 0.672827 0.097911 0.973332
Si Si2 0.606928 0.648027 0.570057
Si Si3 0.777998 0.671690 0.335361
Si Si4 0.747010 0.240920 0.045253
Si Si5 0.577605 0.813218 0.831484
Si Si6 0.989526 0.415296 0.903213
Si Si7 0.163477 0.851033 0.271556
Si Si8 0.127923 0.008736 0.417224
O O1 0.608104 0.168347 0.125567
O O2 0.946960 0.059196 0.208584
O O3 0.714552 0.151605 0.904542
O O4 0.432392 0.041244 0.704417
O O5 0.691672 0.639298 0.419870
O O6 0.573934 0.729273 0.697983
O O7 0.323689 0.607923 0.341539
O O8 0.842300 0.610990 0.826834
O O9 0.525293 0.712173 0.089564
O O10 0.883553 0.611675 0.214373
O O11 0.016930 0.730677 0.610565
O O12 0.850048 0.232785 0.915886
O O13 0.437067 0.855633 0.608675
O O14 0.874108 0.848177 0.147309
O O15 0.000000 0.500000 0.000000
O O16 0.155996 0.930467 0.258415
O O17 0.000000 0.000000 0.500000
#
# Coordination Sequence:
#
# PCOD8036574 Si02
#       8
#     2   2   2   2   2   2   2   2
#     4  12  24  38  64  89 129 178 225 296 356 407
#     4  12  25  46  78 106 143 193 234 281 353 412
#     4  12  25  48  75 106 145 185 237 292 345 419
#     4  12  25  45  65 102 135 175 234 295 351 401
#     4  12  21  40  65  96 120 170 234 278 332 402
#     4  12  28  48  74 114 151 183 229 281 340 428
#     4  12  23  39  64  87 130 166 223 287 332 405
#     4  12  23  39  59  91 126 176 231 282 355 426
#
# _framework density 23.316004
#
# number of rings (size 3 to 8) (size 9 to 14) (size 15 to 20)
#    0.000    0.000    5.000    6.000    0.000    2.000 
#    0.000    0.000    0.000    0.000    0.000    0.000 
#    0.000    0.000    0.000    0.000    0.000    0.000 
#
# Total GULP energy -198251.848792 kJ/mol
# GULP energy per Si atom -12390.740550 kJ/mol
# Density = 2.326294 g / cm^3
# Si number density = 23.316004 Si / 1000 Ang^3
#
#
#
# Elastic Constant Matrix: (Units=GPa)
#
#
# Indices 1 2 3 4 5 6 
#
# 1 48.8476 -9.6555 -7.4102 44.9609 -15.5671 -22.8738
# 2 -9.6555 38.6862 -13.3383 66.6924 -32.3739 -27.4398
# 3 -7.4102 -13.3383 73.2946 25.5548 -1.6242 -5.8419
# 4 44.9609 66.6924 25.5548 13.3814 19.4893 7.3224
# 5 -15.5671 -32.3739 -1.6242 19.4893 27.8440 1.5154
# 6 -22.8738 -27.4398 -5.8419 7.3224 1.5154 34.5498
#
#
#
# Elastic Compliance Matrix: (Units=1/GPa)
#
#
# Indices 1 2 3 4 5 6 
#
# 1 0.013589 -0.008097 -0.001652 0.004483 -0.005137 0.001561
# 2 -0.008097 0.006027 -0.002579 0.007457 -0.002755 -0.002470
# 3 -0.001652 -0.002579 0.012374 0.001296 -0.004046 -0.001147
# 4 0.004483 0.007457 0.001296 0.003809 0.008153 0.007944
# 5 -0.005137 -0.002755 -0.004046 0.008153 0.024391 -0.009070
# 6 0.001561 -0.002470 -0.001147 0.007944 -0.009070 0.026536
#
#
# Mechanical properties :
#
#
# Convention : Reuss Voigt Hill
#
# Bulk Modulus (GPa) = 136.39039 11.11335 73.75187
# Shear Modulus (GPa) = 43.92592 27.90387 35.91490
#
# Velocity S-wave (km/s) = 4.34515 3.46319 3.92899
# Velocity P-wave (km/s) = 9.15408 4.55723 7.23068
#
# Compressibility (1/GPa) = 0.00733190
#
# Stress axis : x y z
#
# Youngs Moduli (GPa) = 73.59140 165.91192 80.81355
#
# Poissons Ratio (x) = 1.34346 0.13351
# Poissons Ratio (y) = 0.59590 0.20846
# Poissons Ratio (z) = 0.12158 0.42797
#
# Static dielectric constant tensor:
#      x y z
#    x 4.714390 -0.123050 -0.066380 
#    y -0.123050 4.239700 0.048630 
#    z -0.066380 0.048630 4.329880 
# 
# 
# High freq. dielectric constant tensor:
#      x y z
#    x 1.947920 -0.014820 -0.001270 
#    y -0.014820 1.929700 0.001190 
#    z -0.001270 0.001190 1.933670 
# 
# From -- ./inp_files/223947.got.cif
#   From: 2010.06.25/outbox.cif.g09.slc.cpg/sg2_112_cif.got.tgz:223947.got - 2010.06.27 13:26:56.
