data_PCOD8036515
_publ_section_title
;
Structure prediction by ZEFSAII (Michael W. Deem and Ramdas Pophale) SiO2 
 PCOD8036515
Probable space group: P -1
;
_chemical_formula_sum "Si O2"
_cell_formula_units_Z 16
_cell_length_a 13.533388
_cell_length_b 9.008002
_cell_length_c 10.785942
_cell_angle_alpha 90.334874
_cell_angle_beta 147.962558
_cell_angle_gamma 82.726232
_cell_volume 678.917160
_symmetry_space_group_name_H-M "P -1"
_symmetry_group_IT_number 2
_symmetry_cell_setting 'triclinic'
loop_
_space_group_symop_operation_xyz
x,y,z
-x,-y,-z
loop_
_atom_site_type_symbol
_atom_site_label
_atom_site_fract_x
_atom_site_fract_y
_atom_site_fract_z
Si Si1 0.417116 0.177475 0.144634
Si Si2 0.053359 0.711302 0.759118
Si Si3 0.109036 0.410568 0.963925
Si Si4 0.757687 0.318029 0.517667
Si Si5 0.607536 0.149237 0.843362
Si Si6 0.321502 0.226081 0.760141
Si Si7 0.381386 0.417866 0.463121
Si Si8 0.727237 0.447042 0.237441
O O1 0.634533 0.191510 0.407668
O O2 0.384959 0.027275 0.176951
O O3 0.279695 0.329215 0.053270
O O4 0.385211 0.155282 0.962733
O O5 0.019486 0.584428 0.822142
O O6 0.194404 0.615865 0.808919
O O7 0.854375 0.824365 0.498875
O O8 0.177542 0.826956 0.942468
O O9 0.957043 0.300540 0.804050
O O10 0.180826 0.418836 0.181495
O O11 0.639120 0.487844 0.430346
O O12 0.802675 0.317861 0.419464
O O13 0.510482 0.197151 0.875507
O O14 0.484081 0.244880 0.602463
O O15 0.203828 0.400687 0.655428
O O16 0.500000 0.500000 0.500000
O O17 0.500000 0.500000 0.000000
#
# Coordination Sequence:
#
# PCOD8036515 Si02
#       8
#     2   2   2   2   2   2   2   2
#     4  12  26  42  64  95 138 170 200 253 328 391
#     4  12  22  39  69  98 126 163 215 265 309 372
#     4  12  24  41  68  98 122 165 219 268 311 367
#     4  12  23  42  67  96 125 163 214 270 313 368
#     4  12  26  44  63  93 134 174 206 256 320 381
#     4  12  23  39  66 100 130 164 210 258 317 379
#     4  12  23  45  70  91 122 165 223 273 309 358
#     4  12  18  35  67  96 125 158 206 266 313 363
#
# _framework density 23.566938
#
# number of rings (size 3 to 8) (size 9 to 14) (size 15 to 20)
#    0.000    0.000    8.750    1.875    0.000    2.000 
#    0.000    0.625    0.000    0.000    0.000    0.000 
#    0.000    0.000    0.000    0.000    0.000    0.000 
#
# Total GULP energy -198289.527047 kJ/mol
# GULP energy per Si atom -12393.095440 kJ/mol
# Density = 2.351330 g / cm^3
# Si number density = 23.566938 Si / 1000 Ang^3
#
#
#
# Elastic Constant Matrix: (Units=GPa)
#
#
# Indices 1 2 3 4 5 6 
#
# 1 48.9143 13.4600 12.8851 1.8864 -6.4987 12.9013
# 2 13.4600 110.5380 42.3386 16.3432 -4.6593 30.1417
# 3 12.8851 42.3386 150.1964 33.7338 -1.6508 27.2756
# 4 1.8864 16.3432 33.7338 35.5424 9.3359 4.2760
# 5 -6.4987 -4.6593 -1.6508 9.3359 38.6827 5.0384
# 6 12.9013 30.1417 27.2756 4.2760 5.0384 30.9728
#
#
#
# Elastic Compliance Matrix: (Units=1/GPa)
#
#
# Indices 1 2 3 4 5 6 
#
# 1 0.024178 0.000718 0.000458 -0.002264 0.006262 -0.011880
# 2 0.000718 0.013809 -0.000073 -0.005990 0.005006 -0.013660
# 3 0.000458 -0.000073 0.010493 -0.009974 0.004049 -0.008642
# 4 -0.002264 -0.005990 -0.009974 0.042555 -0.013341 0.011850
# 5 0.006262 0.005006 0.004049 -0.013341 0.032792 -0.014538
# 6 -0.011880 -0.013660 -0.008642 0.011850 -0.014538 0.058868
#
#
# Mechanical properties :
#
#
# Convention : Reuss Voigt Hill
#
# Bulk Modulus (GPa) = 19.72915 49.66846 34.69881
# Shear Modulus (GPa) = 25.33136 37.10392 31.21764
#
# Velocity S-wave (km/s) = 3.28208 3.97218 3.64350
# Velocity P-wave (km/s) = 4.76995 6.49299 5.69699
#
# Compressibility (1/GPa) = 0.05068642
#
# Stress axis : x y z
#
# Youngs Moduli (GPa) = 41.35970 72.41816 95.29959
#
# Poissons Ratio (x) = -0.05203 -0.04363
# Poissons Ratio (y) = -0.02972 0.00697
# Poissons Ratio (z) = -0.01894 0.00530
#
# Static dielectric constant tensor:
#      x y z
#    x 4.256750 -0.029770 -0.007800 
#    y -0.029770 3.922010 0.380240 
#    z -0.007800 0.380240 4.484690 
# 
# 
# High freq. dielectric constant tensor:
#      x y z
#    x 1.934270 0.009310 0.006050 
#    y 0.009310 1.905570 0.026360 
#    z 0.006050 0.026360 1.940820 
# 
# From -- ./inp_files/188943.got.cif
#   From: 2010.06.25/outbox.cif.g09.slc.cpg/sg2_95_cif.got.tgz:188943.got - 2010.06.27 13:26:56.
