data_PCOD8036301
_publ_section_title
;
Structure prediction by ZEFSAII (Michael W. Deem and Ramdas Pophale) SiO2 
 PCOD8036301
Probable space group: P -1
;
_chemical_formula_sum "Si O2"
_cell_formula_units_Z 16
_cell_length_a 17.958798
_cell_length_b 9.188129
_cell_length_c 5.427157
_cell_angle_alpha 99.022422
_cell_angle_beta 86.632248
_cell_angle_gamma 51.972441
_cell_volume 682.656445
_symmetry_space_group_name_H-M "P -1"
_symmetry_group_IT_number 2
_symmetry_cell_setting 'triclinic'
loop_
_space_group_symop_operation_xyz
x,y,z
-x,-y,-z
loop_
_atom_site_type_symbol
_atom_site_label
_atom_site_fract_x
_atom_site_fract_y
_atom_site_fract_z
Si Si1 0.608957 0.829705 0.370713
Si Si2 0.678976 0.884757 0.862074
Si Si3 0.241061 0.840202 0.624625
Si Si4 0.382386 0.740171 0.214527
Si Si5 0.956193 0.442036 0.298724
Si Si6 0.417102 0.472266 0.738167
Si Si7 0.853090 0.759574 0.046363
Si Si8 0.053896 0.882538 0.705341
O O1 0.669494 0.804393 0.591430
O O2 0.624966 0.637925 0.277270
O O3 0.500000 0.000000 0.500000
O O4 0.638847 0.865513 0.116982
O O5 0.620828 0.111356 0.917554
O O6 0.795958 0.751032 0.833488
O O7 0.269835 0.864153 0.356013
O O8 0.347668 0.649425 0.620327
O O9 0.160387 0.817042 0.652610
O O10 0.212584 0.017901 0.829408
O O11 0.467710 0.664722 0.383278
O O12 0.408308 0.553994 0.031819
O O13 0.862825 0.631489 0.237010
O O14 0.931866 0.310974 0.371507
O O15 0.000000 0.500000 0.500000
O O16 0.040993 0.311689 0.048855
O O17 0.000000 0.000000 0.500000
O O18 0.000000 0.000000 0.000000
#
# Coordination Sequence:
#
# PCOD8036301 Si02
#       8
#     2   2   2   2   2   2   2   2
#     4  12  28  49  73 111 156 202 252 322 389 450
#     4  12  27  48  79 107 154 203 258 314 385 462
#     4  12  26  48  80 108 158 203 264 316 391 464
#     4  11  26  48  77 111 153 210 262 321 382 465
#     4  11  27  50  79 112 152 202 251 323 389 467
#     4  11  27  46  75 113 156 202 267 320 389 458
#     4  11  26  47  78 111 148 201 263 313 388 467
#     4  12  29  52  80 114 157 198 255 323 391 459
#
# _framework density 23.437851999999999
#
# number of rings (size 3 to 8) (size 9 to 14) (size 15 to 20)
#    0.000    0.500    3.750    2.250   12.250    1.000 
#    0.000    0.000    0.000    0.000    0.000    0.000 
#    0.000    0.000    0.000    0.000    0.000    0.000 
#
# Total GULP energy -198247.912546 kJ/mol
# GULP energy per Si atom -12390.494534 kJ/mol
# Density = 2.338451 g / cm^3
# Si number density = 23.437852 Si / 1000 Ang^3
#
#
#
# Elastic Constant Matrix: (Units=GPa)
#
#
# Indices 1 2 3 4 5 6 
#
# 1 170.6329 75.8042 64.2388 -6.8805 8.6388 10.8761
# 2 75.8042 137.0762 39.5682 -17.7257 23.2258 22.7504
# 3 64.2388 39.5682 119.1871 -12.2990 9.5626 15.2469
# 4 -6.8805 -17.7257 -12.2990 31.9884 -1.5949 10.5850
# 5 8.6388 23.2258 9.5626 -1.5949 47.6028 0.7606
# 6 10.8761 22.7504 15.2469 10.5850 0.7606 48.8645
#
#
#
# Elastic Compliance Matrix: (Units=1/GPa)
#
#
# Indices 1 2 3 4 5 6 
#
# 1 0.009234 -0.004902 -0.004028 -0.002901 0.001395 0.002091
# 2 -0.004902 0.012937 0.000485 0.008295 -0.005133 -0.006801
# 3 -0.004028 0.000485 0.011569 0.005101 -0.001594 -0.004019
# 4 -0.002901 0.008295 0.005101 0.041607 -0.002931 -0.013775
# 5 0.001395 -0.005133 -0.001594 -0.002931 0.023435 0.002847
# 6 0.002091 -0.006801 -0.004019 -0.013775 0.002847 0.027359
#
#
# Mechanical properties :
#
#
# Convention : Reuss Voigt Hill
#
# Bulk Modulus (GPa) = 59.34979 87.34650 73.34814
# Shear Modulus (GPa) = 33.63626 42.17679 37.90653
#
# Velocity S-wave (km/s) = 3.79241 4.24667 4.02596
# Velocity P-wave (km/s) = 6.67486 7.83542 7.27831
#
# Compressibility (1/GPa) = 0.01684926
#
# Stress axis : x y z
#
# Youngs Moduli (GPa) = 108.29559 77.29553 86.44051
#
# Poissons Ratio (x) = 0.37892 0.34820
# Poissons Ratio (y) = 0.53089 -0.04192
# Poissons Ratio (z) = 0.43623 -0.03749
#
# Static dielectric constant tensor:
#      x y z
#    x 5.505180 -0.205170 0.256790 
#    y -0.205170 4.425360 -0.056730 
#    z 0.256790 -0.056730 4.246560 
# 
# 
# High freq. dielectric constant tensor:
#      x y z
#    x 1.944650 -0.001370 0.001020 
#    y -0.001370 1.944490 -0.003180 
#    z 0.001020 -0.003180 1.922680 
# 
# From -- ./inp_files/107179.got.cif
#   From: 2010.06.25/outbox.cif.g09.slc.cpg/sg2_54_cif.got.tgz:107179.got - 2010.06.27 13:26:56.
