data_PCOD8036690
_publ_section_title
;
Structure prediction by ZEFSAII (Michael W. Deem and Ramdas Pophale) SiO2 
 PCOD8036690
Probable space group: P -1
;
_chemical_formula_sum "Si O2"
_cell_formula_units_Z 16
_cell_length_a 8.418768
_cell_length_b 15.418825
_cell_length_c 9.730271
_cell_angle_alpha 60.547995
_cell_angle_beta 47.836985
_cell_angle_gamma 89.618713
_cell_volume 705.529599
_symmetry_space_group_name_H-M "P -1"
_symmetry_group_IT_number 2
_symmetry_cell_setting 'triclinic'
loop_
_space_group_symop_operation_xyz
x,y,z
-x,-y,-z
loop_
_atom_site_type_symbol
_atom_site_label
_atom_site_fract_x
_atom_site_fract_y
_atom_site_fract_z
Si Si1 0.806828 0.966237 0.516228
Si Si2 0.461594 0.658461 0.434977
Si Si3 0.007351 0.204780 0.072533
Si Si4 0.542006 0.456339 0.209147
Si Si5 0.721013 0.410595 0.704146
Si Si6 0.010815 0.671566 0.748699
Si Si7 0.272151 0.804131 0.020499
Si Si8 0.872374 0.771351 0.498473
O O1 0.534598 0.922251 0.772718
O O2 0.814636 0.871901 0.487305
O O3 0.864530 0.073746 0.304627
O O4 0.000000 0.000000 0.500000
O O5 0.487668 0.570381 0.589921
O O6 0.319292 0.594392 0.430816
O O7 0.294514 0.702840 0.573459
O O8 0.729852 0.767604 0.164677
O O9 0.069019 0.292270 0.093961
O O10 0.844409 0.226224 0.039804
O O11 0.440754 0.542826 0.163775
O O12 0.390474 0.338359 0.305452
O O13 0.832344 0.532589 0.939744
O O14 0.000000 0.500000 0.500000
O O15 0.654186 0.288900 0.900759
O O16 0.991744 0.743844 0.579125
O O17 0.075961 0.812428 0.227403
#
# Coordination Sequence:
#
# PCOD8036690 Si02
#       8
#     2   2   2   2   2   2   2   2
#     4  12  28  50  79 107 142 191 249 309 360 429
#     4  12  25  46  71 108 149 197 240 299 369 428
#     4  12  27  50  74 109 147 190 248 305 358 432
#     4  12  25  46  71 112 150 189 244 300 359 444
#     4  12  22  42  74 103 151 198 233 291 366 433
#     4  12  26  44  76 108 152 191 242 294 366 437
#     4  12  27  48  77 109 146 194 243 299 371 431
#     4  12  26  50  73 110 146 194 242 297 367 440
#
# _framework density 22.678000000000001
#
# number of rings (size 3 to 8) (size 9 to 14) (size 15 to 20)
#    0.000    0.000    6.250    3.000    3.500    3.000 
#    0.000    0.000    0.000    0.000    0.000    0.000 
#    0.000    0.000    0.000    0.000    0.000    0.000 
#
# Total GULP energy -198477.364878 kJ/mol
# GULP energy per Si atom -12404.835305 kJ/mol
# Density = 2.262638 g / cm^3
# Si number density = 22.678000 Si / 1000 Ang^3
#
#
#
# Elastic Constant Matrix: (Units=GPa)
#
#
# Indices 1 2 3 4 5 6 
#
# 1 122.2699 32.6606 40.1171 0.2291 0.5641 13.8246
# 2 32.6606 107.8727 35.6739 -5.1469 -5.6269 -3.6884
# 3 40.1171 35.6739 143.9113 -6.5542 -21.1139 -2.3543
# 4 0.2291 -5.1469 -6.5542 24.4779 1.8510 -0.3863
# 5 0.5641 -5.6269 -21.1139 1.8510 45.2156 1.4843
# 6 13.8246 -3.6884 -2.3543 -0.3863 1.4843 35.2451
#
#
#
# Elastic Compliance Matrix: (Units=1/GPa)
#
#
# Indices 1 2 3 4 5 6 
#
# 1 0.010198 -0.002528 -0.002557 -0.001272 -0.001440 -0.004389
# 2 -0.002528 0.010807 -0.001801 0.001816 0.000395 0.002005
# 3 -0.002557 -0.001801 0.008763 0.001725 0.003788 0.001259
# 4 -0.001272 0.001816 0.001725 0.041783 -0.000706 0.001292
# 5 -0.001440 0.000395 0.003788 -0.000706 0.023986 -0.000159
# 6 -0.004389 0.002005 0.001259 0.001292 -0.000159 0.030409
#
#
# Mechanical properties :
#
#
# Convention : Reuss Voigt Hill
#
# Bulk Modulus (GPa) = 62.51454 65.66189 64.08821
# Shear Modulus (GPa) = 34.47101 38.69453 36.58277
#
# Velocity S-wave (km/s) = 3.90297 4.13517 4.02075
# Velocity P-wave (km/s) = 6.92365 7.19836 7.06234
#
# Compressibility (1/GPa) = 0.01599628
#
# Stress axis : x y z
#
# Youngs Moduli (GPa) = 98.05700 92.53373 114.11833
#
# Poissons Ratio (x) = 0.23391 0.29182
# Poissons Ratio (y) = 0.24788 0.20549
# Poissons Ratio (z) = 0.25075 0.16663
#
# Static dielectric constant tensor:
#      x y z
#    x 4.383840 0.038060 0.035830 
#    y 0.038060 3.911880 -0.005880 
#    z 0.035830 -0.005880 4.351580 
# 
# 
# High freq. dielectric constant tensor:
#      x y z
#    x 1.917690 0.005290 -0.000400 
#    y 0.005290 1.875800 0.003360 
#    z -0.000400 0.003360 1.913440 
# 
# From -- ./inp_files/206219.got.cif
#   From: 2010.06.25/outbox.cif.g09.slc.cpg/sg2_104_cif.got.tgz:206219.got - 2010.06.27 13:26:56.
