data_PCOD8036972
_publ_section_title
;
Structure prediction by ZEFSAII (Michael W. Deem and Ramdas Pophale) SiO2 
 PCOD8036972
Probable space group: P -1
;
_chemical_formula_sum "Si O2"
_cell_formula_units_Z 16
_cell_length_a 8.821216
_cell_length_b 9.653930
_cell_length_c 16.705785
_cell_angle_alpha 84.899613
_cell_angle_beta 90.340424
_cell_angle_gamma 149.173097
_cell_volume 719.207159
_symmetry_space_group_name_H-M "P -1"
_symmetry_group_IT_number 2
_symmetry_cell_setting 'triclinic'
loop_
_space_group_symop_operation_xyz
x,y,z
-x,-y,-z
loop_
_atom_site_type_symbol
_atom_site_label
_atom_site_fract_x
_atom_site_fract_y
_atom_site_fract_z
Si Si1 0.362148 0.339949 0.684196
Si Si2 0.798368 0.977093 0.005519
Si Si3 0.104784 0.633987 0.787096
Si Si4 0.796393 0.484485 0.354544
Si Si5 0.176538 0.528540 0.946280
Si Si6 0.722940 0.073144 0.537370
Si Si7 0.013522 0.113490 0.420787
Si Si8 0.416074 0.146286 0.814515
O O1 0.191522 0.352331 0.694450
O O2 0.396348 0.286108 0.770721
O O3 0.671259 0.618768 0.631126
O O4 0.200832 0.107464 0.637258
O O5 0.765587 0.996742 0.096369
O O6 0.473332 0.701645 0.979631
O O7 0.000000 0.000000 0.000000
O O8 0.962027 0.228721 0.945014
O O9 0.145759 0.590290 0.705319
O O10 0.260191 0.664640 0.855052
O O11 0.758078 0.378305 0.819648
O O12 0.266331 0.911702 0.768781
O O13 0.058494 0.681676 0.410727
O O14 0.469264 0.202596 0.407519
O O15 0.000000 0.500000 0.000000
O O16 0.914650 0.179793 0.455664
O O17 0.500000 0.000000 0.500000
O O18 0.000000 0.000000 0.500000
#
# Coordination Sequence:
#
# PCOD8036972 Si02
#       8
#     2   2   2   2   2   2   2   2
#     4  12  26  44  71  98 138 180 227 281 353 412
#     4  12  26  46  74 108 144 182 243 293 342 413
#     4  12  27  45  73 100 144 184 230 285 351 418
#     4  12  26  48  65 104 138 178 228 283 347 417
#     4  12  23  48  75 102 140 192 234 286 348 418
#     4  12  27  44  71 100 135 174 235 289 337 404
#     4  12  23  46  71  95 130 182 227 282 340 413
#     4  12  26  47  68 105 140 183 231 283 348 422
#
# _framework density 22.246718999999999
#
# number of rings (size 3 to 8) (size 9 to 14) (size 15 to 20)
#    0.000    0.000    5.000    4.500    7.000    0.000 
#    2.250    0.000    0.000    0.000    0.000    0.000 
#    0.000    0.000    0.000    0.000    0.000    0.000 
#
# Total GULP energy -198445.342637 kJ/mol
# GULP energy per Si atom -12402.833915 kJ/mol
# Density = 2.219608 g / cm^3
# Si number density = 22.246719 Si / 1000 Ang^3
#
#
#
# Elastic Constant Matrix: (Units=GPa)
#
#
# Indices 1 2 3 4 5 6 
#
# 1 125.1331 28.4219 28.4607 8.2116 -1.5756 1.7766
# 2 28.4219 125.9675 32.3127 7.7681 -0.1801 6.1105
# 3 28.4607 32.3127 75.4398 9.1444 4.0297 -4.4442
# 4 8.2116 7.7681 9.1444 40.5554 -6.6823 5.6392
# 5 -1.5756 -0.1801 4.0297 -6.6823 31.4042 -1.5609
# 6 1.7766 6.1105 -4.4442 5.6392 -1.5609 41.4170
#
#
#
# Elastic Compliance Matrix: (Units=1/GPa)
#
#
# Indices 1 2 3 4 5 6 
#
# 1 0.008978 -0.001235 -0.002817 -0.000792 0.000618 -0.000374
# 2 -0.001235 0.009233 -0.003544 -0.000450 0.000270 -0.001618
# 3 -0.002817 -0.003544 0.016557 -0.003340 -0.002859 0.002767
# 4 -0.000792 -0.000450 -0.003340 0.027161 0.005980 -0.003731
# 5 0.000618 0.000270 -0.002859 0.005980 0.033519 0.000076
# 6 -0.000374 -0.001618 0.002767 -0.003731 0.000076 0.025207
#
#
# Mechanical properties :
#
#
# Convention : Reuss Voigt Hill
#
# Bulk Modulus (GPa) = 51.08394 56.10345 53.59369
# Shear Modulus (GPa) = 35.11926 38.49833 36.80880
#
# Velocity S-wave (km/s) = 3.97750 4.16446 4.07206
# Velocity P-wave (km/s) = 6.64126 6.95681 6.80086
#
# Compressibility (1/GPa) = 0.01957562
#
# Stress axis : x y z
#
# Youngs Moduli (GPa) = 111.38574 108.30802 60.39795
#
# Poissons Ratio (x) = 0.13378 0.17014
# Poissons Ratio (y) = 0.13758 0.21404
# Poissons Ratio (z) = 0.31377 0.38383
#
# Static dielectric constant tensor:
#      x y z
#    x 4.127810 -0.191710 0.271000 
#    y -0.191710 4.052750 -0.009930 
#    z 0.271000 -0.009930 4.003190 
# 
# 
# High freq. dielectric constant tensor:
#      x y z
#    x 1.888000 -0.000900 0.007310 
#    y -0.000900 1.892620 -0.000490 
#    z 0.007310 -0.000490 1.876930 
# 
# From -- ./inp_files/358485.got.cif
#   From: 2010.06.25/outbox.cif.g09.slc.cpg/sg2_180_cif.got.tgz:358485.got - 2010.06.27 13:26:56.
