data_PCOD8036536
_publ_section_title
;
Structure prediction by ZEFSAII (Michael W. Deem and Ramdas Pophale) SiO2 
 PCOD8036536
Probable space group: P -1
;
_chemical_formula_sum "Si O2"
_cell_formula_units_Z 16
_cell_length_a 9.964395
_cell_length_b 13.671948
_cell_length_c 11.571340
_cell_angle_alpha 33.009791
_cell_angle_beta 76.679858
_cell_angle_gamma 66.402448
_cell_volume 769.274624
_symmetry_space_group_name_H-M "P -1"
_symmetry_group_IT_number 2
_symmetry_cell_setting 'triclinic'
loop_
_space_group_symop_operation_xyz
x,y,z
-x,-y,-z
loop_
_atom_site_type_symbol
_atom_site_label
_atom_site_fract_x
_atom_site_fract_y
_atom_site_fract_z
Si Si1 0.384338 0.215553 0.499287
Si Si2 0.728015 0.050634 0.587718
Si Si3 0.163515 0.836554 0.145934
Si Si4 0.179847 0.646140 0.097506
Si Si5 0.844402 0.700532 0.077691
Si Si6 0.881389 0.272790 0.486201
Si Si7 0.208985 0.004812 0.628572
Si Si8 0.341797 0.096574 0.874412
O O1 0.554452 0.182054 0.472758
O O2 0.280383 0.425971 0.261399
O O3 0.347116 0.052440 0.599722
O O4 0.356463 0.211401 0.645193
O O5 0.805364 0.183785 0.496298
O O6 0.808072 0.970999 0.529455
O O7 0.742043 0.867728 0.845908
O O8 0.193352 0.672271 0.205944
O O9 0.183428 0.736149 0.365860
O O10 0.287359 0.927230 0.016604
O O11 0.000000 0.000000 0.000000
O O12 0.009458 0.698300 0.043574
O O13 0.239433 0.784730 0.876066
O O14 0.843031 0.496066 0.239058
O O15 0.779559 0.748444 0.172025
O O16 0.059325 0.153928 0.571733
O O17 0.500000 0.000000 0.000000
#
# Coordination Sequence:
#
# PCOD8036536 Si02
#       8
#     2   2   2   2   2   2   2   2
#     4  12  26  45  69 102 134 176 222 275 336 393
#     4  12  27  47  66  97 140 176 227 278 323 392
#     4  12  20  40  69  97 134 170 213 274 338 393
#     4  12  25  42  73 103 131 174 226 274 332 401
#     4  12  25  43  72 102 133 176 222 273 339 398
#     4  12  24  43  70 101 131 175 223 277 330 394
#     4  12  25  45  71  96 135 182 224 275 327 388
#     4  12  22  42  70  99 137 173 209 274 345 395
#
# _framework density 20.798815000000001
#
# number of rings (size 3 to 8) (size 9 to 14) (size 15 to 20)
#    0.000    0.000    8.750    1.500    0.000    5.000 
#    0.000    2.500    0.000    0.000    0.000    0.000 
#    0.000    0.000    0.000    0.000    0.000    0.000 
#
# Total GULP energy -198545.061709 kJ/mol
# GULP energy per Si atom -12409.066357 kJ/mol
# Density = 2.075148 g / cm^3
# Si number density = 20.798815 Si / 1000 Ang^3
#
#
#
# Elastic Constant Matrix: (Units=GPa)
#
#
# Indices 1 2 3 4 5 6 
#
# 1 101.0154 3.9881 18.8554 -16.8683 6.9393 5.2457
# 2 3.9881 66.9706 37.0556 8.0337 -4.4481 8.6571
# 3 18.8554 37.0556 88.1015 -15.3993 -9.3978 9.3384
# 4 -16.8683 8.0337 -15.3993 32.8340 3.9010 2.4226
# 5 6.9393 -4.4481 -9.3978 3.9010 27.7845 -2.4370
# 6 5.2457 8.6571 9.3384 2.4226 -2.4370 34.2238
#
#
#
# Elastic Compliance Matrix: (Units=1/GPa)
#
#
# Indices 1 2 3 4 5 6 
#
# 1 0.011633 -0.000716 -0.001379 0.006190 -0.004530 -0.001986
# 2 -0.000716 0.022727 -0.011008 -0.011142 0.001506 -0.001739
# 3 -0.001379 -0.011008 0.018749 0.010592 0.003205 -0.002642
# 4 0.006190 -0.011142 0.010592 0.042382 -0.006088 -0.004454
# 5 -0.004530 0.001506 0.003205 -0.006088 0.039538 0.002685
# 6 -0.001986 -0.001739 -0.002642 -0.004454 0.002685 0.031191
#
#
# Mechanical properties :
#
#
# Convention : Reuss Voigt Hill
#
# Bulk Modulus (GPa) = 37.17221 41.76508 39.46865
# Shear Modulus (GPa) = 24.82675 32.04767 28.43721
#
# Velocity S-wave (km/s) = 3.45869 3.92961 3.70165
# Velocity P-wave (km/s) = 5.81903 6.38069 6.10632
#
# Compressibility (1/GPa) = 0.02690181
#
# Stress axis : x y z
#
# Youngs Moduli (GPa) = 85.96144 44.00039 53.33573
#
# Poissons Ratio (x) = 0.03151 0.07356
# Poissons Ratio (y) = 0.06156 0.58714
# Poissons Ratio (z) = 0.11856 0.48437
#
# Static dielectric constant tensor:
#      x y z
#    x 3.810340 0.042870 -0.103880 
#    y 0.042870 3.839060 0.096890 
#    z -0.103880 0.096890 3.741980 
# 
# 
# High freq. dielectric constant tensor:
#      x y z
#    x 1.825850 0.005800 -0.006520 
#    y 0.005800 1.814720 0.004050 
#    z -0.006520 0.004050 1.815120 
# 
# From -- ./inp_files/187098.got.cif
#   From: 2010.06.25/outbox.cif.g09.slc.cpg/sg2_94_cif.got.tgz:187098.got - 2010.06.27 13:26:56.
