data_PCOD8036469
_publ_section_title
;
Structure prediction by ZEFSAII (Michael W. Deem and Ramdas Pophale) SiO2 
 PCOD8036469
Probable space group: P -1
;
_chemical_formula_sum "Si O2"
_cell_formula_units_Z 10
_cell_length_a 9.173417
_cell_length_b 5.077718
_cell_length_c 11.221894
_cell_angle_alpha 104.262869
_cell_angle_beta 60.499832
_cell_angle_gamma 78.514435
_cell_volume 407.870699
_symmetry_space_group_name_H-M "P -1"
_symmetry_group_IT_number 2
_symmetry_cell_setting 'triclinic'
loop_
_space_group_symop_operation_xyz
x,y,z
-x,-y,-z
loop_
_atom_site_type_symbol
_atom_site_label
_atom_site_fract_x
_atom_site_fract_y
_atom_site_fract_z
Si Si1 0.624908 0.655074 0.413942
Si Si2 0.263319 0.740771 0.312403
Si Si3 0.488848 0.079440 0.150490
Si Si4 0.100369 0.117286 0.636148
Si Si5 0.811230 0.102943 0.154446
O O1 0.500000 0.500000 0.500000
O O2 0.804047 0.652760 0.412172
O O3 0.710298 0.462012 0.238590
O O4 0.500000 0.000000 0.500000
O O5 0.416844 0.426593 0.231008
O O6 0.115749 0.726838 0.274042
O O7 0.353800 0.962014 0.257886
O O8 0.171940 0.837100 0.488726
O O9 0.685435 0.960205 0.121183
O O10 0.500000 0.000000 0.000000
O O11 0.155263 0.013684 0.737027
O O12 0.000000 0.000000 0.000000
#
# Coordination Sequence:
#
# PCOD8036469 Si02
#       5
#     2   2   2   2   2
#     4  12  25  46  76 111 151 194 252 315 375 452
#     4  11  28  48  78 110 153 203 250 319 376 462
#     4  12  28  50  74 108 158 201 253 308 392 452
#     4  11  27  48  80 113 153 195 265 312 385 450
#     4  12  29  49  82 116 156 203 260 324 382 458
#
# _framework density 24.517576999999999
#
# number of rings (size 3 to 8) (size 9 to 14) (size 15 to 20)
#    0.000    0.400    2.000    4.200   11.200    2.400 
#    0.000    0.000    0.000    0.000    0.000    0.000 
#    0.000    0.000    0.000    0.000    0.000    0.000 
#
# Total GULP energy -123901.137545 kJ/mol
# GULP energy per Si atom -12390.113754 kJ/mol
# Density = 2.446177 g / cm^3
# Si number density = 24.517577 Si / 1000 Ang^3
#
#
#
# Elastic Constant Matrix: (Units=GPa)
#
#
# Indices 1 2 3 4 5 6 
#
# 1 245.4646 36.6171 73.4947 -13.9858 7.8907 18.5994
# 2 36.6171 80.1583 63.6761 19.5942 25.3609 -2.9922
# 3 73.4947 63.6761 147.3419 -3.4069 -24.5104 3.9217
# 4 -13.9858 19.5942 -3.4069 28.4935 -19.1730 9.8394
# 5 7.8907 25.3609 -24.5104 -19.1730 19.0600 5.4930
# 6 18.5994 -2.9922 3.9217 9.8394 5.4930 30.3299
#
#
#
# Elastic Compliance Matrix: (Units=1/GPa)
#
#
# Indices 1 2 3 4 5 6 
#
# 1 0.005399 -0.000317 -0.002756 0.002314 -0.002060 -0.003364
# 2 -0.000317 0.001538 0.002816 0.013084 0.016981 -0.007338
# 3 -0.002756 0.002816 0.005086 -0.010708 -0.008668 0.006354
# 4 0.002314 0.013084 -0.010708 0.008699 -0.024198 0.002817
# 5 -0.002060 0.016981 -0.008668 -0.024198 -0.008649 0.013476
# 6 -0.003364 -0.007338 0.006354 0.002817 0.013476 0.030134
#
#
# Mechanical properties :
#
#
# Convention : Reuss Voigt Hill
#
# Bulk Modulus (GPa) = 86.88138 91.17117 89.02627
# Shear Modulus (GPa) = 107.39377 35.52181 71.45779
#
# Velocity S-wave (km/s) = 6.62555 3.81048 5.40452
# Velocity P-wave (km/s) = 9.69762 7.52505 8.67958
#
# Compressibility (1/GPa) = 0.01150995
#
# Stress axis : x y z
#
# Youngs Moduli (GPa) = 185.21095 650.00032 196.62384
#
# Poissons Ratio (x) = 0.20607 0.54184
# Poissons Ratio (y) = 0.05872 -0.55368
# Poissons Ratio (z) = 0.51039 -1.83036
#
# Static dielectric constant tensor:
#      x y z
#    x 5.393060 0.340880 -0.145500 
#    y 0.340880 5.384420 0.080000 
#    z -0.145500 0.080000 4.683300 
# 
# 
# High freq. dielectric constant tensor:
#      x y z
#    x 2.006300 0.019930 -0.007500 
#    y 0.019930 1.970350 0.009370 
#    z -0.007500 0.009370 1.978050 
# 
# From -- ./inp_files/372209.got.cif
#   From: 2010.06.25/outbox.cif.g09.slc.cpg/sg2_187_cif.got.tgz:372209.got - 2010.06.27 13:26:56.
