data_PCOD8036276
_publ_section_title
;
Structure prediction by ZEFSAII (Michael W. Deem and Ramdas Pophale) SiO2 
 PCOD8036276
Probable space group: P -1
;
_chemical_formula_sum "Si O2"
_cell_formula_units_Z 14
_cell_length_a 8.652299
_cell_length_b 18.376457
_cell_length_c 9.539274
_cell_angle_alpha 103.465164
_cell_angle_beta 98.290899
_cell_angle_gamma 140.571636
_cell_volume 797.521634
_symmetry_space_group_name_H-M "P -1"
_symmetry_group_IT_number 2
_symmetry_cell_setting 'triclinic'
loop_
_space_group_symop_operation_xyz
x,y,z
-x,-y,-z
loop_
_atom_site_type_symbol
_atom_site_label
_atom_site_fract_x
_atom_site_fract_y
_atom_site_fract_z
Si Si1 0.576824 0.324305 0.757938
Si Si2 0.554234 0.806173 0.900288
Si Si3 0.923708 0.364169 0.026458
Si Si4 0.204657 0.852777 0.075526
Si Si5 0.302610 0.169159 0.374930
Si Si6 0.803193 0.057195 0.149321
Si Si7 0.933169 0.877733 0.197487
O O1 0.530828 0.282084 0.572853
O O2 0.274198 0.220632 0.743113
O O3 0.764455 0.474622 0.856053
O O4 0.738064 0.320921 0.853634
O O5 0.240527 0.683470 0.871614
O O6 0.521412 0.771295 0.718706
O O7 0.748800 0.822553 0.010272
O O8 0.712393 0.949359 0.995108
O O9 0.962422 0.291048 0.979416
O O10 0.115798 0.876630 0.192269
O O11 0.546796 0.977172 0.184692
O O12 0.124506 0.846767 0.904677
O O13 0.076168 0.146144 0.318773
O O14 0.140384 0.028500 0.334942
#
# Coordination Sequence:
#
# PCOD8036276 Si02
#       7
#     2   2   2   2   2   2   2
#     4  10  22  37  51  69 107 140 173 201 240 308
#     4   9  16  32  57  77  99 129 174 204 246 304
#     4   9  21  38  52  71  98 145 173 199 248 300
#     4  10  17  31  57  75 102 131 167 207 251 303
#     4  11  18  33  55  81 100 129 168 214 251 293
#     4   9  17  30  53  84 101 125 162 215 258 293
#     4  10  18  32  55  80 100 133 164 206 256 304
#
# _framework density 17.554382
#
# number of rings (size 3 to 8) (size 9 to 14) (size 15 to 20)
#    0.000    2.286    2.857    2.143    0.000    1.143 
#    0.000    3.571    0.000    0.000    0.000    0.000 
#    0.000    0.000    0.000    0.000    0.000    0.000 
#
# Total GULP energy -173638.120324 kJ/mol
# GULP energy per Si atom -12402.722880 kJ/mol
# Density = 1.751443 g / cm^3
# Si number density = 17.554382 Si / 1000 Ang^3
#
#
#
# Elastic Constant Matrix: (Units=GPa)
#
#
# Indices 1 2 3 4 5 6 
#
# 1 94.4928 16.1065 24.7076 -0.9574 -0.6996 -9.9062
# 2 16.1065 62.4093 20.0465 -5.6219 7.9164 -17.2161
# 3 24.7076 20.0465 92.9445 -9.9139 -0.3240 1.5514
# 4 -0.9574 -5.6219 -9.9139 17.3091 4.3811 -4.2781
# 5 -0.6996 7.9164 -0.3240 4.3811 10.9461 -2.7041
# 6 -9.9062 -17.2161 1.5514 -4.2781 -2.7041 28.1726
#
#
#
# Elastic Compliance Matrix: (Units=1/GPa)
#
#
# Indices 1 2 3 4 5 6 
#
# 1 0.012048 -0.001797 -0.003042 -0.001709 0.003499 0.003382
# 2 -0.001797 0.026259 -0.003862 0.015604 -0.021530 0.015930
# 3 -0.003042 -0.003862 0.013009 0.005179 0.000083 -0.003352
# 4 -0.001709 0.015604 0.005179 0.079784 -0.038968 0.017024
# 5 0.003499 -0.021530 0.000083 -0.038968 0.121215 -0.006213
# 6 0.003382 0.015930 -0.003352 0.017024 -0.006213 0.048593
#
#
# Mechanical properties :
#
#
# Convention : Reuss Voigt Hill
#
# Bulk Modulus (GPa) = 29.48691 41.28531 35.38611
# Shear Modulus (GPa) = 15.16928 23.88463 19.52695
#
# Velocity S-wave (km/s) = 2.94280 3.69264 3.33884
# Velocity P-wave (km/s) = 5.32735 6.46145 5.92162
#
# Compressibility (1/GPa) = 0.03391335
#
# Stress axis : x y z
#
# Youngs Moduli (GPa) = 83.00427 38.08260 76.86776
#
# Poissons Ratio (x) = 0.06844 0.23380
# Poissons Ratio (y) = 0.14917 0.29689
# Poissons Ratio (z) = 0.25246 0.14709
#
# Static dielectric constant tensor:
#      x y z
#    x 3.328230 0.006120 0.049370 
#    y 0.006120 3.317220 -0.124680 
#    z 0.049370 -0.124680 2.866760 
# 
# 
# High freq. dielectric constant tensor:
#      x y z
#    x 1.680880 0.002850 0.000180 
#    y 0.002850 1.681590 -0.015200 
#    z 0.000180 -0.015200 1.642620 
# 
# From -- ./inp_files/163116.got.cif
#   From: 2010.06.25/outbox.cif.g09.slc.cpg/sg2_82_cif.got.tgz:163116.got - 2010.06.27 13:26:56.
