data_PCOD8036356
_publ_section_title
;
Structure prediction by ZEFSAII (Michael W. Deem and Ramdas Pophale) SiO2 
 PCOD8036356
Probable space group: P -1
;
_chemical_formula_sum "Si O2"
_cell_formula_units_Z 10
_cell_length_a 11.773939
_cell_length_b 8.907982
_cell_length_c 5.510952
_cell_angle_alpha 53.658789
_cell_angle_beta 100.163729
_cell_angle_gamma 115.922235
_cell_volume 416.007326
_symmetry_space_group_name_H-M "P -1"
_symmetry_group_IT_number 2
_symmetry_cell_setting 'triclinic'
loop_
_space_group_symop_operation_xyz
x,y,z
-x,-y,-z
loop_
_atom_site_type_symbol
_atom_site_label
_atom_site_fract_x
_atom_site_fract_y
_atom_site_fract_z
Si Si1 0.481361 0.597986 0.651927
Si Si2 0.249112 0.608664 0.770153
Si Si3 0.852176 0.128797 0.803149
Si Si4 0.623914 0.035867 0.162420
Si Si5 0.079600 0.164264 0.171769
O O1 0.500000 0.500000 0.500000
O O2 0.338100 0.586962 0.608880
O O3 0.588926 0.829370 0.499505
O O4 0.500000 0.500000 0.000000
O O5 0.151033 0.693247 0.543062
O O6 0.343148 0.767140 0.845821
O O7 0.170596 0.391348 0.086635
O O8 0.830284 0.926297 0.834857
O O9 0.742509 0.063281 0.018976
O O10 0.989135 0.207789 0.904410
O O11 0.500000 0.000000 0.000000
O O12 0.000000 0.000000 0.500000
#
# Coordination Sequence:
#
# PCOD8036356 Si02
#       5
#     2   2   2   2   2
#     4  12  28  47  78 116 160 208 262 322 398 475
#     4  12  27  47  79 109 157 206 257 325 394 467
#     4  11  26  48  78 106 157 197 263 317 398 463
#     4  12  26  49  75 116 155 202 259 323 396 478
#     4  11  27  50  76 111 150 201 266 324 386 465
#
# _framework density 24.038038
#
# number of rings (size 3 to 8) (size 9 to 14) (size 15 to 20)
#    0.000    0.400    2.000    4.800    8.400    6.400 
#    0.000    0.000    0.000    0.000    0.000    0.000 
#    0.000    0.000    0.000    0.000    0.000    0.000 
#
# Total GULP energy -124001.370784 kJ/mol
# GULP energy per Si atom -12400.137078 kJ/mol
# Density = 2.398333 g / cm^3
# Si number density = 24.038038 Si / 1000 Ang^3
#
#
#
# Elastic Constant Matrix: (Units=GPa)
#
#
# Indices 1 2 3 4 5 6 
#
# 1 132.0878 51.4941 36.0170 -4.2203 3.5181 -35.2704
# 2 51.4941 183.7522 91.2502 -27.3272 -3.2107 -12.6941
# 3 36.0170 91.2502 150.2599 -24.7939 -2.5827 -12.5286
# 4 -4.2203 -27.3272 -24.7939 53.3349 7.8610 -6.7419
# 5 3.5181 -3.2107 -2.5827 7.8610 46.7408 2.5828
# 6 -35.2704 -12.6941 -12.5286 -6.7419 2.5828 26.5179
#
#
#
# Elastic Compliance Matrix: (Units=1/GPa)
#
#
# Indices 1 2 3 4 5 6 
#
# 1 0.013218 -0.002154 -0.000040 0.002497 -0.002527 0.017411
# 2 -0.002154 0.008480 -0.004310 0.002105 0.000170 -0.000324
# 3 -0.000040 -0.004310 0.010048 0.002955 -0.000424 0.003424
# 4 0.002497 0.002105 0.002955 0.023603 -0.004522 0.012166
# 5 -0.002527 0.000170 -0.000424 -0.004522 0.022712 -0.006842
# 6 0.017411 -0.000324 0.003424 0.012166 -0.006842 0.066090
#
#
# Mechanical properties :
#
#
# Convention : Reuss Voigt Hill
#
# Bulk Modulus (GPa) = 53.36986 91.51362 72.44174
# Shear Modulus (GPa) = 30.59900 44.47465 37.53682
#
# Velocity S-wave (km/s) = 3.57170 4.30604 3.95594
# Velocity P-wave (km/s) = 6.26577 7.92941 7.14617
#
# Compressibility (1/GPa) = 0.01873717
#
# Stress axis : x y z
#
# Youngs Moduli (GPa) = 75.65626 117.92770 99.52463
#
# Poissons Ratio (x) = 0.25406 0.00394
# Poissons Ratio (y) = 0.16299 0.42895
# Poissons Ratio (z) = 0.00300 0.50827
#
# Static dielectric constant tensor:
#      x y z
#    x 4.187540 -0.553290 0.045630 
#    y -0.553290 4.334980 -0.356890 
#    z 0.045630 -0.356890 4.545970 
# 
# 
# High freq. dielectric constant tensor:
#      x y z
#    x 1.975150 -0.006670 0.007140 
#    y -0.006670 1.952230 -0.012620 
#    z 0.007140 -0.012620 1.965300 
# 
# From -- ./inp_files/2007.got.cif
#   From: 2010.06.25/outbox.cif.g09.slc.cpg/sg2_2_cif.got.tgz:2007.got - 2010.06.27 13:26:56.
