data_PCOD8036928
_publ_section_title
;
Structure prediction by ZEFSAII (Michael W. Deem and Ramdas Pophale) SiO2 
 PCOD8036928
Probable space group: P -1
;
_chemical_formula_sum "Si O2"
_cell_formula_units_Z 16
_cell_length_a 17.703401
_cell_length_b 8.520171
_cell_length_c 8.615162
_cell_angle_alpha 128.820096
_cell_angle_beta 130.022870
_cell_angle_gamma 56.901926
_cell_volume 752.741804
_symmetry_space_group_name_H-M "P -1"
_symmetry_group_IT_number 2
_symmetry_cell_setting 'triclinic'
loop_
_space_group_symop_operation_xyz
x,y,z
-x,-y,-z
loop_
_atom_site_type_symbol
_atom_site_label
_atom_site_fract_x
_atom_site_fract_y
_atom_site_fract_z
Si Si1 0.399346 0.623324 0.527709
Si Si2 0.236345 0.777776 0.950572
Si Si3 0.727828 0.938524 0.327014
Si Si4 0.760847 0.521010 0.969272
Si Si5 0.881977 0.523583 0.833901
Si Si6 0.735065 0.840041 0.614287
Si Si7 0.603341 0.528849 0.229876
Si Si8 0.117718 0.901437 0.581625
O O1 0.500000 0.500000 0.500000
O O2 0.309337 0.599073 0.286001
O O3 0.398137 0.510259 0.616096
O O4 0.374937 0.873468 0.680427
O O5 0.310711 0.637657 0.842177
O O6 0.146039 0.902718 0.801455
O O7 0.191676 0.635499 0.924949
O O8 0.296213 0.933236 0.207102
O O9 0.777778 0.872755 0.520531
O O10 0.818177 0.974772 0.360174
O O11 0.695352 0.739155 0.086951
O O12 0.843139 0.563074 0.983453
O O13 0.825483 0.703883 0.754010
O O14 0.858122 0.321638 0.603335
O O15 0.000000 0.500000 0.000000
O O16 0.633634 0.751695 0.400432
O O17 0.500000 0.500000 0.000000
O O18 0.000000 0.000000 0.500000
#
# Coordination Sequence:
#
# PCOD8036928 Si02
#       8
#     2   2   2   2   2   2   2   2
#     4  12  26  47  70 101 141 182 239 292 354 415
#     4  12  23  45  70 100 144 183 230 298 344 421
#     4  12  24  45  71 100 142 187 232 291 351 416
#     4  12  23  45  70 100 144 183 230 298 344 421
#     4  12  24  45  71 106 142 187 235 289 355 419
#     4  12  24  45  71 100 142 187 232 291 351 416
#     4  12  26  47  70 101 141 182 239 292 354 415
#     4  12  24  45  71 106 142 187 235 289 355 419
#
# _framework density 21.255625999999999
#
# number of rings (size 3 to 8) (size 9 to 14) (size 15 to 20)
#    0.000    0.000    7.500    3.000    0.000    2.000 
#    0.000    5.000    0.000    0.000    0.000    0.000 
#    0.000    0.000    0.000    0.000    0.000    0.000 
#
# Total GULP energy -198260.864578 kJ/mol
# GULP energy per Si atom -12391.304036 kJ/mol
# Density = 2.120725 g / cm^3
# Si number density = 21.255626 Si / 1000 Ang^3
#
#
#
# Elastic Constant Matrix: (Units=GPa)
#
#
# Indices 1 2 3 4 5 6 
#
# 1 114.6350 67.2731 29.0704 -18.3973 -21.6669 5.7263
# 2 67.2731 109.7032 38.9387 1.6345 -8.3545 15.4652
# 3 29.0704 38.9387 111.4050 14.0868 -9.0865 3.8781
# 4 -18.3973 1.6345 14.0868 52.8833 -4.8938 -9.3902
# 5 -21.6669 -8.3545 -9.0865 -4.8938 40.4898 -3.9832
# 6 5.7263 15.4652 3.8781 -9.3902 -3.9832 35.2358
#
#
#
# Elastic Compliance Matrix: (Units=1/GPa)
#
#
# Indices 1 2 3 4 5 6 
#
# 1 0.018356 -0.010915 -0.001568 0.008907 0.008822 0.005351
# 2 -0.010915 0.017593 -0.002705 -0.005351 -0.004207 -0.007552
# 3 -0.001568 -0.002705 0.010827 -0.003399 0.000564 -0.000592
# 4 0.008907 -0.005351 -0.003399 0.025269 0.006817 0.008780
# 5 0.008822 -0.004207 0.000564 0.006817 0.030048 0.005565
# 6 0.005351 -0.007552 -0.000592 0.008780 0.005565 0.033859
#
#
# Mechanical properties :
#
#
# Convention : Reuss Voigt Hill
#
# Bulk Modulus (GPa) = 60.97292 67.36750 64.17021
# Shear Modulus (GPa) = 29.10462 39.08584 34.09523
#
# Velocity S-wave (km/s) = 3.70437 4.29283 4.00941
# Velocity P-wave (km/s) = 6.85889 7.50559 7.18952
#
# Compressibility (1/GPa) = 0.01640072
#
# Stress axis : x y z
#
# Youngs Moduli (GPa) = 54.47800 56.84108 92.36143
#
# Poissons Ratio (x) = 0.62043 0.14480
# Poissons Ratio (y) = 0.59464 0.24980
# Poissons Ratio (z) = 0.08541 0.15373
#
# Static dielectric constant tensor:
#      x y z
#    x 2.950180 0.409870 -0.005780 
#    y 0.409870 3.842580 0.340490 
#    z -0.005780 0.340490 4.131360 
# 
# 
# High freq. dielectric constant tensor:
#      x y z
#    x 1.830360 0.015290 -0.026130 
#    y 0.015290 1.841660 0.011560 
#    z -0.026130 0.011560 1.854580 
# 
# From -- ./inp_files/203386.got.cif
#   From: 2010.06.25/outbox.cif.g09.slc.cpg/sg2_102_cif.got.tgz:203386.got - 2010.06.27 13:26:56.
