data_PCOD8036617
_publ_section_title
;
Structure prediction by ZEFSAII (Michael W. Deem and Ramdas Pophale) SiO2 
 PCOD8036617
Probable space group: P -1
;
_chemical_formula_sum "Si O2"
_cell_formula_units_Z 16
_cell_length_a 14.219695
_cell_length_b 8.900061
_cell_length_c 19.144864
_cell_angle_alpha 36.000282
_cell_angle_beta 32.119805
_cell_angle_gamma 38.816530
_cell_volume 722.168645
_symmetry_space_group_name_H-M "P -1"
_symmetry_group_IT_number 2
_symmetry_cell_setting 'triclinic'
loop_
_space_group_symop_operation_xyz
x,y,z
-x,-y,-z
loop_
_atom_site_type_symbol
_atom_site_label
_atom_site_fract_x
_atom_site_fract_y
_atom_site_fract_z
Si Si1 0.288538 0.602048 0.619927
Si Si2 0.965286 0.008988 0.599387
Si Si3 0.176067 0.090564 0.881791
Si Si4 0.189226 0.452769 0.439187
Si Si5 0.291135 0.173698 0.070213
Si Si6 0.729059 0.113862 0.335928
Si Si7 0.909368 0.815711 0.945856
Si Si8 0.577369 0.333396 0.207038
O O1 0.500000 0.500000 0.500000
O O2 0.174107 0.394024 0.749527
O O3 0.299311 0.647523 0.679113
O O4 0.166153 0.885934 0.556802
O O5 0.867537 0.324380 0.549955
O O6 0.818701 0.864853 0.776478
O O7 0.000000 0.000000 0.500000
O O8 0.360421 0.896770 0.803687
O O9 0.207207 0.081494 0.949220
O O10 0.000000 0.000000 0.000000
O O11 0.359749 0.497120 0.268974
O O12 0.000000 0.500000 0.500000
O O13 0.283666 0.157467 0.520281
O O14 0.204213 0.081047 0.091446
O O15 0.284625 0.484331 0.954065
O O16 0.500000 0.000000 0.000000
O O17 0.585937 0.212362 0.325586
O O18 0.932329 0.040666 0.202431
O O19 0.000000 0.500000 0.000000
#
# Coordination Sequence:
#
# PCOD8036617 Si02
#       8
#     2   2   2   2   2   2   2   2
#     4  12  26  45  72 103 146 193 244 297 369 447
#     4  12  28  46  73 105 148 192 243 304 372 442
#     4  12  24  42  73 112 144 175 248 312 364 432
#     4  12  26  49  68 103 153 196 244 300 373 442
#     4  12  24  49  75 103 146 200 246 298 375 446
#     4  12  24  45  76 102 145 194 244 298 367 438
#     4  12  21  45  73 101 139 191 235 297 364 439
#     4  12  26  44  76 110 142 191 250 307 365 440
#
# _framework density 22.155488999999999
#
# number of rings (size 3 to 8) (size 9 to 14) (size 15 to 20)
#    0.000    0.000    7.500    1.875    3.500    2.000 
#    0.000    0.625    0.000    0.000    0.000    0.000 
#    0.000    0.000    0.000    0.000    0.000    0.000 
#
# Total GULP energy -198277.169333 kJ/mol
# GULP energy per Si atom -12392.323083 kJ/mol
# Density = 2.210506 g / cm^3
# Si number density = 22.155489 Si / 1000 Ang^3
#
#
#
# Elastic Constant Matrix: (Units=GPa)
#
#
# Indices 1 2 3 4 5 6 
#
# 1 106.9342 51.8603 69.5648 19.7611 5.9852 5.2448
# 2 51.8603 125.3463 44.4739 21.2936 1.7881 19.6171
# 3 69.5648 44.4739 127.0398 15.5845 0.6537 4.1254
# 4 19.7611 21.2936 15.5845 49.4348 7.5877 -2.1065
# 5 5.9852 1.7881 0.6537 7.5877 44.5100 9.6171
# 6 5.2448 19.6171 4.1254 -2.1065 9.6171 40.9787
#
#
#
# Elastic Compliance Matrix: (Units=1/GPa)
#
#
# Indices 1 2 3 4 5 6 
#
# 1 0.016578 -0.003932 -0.007438 -0.002286 -0.001745 0.000801
# 2 -0.003932 0.011480 -0.001269 -0.003493 0.001866 -0.005482
# 3 -0.007438 -0.001269 0.012449 -0.000548 0.000950 0.000055
# 4 -0.002286 -0.003493 -0.000548 0.023696 -0.004512 0.004297
# 5 -0.001745 0.001866 0.000950 -0.004512 0.024858 -0.006831
# 6 0.000801 -0.005482 0.000055 0.004297 -0.006831 0.028743
#
#
# Mechanical properties :
#
#
# Convention : Reuss Voigt Hill
#
# Bulk Modulus (GPa) = 65.66208 76.79090 71.22649
# Shear Modulus (GPa) = 33.74795 39.87945 36.81370
#
# Velocity S-wave (km/s) = 3.90709 4.24722 4.08070
# Velocity P-wave (km/s) = 7.07496 7.66727 7.37707
#
# Compressibility (1/GPa) = 0.01522949
#
# Stress axis : x y z
#
# Youngs Moduli (GPa) = 60.32097 87.11126 80.32677
#
# Poissons Ratio (x) = 0.34252 0.59746
# Poissons Ratio (y) = 0.23718 0.10191
# Poissons Ratio (z) = 0.44866 0.11052
#
# Static dielectric constant tensor:
#      x y z
#    x 2.797510 5.470620 -1.366050 
#    y 5.470620 -27.324170 5.898930 
#    z -1.366050 5.898930 3.264850 
# 
# 
# High freq. dielectric constant tensor:
#      x y z
#    x 1.861570 0.005050 -0.014370 
#    y 0.005050 1.880010 0.005630 
#    z -0.014370 0.005630 1.888620 
# 
# From -- ./inp_files/572819.got.cif
#   From: 2010.06.25/outbox.cif.g09.slc.cpg/sg2_287_cif.got.tgz:572819.got - 2010.06.27 13:26:56.
