data_PCOD8036635
_publ_section_title
;
Structure prediction by ZEFSAII (Michael W. Deem and Ramdas Pophale) SiO2 
 PCOD8036635
Probable space group: P -1
;
_chemical_formula_sum "Si O2"
_cell_formula_units_Z 12
_cell_length_a 8.748261
_cell_length_b 9.841706
_cell_length_c 14.736851
_cell_angle_alpha 58.907535
_cell_angle_beta 72.956201
_cell_angle_gamma 30.678174
_cell_volume 520.182752
_symmetry_space_group_name_H-M "P -1"
_symmetry_group_IT_number 2
_symmetry_cell_setting 'triclinic'
loop_
_space_group_symop_operation_xyz
x,y,z
-x,-y,-z
loop_
_atom_site_type_symbol
_atom_site_label
_atom_site_fract_x
_atom_site_fract_y
_atom_site_fract_z
Si Si1 0.871175 0.762917 0.880891
Si Si2 0.554966 0.035504 0.261660
Si Si3 0.469023 0.373391 0.807179
Si Si4 0.095578 0.736564 0.571368
Si Si5 0.392033 0.288165 0.519247
Si Si6 0.785593 0.436075 0.739437
O O1 0.611673 0.936355 0.791213
O O2 0.160909 0.613844 0.839760
O O3 0.706329 0.019351 0.895522
O O4 0.000000 0.500000 0.000000
O O5 0.300703 0.376471 0.226922
O O6 0.738024 0.769037 0.399059
O O7 0.831969 0.902444 0.213143
O O8 0.375949 0.462641 0.687330
O O9 0.643954 0.384772 0.801131
O O10 0.236392 0.566195 0.507542
O O11 0.000000 0.000000 0.500000
O O12 0.771599 0.926206 0.591080
O O13 0.352426 0.362280 0.395850
#
# Coordination Sequence:
#
# PCOD8036635 Si02
#       6
#     2   2   2   2   2   2
#     4  12  27  50  76  95 124 178 239 290 338 392
#     4  12  24  45  64 101 141 178 223 276 331 396
#     4  12  24  46  70 101 135 175 229 281 333 398
#     4  12  22  37  66 101 139 177 227 269 314 403
#     4  12  23  39  65  99 143 188 220 252 326 411
#     4  12  26  40  68 104 145 177 212 270 343 409
#
# _framework density 23.068816000000002
#
# number of rings (size 3 to 8) (size 9 to 14) (size 15 to 20)
#    0.000    0.000    5.000    6.000    2.333    0.000 
#    0.000    5.000    0.000    0.000    0.000    0.000 
#    0.000    0.000    0.000    0.000    0.000    0.000 
#
# Total GULP energy -148832.078623 kJ/mol
# GULP energy per Si atom -12402.673219 kJ/mol
# Density = 2.301631 g / cm^3
# Si number density = 23.068816 Si / 1000 Ang^3
#
#
#
# Elastic Constant Matrix: (Units=GPa)
#
#
# Indices 1 2 3 4 5 6 
#
# 1 118.7121 32.3153 15.1621 5.5920 -26.1128 -8.0066
# 2 32.3153 112.1063 -4.4200 -4.7021 5.0228 0.1198
# 3 15.1621 -4.4200 56.0283 -12.5236 -14.9498 -0.4579
# 4 5.5920 -4.7021 -12.5236 30.7590 4.1067 -9.6535
# 5 -26.1128 5.0228 -14.9498 4.1067 18.8229 2.8675
# 6 -8.0066 0.1198 -0.4579 -9.6535 2.8675 46.7508
#
#
#
# Elastic Compliance Matrix: (Units=1/GPa)
#
#
# Indices 1 2 3 4 5 6 
#
# 1 0.016006 -0.006053 0.000468 -0.007186 0.025806 -0.000305
# 2 -0.006053 0.011434 0.000336 0.004852 -0.012346 0.000697
# 3 0.000468 0.000336 0.024292 0.007697 0.018052 0.000799
# 4 -0.007186 0.004852 0.007697 0.042482 -0.015724 0.008569
# 5 0.025806 -0.012346 0.018052 -0.015724 0.110815 -0.005416
# 6 -0.000305 0.000697 0.000799 0.008569 -0.005416 0.023445
#
#
# Mechanical properties :
#
#
# Convention : Reuss Voigt Hill
#
# Bulk Modulus (GPa) = 24.25142 41.44016 32.84579
# Shear Modulus (GPa) = 19.78506 35.51916 27.65211
#
# Velocity S-wave (km/s) = 2.93175 3.92816 3.46595
# Velocity P-wave (km/s) = 4.68995 6.21101 5.50329
#
# Compressibility (1/GPa) = 0.04123471
#
# Stress axis : x y z
#
# Youngs Moduli (GPa) = 62.47644 87.45855 41.16620
#
# Poissons Ratio (x) = 0.52936 -0.01927
# Poissons Ratio (y) = 0.37815 -0.01383
# Poissons Ratio (z) = -0.02925 -0.02939
#
# Static dielectric constant tensor:
#      x y z
#    x 4.358890 0.018940 -0.311970 
#    y 0.018940 3.714450 0.434380 
#    z -0.311970 0.434380 3.613780 
# 
# 
# High freq. dielectric constant tensor:
#      x y z
#    x 1.921490 -0.007590 -0.015600 
#    y -0.007590 1.936170 -0.003610 
#    z -0.015600 -0.003610 1.881680 
# 
# From -- ./inp_files/49556.got.cif
#   From: 2010.06.25/outbox.cif.g09.slc.cpg/sg2_25_cif.got.tgz:49556.got - 2010.06.27 13:26:56.
