data_PCOD8036049
_publ_section_title
;
Structure prediction by ZEFSAII (Michael W. Deem and Ramdas Pophale) SiO2 
 PCOD8036049
Probable space group: P -1
;
_chemical_formula_sum "Si O2"
_cell_formula_units_Z 16
_cell_length_a 14.410893
_cell_length_b 9.145853
_cell_length_c 12.587368
_cell_angle_alpha 100.723180
_cell_angle_beta 152.596890
_cell_angle_gamma 90.154017
_cell_volume 696.614088
_symmetry_space_group_name_H-M "P -1"
_symmetry_group_IT_number 2
_symmetry_cell_setting 'triclinic'
loop_
_space_group_symop_operation_xyz
x,y,z
-x,-y,-z
loop_
_atom_site_type_symbol
_atom_site_label
_atom_site_fract_x
_atom_site_fract_y
_atom_site_fract_z
Si Si1 0.849236 0.195862 0.171705
Si Si2 0.383194 0.594275 0.007396
Si Si3 0.455281 0.162023 0.982814
Si Si4 0.207634 0.685484 0.482748
Si Si5 0.766830 0.639222 0.552870
Si Si6 0.482954 0.938590 0.641912
Si Si7 0.919149 0.747158 0.370220
Si Si8 0.749215 0.889181 0.717934
O O1 0.061529 0.214922 0.321212
O O2 0.891793 0.193591 0.341536
O O3 0.800357 0.355383 0.115201
O O4 0.646073 0.035981 0.913934
O O5 0.500921 0.745503 0.071727
O O6 0.541608 0.569630 0.252127
O O7 0.263952 0.425242 0.801960
O O8 0.200456 0.125682 0.745469
O O9 0.596137 0.279363 0.231288
O O10 0.500000 0.000000 0.000000
O O11 0.143746 0.502452 0.354927
O O12 0.283389 0.795198 0.470762
O O13 0.013468 0.722506 0.348556
O O14 0.735709 0.713694 0.643743
O O15 0.621103 0.870568 0.695436
O O16 0.376081 0.047871 0.488601
O O17 0.000000 0.000000 0.000000
#
# Coordination Sequence:
#
# PCOD8036049 Si02
#       8
#     2   2   2   2   2   2   2   2
#     4  12  22  41  76 104 138 196 237 280 348 435
#     4  12  22  44  67 103 148 196 237 283 337 432
#     4  12  26  42  63 103 151 194 237 284 340 410
#     4  12  27  45  66 111 147 188 236 295 356 421
#     4  12  24  44  78 103 140 191 244 292 357 421
#     4  11  27  48  72 104 146 176 245 309 358 429
#     4  12  25  42  70 102 152 197 234 274 353 435
#     4  11  25  50  79 102 128 191 245 302 377 427
#
# _framework density 22.968240999999999
#
# number of rings (size 3 to 8) (size 9 to 14) (size 15 to 20)
#    0.000    0.250    7.500    2.250    0.000    2.000 
#    2.250    0.625    0.000    0.000    0.000    0.000 
#    0.000    0.000    0.000    0.000    0.000    0.000 
#
# Total GULP energy -198419.353410 kJ/mol
# GULP energy per Si atom -12401.209588 kJ/mol
# Density = 2.291596 g / cm^3
# Si number density = 22.968241 Si / 1000 Ang^3
#
#
#
# Elastic Constant Matrix: (Units=GPa)
#
#
# Indices 1 2 3 4 5 6 
#
# 1 139.0370 74.1279 32.4322 1.4478 4.5523 -24.7030
# 2 74.1279 126.5147 37.6449 5.7629 0.9862 -27.3481
# 3 32.4322 37.6449 97.9628 3.7825 6.6787 -15.5133
# 4 1.4478 5.7629 3.7825 27.0839 -11.2219 6.9340
# 5 4.5523 0.9862 6.6787 -11.2219 35.6209 1.5052
# 6 -24.7030 -27.3481 -15.5133 6.9340 1.5052 42.2829
#
#
#
# Elastic Compliance Matrix: (Units=1/GPa)
#
#
# Indices 1 2 3 4 5 6 
#
# 1 0.010842 -0.005479 -0.000971 -0.000476 -0.001310 0.002559
# 2 -0.005479 0.013040 -0.002209 -0.003732 -0.000636 0.005057
# 3 -0.000971 -0.002209 0.012234 -0.003364 -0.003302 0.003162
# 4 -0.000476 -0.003732 -0.003364 0.048236 0.016516 -0.012424
# 5 -0.001310 -0.000636 -0.003302 0.016516 0.034348 -0.006319
# 6 0.002559 0.005057 0.003162 -0.012424 -0.006319 0.031839
#
#
# Mechanical properties :
#
#
# Convention : Reuss Voigt Hill
#
# Bulk Modulus (GPa) = 53.19496 72.43606 62.81551
# Shear Modulus (GPa) = 28.71547 35.61815 32.16681
#
# Velocity S-wave (km/s) = 3.53969 3.94224 3.74637
# Velocity P-wave (km/s) = 6.31794 7.23378 6.79132
#
# Compressibility (1/GPa) = 0.01879878
#
# Stress axis : x y z
#
# Youngs Moduli (GPa) = 92.23021 76.68899 81.73943
#
# Poissons Ratio (x) = 0.42016 0.07939
# Poissons Ratio (y) = 0.50530 0.18054
# Poissons Ratio (z) = 0.08958 0.16939
#
# Static dielectric constant tensor:
#      x y z
#    x 4.290670 -0.353810 0.281770 
#    y -0.353810 4.107790 -0.003510 
#    z 0.281770 -0.003510 4.158110 
# 
# 
# High freq. dielectric constant tensor:
#      x y z
#    x 1.911880 -0.023800 0.023480 
#    y -0.023800 1.906180 0.003870 
#    z 0.023480 0.003870 1.902650 
# 
# From -- ./inp_files/447710.got.cif
#   From: 2010.06.25/outbox.cif.g09.slc.cpg/sg2_224_cif.got.tgz:447710.got - 2010.06.27 13:26:56.
