data_PCOD8036719
_publ_section_title
;
Structure prediction by ZEFSAII (Michael W. Deem and Ramdas Pophale) SiO2 
 PCOD8036719
Probable space group: P -1
;
_chemical_formula_sum "Si O2"
_cell_formula_units_Z 16
_cell_length_a 18.557895
_cell_length_b 12.266299
_cell_length_c 9.336737
_cell_angle_alpha 141.749149
_cell_angle_beta 140.085257
_cell_angle_gamma 34.202686
_cell_volume 696.221086
_symmetry_space_group_name_H-M "P -1"
_symmetry_group_IT_number 2
_symmetry_cell_setting 'triclinic'
loop_
_space_group_symop_operation_xyz
x,y,z
-x,-y,-z
loop_
_atom_site_type_symbol
_atom_site_label
_atom_site_fract_x
_atom_site_fract_y
_atom_site_fract_z
Si Si1 0.389299 0.504628 0.736596
Si Si2 0.737414 0.017517 0.381490
Si Si3 0.538613 0.640406 0.618765
Si Si4 0.154227 0.898819 0.103779
Si Si5 0.241467 0.450262 0.673454
Si Si6 0.778217 0.602475 0.097974
Si Si7 0.080588 0.261270 0.169449
Si Si8 0.146598 0.956028 0.710420
O O1 0.466148 0.384835 0.584687
O O2 0.350958 0.358796 0.616279
O O3 0.251067 0.738077 0.731391
O O4 0.500000 0.500000 0.000000
O O5 0.576476 0.118154 0.257452
O O6 0.769990 0.144610 0.674704
O O7 0.776086 0.056952 0.327749
O O8 0.814082 0.767921 0.273353
O O9 0.500000 0.500000 0.500000
O O10 0.686337 0.584105 0.823877
O O11 0.172547 0.062696 0.211289
O O12 0.206906 0.687473 0.876018
O O13 0.000000 0.000000 0.000000
O O14 0.118214 0.433531 0.419607
O O15 0.293433 0.339401 0.794388
O O16 0.922744 0.374370 0.089049
O O17 0.112042 0.165388 0.959374
O O18 0.000000 0.000000 0.500000
#
# Coordination Sequence:
#
# PCOD8036719 Si02
#       8
#     2   2   2   2   2   2   2   2
#     4  12  27  49  77 111 150 204 257 313 377 448
#     4  12  27  47  74 107 152 196 254 306 377 456
#     4  12  26  49  73 104 146 203 254 304 374 453
#     4  12  22  43  74 106 147 196 243 304 368 448
#     4  12  26  45  77 112 150 194 251 310 375 446
#     4  12  26  47  73 111 151 198 249 310 381 456
#     4  12  26  47  74 117 153 193 252 312 382 450
#     4  12  28  48  75 116 155 198 249 315 386 448
#
# _framework density 22.981206
#
# number of rings (size 3 to 8) (size 9 to 14) (size 15 to 20)
#    0.000    0.000    5.000    5.250    3.500    0.500 
#    0.000    1.250    0.000    0.000    0.000    0.000 
#    0.000    0.000    0.000    0.000    0.000    0.000 
#
# Total GULP energy -198356.858793 kJ/mol
# GULP energy per Si atom -12397.303675 kJ/mol
# Density = 2.292890 g / cm^3
# Si number density = 22.981206 Si / 1000 Ang^3
#
#
#
# Elastic Constant Matrix: (Units=GPa)
#
#
# Indices 1 2 3 4 5 6 
#
# 1 166.8926 25.6265 63.8226 -13.8227 -17.7117 17.8547
# 2 25.6265 84.8369 37.5979 -13.0125 1.6686 6.1157
# 3 63.8226 37.5979 151.1442 -13.4868 -7.3444 6.8608
# 4 -13.8227 -13.0125 -13.4868 38.7631 0.3644 3.3974
# 5 -17.7117 1.6686 -7.3444 0.3644 44.1894 -2.4089
# 6 17.8547 6.1157 6.8608 3.3974 -2.4089 33.0231
#
#
#
# Elastic Compliance Matrix: (Units=1/GPa)
#
#
# Indices 1 2 3 4 5 6 
#
# 1 0.007961 -0.000685 -0.002728 0.001953 0.002549 -0.003625
# 2 -0.000685 0.013994 -0.002838 0.003665 -0.001420 -0.002112
# 3 -0.002728 -0.002838 0.008582 0.001044 0.000439 0.000142
# 4 0.001953 0.003665 0.001044 0.028511 0.000318 -0.004862
# 5 0.002549 -0.001420 0.000439 0.000318 0.023803 0.000497
# 6 -0.003625 -0.002112 0.000142 -0.004862 0.000497 0.033140
#
#
# Mechanical properties :
#
#
# Convention : Reuss Voigt Hill
#
# Bulk Modulus (GPa) = 55.44846 72.99640 64.22243
# Shear Modulus (GPa) = 37.17342 41.58357 39.37850
#
# Velocity S-wave (km/s) = 4.02625 4.25839 4.14395
# Velocity P-wave (km/s) = 6.76715 7.48405 7.13461
#
# Compressibility (1/GPa) = 0.01803477
#
# Stress axis : x y z
#
# Youngs Moduli (GPa) = 125.61869 71.45797 116.51864
#
# Poissons Ratio (x) = 0.04892 0.31791
# Poissons Ratio (y) = 0.08600 0.33070
# Poissons Ratio (z) = 0.34274 0.20281
#
# Static dielectric constant tensor:
#      x y z
#    x 4.392770 -0.098150 -0.122200 
#    y -0.098150 4.716650 -0.052810 
#    z -0.122200 -0.052810 4.164160 
# 
# 
# High freq. dielectric constant tensor:
#      x y z
#    x 1.926020 0.005270 -0.005170 
#    y 0.005270 1.902110 -0.005980 
#    z -0.005170 -0.005980 1.914710 
# 
# From -- ./inp_files/333972.got.cif
#   From: 2010.06.25/outbox.cif.g09.slc.cpg/sg2_167_cif.got.tgz:333972.got - 2010.06.27 13:26:56.
