data_PCOD8036642
_publ_section_title
;
Structure prediction by ZEFSAII (Michael W. Deem and Ramdas Pophale) SiO2 
 PCOD8036642
Probable space group: P -1
;
_chemical_formula_sum "Si O2"
_cell_formula_units_Z 14
_cell_length_a 11.619433
_cell_length_b 14.205624
_cell_length_c 11.380599
_cell_angle_alpha 57.652563
_cell_angle_beta 24.924405
_cell_angle_gamma 55.745538
_cell_volume 652.692176
_symmetry_space_group_name_H-M "P -1"
_symmetry_group_IT_number 2
_symmetry_cell_setting 'triclinic'
loop_
_space_group_symop_operation_xyz
x,y,z
-x,-y,-z
loop_
_atom_site_type_symbol
_atom_site_label
_atom_site_fract_x
_atom_site_fract_y
_atom_site_fract_z
Si Si1 0.158554 0.341700 0.654067
Si Si2 0.695767 0.081479 0.727120
Si Si3 0.595650 0.265195 0.897533
Si Si4 0.444525 0.513932 0.903401
Si Si5 0.836754 0.794226 0.488308
Si Si6 0.957434 0.026976 0.156538
Si Si7 0.440730 0.150366 0.671452
O O1 0.300664 0.445384 0.421628
O O2 0.225271 0.242078 0.560792
O O3 0.269049 0.279255 0.716305
O O4 0.829849 0.391217 0.935490
O O5 0.665675 0.189504 0.767947
O O6 0.610960 0.140857 0.641053
O O7 0.000000 0.000000 0.500000
O O8 0.500000 0.000000 0.000000
O O9 0.415422 0.393000 0.954382
O O10 0.884599 0.290452 0.665055
O O11 0.433982 0.202719 0.182932
O O12 0.500000 0.500000 0.000000
O O13 0.913068 0.917653 0.342998
O O14 0.671321 0.121190 0.373878
O O15 0.227822 0.065424 0.931426
O O16 0.000000 0.000000 0.000000
#
# Coordination Sequence:
#
# PCOD8036642 Si02
#       7
#     2   2   2   2   2   2   2
#     4  12  24  40  64  98 135 170 213 278 341 391
#     4  12  26  49  69  95 133 180 229 269 323 403
#     4  12  25  41  69  95 129 177 225 272 325 387
#     4  12  23  42  65  99 135 171 222 275 333 392
#     4  12  22  38  64  99 132 167 216 273 336 395
#     4  12  24  38  63  99 134 169 214 266 345 411
#     4  12  26  44  64  96 140 176 216 281 330 392
#
# _framework density 21.449622000000002
#
# number of rings (size 3 to 8) (size 9 to 14) (size 15 to 20)
#    0.000    0.000    4.286    7.714    2.000    0.000 
#    0.000    1.429    0.000    0.000    0.000    0.000 
#    0.000    0.000    0.000    0.000    0.000    0.000 
#
# Total GULP energy -173649.362918 kJ/mol
# GULP energy per Si atom -12403.525923 kJ/mol
# Density = 2.140080 g / cm^3
# Si number density = 21.449622 Si / 1000 Ang^3
#
#
#
# Elastic Constant Matrix: (Units=GPa)
#
#
# Indices 1 2 3 4 5 6 
#
# 1 108.8902 69.0868 37.6443 7.9496 -6.4325 -15.0727
# 2 69.0868 115.4655 28.8570 8.4061 4.2591 1.8051
# 3 37.6443 28.8570 115.4117 7.5572 -10.4558 6.3027
# 4 7.9496 8.4061 7.5572 44.5535 -3.6549 -3.2092
# 5 -6.4325 4.2591 -10.4558 -3.6549 27.1033 4.0360
# 6 -15.0727 1.8051 6.3027 -3.2092 4.0360 37.4088
#
#
#
# Elastic Compliance Matrix: (Units=1/GPa)
#
#
# Indices 1 2 3 4 5 6 
#
# 1 0.018244 -0.010300 -0.003518 0.000147 0.003407 0.008086
# 2 -0.010300 0.015319 -0.000538 -0.001660 -0.004622 -0.004442
# 3 -0.003518 -0.000538 0.010551 -0.001018 0.003727 -0.003659
# 4 0.000147 -0.001660 -0.001018 0.023275 0.002742 0.002012
# 5 0.003407 -0.004622 0.003727 0.002742 0.040713 -0.003189
# 6 0.008086 -0.004442 -0.003659 0.002012 -0.003189 0.031337
#
#
# Mechanical properties :
#
#
# Convention : Reuss Voigt Hill
#
# Bulk Modulus (GPa) = 64.92644 67.88261 66.40452
# Shear Modulus (GPa) = 28.85433 35.42509 32.13971
#
# Velocity S-wave (km/s) = 3.67170 4.06833 3.87509
# Velocity P-wave (km/s) = 6.95055 7.33380 7.14474
#
# Compressibility (1/GPa) = 0.01540205
#
# Stress axis : x y z
#
# Youngs Moduli (GPa) = 54.81142 65.28045 94.77947
#
# Poissons Ratio (x) = 0.67237 0.33344
# Poissons Ratio (y) = 0.56454 0.05100
# Poissons Ratio (z) = 0.19283 0.03512
#
# Static dielectric constant tensor:
#      x y z
#    x 3.515990 -0.647760 -0.230990 
#    y -0.647760 2.684830 -0.173870 
#    z -0.230990 -0.173870 4.166520 
# 
# 
# High freq. dielectric constant tensor:
#      x y z
#    x 1.820830 -0.013180 -0.010240 
#    y -0.013180 1.846330 0.003730 
#    z -0.010240 0.003730 1.865180 
# 
# From -- ./inp_files/433765.got.cif
#   From: 2010.06.25/outbox.cif.g09.slc.cpg/sg2_217_cif.got.tgz:433765.got - 2010.06.27 13:26:56.
