data_PCOD8037400
_publ_section_title
;
Structure prediction by ZEFSAII (Michael W. Deem and Ramdas Pophale) SiO2 
 PCOD8037400
Probable space group: P -1
;
_chemical_formula_sum "Si O2"
_cell_formula_units_Z 12
_cell_length_a 9.152306
_cell_length_b 8.737440
_cell_length_c 16.951237
_cell_angle_alpha 33.797784
_cell_angle_beta 118.302122
_cell_angle_gamma 96.531600
_cell_volume 544.477227
_symmetry_space_group_name_H-M "P -1"
_symmetry_group_IT_number 2
_symmetry_cell_setting 'triclinic'
loop_
_space_group_symop_operation_xyz
x,y,z
-x,-y,-z
loop_
_atom_site_type_symbol
_atom_site_label
_atom_site_fract_x
_atom_site_fract_y
_atom_site_fract_z
Si Si1 0.717836 0.679380 0.173354
Si Si2 0.471588 0.056705 0.561654
Si Si3 0.068729 0.767409 0.191633
Si Si4 0.879562 0.896504 0.793376
Si Si5 0.990509 0.238076 0.557994
Si Si6 0.370865 0.691527 0.807652
O O1 0.787814 0.419892 0.375049
O O2 0.708972 0.519580 0.158143
O O3 0.879570 0.769588 0.171714
O O4 0.500000 0.000000 0.000000
O O5 0.256609 0.397458 0.377063
O O6 0.500000 0.000000 0.500000
O O7 0.648832 0.079187 0.630215
O O8 0.489253 0.747388 0.745443
O O9 0.129893 0.933356 0.200490
O O10 0.000000 0.000000 0.000000
O O11 0.999357 0.959449 0.732527
O O12 0.000000 0.500000 0.000000
O O13 0.000000 0.500000 0.500000
O O14 0.183705 0.059076 0.627151
O O15 0.500000 0.500000 0.000000
#
# Coordination Sequence:
#
# PCOD8037400 Si02
#       6
#     2   2   2   2   2   2
#     4  12  28  47  74 106 147 192 246 304 364 434
#     4  12  27  49  75 108 149 193 242 301 371 437
#     4  12  29  47  72 109 147 193 246 299 370 437
#     4  12  27  47  77 108 149 191 244 304 368 438
#     4  12  24  49  76 106 144 190 247 304 363 434
#     4  12  27  46  76 108 144 191 250 304 365 434
#
# _framework density 22.039487999999999
#
# number of rings (size 3 to 8) (size 9 to 14) (size 15 to 20)
#    0.000    0.000    3.333    5.000   14.000    0.000 
#    0.000    0.000    0.000    0.000    0.000    0.000 
#    0.000    0.000    0.000    0.000    0.000    0.000 
#
# Total GULP energy -148865.294465 kJ/mol
# GULP energy per Si atom -12405.441205 kJ/mol
# Density = 2.198933 g / cm^3
# Si number density = 22.039488 Si / 1000 Ang^3
#
#
#
# Elastic Constant Matrix: (Units=GPa)
#
#
# Indices 1 2 3 4 5 6 
#
# 1 129.7990 58.0394 61.2248 2.5007 -3.7473 -4.0347
# 2 58.0394 196.2834 71.7771 13.3805 7.5935 -2.0515
# 3 61.2248 71.7771 159.1095 11.1177 -0.4243 -11.2251
# 4 2.5007 13.3805 11.1177 49.5214 -7.8292 0.3865
# 5 -3.7473 7.5935 -0.4243 -7.8292 56.0724 2.5272
# 6 -4.0347 -2.0515 -11.2251 0.3865 2.5272 40.4584
#
#
#
# Elastic Compliance Matrix: (Units=1/GPa)
#
#
# Indices 1 2 3 4 5 6 
#
# 1 0.010021 -0.001953 -0.003034 0.000866 0.001033 -0.000014
# 2 -0.001953 0.006599 -0.002158 -0.001390 -0.001218 -0.000369
# 3 -0.003034 -0.002158 0.008654 -0.001239 -0.000109 0.002008
# 4 0.000866 -0.001390 -0.001239 0.021322 0.003247 -0.000734
# 5 0.001033 -0.001218 -0.000109 0.003247 0.018574 -0.001180
# 6 -0.000014 -0.000369 0.002008 -0.000734 -0.001180 0.025334
#
#
# Mechanical properties :
#
#
# Convention : Reuss Voigt Hill
#
# Bulk Modulus (GPa) = 91.03285 96.36385 93.69835
# Shear Modulus (GPa) = 46.10192 48.82048 47.46120
#
# Velocity S-wave (km/s) = 4.57857 4.71163 4.64558
# Velocity P-wave (km/s) = 8.32737 8.56840 8.44875
#
# Compressibility (1/GPa) = 0.01098505
#
# Stress axis : x y z
#
# Youngs Moduli (GPa) = 99.78842 151.53440 115.55665
#
# Poissons Ratio (x) = 0.29593 0.35059
# Poissons Ratio (y) = 0.19488 0.24934
# Poissons Ratio (z) = 0.30275 0.32697
#
# Static dielectric constant tensor:
#      x y z
#    x 4.218230 0.149750 -0.068270 
#    y 0.149750 4.166680 0.095710 
#    z -0.068270 0.095710 4.165060 
# 
# 
# High freq. dielectric constant tensor:
#      x y z
#    x 1.876980 -0.002260 -0.003550 
#    y -0.002260 1.885900 0.008650 
#    z -0.003550 0.008650 1.887410 
# 
# From -- ./inp_files/147336.got.cif
#   From: 2010.06.25/outbox.cif.g09.slc.cpg/sg2_74_cif.got.tgz:147336.got - 2010.06.27 13:26:56.
