data_PCOD8037995
_publ_section_title
;
Structure prediction by ZEFSAII (Michael W. Deem and Ramdas Pophale) SiO2 
 PCOD8037995
Probable space group: P -1
;
_chemical_formula_sum "Si O2"
_cell_formula_units_Z 14
_cell_length_a 7.418804
_cell_length_b 9.585293
_cell_length_c 13.621390
_cell_angle_alpha 72.641739
_cell_angle_beta 67.247955
_cell_angle_gamma 63.812352
_cell_volume 791.976473
_symmetry_space_group_name_H-M "P -1"
_symmetry_group_IT_number 2
_symmetry_cell_setting 'triclinic'
loop_
_space_group_symop_operation_xyz
x,y,z
-x,-y,-z
loop_
_atom_site_type_symbol
_atom_site_label
_atom_site_fract_x
_atom_site_fract_y
_atom_site_fract_z
Si Si1 0.135115 0.939021 0.841318
Si Si2 0.917347 0.466168 0.378514
Si Si3 0.527822 0.638221 0.177908
Si Si4 0.791366 0.209763 0.944650
Si Si5 0.311954 0.486868 0.385520
Si Si6 0.808728 0.759368 0.208897
Si Si7 0.240439 0.678030 0.723144
O O1 0.135692 0.847448 0.759940
O O2 0.252524 0.062529 0.774314
O O3 0.254812 0.813932 0.927168
O O4 0.893748 0.037148 0.906115
O O5 0.770453 0.455118 0.501060
O O6 0.816749 0.643138 0.320906
O O7 0.919031 0.340311 0.321442
O O8 0.154008 0.424893 0.373265
O O9 0.430675 0.688372 0.080013
O O10 0.340323 0.634491 0.291481
O O11 0.630299 0.760403 0.168678
O O12 0.710253 0.462495 0.176248
O O13 0.961273 0.295133 0.881237
O O14 0.537579 0.341574 0.371892
#
# Coordination Sequence:
#
# PCOD8037995 Si02
#       7
#     2   2   2   2   2   2   2
#     4   9  19  36  51  69 111 126 167 203 258 271
#     4  10  17  33  57  72  99 133 169 193 259 291
#     4   9  18  31  55  71  98 128 178 190 252 287
#     4   9  18  36  51  69 102 142 159 202 241 313
#     4   9  18  31  55  76  98 130 164 208 243 300
#     4   9  17  32  52  72  96 138 162 199 239 313
#     4   9  19  33  49  82  98 126 162 225 228 292
#
# _framework density 17.677292999999999
#
# number of rings (size 3 to 8) (size 9 to 14) (size 15 to 20)
#    1.714    1.143    1.429    0.429    0.000    1.143 
#    2.571    3.571    0.000    2.571    0.000    0.000 
#    0.000    0.000    0.000    0.000    0.000    0.000 
#
# Total GULP energy -173433.831297 kJ/mol
# GULP energy per Si atom -12388.130807 kJ/mol
# Density = 1.763706 g / cm^3
# Si number density = 17.677293 Si / 1000 Ang^3
#
#
#
# Elastic Constant Matrix: (Units=GPa)
#
#
# Indices 1 2 3 4 5 6 
#
# 1 85.6363 22.9811 16.3356 9.1470 11.7603 21.0101
# 2 22.9811 63.9881 18.6735 15.4332 -1.2533 28.3855
# 3 16.3356 18.6735 53.5767 -0.3374 6.4716 17.5402
# 4 9.1470 15.4332 -0.3374 25.2658 0.4287 4.9079
# 5 11.7603 -1.2533 6.4716 0.4287 15.1758 0.2278
# 6 21.0101 28.3855 17.5402 4.9079 0.2278 24.2792
#
#
#
# Elastic Compliance Matrix: (Units=1/GPa)
#
#
# Indices 1 2 3 4 5 6 
#
# 1 0.017434 0.001461 0.001319 -0.003677 -0.013595 -0.016877
# 2 0.001461 0.037519 -0.000307 -0.015380 0.003160 -0.041828
# 3 0.001319 -0.000307 0.026693 0.004319 -0.012240 -0.020825
# 4 -0.003677 -0.015380 0.004319 0.048801 -0.001764 0.008195
# 5 -0.013595 0.003160 -0.012240 -0.001764 0.081712 0.016503
# 6 -0.016877 -0.041828 -0.020825 0.008195 0.016503 0.117929
#
#
# Mechanical properties :
#
#
# Convention : Reuss Voigt Hill
#
# Bulk Modulus (GPa) = 11.54824 35.46461 23.50642
# Shear Modulus (GPa) = 14.12406 22.62488 18.37447
#
# Velocity S-wave (km/s) = 2.82972 3.58143 3.22753
# Velocity P-wave (km/s) = 4.15011 6.09983 5.21686
#
# Compressibility (1/GPa) = 0.08659330
#
# Stress axis : x y z
#
# Youngs Moduli (GPa) = 57.35954 26.65287 37.46287
#
# Poissons Ratio (x) = -0.03894 -0.04943
# Poissons Ratio (y) = -0.08380 0.01150
# Poissons Ratio (z) = -0.07568 0.00818
#
# Static dielectric constant tensor:
#      x y z
#    x 3.232900 0.165840 0.057820 
#    y 0.165840 2.892270 -0.148250 
#    z 0.057820 -0.148250 3.076360 
# 
# 
# High freq. dielectric constant tensor:
#      x y z
#    x 1.681750 0.016790 0.010260 
#    y 0.016790 1.645690 -0.011770 
#    z 0.010260 -0.011770 1.670160 
# 
# From -- ./inp_files/182733.got.cif
#   From: 2010.06.25/outbox.cif.g09.slc.cpg/sg2_92_cif.got.tgz:182733.got - 2010.06.27 13:26:56.
