data_PCOD8037681
_publ_section_title
;
Structure prediction by ZEFSAII (Michael W. Deem and Ramdas Pophale) SiO2 
 PCOD8037681
Probable space group: P -1
;
_chemical_formula_sum "Si O2"
_cell_formula_units_Z 16
_cell_length_a 4.864515
_cell_length_b 8.729350
_cell_length_c 16.912219
_cell_angle_alpha 99.470308
_cell_angle_beta 114.454280
_cell_angle_gamma 82.737711
_cell_volume 643.466038
_symmetry_space_group_name_H-M "P -1"
_symmetry_group_IT_number 2
_symmetry_cell_setting 'triclinic'
loop_
_space_group_symop_operation_xyz
x,y,z
-x,-y,-z
loop_
_atom_site_type_symbol
_atom_site_label
_atom_site_fract_x
_atom_site_fract_y
_atom_site_fract_z
Si Si1 0.450771 0.918369 0.144595
Si Si2 0.223679 0.132423 0.965200
Si Si3 0.580393 0.342068 0.771358
Si Si4 0.736476 0.242466 0.220861
Si Si5 0.443848 0.432834 0.074650
Si Si6 0.616720 0.703510 0.663634
Si Si7 0.723245 0.113313 0.498494
Si Si8 0.089779 0.620498 0.340787
O O1 0.690534 0.815466 0.109449
O O2 0.454958 0.837641 0.223681
O O3 0.561956 0.089458 0.175038
O O4 0.088787 0.199408 0.276343
O O5 0.894705 0.063744 0.928841
O O6 0.221550 0.290109 0.030752
O O7 0.500000 0.000000 0.000000
O O8 0.691923 0.430090 0.871747
O O9 0.844263 0.343271 0.739394
O O10 0.265741 0.406178 0.699467
O O11 0.731129 0.353607 0.151344
O O12 0.564371 0.332058 0.280906
O O13 0.500000 0.500000 0.000000
O O14 0.402222 0.802368 0.587576
O O15 0.728912 0.538848 0.623689
O O16 0.815891 0.241710 0.581637
O O17 0.500000 0.000000 0.500000
O O18 0.000000 0.000000 0.500000
#
# Coordination Sequence:
#
# PCOD8037681 Si02
#       8
#     2   2   2   2   2   2   2   2
#     4  12  27  45  68 104 146 197 252 313 385 441
#     4  12  26  45  68  97 142 197 253 317 376 445
#     4  12  27  46  75 111 149 200 257 316 381 454
#     4  12  27  46  78 108 152 204 264 311 384 458
#     4  12  26  48  73 107 151 199 261 324 376 448
#     4  12  26  51  79 113 157 205 251 315 384 464
#     4  12  29  50  80 123 157 198 250 314 386 461
#     4  12  26  51  77 112 157 199 253 309 385 467
#
# _framework density 24.865338999999999
#
# number of rings (size 3 to 8) (size 9 to 14) (size 15 to 20)
#    0.000    0.000    5.000    3.750    5.250    1.500 
#    0.000    3.750    0.000    0.000    0.000    0.000 
#    0.000    0.000    0.000    0.000    0.000    0.000 
#
# Total GULP energy -198331.446872 kJ/mol
# GULP energy per Si atom -12395.715429 kJ/mol
# Density = 2.480874 g / cm^3
# Si number density = 24.865339 Si / 1000 Ang^3
#
#
#
# Elastic Constant Matrix: (Units=GPa)
#
#
# Indices 1 2 3 4 5 6 
#
# 1 116.9349 37.0194 55.6480 12.6775 8.8082 4.9379
# 2 37.0194 144.2211 74.6540 -8.1505 8.2767 10.5943
# 3 55.6480 74.6540 147.3726 11.5260 8.0979 4.3018
# 4 12.6775 -8.1505 11.5260 36.1538 6.9483 7.7190
# 5 8.8082 8.2767 8.0979 6.9483 31.8994 0.3700
# 6 4.9379 10.5943 4.3018 7.7190 0.3700 41.1302
#
#
#
# Elastic Compliance Matrix: (Units=1/GPa)
#
#
# Indices 1 2 3 4 5 6 
#
# 1 0.010859 -0.001209 -0.003196 -0.002792 -0.001264 -0.000123
# 2 -0.001209 0.010555 -0.005108 0.005522 -0.002275 -0.003055
# 3 -0.003196 -0.005108 0.010825 -0.003808 0.000274 0.001279
# 4 -0.002792 0.005522 -0.003808 0.033937 -0.007006 -0.006995
# 5 -0.001264 -0.002275 0.000274 -0.007006 0.033724 0.001721
# 6 -0.000123 -0.003055 0.001279 -0.006995 0.001721 0.026278
#
#
# Mechanical properties :
#
#
# Convention : Reuss Voigt Hill
#
# Bulk Modulus (GPa) = 75.68584 82.57460 79.13022
# Shear Modulus (GPa) = 33.42010 37.91715 35.66862
#
# Velocity S-wave (km/s) = 3.67010 3.90923 3.79155
# Velocity P-wave (km/s) = 6.96160 7.32509 7.14566
#
# Compressibility (1/GPa) = 0.01321251
#
# Stress axis : x y z
#
# Youngs Moduli (GPa) = 92.09182 94.73896 92.37465
#
# Poissons Ratio (x) = 0.11453 0.29527
# Poissons Ratio (y) = 0.11133 0.47186
# Poissons Ratio (z) = 0.29437 0.48394
#
# Static dielectric constant tensor:
#      x y z
#    x 4.611350 0.058650 -0.219690 
#    y 0.058650 4.659820 0.069290 
#    z -0.219690 0.069290 4.775570 
# 
# 
# High freq. dielectric constant tensor:
#      x y z
#    x 1.995180 0.010220 0.000100 
#    y 0.010220 2.015020 -0.000570 
#    z 0.000100 -0.000570 1.987820 
# 
# From -- ./inp_files/343920.got.cif
#   From: 2010.06.25/outbox.cif.g09.slc.cpg/sg2_172_cif.got.tgz:343920.got - 2010.06.27 13:26:56.
