data_PCOD8037571
_publ_section_title
;
Structure prediction by ZEFSAII (Michael W. Deem and Ramdas Pophale) SiO2 
 PCOD8037571
Probable space group: P -1
;
_chemical_formula_sum "Si O2"
_cell_formula_units_Z 14
_cell_length_a 12.879766
_cell_length_b 15.848971
_cell_length_c 8.361137
_cell_angle_alpha 132.172481
_cell_angle_beta 124.929770
_cell_angle_gamma 27.250072
_cell_volume 577.695950
_symmetry_space_group_name_H-M "P -1"
_symmetry_group_IT_number 2
_symmetry_cell_setting 'triclinic'
loop_
_space_group_symop_operation_xyz
x,y,z
-x,-y,-z
loop_
_atom_site_type_symbol
_atom_site_label
_atom_site_fract_x
_atom_site_fract_y
_atom_site_fract_z
Si Si1 0.427361 0.720653 0.644995
Si Si2 0.882178 0.421965 0.194567
Si Si3 0.954020 0.081925 0.235153
Si Si4 0.328515 0.212063 0.704362
Si Si5 0.624334 0.995440 0.990443
Si Si6 0.688505 0.338235 0.827258
Si Si7 0.090910 0.628409 0.471817
O O1 0.304848 0.756305 0.736611
O O2 0.420619 0.627005 0.386000
O O3 0.695068 0.546612 0.680820
O O4 0.314696 0.929371 0.773144
O O5 0.735338 0.637615 0.278952
O O6 0.833527 0.442961 0.366889
O O7 0.813419 0.365373 0.953617
O O8 0.152594 0.235928 0.172914
O O9 0.011283 0.171332 0.392802
O O10 0.128854 0.895319 0.272807
O O11 0.000000 0.000000 0.000000
O O12 0.456913 0.159062 0.907837
O O13 0.096364 0.321703 0.686340
O O14 0.500000 0.000000 0.500000
O O15 0.500000 0.000000 0.000000
O O16 0.500000 0.500000 0.000000
#
# Coordination Sequence:
#
# PCOD8037571 Si02
#       7
#     2   2   2   2   2   2   2
#     4  12  27  49  74 116 157 200 259 326 391 468
#     4  12  26  53  77 116 158 200 267 322 393 465
#     4  12  25  47  75 113 155 199 259 319 397 460
#     4  12  30  49  83 112 152 216 264 321 393 461
#     4  12  29  50  78 115 158 204 264 326 383 468
#     4  12  26  46  79 113 152 205 252 323 395 470
#     4  12  26  47  78 112 154 204 260 324 384 467
#
# _framework density 24.234200000000001
#
# number of rings (size 3 to 8) (size 9 to 14) (size 15 to 20)
#    0.000    0.000    5.714    2.143    6.000    4.571 
#    0.000    0.000    0.000    0.000    0.000    0.000 
#    0.000    0.000    0.000    0.000    0.000    0.000 
#
# Total GULP energy -173598.074366 kJ/mol
# GULP energy per Si atom -12399.862455 kJ/mol
# Density = 2.417904 g / cm^3
# Si number density = 24.234200 Si / 1000 Ang^3
#
#
#
# Elastic Constant Matrix: (Units=GPa)
#
#
# Indices 1 2 3 4 5 6 
#
# 1 152.2463 55.4047 47.7646 8.6380 2.3267 1.3373
# 2 55.4047 134.8651 35.9479 22.3452 5.1930 0.2098
# 3 47.7646 35.9479 116.2554 11.0454 -2.2047 2.2991
# 4 8.6380 22.3452 11.0454 34.3218 -2.7423 12.1710
# 5 2.3267 5.1930 -2.2047 -2.7423 48.8679 21.6331
# 6 1.3373 0.2098 2.2991 12.1710 21.6331 45.6856
#
#
#
# Elastic Compliance Matrix: (Units=1/GPa)
#
#
# Indices 1 2 3 4 5 6 
#
# 1 0.008398 -0.002859 -0.002627 0.000676 -0.000066 -0.000249
# 2 -0.002859 0.010218 -0.001452 -0.006861 -0.002857 0.003290
# 3 -0.002627 -0.001452 0.010296 -0.001480 0.000859 -0.000447
# 4 0.000676 -0.006861 -0.001480 0.040030 0.009564 -0.015107
# 5 -0.000066 -0.002857 0.000859 0.009564 0.028449 -0.016048
# 6 -0.000249 0.003290 -0.000447 -0.015107 -0.016048 0.033527
#
#
# Mechanical properties :
#
#
# Convention : Reuss Voigt Hill
#
# Bulk Modulus (GPa) = 66.51001 75.73347 71.12174
# Shear Modulus (GPa) = 33.37665 43.39172 38.38418
#
# Velocity S-wave (km/s) = 3.71516 4.23604 3.98412
# Velocity P-wave (km/s) = 6.77551 7.43262 7.11166
#
# Compressibility (1/GPa) = 0.01503533
#
# Stress axis : x y z
#
# Youngs Moduli (GPa) = 119.08134 97.86683 97.12683
#
# Poissons Ratio (x) = 0.27978 0.25514
# Poissons Ratio (y) = 0.34043 0.14107
# Poissons Ratio (z) = 0.31281 0.14214
#
# Static dielectric constant tensor:
#      x y z
#    x 4.475790 -0.251840 0.078010 
#    y -0.251840 4.426810 0.028040 
#    z 0.078010 0.028040 4.535030 
# 
# 
# High freq. dielectric constant tensor:
#      x y z
#    x 1.973900 -0.010720 0.010190 
#    y -0.010720 1.966350 0.018780 
#    z 0.010190 0.018780 1.973320 
# 
# From -- ./inp_files/274453.got.cif
#   From: 2010.06.25/outbox.cif.g09.slc.cpg/sg2_138_cif.got.tgz:274453.got - 2010.06.27 13:26:56.
