data_PCOD8037727
_publ_section_title
;
Structure prediction by ZEFSAII (Michael W. Deem and Ramdas Pophale) SiO2 
 PCOD8037727
Probable space group: P -1
;
_chemical_formula_sum "Si O2"
_cell_formula_units_Z 12
_cell_length_a 8.874873
_cell_length_b 13.868908
_cell_length_c 9.556825
_cell_angle_alpha 71.835806
_cell_angle_beta 107.681493
_cell_angle_gamma 45.326895
_cell_volume 503.391485
_symmetry_space_group_name_H-M "P -1"
_symmetry_group_IT_number 2
_symmetry_cell_setting 'triclinic'
loop_
_space_group_symop_operation_xyz
x,y,z
-x,-y,-z
loop_
_atom_site_type_symbol
_atom_site_label
_atom_site_fract_x
_atom_site_fract_y
_atom_site_fract_z
Si Si1 0.724330 0.924335 0.713707
Si Si2 0.768254 0.534586 0.951564
Si Si3 0.248577 0.865755 0.428806
Si Si4 0.334779 0.173219 0.775381
Si Si5 0.577856 0.564064 0.423726
Si Si6 0.444931 0.752440 0.045917
O O1 0.500000 0.000000 0.500000
O O2 0.845546 0.962799 0.669989
O O3 0.507418 0.067599 0.723292
O O4 0.043088 0.673568 0.950678
O O5 0.410078 0.741867 0.677935
O O6 0.695955 0.570414 0.079933
O O7 0.000000 0.500000 0.000000
O O8 0.514952 0.686763 0.465214
O O9 0.895526 0.010521 0.227647
O O10 0.368085 0.265867 0.807413
O O11 0.951944 0.359339 0.566598
O O12 0.500000 0.000000 0.000000
O O13 0.500000 0.500000 0.500000
O O14 0.359383 0.711199 0.154370
#
# Coordination Sequence:
#
# PCOD8037727 Si02
#       6
#     2   2   2   2   2   2
#     4  12  26  47  77 111 154 200 251 311 380 452
#     4  12  26  49  76 109 154 201 253 311 379 454
#     4  12  27  47  77 112 154 198 254 314 379 451
#     4  12  26  47  78 108 148 202 254 308 383 452
#     4  12  27  48  79 112 152 198 257 318 379 448
#     4  12  27  50  76 110 154 199 258 313 377 457
#
# _framework density 23.838307
#
# number of rings (size 3 to 8) (size 9 to 14) (size 15 to 20)
#    0.000    0.000    3.333    6.500    4.667    0.667 
#    6.000    0.000    0.000    0.000    0.000    0.000 
#    0.000    0.000    0.000    0.000    0.000    0.000 
#
# Total GULP energy -148847.478840 kJ/mol
# GULP energy per Si atom -12403.956570 kJ/mol
# Density = 2.378405 g / cm^3
# Si number density = 23.838307 Si / 1000 Ang^3
#
#
#
# Elastic Constant Matrix: (Units=GPa)
#
#
# Indices 1 2 3 4 5 6 
#
# 1 109.4817 46.8153 46.8752 0.8996 -17.5528 7.8841
# 2 46.8153 156.8809 33.3146 8.7688 -8.5921 2.8367
# 3 46.8752 33.3146 143.3804 1.5250 -4.0497 5.0571
# 4 0.8996 8.7688 1.5250 48.1962 -0.1143 -9.1331
# 5 -17.5528 -8.5921 -4.0497 -0.1143 42.7181 -2.6800
# 6 7.8841 2.8367 5.0571 -9.1331 -2.6800 35.7791
#
#
#
# Elastic Compliance Matrix: (Units=1/GPa)
#
#
# Indices 1 2 3 4 5 6 
#
# 1 0.012516 -0.002785 -0.003266 0.000055 0.004164 -0.001750
# 2 -0.002785 0.007466 -0.000796 -0.001315 0.000267 -0.000181
# 3 -0.003266 -0.000796 0.008224 -0.000146 -0.000753 -0.000473
# 4 0.000055 -0.001315 -0.000146 0.022084 0.000165 0.005762
# 5 0.004164 0.000267 -0.000753 0.000165 0.025172 0.001095
# 6 -0.001750 -0.000181 -0.000473 0.005762 0.001095 0.029969
#
#
# Mechanical properties :
#
#
# Convention : Reuss Voigt Hill
#
# Bulk Modulus (GPa) = 68.90975 73.75037 71.33006
# Shear Modulus (GPa) = 40.33479 44.18787 42.26133
#
# Velocity S-wave (km/s) = 4.11787 4.31007 4.21507
# Velocity P-wave (km/s) = 7.18186 7.46819 7.32642
#
# Compressibility (1/GPa) = 0.01451173
#
# Stress axis : x y z
#
# Youngs Moduli (GPa) = 79.89611 133.94429 121.59146
#
# Poissons Ratio (x) = 0.37301 0.39714
# Poissons Ratio (y) = 0.22250 0.09683
# Poissons Ratio (z) = 0.26095 0.10666
#
# Static dielectric constant tensor:
#      x y z
#    x 4.269030 0.162540 -0.298950 
#    y 0.162540 4.497020 0.022710 
#    z -0.298950 0.022710 4.620960 
# 
# 
# High freq. dielectric constant tensor:
#      x y z
#    x 1.938270 0.002060 -0.006890 
#    y 0.002060 1.960890 0.001480 
#    z -0.006890 0.001480 1.966260 
# 
# From -- ./inp_files/155854.got.cif
#   From: 2010.06.25/outbox.cif.g09.slc.cpg/sg2_78_cif.got.tgz:155854.got - 2010.06.27 13:26:56.
