data_PCOD8037841
_publ_section_title
;
Structure prediction by ZEFSAII (Michael W. Deem and Ramdas Pophale) SiO2 
 PCOD8037841
Probable space group: P -1
;
_chemical_formula_sum "Si O2"
_cell_formula_units_Z 16
_cell_length_a 9.628175
_cell_length_b 12.406839
_cell_length_c 12.565092
_cell_angle_alpha 143.316648
_cell_angle_beta 56.803345
_cell_angle_gamma 119.833398
_cell_volume 745.188132
_symmetry_space_group_name_H-M "P -1"
_symmetry_group_IT_number 2
_symmetry_cell_setting 'triclinic'
loop_
_space_group_symop_operation_xyz
x,y,z
-x,-y,-z
loop_
_atom_site_type_symbol
_atom_site_label
_atom_site_fract_x
_atom_site_fract_y
_atom_site_fract_z
Si Si1 0.317791 0.497651 0.525738
Si Si2 0.171168 0.600159 0.465291
Si Si3 0.693795 0.128337 0.103817
Si Si4 0.674817 0.713939 0.170005
Si Si5 0.701264 0.890114 0.724630
Si Si6 0.682072 0.973496 0.561560
Si Si7 0.289394 0.641197 0.224616
Si Si8 0.293567 0.989738 0.769411
O O1 0.500000 0.500000 0.500000
O O2 0.319979 0.537013 0.428275
O O3 0.226057 0.661346 0.746665
O O4 0.220841 0.297972 0.431520
O O5 0.188148 0.550372 0.295654
O O6 0.173505 0.817403 0.640722
O O7 0.000000 0.500000 0.500000
O O8 0.495637 0.136775 0.190387
O O9 0.731149 0.996748 0.082235
O O10 0.772942 0.050143 0.902698
O O11 0.732481 0.816924 0.336889
O O12 0.476555 0.690399 0.226030
O O13 0.753515 0.831284 0.128706
O O14 0.732535 0.511955 0.980478
O O15 0.752468 0.942891 0.625098
O O16 0.483177 0.963207 0.639070
O O17 0.770125 0.171262 0.644231
#
# Coordination Sequence:
#
# PCOD8037841 Si02
#       8
#     2   2   2   2   2   2   2   2
#     4   9  19  33  53  77 107 145 184 231 270 328
#     4  11  21  36  57  82 121 153 180 230 287 341
#     4   8  16  28  44  75 108 137 172 225 277 326
#     4  10  18  30  54  80 109 140 187 241 276 324
#     4   9  17  28  48  76 103 140 175 223 280 325
#     4  10  17  32  52  79 115 138 180 243 284 319
#     4  10  20  32  51  83 107 145 187 231 286 323
#     4   9  16  32  51  73 114 144 177 232 287 323
#
# _framework density 21.471088000000002
#
# number of rings (size 3 to 8) (size 9 to 14) (size 15 to 20)
#    0.000    2.500    2.500    1.500    1.750    1.000 
#    4.500    0.625    0.000    0.750    0.000    4.375 
#    0.000    0.000    0.000    0.000    0.000    0.000 
#
# Total GULP energy -198245.360196 kJ/mol
# GULP energy per Si atom -12390.335012 kJ/mol
# Density = 2.142222 g / cm^3
# Si number density = 21.471088 Si / 1000 Ang^3
#
#
#
# Elastic Constant Matrix: (Units=GPa)
#
#
# Indices 1 2 3 4 5 6 
#
# 1 19.0165 23.5337 22.0433 -4.6802 8.8086 -8.4470
# 2 23.5337 144.7122 83.7683 3.4223 10.8224 -23.4473
# 3 22.0433 83.7683 177.5107 4.3214 34.9997 -32.2792
# 4 -4.6802 3.4223 4.3214 32.9296 -8.3417 4.4170
# 5 8.8086 10.8224 34.9997 -8.3417 15.4071 -8.4550
# 6 -8.4470 -23.4473 -32.2792 4.4170 -8.4550 27.0599
#
#
#
# Elastic Compliance Matrix: (Units=1/GPa)
#
#
# Indices 1 2 3 4 5 6 
#
# 1 0.089340 -0.013512 0.008002 -0.002372 -0.056387 0.008495
# 2 -0.013512 0.012419 -0.007235 0.001930 0.018302 0.003316
# 3 0.008002 -0.007235 0.018207 -0.012538 -0.044257 0.006165
# 4 -0.002372 0.001930 -0.012538 0.044808 0.049524 -0.005864
# 5 -0.056387 0.018302 -0.044257 0.049524 0.213960 0.004233
# 6 0.008495 0.003316 0.006165 -0.005864 0.004233 0.052114
#
#
# Mechanical properties :
#
#
# Convention : Reuss Voigt Hill
#
# Bulk Modulus (GPa) = 10.58469 66.65889 38.62179
# Shear Modulus (GPa) = 10.24951 29.20560 19.72756
#
# Velocity S-wave (km/s) = 2.18724 3.69213 3.03445
# Velocity P-wave (km/s) = 3.36439 7.02062 5.50491
#
# Compressibility (1/GPa) = 0.09447610
#
# Stress axis : x y z
#
# Youngs Moduli (GPa) = 11.19322 80.52432 54.92526
#
# Poissons Ratio (x) = 1.08801 -0.43953
# Poissons Ratio (y) = 0.15124 0.39739
# Poissons Ratio (z) = -0.08957 0.58261
#
# Static dielectric constant tensor:
#      x y z
#    x 3.340210 -0.301250 0.323400 
#    y -0.301250 4.187540 0.360590 
#    z 0.323400 0.360590 4.238410 
# 
# 
# High freq. dielectric constant tensor:
#      x y z
#    x 1.785420 -0.020430 0.028970 
#    y -0.020430 1.844790 0.017380 
#    z 0.028970 0.017380 1.841800 
# 
# From -- ./inp_files/345157.got.cif
#   From: 2010.06.25/outbox.cif.g09.slc.cpg/sg2_173_cif.got.tgz:345157.got - 2010.06.27 13:26:56.
