data_PCOD8037328
_publ_section_title
;
Structure prediction by ZEFSAII (Michael W. Deem and Ramdas Pophale) SiO2 
 PCOD8037328
Probable space group: P -1
;
_chemical_formula_sum "Si O2"
_cell_formula_units_Z 14
_cell_length_a 13.883967
_cell_length_b 23.386712
_cell_length_c 29.443544
_cell_angle_alpha 10.879697
_cell_angle_beta 19.702366
_cell_angle_gamma 19.495521
_cell_volume 583.131427
_symmetry_space_group_name_H-M "P -1"
_symmetry_group_IT_number 2
_symmetry_cell_setting 'triclinic'
loop_
_space_group_symop_operation_xyz
x,y,z
-x,-y,-z
loop_
_atom_site_type_symbol
_atom_site_label
_atom_site_fract_x
_atom_site_fract_y
_atom_site_fract_z
Si Si1 0.061679 0.813275 0.071782
Si Si2 0.291297 0.476300 0.013992
Si Si3 0.923521 0.322475 0.215149
Si Si4 0.973998 0.680193 0.657272
Si Si5 0.266213 0.654839 0.260181
Si Si6 0.526936 0.926884 0.096860
Si Si7 0.907157 0.858862 0.448314
O O1 0.396786 0.789322 0.925309
O O2 0.035413 0.454448 0.364270
O O3 0.000000 0.000000 0.000000
O O4 0.811576 0.031655 0.980629
O O5 0.210882 0.469627 0.108180
O O6 0.330693 0.827551 0.712320
O O7 0.045910 0.408580 0.141611
O O8 0.566114 0.390521 0.319085
O O9 0.065270 0.952114 0.432245
O O10 0.000000 0.500000 0.000000
O O11 0.269462 0.422805 0.710590
O O12 0.803547 0.802589 0.589690
O O13 0.000000 0.500000 0.500000
O O14 0.326083 0.797797 0.169544
O O15 0.213454 0.962188 0.233562
O O16 0.500000 0.000000 0.000000
#
# Coordination Sequence:
#
# PCOD8037328 Si02
#       7
#     2   2   2   2   2   2   2
#     4  12  30  48  76 115 158 200 258 333 397 457
#     4  12  26  50  75 116 153 206 258 316 398 466
#     4  12  24  47  77 110 154 205 260 317 386 471
#     4  12  25  44  78 108 152 199 257 315 378 470
#     4  12  27  49  73 116 153 201 262 321 393 461
#     4  12  25  49  79 115 151 210 260 323 388 472
#     4  12  26  49  77 109 157 202 262 315 393 463
#
# _framework density 24.008310999999999
#
# number of rings (size 3 to 8) (size 9 to 14) (size 15 to 20)
#    0.000    0.000    5.714    3.000    6.000    0.571 
#    2.571    0.000    0.000    0.000    0.000    0.000 
#    0.000    0.000    0.000    0.000    0.000    0.000 
#
# Total GULP energy -173561.866194 kJ/mol
# GULP energy per Si atom -12397.276157 kJ/mol
# Density = 2.395367 g / cm^3
# Si number density = 24.008311 Si / 1000 Ang^3
#
#
#
# Elastic Constant Matrix: (Units=GPa)
#
#
# Indices 1 2 3 4 5 6 
#
# 1 119.2483 17.2087 38.3374 9.4121 4.6624 32.4595
# 2 17.2087 94.7057 9.6795 3.3892 -8.7355 17.4845
# 3 38.3374 9.6795 120.9686 -6.2878 -13.4911 24.7142
# 4 9.4121 3.3892 -6.2878 46.1424 8.1366 -5.2439
# 5 4.6624 -8.7355 -13.4911 8.1366 54.4834 2.3965
# 6 32.4595 17.4845 24.7142 -5.2439 2.3965 38.3035
#
#
#
# Elastic Compliance Matrix: (Units=1/GPa)
#
#
# Indices 1 2 3 4 5 6 
#
# 1 0.011880 -0.000200 -0.002163 -0.003616 -0.000647 -0.009035
# 2 -0.000200 0.011971 0.000538 -0.001918 0.002623 -0.006069
# 3 -0.002163 0.000538 0.010330 0.000702 0.002952 -0.005166
# 4 -0.003616 -0.001918 0.000702 0.024102 -0.003732 0.007020
# 5 -0.000647 0.002623 0.002952 -0.003732 0.020309 -0.004335
# 6 -0.009035 -0.006069 -0.005166 0.007020 -0.004335 0.041100
#
#
# Mechanical properties :
#
#
# Convention : Reuss Voigt Hill
#
# Bulk Modulus (GPa) = 32.75217 51.70820 42.23019
# Shear Modulus (GPa) = 37.44733 45.76564 41.60649
#
# Velocity S-wave (km/s) = 3.95367 4.37079 4.16745
# Velocity P-wave (km/s) = 5.87483 6.85975 6.38630
#
# Compressibility (1/GPa) = 0.03053232
#
# Stress axis : x y z
#
# Youngs Moduli (GPa) = 84.17275 83.53254 96.80244
#
# Poissons Ratio (x) = 0.01669 0.20941
# Poissons Ratio (y) = 0.01682 -0.05210
# Poissons Ratio (z) = 0.18209 -0.04496
#
# Static dielectric constant tensor:
#      x y z
#    x 4.151040 0.065580 0.033340 
#    y 0.065580 4.288270 -0.090610 
#    z 0.033340 -0.090610 4.475190 
# 
# 
# High freq. dielectric constant tensor:
#      x y z
#    x 1.958670 -0.001330 0.000550 
#    y -0.001330 1.962110 -0.018720 
#    z 0.000550 -0.018720 1.963350 
# 
# From -- ./inp_files/623699.got.cif
#   From: 2010.06.25/outbox.cif.g09.slc.cpg/sg2_312_cif.got.tgz:623699.got - 2010.06.27 13:26:56.
