data_PCOD8037484
_publ_section_title
;
Structure prediction by ZEFSAII (Michael W. Deem and Ramdas Pophale) SiO2 
 PCOD8037484
Probable space group: P -1
;
_chemical_formula_sum "Si O2"
_cell_formula_units_Z 16
_cell_length_a 8.527794
_cell_length_b 17.474976
_cell_length_c 5.664217
_cell_angle_alpha 56.327770
_cell_angle_beta 78.591989
_cell_angle_gamma 65.660442
_cell_volume 639.515882
_symmetry_space_group_name_H-M "P -1"
_symmetry_group_IT_number 2
_symmetry_cell_setting 'triclinic'
loop_
_space_group_symop_operation_xyz
x,y,z
-x,-y,-z
loop_
_atom_site_type_symbol
_atom_site_label
_atom_site_fract_x
_atom_site_fract_y
_atom_site_fract_z
Si Si1 0.674265 0.603947 0.172309
Si Si2 0.868563 0.084000 0.053726
Si Si3 0.030340 0.363327 0.798031
Si Si4 0.151913 0.160146 0.941684
Si Si5 0.629918 0.768576 0.561557
Si Si6 0.831001 0.398152 0.289513
Si Si7 0.605764 0.277591 0.630104
Si Si8 0.364906 0.969875 0.450552
O O1 0.713877 0.688860 0.872468
O O2 0.833824 0.579280 0.356616
O O3 0.688363 0.508386 0.179176
O O4 0.477351 0.652669 0.237942
O O5 0.806650 0.024953 0.368889
O O6 0.697996 0.159866 0.849097
O O7 0.964266 0.154428 0.995624
O O8 0.000000 0.000000 0.000000
O O9 0.134403 0.243659 0.000575
O O10 0.938741 0.373515 0.547918
O O11 0.922323 0.400921 0.007799
O O12 0.218313 0.194427 0.623139
O O13 0.295934 0.051781 0.128347
O O14 0.564579 0.709342 0.489274
O O15 0.456285 0.858827 0.526743
O O16 0.738465 0.320506 0.401391
O O17 0.500000 0.000000 0.500000
#
# Coordination Sequence:
#
# PCOD8037484 Si02
#       8
#     2   2   2   2   2   2   2   2
#     4  12  27  51  77 111 152 204 260 320 392 459
#     4  12  26  46  72 110 153 199 258 317 390 460
#     4  12  27  51  79 117 151 206 261 324 390 466
#     4  12  25  46  75 107 154 201 253 318 391 463
#     4  12  26  48  75 111 153 201 257 321 387 472
#     4  12  30  49  83 112 158 204 265 328 391 462
#     4  12  27  48  74 111 156 202 258 321 391 466
#     4  12  25  45  75 110 149 198 256 321 394 469
#
# _framework density 25.018924999999999
#
# number of rings (size 3 to 8) (size 9 to 14) (size 15 to 20)
#    0.000    0.000    3.750    5.625    7.000    0.500 
#    0.000    0.000    0.000    0.000    0.000    0.000 
#    0.000    0.000    0.000    0.000    0.000    0.000 
#
# Total GULP energy -198264.233565 kJ/mol
# GULP energy per Si atom -12391.514598 kJ/mol
# Density = 2.496198 g / cm^3
# Si number density = 25.018925 Si / 1000 Ang^3
#
#
#
# Elastic Constant Matrix: (Units=GPa)
#
#
# Indices 1 2 3 4 5 6 
#
# 1 89.8305 -18.0716 17.0019 10.2200 -18.6776 6.6317
# 2 -18.0716 141.3327 17.4970 8.6173 -8.0588 -21.1718
# 3 17.0019 17.4970 91.1507 14.5178 -11.5313 -4.8963
# 4 10.2200 8.6173 14.5178 34.3962 -0.2509 -6.6813
# 5 -18.6776 -8.0588 -11.5313 -0.2509 39.6492 -1.5168
# 6 6.6317 -21.1718 -4.8963 -6.6813 -1.5168 44.7198
#
#
#
# Elastic Compliance Matrix: (Units=1/GPa)
#
#
# Indices 1 2 3 4 5 6 
#
# 1 0.013858 0.002373 -0.001625 -0.004276 0.006452 -0.001530
# 2 0.002373 0.008269 -0.001281 -0.001582 0.002541 0.003273
# 3 -0.001625 -0.001281 0.012576 -0.004399 0.002621 0.000443
# 4 -0.004276 -0.001582 -0.004399 0.033405 -0.003240 0.004285
# 5 0.006452 0.002541 0.002621 -0.003240 0.029559 0.001052
# 6 -0.001530 0.003273 0.000443 0.004285 0.001052 0.024862
#
#
# Mechanical properties :
#
#
# Convention : Reuss Voigt Hill
#
# Bulk Modulus (GPa) = 29.72974 39.46317 34.59645
# Shear Modulus (GPa) = 37.08996 44.14547 40.61772
#
# Velocity S-wave (km/s) = 3.85447 4.20513 4.03361
# Velocity P-wave (km/s) = 5.63187 6.27575 5.96251
#
# Compressibility (1/GPa) = 0.03363636
#
# Stress axis : x y z
#
# Youngs Moduli (GPa) = 72.16091 120.93349 79.51785
#
# Poissons Ratio (x) = -0.28693 0.12923
# Poissons Ratio (y) = -0.17121 0.10183
# Poissons Ratio (z) = 0.11727 0.15487
#
# Static dielectric constant tensor:
#      x y z
#    x 4.201480 0.288870 -0.146190 
#    y 0.288870 4.678430 -0.008290 
#    z -0.146190 -0.008290 4.502420 
# 
# 
# High freq. dielectric constant tensor:
#      x y z
#    x 2.004340 -0.004790 -0.009230 
#    y -0.004790 2.021570 -0.013100 
#    z -0.009230 -0.013100 1.987960 
# 
# From -- ./inp_files/46593.got.cif
#   From: 2010.06.25/outbox.cif.g09.slc.cpg/sg2_24_cif.got.tgz:46593.got - 2010.06.27 13:26:56.
