data_PCOD8037701
_publ_section_title
;
Structure prediction by ZEFSAII (Michael W. Deem and Ramdas Pophale) SiO2 
 PCOD8037701
Probable space group: P -1
;
_chemical_formula_sum "Si O2"
_cell_formula_units_Z 14
_cell_length_a 23.238682
_cell_length_b 5.379195
_cell_length_c 23.238604
_cell_angle_alpha 96.651261
_cell_angle_beta 12.287355
_cell_angle_gamma 96.656929
_cell_volume 614.003522
_symmetry_space_group_name_H-M "P -1"
_symmetry_group_IT_number 2
_symmetry_cell_setting 'triclinic'
loop_
_space_group_symop_operation_xyz
x,y,z
-x,-y,-z
loop_
_atom_site_type_symbol
_atom_site_label
_atom_site_fract_x
_atom_site_fract_y
_atom_site_fract_z
Si Si1 0.854892 0.214006 0.356861
Si Si2 0.307971 0.058169 0.307952
Si Si3 0.018909 0.768860 0.018768
Si Si4 0.559535 0.809520 0.559335
Si Si5 0.729152 0.478985 0.729165
Si Si6 0.357378 0.497815 0.854375
Si Si7 0.152361 0.902276 0.152302
O O1 0.621735 0.371563 0.621063
O O2 0.671209 0.051151 0.489416
O O3 0.030889 0.097700 0.232034
O O4 0.090984 0.340575 0.090348
O O5 0.330802 0.288290 0.247864
O O6 0.073865 0.154588 0.581160
O O7 0.247728 0.791014 0.330826
O O8 0.581319 0.000516 0.073621
O O9 0.292024 0.848538 0.785754
O O10 0.000000 0.500000 0.000000
O O11 0.785990 0.729320 0.291807
O O12 0.000000 0.000000 0.000000
O O13 0.489652 0.609719 0.670976
O O14 0.000000 0.500000 0.500000
O O15 0.500000 0.500000 0.000000
O O16 0.232374 0.665151 0.030556
#
# Coordination Sequence:
#
# PCOD8037701 Si02
#       7
#     2   2   2   2   2   2   2
#     4  12  26  46  77 105 154 199 246 310 368 480
#     4  12  27  45  80 106 153 196 240 325 370 440
#     4  12  29  50  78 108 148 192 252 327 376 442
#     4  12  27  50  72 110 142 198 254 297 390 446
#     4  12  26  50  74 108 144 198 260 306 370 440
#     4  12  26  46  77 105 154 199 246 310 368 480
#     4  12  27  47  66 120 147 190 252 295 388 444
#
# _framework density 22.801172000000001
#
# number of rings (size 3 to 8) (size 9 to 14) (size 15 to 20)
#    0.000    0.000    0.000   10.286   12.000    0.000 
#    0.000    0.000    0.000    0.000    0.000    0.000 
#    0.000    0.000    0.000    0.000    0.000    0.000 
#
# Total GULP energy -173435.415057 kJ/mol
# GULP energy per Si atom -12388.243933 kJ/mol
# Density = 2.274928 g / cm^3
# Si number density = 22.801172 Si / 1000 Ang^3
#
#
#
# Elastic Constant Matrix: (Units=GPa)
#
#
# Indices 1 2 3 4 5 6 
#
# 1 160.2172 90.5897 102.4449 1.0126 -5.8191 14.1553
# 2 90.5897 165.2018 79.1606 -1.0767 -0.0341 -14.6797
# 3 102.4449 79.1606 249.2186 0.6178 -0.7374 2.7257
# 4 1.0126 -1.0767 0.6178 50.4309 2.4324 -5.6676
# 5 -5.8191 -0.0341 -0.7374 2.4324 68.2296 -3.0766
# 6 14.1553 -14.6797 2.7257 -5.6676 -3.0766 -4.8363
#
#
#
# Elastic Compliance Matrix: (Units=1/GPa)
#
#
# Indices 1 2 3 4 5 6 
#
# 1 0.006918 -0.000833 -0.002779 0.001859 0.001314 0.018194
# 2 -0.000833 0.005542 -0.001226 -0.001764 -0.000802 -0.017373
# 3 -0.002779 -0.001226 0.005555 -0.000138 -0.000217 -0.000981
# 4 0.001859 -0.001764 -0.000138 0.018625 -0.000981 -0.010486
# 5 0.001314 -0.000802 -0.000217 -0.000981 0.014708 -0.002050
# 6 0.018194 -0.017373 -0.000981 -0.010486 -0.002050 -0.087745
#
#
# Mechanical properties :
#
#
# Convention : Reuss Voigt Hill
#
# Bulk Modulus (GPa) = 119.91567 124.33646 122.12606
# Shear Modulus (GPa) = -208.82438 42.92766 -82.94836
#
# Velocity S-wave (km/s) = -9.58038 4.34371 -6.03804
# Velocity P-wave (km/s) = 8.34699 8.93343 2.25099
#
# Compressibility (1/GPa) = 0.00833919
#
# Stress axis : x y z
#
# Youngs Moduli (GPa) = 144.55873 180.44356 180.02847
#
# Poissons Ratio (x) = 0.15025 0.50027
# Poissons Ratio (y) = 0.12037 0.22072
# Poissons Ratio (z) = 0.40170 0.22123
#
# Static dielectric constant tensor:
#      x y z
#    x 4.383820 0.009560 0.074130 
#    y 0.009560 4.329220 -0.001530 
#    z 0.074130 -0.001530 3.579360 
# 
# 
# High freq. dielectric constant tensor:
#      x y z
#    x 1.916320 0.001380 -0.002110 
#    y 0.001380 1.907480 -0.000250 
#    z -0.002110 -0.000250 1.940310 
# 
# From -- ./inp_files/613882.got.cif
#   From: 2010.06.25/outbox.cif.g09.slc.cpg/sg2_307_cif.got.tgz:613882.got - 2010.06.27 13:26:56.
