data_PCOD8037970
_publ_section_title
;
Structure prediction by ZEFSAII (Michael W. Deem and Ramdas Pophale) SiO2 
 PCOD8037970
Probable space group: P -1
;
_chemical_formula_sum "Si O2"
_cell_formula_units_Z 14
_cell_length_a 12.430026
_cell_length_b 8.950092
_cell_length_c 8.612926
_cell_angle_alpha 47.486233
_cell_angle_beta 115.404267
_cell_angle_gamma 126.916557
_cell_volume 564.255842
_symmetry_space_group_name_H-M "P -1"
_symmetry_group_IT_number 2
_symmetry_cell_setting 'triclinic'
loop_
_space_group_symop_operation_xyz
x,y,z
-x,-y,-z
loop_
_atom_site_type_symbol
_atom_site_label
_atom_site_fract_x
_atom_site_fract_y
_atom_site_fract_z
Si Si1 0.868636 0.345524 0.723720
Si Si2 0.911541 0.170258 0.564417
Si Si3 0.911679 0.713955 0.940286
Si Si4 0.681785 0.337646 0.855445
Si Si5 0.528697 0.576707 0.699794
Si Si6 0.326326 0.474603 0.881304
Si Si7 0.349576 0.926121 0.692661
O O1 0.842181 0.178309 0.679005
O O2 0.723463 0.295940 0.739054
O O3 0.948325 0.606406 0.534059
O O4 0.949629 0.294695 0.945533
O O5 0.805546 0.134113 0.388144
O O6 0.947670 0.964218 0.728239
O O7 0.816243 0.530280 0.885835
O O8 0.835975 0.654309 0.106047
O O9 0.569476 0.428704 0.709278
O O10 0.627303 0.106864 0.087315
O O11 0.374208 0.435686 0.767800
O O12 0.550334 0.812576 0.470772
O O13 0.620904 0.630028 0.874243
O O14 0.384692 0.749392 0.743394
#
# Coordination Sequence:
#
# PCOD8037970 Si02
#       7
#     2   2   2   2   2   2   2
#     4  11  23  36  50  78 110 139 168 215 256 310
#     4  11  21  35  55  76 104 141 177 204 259 309
#     4  10  19  35  54  79 102 137 176 212 253 306
#     4  10  21  34  53  77 111 132 170 218 258 298
#     4   9  17  32  52  82 103 132 170 216 261 298
#     4   9  17  29  54  81 105 126 170 229 248 292
#     4  10  17  33  55  81 102 133 177 212 254 306
#
# _framework density 24.811442
#
# number of rings (size 3 to 8) (size 9 to 14) (size 15 to 20)
#    0.000    2.286    5.714    1.286    0.000    1.714 
#    0.000    0.000    0.000    1.714    0.000    0.000 
#    0.000    0.000    0.000    0.000    0.000    0.000 
#
# Total GULP energy -173561.903314 kJ/mol
# GULP energy per Si atom -12397.278808 kJ/mol
# Density = 2.475497 g / cm^3
# Si number density = 24.811442 Si / 1000 Ang^3
#
#
#
# Elastic Constant Matrix: (Units=GPa)
#
#
# Indices 1 2 3 4 5 6 
#
# 1 108.8140 -4.5143 28.4967 0.2685 -13.6354 -33.4362
# 2 -4.5143 17.9041 19.9042 -6.8415 11.8643 -8.3491
# 3 28.4967 19.9042 124.0953 -30.0861 14.4570 -23.0111
# 4 0.2685 -6.8415 -30.0861 25.4032 -10.5890 2.2871
# 5 -13.6354 11.8643 14.4570 -10.5890 34.2906 5.1815
# 6 -33.4362 -8.3491 -23.0111 2.2871 5.1815 28.2877
#
#
#
# Elastic Compliance Matrix: (Units=1/GPa)
#
#
# Indices 1 2 3 4 5 6 
#
# 1 0.018820 0.022554 -0.002755 -0.001422 -0.003747 0.027462
# 2 0.022554 0.129952 -0.008747 0.001049 -0.041878 0.065484
# 3 -0.002755 -0.008747 0.014509 0.014186 -0.000549 0.004918
# 4 -0.001422 0.001049 0.014186 0.060947 0.011436 0.003145
# 5 -0.003747 -0.041878 -0.000549 0.011436 0.050054 -0.027329
# 6 0.027462 0.065484 0.004918 0.003145 -0.027329 0.095890
#
#
# Mechanical properties :
#
#
# Convention : Reuss Voigt Hill
#
# Bulk Modulus (GPa) = 5.39423 37.62073 21.50748
# Shear Modulus (GPa) = 12.19917 31.39141 21.79529
#
# Velocity S-wave (km/s) = 2.21978 3.56082 2.96706
# Velocity P-wave (km/s) = 2.95782 5.66582 4.51941
#
# Compressibility (1/GPa) = 0.18538336
#
# Stress axis : x y z
#
# Youngs Moduli (GPa) = 53.13633 7.69515 68.92255
#
# Poissons Ratio (x) = -0.17355 0.18990
# Poissons Ratio (y) = -1.19842 0.60286
# Poissons Ratio (z) = 0.14640 0.06731
#
# Static dielectric constant tensor:
#      x y z
#    x 4.698860 -0.266850 0.016890 
#    y -0.266850 3.905680 -0.052000 
#    z 0.016890 -0.052000 4.579030 
# 
# 
# High freq. dielectric constant tensor:
#      x y z
#    x 1.986880 -0.008540 0.010950 
#    y -0.008540 1.945410 -0.008330 
#    z 0.010950 -0.008330 1.999670 
# 
# From -- ./inp_files/291625.got.cif
#   From: 2010.06.25/outbox.cif.g09.slc.cpg/sg2_146_cif.got.tgz:291625.got - 2010.06.27 13:26:56.
