data_PCOD8037516
_publ_section_title
;
Structure prediction by ZEFSAII (Michael W. Deem and Ramdas Pophale) SiO2 
 PCOD8037516
Probable space group: P -1
;
_chemical_formula_sum "Si O2"
_cell_formula_units_Z 16
_cell_length_a 6.711325
_cell_length_b 13.387302
_cell_length_c 14.136384
_cell_angle_alpha 38.128942
_cell_angle_beta 61.578710
_cell_angle_gamma 67.071106
_cell_volume 689.416289
_symmetry_space_group_name_H-M "P -1"
_symmetry_group_IT_number 2
_symmetry_cell_setting 'triclinic'
loop_
_space_group_symop_operation_xyz
x,y,z
-x,-y,-z
loop_
_atom_site_type_symbol
_atom_site_label
_atom_site_fract_x
_atom_site_fract_y
_atom_site_fract_z
Si Si1 0.173578 0.348052 0.067354
Si Si2 0.946254 0.712943 0.664122
Si Si3 0.255171 0.537604 0.389410
Si Si4 0.309570 0.580910 0.129485
Si Si5 0.028703 0.842417 0.906888
Si Si6 0.328856 0.896220 0.176685
Si Si7 0.672817 0.943642 0.425454
Si Si8 0.563588 0.247536 0.544385
O O1 0.105006 0.228966 0.259165
O O2 0.149222 0.259198 0.038222
O O3 0.434536 0.396813 0.979561
O O4 0.000000 0.500000 0.000000
O O5 0.804923 0.549748 0.814217
O O6 0.871334 0.840358 0.507228
O O7 0.210529 0.681386 0.606177
O O8 0.301934 0.514691 0.285752
O O9 0.312734 0.717240 0.272943
O O10 0.418518 0.401900 0.502910
O O11 0.000000 0.500000 0.500000
O O12 0.147813 0.742121 0.039629
O O13 0.231647 0.889649 0.757528
O O14 0.910186 0.006226 0.852079
O O15 0.397549 0.879495 0.283883
O O16 0.500000 0.000000 0.000000
O O17 0.567566 0.843980 0.438953
O O18 0.500000 0.000000 0.500000
#
# Coordination Sequence:
#
# PCOD8037516 Si02
#       8
#     2   2   2   2   2   2   2   2
#     4  12  26  45  76 109 148 195 238 294 368 443
#     4  12  25  46  75 110 147 192 243 291 366 448
#     4  12  27  51  78 103 141 202 255 304 370 435
#     4  12  27  46  76 108 147 191 248 301 359 447
#     4  12  28  47  70 111 151 185 245 301 368 438
#     4  12  29  48  74 108 145 195 248 314 375 415
#     4  12  27  45  74 111 149 192 235 297 373 439
#     4  12  27  51  76 106 151 192 249 305 360 451
#
# _framework density 23.208037999999998
#
# number of rings (size 3 to 8) (size 9 to 14) (size 15 to 20)
#    0.000    0.000    3.750    5.250   10.500    1.500 
#    0.000    0.000    0.000    0.000    0.000    0.000 
#    0.000    0.000    0.000    0.000    0.000    0.000 
#
# Total GULP energy -198439.239281 kJ/mol
# GULP energy per Si atom -12402.452455 kJ/mol
# Density = 2.315522 g / cm^3
# Si number density = 23.208038 Si / 1000 Ang^3
#
#
#
# Elastic Constant Matrix: (Units=GPa)
#
#
# Indices 1 2 3 4 5 6 
#
# 1 101.7248 25.1676 33.6186 -0.4030 -5.1782 -14.5476
# 2 25.1676 93.6303 18.0228 -3.7285 -0.6387 -15.9516
# 3 33.6186 18.0228 115.2938 10.4346 -6.0456 -12.2636
# 4 -0.4030 -3.7285 10.4346 49.6109 -5.7211 -0.5754
# 5 -5.1782 -0.6387 -6.0456 -5.7211 46.9008 0.2110
# 6 -14.5476 -15.9516 -12.2636 -0.5754 0.2110 44.2425
#
#
#
# Elastic Compliance Matrix: (Units=1/GPa)
#
#
# Indices 1 2 3 4 5 6 
#
# 1 0.011682 -0.002174 -0.002834 0.000665 0.000966 0.002276
# 2 -0.002174 0.012077 -0.001001 0.001130 -0.000082 0.003377
# 3 -0.002834 -0.001001 0.010040 -0.002112 0.000703 0.001459
# 4 0.000665 0.001130 -0.002112 0.020969 0.002373 0.000302
# 5 0.000966 -0.000082 0.000703 0.002373 0.021805 0.000410
# 6 0.002276 0.003377 0.001459 0.000302 0.000410 0.024975
#
#
# Mechanical properties :
#
#
# Convention : Reuss Voigt Hill
#
# Bulk Modulus (GPa) = 45.91283 51.58522 48.74903
# Shear Modulus (GPa) = 41.38153 43.74017 42.56085
#
# Velocity S-wave (km/s) = 4.22722 4.34602 4.28703
# Velocity P-wave (km/s) = 6.60696 6.88908 6.74950
#
# Compressibility (1/GPa) = 0.02178040
#
# Stress axis : x y z
#
# Youngs Moduli (GPa) = 85.60060 82.80075 99.60498
#
# Poissons Ratio (x) = 0.17999 0.28229
# Poissons Ratio (y) = 0.18608 0.09975
# Poissons Ratio (z) = 0.24260 0.08292
#
# Static dielectric constant tensor:
#      x y z
#    x 4.365190 -0.118120 0.128580 
#    y -0.118120 4.190900 0.024310 
#    z 0.128580 0.024310 4.361000 
# 
# 
# High freq. dielectric constant tensor:
#      x y z
#    x 1.929510 -0.008410 0.004420 
#    y -0.008410 1.920960 0.001020 
#    z 0.004420 0.001020 1.935240 
# 
# From -- ./inp_files/484188.got.cif
#   From: 2010.06.25/outbox.cif.g09.slc.cpg/sg2_243_cif.got.tgz:484188.got - 2010.06.27 13:26:56.
