data_PCOD8037109
_publ_section_title
;
Structure prediction by ZEFSAII (Michael W. Deem and Ramdas Pophale) SiO2 
 PCOD8037109
Probable space group: P -1
;
_chemical_formula_sum "Si O2"
_cell_formula_units_Z 16
_cell_length_a 8.470079
_cell_length_b 10.007815
_cell_length_c 15.831734
_cell_angle_alpha 143.509776
_cell_angle_beta 78.852492
_cell_angle_gamma 108.076009
_cell_volume 754.937991
_symmetry_space_group_name_H-M "P -1"
_symmetry_group_IT_number 2
_symmetry_cell_setting 'triclinic'
loop_
_space_group_symop_operation_xyz
x,y,z
-x,-y,-z
loop_
_atom_site_type_symbol
_atom_site_label
_atom_site_fract_x
_atom_site_fract_y
_atom_site_fract_z
Si Si1 0.363390 0.826457 0.480820
Si Si2 0.802563 0.854780 0.241158
Si Si3 0.738357 0.900575 0.080171
Si Si4 0.642653 0.339214 0.032160
Si Si5 0.222958 0.631437 0.784673
Si Si6 0.150964 0.524100 0.212511
Si Si7 0.405060 0.339624 0.501644
Si Si8 0.823080 0.145954 0.774533
O O1 0.263310 0.607543 0.325352
O O2 0.451374 0.736368 0.502666
O O3 0.500000 0.000000 0.500000
O O4 0.230899 0.956302 0.595020
O O5 0.795119 0.945878 0.193741
O O6 0.665685 0.610288 0.146516
O O7 0.981129 0.820106 0.226190
O O8 0.792199 0.143891 0.150229
O O9 0.541192 0.796719 0.045232
O O10 0.836075 0.731953 0.941693
O O11 0.666466 0.294668 0.105576
O O12 0.772986 0.238059 0.915083
O O13 0.307721 0.473422 0.639409
O O14 0.039505 0.479526 0.751742
O O15 0.221846 0.701185 0.218858
O O16 0.500000 0.500000 0.500000
O O17 0.272419 0.121786 0.364117
#
# Coordination Sequence:
#
# PCOD8037109 Si02
#       8
#     2   2   2   2   2   2   2   2
#     4  12  25  42  70 101 132 177 229 278 329 401
#     4  12  24  43  68 101 136 176 226 279 335 401
#     4  12  26  44  69 102 138 177 227 278 336 400
#     4  12  24  43  71 101 136 179 227 275 338 400
#     4  12  26  46  69 100 140 181 221 279 341 402
#     4  12  25  44  70 103 137 177 228 280 335 398
#     4  12  27  48  70 100 140 178 223 279 344 401
#     4  12  25  44  71 102 137 179 224 281 339 399
#
# _framework density 21.193795000000001
#
# number of rings (size 3 to 8) (size 9 to 14) (size 15 to 20)
#    0.000    0.000    3.750    7.500    0.000    3.000 
#    0.000    2.500    0.000    0.000    0.000    0.000 
#    0.000    0.000    0.000    0.000    0.000    0.000 
#
# Total GULP energy -198562.932763 kJ/mol
# GULP energy per Si atom -12410.183298 kJ/mol
# Density = 2.114556 g / cm^3
# Si number density = 21.193795 Si / 1000 Ang^3
#
#
#
# Elastic Constant Matrix: (Units=GPa)
#
#
# Indices 1 2 3 4 5 6 
#
# 1 78.5226 10.0029 12.4499 -4.3513 -10.0655 0.6802
# 2 10.0029 114.8238 40.1062 -1.1685 -2.7090 -13.1558
# 3 12.4499 40.1062 112.4866 -8.0707 -15.9260 -0.0437
# 4 -4.3513 -1.1685 -8.0707 35.4089 5.6907 3.0212
# 5 -10.0655 -2.7090 -15.9260 5.6907 47.2323 -6.6142
# 6 0.6802 -13.1558 -0.0437 3.0212 -6.6142 34.1246
#
#
#
# Elastic Compliance Matrix: (Units=1/GPa)
#
#
# Indices 1 2 3 4 5 6 
#
# 1 0.013330 -0.000857 -0.000757 0.001076 0.002374 -0.000232
# 2 -0.000857 0.010556 -0.003756 -0.000942 -0.000151 0.004136
# 3 -0.000757 -0.003756 0.010860 0.001877 0.002916 -0.001020
# 4 0.001076 -0.000942 0.001877 0.029606 -0.003268 -0.003637
# 5 0.002374 -0.000151 0.002916 -0.003268 0.023716 0.004784
# 6 -0.000232 0.004136 -0.001020 -0.003637 0.004784 0.032152
#
#
# Mechanical properties :
#
#
# Convention : Reuss Voigt Hill
#
# Bulk Modulus (GPa) = 41.65358 47.88342 44.76850
# Shear Modulus (GPa) = 35.98098 39.57142 37.77620
#
# Velocity S-wave (km/s) = 4.12480 4.32571 4.22645
# Velocity P-wave (km/s) = 6.51012 6.89864 6.70719
#
# Compressibility (1/GPa) = 0.02400754
#
# Stress axis : x y z
#
# Youngs Moduli (GPa) = 75.01726 94.72938 92.07993
#
# Poissons Ratio (x) = 0.08114 0.06968
# Poissons Ratio (y) = 0.06426 0.34588
# Poissons Ratio (z) = 0.05677 0.35583
#
# Static dielectric constant tensor:
#      x y z
#    x 3.900260 -0.061490 -0.038950 
#    y -0.061490 3.988620 -0.095260 
#    z -0.038950 -0.095260 4.072640 
# 
# 
# High freq. dielectric constant tensor:
#      x y z
#    x 1.845640 -0.001160 -0.004650 
#    y -0.001160 1.841310 -0.007170 
#    z -0.004650 -0.007170 1.846960 
# 
# From -- ./inp_files/184197.got.cif
#   From: 2010.06.25/outbox.cif.g09.slc.cpg/sg2_93_cif.got.tgz:184197.got - 2010.06.27 13:26:56.
