data_PCOD8037457
_publ_section_title
;
Structure prediction by ZEFSAII (Michael W. Deem and Ramdas Pophale) SiO2 
 PCOD8037457
Probable space group: P -1
;
_chemical_formula_sum "Si O2"
_cell_formula_units_Z 16
_cell_length_a 8.985861
_cell_length_b 15.345376
_cell_length_c 15.568137
_cell_angle_alpha 154.471794
_cell_angle_beta 48.792874
_cell_angle_gamma 134.270737
_cell_volume 659.536113
_symmetry_space_group_name_H-M "P -1"
_symmetry_group_IT_number 2
_symmetry_cell_setting 'triclinic'
loop_
_space_group_symop_operation_xyz
x,y,z
-x,-y,-z
loop_
_atom_site_type_symbol
_atom_site_label
_atom_site_fract_x
_atom_site_fract_y
_atom_site_fract_z
Si Si1 0.420154 0.280387 0.061905
Si Si2 0.210711 0.215753 0.458325
Si Si3 0.427738 0.912349 0.854294
Si Si4 0.850593 0.829229 0.202231
Si Si5 0.021924 0.383499 0.299584
Si Si6 0.468645 0.874540 0.294436
Si Si7 0.673623 0.753510 0.378009
Si Si8 0.090874 0.563756 0.261236
O O1 0.533869 0.524043 0.262852
O O2 0.171898 0.238771 0.128122
O O3 0.487701 0.119759 0.954721
O O4 0.489370 0.261516 0.921349
O O5 0.181691 0.141390 0.502670
O O6 0.143616 0.428559 0.660867
O O7 0.442127 0.244473 0.362172
O O8 0.052200 0.033809 0.299274
O O9 0.188937 0.770989 0.802107
O O10 0.500000 0.000000 0.000000
O O11 0.650242 0.899668 0.316982
O O12 0.816771 0.732897 0.225484
O O13 0.886480 0.658512 0.973131
O O14 0.000000 0.500000 0.500000
O O15 0.128649 0.571032 0.356351
O O16 0.250370 0.756252 0.319333
O O17 0.472014 0.104702 0.464841
#
# Coordination Sequence:
#
# PCOD8037457 Si02
#       8
#     2   2   2   2   2   2   2   2
#     4  12  27  51  85 110 154 201 262 325 393 457
#     4  12  29  45  73 110 159 201 254 310 390 467
#     4  12  30  55  76 113 159 211 269 327 382 459
#     4  12  25  44  75 113 160 198 246 312 395 465
#     4  12  29  53  83 113 151 213 274 321 381 457
#     4  12  25  48  79 119 156 190 256 328 387 470
#     4  12  26  46  75 117 156 200 244 317 399 471
#     4  12  27  47  80 118 152 204 255 318 398 464
#
# _framework density 24.259475999999999
#
# number of rings (size 3 to 8) (size 9 to 14) (size 15 to 20)
#    0.000    0.000    5.000    3.750    7.000    1.000 
#    0.000    0.000    0.000    0.000    0.000    0.000 
#    0.000    0.000    0.000    0.000    0.000    0.000 
#
# Total GULP energy -198411.662488 kJ/mol
# GULP energy per Si atom -12400.728905 kJ/mol
# Density = 2.420426 g / cm^3
# Si number density = 24.259476 Si / 1000 Ang^3
#
#
#
# Elastic Constant Matrix: (Units=GPa)
#
#
# Indices 1 2 3 4 5 6 
#
# 1 113.2722 24.4847 42.9779 -12.5268 -1.2215 -10.1278
# 2 24.4847 76.1853 34.6216 -10.9119 3.3676 -8.8877
# 3 42.9779 34.6216 113.7051 -18.5963 -6.9389 -8.7561
# 4 -12.5268 -10.9119 -18.5963 50.0871 -2.6757 7.8786
# 5 -1.2215 3.3676 -6.9389 -2.6757 54.0735 -7.4570
# 6 -10.1278 -8.8877 -8.7561 7.8786 -7.4570 44.9046
#
#
#
# Elastic Compliance Matrix: (Units=1/GPa)
#
#
# Indices 1 2 3 4 5 6 
#
# 1 0.010642 -0.001666 -0.003260 0.000891 0.000150 0.001303
# 2 -0.001666 0.015877 -0.003955 0.001261 -0.001256 0.001566
# 3 -0.003260 -0.003955 0.011842 0.002723 0.001914 0.000631
# 4 0.000891 0.001261 0.002723 0.021953 0.001004 -0.002703
# 5 0.000150 -0.001256 0.001914 0.001004 0.019310 0.003189
# 6 0.001303 0.001566 0.000631 -0.002703 0.003189 0.024000
#
#
# Mechanical properties :
#
#
# Convention : Reuss Voigt Hill
#
# Bulk Modulus (GPa) = 48.54298 56.37011 52.45655
# Shear Modulus (GPa) = 38.98613 43.21829 41.10221
#
# Velocity S-wave (km/s) = 4.01315 4.22536 4.12062
# Velocity P-wave (km/s) = 6.44416 6.86234 6.65653
#
# Compressibility (1/GPa) = 0.02060030
#
# Stress axis : x y z
#
# Youngs Moduli (GPa) = 93.96783 62.98387 84.44729
#
# Poissons Ratio (x) = 0.10490 0.27530
# Poissons Ratio (y) = 0.15651 0.33396
# Poissons Ratio (z) = 0.30633 0.24908
#
# Static dielectric constant tensor:
#      x y z
#    x 4.556370 -0.120390 -0.076780 
#    y -0.120390 4.217330 -0.175100 
#    z -0.076780 -0.175100 4.472320 
# 
# 
# High freq. dielectric constant tensor:
#      x y z
#    x 1.977200 -0.008010 -0.000810 
#    y -0.008010 1.955360 -0.010950 
#    z -0.000810 -0.010950 1.980850 
# 
# From -- ./inp_files/505699.got.cif
#   From: 2010.06.25/outbox.cif.g09.slc.cpg/sg2_253_cif.got.tgz:505699.got - 2010.06.27 13:26:56.
