data_PCOD8037949
_publ_section_title
;
Structure prediction by ZEFSAII (Michael W. Deem and Ramdas Pophale) SiO2 
 PCOD8037949
Probable space group: P -1
;
_chemical_formula_sum "Si O2"
_cell_formula_units_Z 16
_cell_length_a 15.000000
_cell_length_b 24.000000
_cell_length_c 15.000000
_cell_angle_alpha 30.000000
_cell_angle_beta 20.000000
_cell_angle_gamma 30.000000
_cell_volume 879.333414
_symmetry_space_group_name_H-M "P -1"
_symmetry_group_IT_number 2
_symmetry_cell_setting 'triclinic'
loop_
_space_group_symop_operation_xyz
x,y,z
-x,-y,-z
loop_
_atom_site_type_symbol
_atom_site_label
_atom_site_fract_x
_atom_site_fract_y
_atom_site_fract_z
Si Si1 0.411590 0.929393 0.103320
Si Si2 0.700494 0.376125 0.955016
Si Si3 0.552407 0.245803 0.543986
Si Si4 0.827472 0.628889 0.619102
Si Si5 0.754323 0.046885 0.295030
Si Si6 0.076831 0.631290 0.060783
Si Si7 0.864585 0.860855 0.308152
Si Si8 0.218925 0.975978 0.487060
O O1 0.438113 0.801963 0.296975
O O2 0.094585 0.985979 0.300836
O O3 0.616149 0.931249 0.825171
O O4 0.500000 0.000000 0.000000
O O5 0.487959 0.312020 0.203156
O O6 0.500000 0.500000 0.000000
O O7 0.845328 0.315541 0.993511
O O8 0.938753 0.395331 0.642511
O O9 0.246059 0.326069 0.705201
O O10 0.625703 0.145160 0.539552
O O11 0.761537 0.323384 0.231805
O O12 0.836063 0.510369 0.826762
O O13 0.889005 0.725239 0.493047
O O14 0.433700 0.077142 0.537197
O O15 0.906974 0.922348 0.275190
O O16 0.792010 0.036198 0.379823
O O17 0.905427 0.136275 0.986807
#
# Coordination Sequence:
#
# PCOD8037949 Si02
#       8
#     2   2   2   2   2   2   2   2
#     4  10  20  37  51  76 107 136 169 218 266 318
#     4  10  20  33  45  70 105 141 179 210 236 302
#     4  11  21  32  52  77 108 135 172 217 255 312
#     4  11  21  35  51  70 108 146 172 214 261 298
#     4  10  22  38  56  80 103 134 187 222 259 315
#     4  11  21  32  47  77 104 142 178 204 248 321
#     4  10  22  38  54  78 109 137 176 231 260 290
#     4  11  21  35  56  76 103 141 173 211 272 319
#
# _framework density 18.195601
#
# number of rings (size 3 to 8) (size 9 to 14) (size 15 to 20)
#    0.000    1.500    0.000    9.000    5.250    0.000 
#    0.000    0.000    0.000    0.000    0.000    5.250 
#    0.000    0.000    0.000    0.000    0.000    0.000 
#
# Total GULP energy -198267.707071 kJ/mol
# GULP energy per Si atom -12391.731692 kJ/mol
# Density = 1.815419 g / cm^3
# Si number density = 18.195601 Si / 1000 Ang^3
#
#
#
# Elastic Constant Matrix: (Units=GPa)
#
#
# Indices 1 2 3 4 5 6 
#
# 1 60.7983 28.3884 28.5045 -2.6952 5.7350 -1.9651
# 2 28.3884 61.2641 36.9619 -5.7187 -1.8962 -3.1781
# 3 28.5045 36.9619 166.1533 0.5238 6.6509 -0.6746
# 4 -2.6952 -5.7187 0.5238 45.8457 -6.5352 -7.2669
# 5 5.7350 -1.8962 6.6509 -6.5352 36.5503 3.9833
# 6 -1.9651 -3.1781 -0.6746 -7.2669 3.9833 20.8199
#
#
#
# Elastic Compliance Matrix: (Units=1/GPa)
#
#
# Indices 1 2 3 4 5 6 
#
# 1 0.021897 -0.009294 -0.001531 -0.000199 -0.003812 0.001258
# 2 -0.009294 0.023503 -0.003778 0.003438 0.003643 0.003091
# 3 -0.001531 -0.003778 0.007177 -0.000925 -0.001367 -0.000550
# 4 -0.000199 0.003438 -0.000925 0.024073 0.003794 0.008153
# 5 -0.003812 0.003643 -0.001367 0.003794 0.029529 -0.004173
# 6 0.001258 0.003091 -0.000550 0.008153 -0.004173 0.052248
#
#
# Mechanical properties :
#
#
# Convention : Reuss Voigt Hill
#
# Bulk Modulus (GPa) = 42.78838 52.88057 47.83448
# Shear Modulus (GPa) = 25.58572 33.60057 29.59314
#
# Velocity S-wave (km/s) = 3.75393 4.30191 4.03723
# Velocity P-wave (km/s) = 6.50816 7.33489 6.93386
#
# Compressibility (1/GPa) = 0.02337083
#
# Stress axis : x y z
#
# Youngs Moduli (GPa) = 45.66915 42.54814 139.33447
#
# Poissons Ratio (x) = 0.39545 0.21327
# Poissons Ratio (y) = 0.42446 0.52640
# Poissons Ratio (z) = 0.06990 0.16075
#
# Static dielectric constant tensor:
#      x y z
#    x 3.558090 -0.071390 -0.067480 
#    y -0.071390 3.391410 -0.015650 
#    z -0.067480 -0.015650 4.277760 
# 
# 
# High freq. dielectric constant tensor:
#      x y z
#    x 1.668950 -0.014170 -0.005530 
#    y -0.014170 1.694840 0.009120 
#    z -0.005530 0.009120 1.756480 
# 
# From -- ./inp_files/533744.got.cif
#   From: 2010.06.25/outbox.ucp.g09.slc.cvg/sg2_267_cif.got.tgz:533744.got - 2010.06.28 11:54:26.
