data_PCOD8037531
_publ_section_title
;
Structure prediction by ZEFSAII (Michael W. Deem and Ramdas Pophale) SiO2 
 PCOD8037531
Probable space group: P -1
;
_chemical_formula_sum "Si O2"
_cell_formula_units_Z 12
_cell_length_a 13.045008
_cell_length_b 5.519208
_cell_length_c 11.535772
_cell_angle_alpha 50.184990
_cell_angle_beta 128.177143
_cell_angle_gamma 117.722259
_cell_volume 498.179069
_symmetry_space_group_name_H-M "P -1"
_symmetry_group_IT_number 2
_symmetry_cell_setting 'triclinic'
loop_
_space_group_symop_operation_xyz
x,y,z
-x,-y,-z
loop_
_atom_site_type_symbol
_atom_site_label
_atom_site_fract_x
_atom_site_fract_y
_atom_site_fract_z
Si Si1 0.941615 0.214758 0.736649
Si Si2 0.741497 0.721686 0.832691
Si Si3 0.898009 0.214423 0.183873
Si Si4 0.756543 0.640117 0.395070
Si Si5 0.628605 0.734031 0.500184
Si Si6 0.483065 0.649958 0.819068
O O1 0.851150 0.362618 0.529208
O O2 0.023451 0.506076 0.771388
O O3 0.861678 0.002089 0.846740
O O4 0.024106 0.980283 0.793107
O O5 0.693403 0.801085 0.647895
O O6 0.625302 0.746954 0.833764
O O7 0.790291 0.375252 0.983896
O O8 0.826832 0.977044 0.300889
O O9 0.735599 0.611143 0.528153
O O10 0.613298 0.592377 0.250578
O O11 0.500000 0.500000 0.500000
O O12 0.588727 0.040177 0.312547
O O13 0.500000 0.500000 0.000000
#
# Coordination Sequence:
#
# PCOD8037531 Si02
#       6
#     2   2   2   2   2   2
#     4  12  27  52  80 113 156 211 264 317 381 462
#     4  12  26  51  78 116 153 201 261 323 388 464
#     4  12  30  49  81 114 160 208 262 318 385 465
#     4  12  27  50  78 113 154 203 258 323 390 464
#     4  12  25  46  77 112 155 197 253 317 395 464
#     4  12  28  48  78 115 152 198 254 326 399 457
#
# _framework density 24.087724000000001
#
# number of rings (size 3 to 8) (size 9 to 14) (size 15 to 20)
#    0.000    0.000    3.333    5.500    7.000    2.667 
#    0.000    0.000    0.000    0.000    0.000    0.000 
#    0.000    0.000    0.000    0.000    0.000    0.000 
#
# Total GULP energy -148778.400001 kJ/mol
# GULP energy per Si atom -12398.200000 kJ/mol
# Density = 2.403290 g / cm^3
# Si number density = 24.087724 Si / 1000 Ang^3
#
#
#
# Elastic Constant Matrix: (Units=GPa)
#
#
# Indices 1 2 3 4 5 6 
#
# 1 125.2508 49.6344 28.5862 7.8053 -4.0249 5.8153
# 2 49.6344 116.1280 7.5298 -5.6526 0.7487 3.8818
# 3 28.5862 7.5298 132.5472 -23.1900 1.3884 -10.2040
# 4 7.8053 -5.6526 -23.1900 33.9495 -2.4519 -2.1091
# 5 -4.0249 0.7487 1.3884 -2.4519 44.8705 -4.3576
# 6 5.8153 3.8818 -10.2040 -2.1091 -4.3576 42.6713
#
#
#
# Elastic Compliance Matrix: (Units=1/GPa)
#
#
# Indices 1 2 3 4 5 6 
#
# 1 0.011077 -0.004732 -0.003276 -0.005653 0.000664 -0.002074
# 2 -0.004732 0.010741 0.001041 0.003559 -0.000437 0.000048
# 3 -0.003276 0.001041 0.009797 0.007819 0.000113 0.003092
# 4 -0.005653 0.003559 0.007819 0.037075 0.001637 0.004316
# 5 0.000664 -0.000437 0.000113 0.001637 0.022669 0.002372
# 6 -0.002074 0.000048 0.003092 0.004316 0.002372 0.024908
#
#
# Mechanical properties :
#
#
# Convention : Reuss Voigt Hill
#
# Bulk Modulus (GPa) = 56.55756 60.60298 58.58027
# Shear Modulus (GPa) = 36.73962 43.50998 40.12480
#
# Velocity S-wave (km/s) = 3.90967 4.25469 4.08582
# Velocity P-wave (km/s) = 6.62658 7.02498 6.82869
#
# Compressibility (1/GPa) = 0.01768110
#
# Stress axis : x y z
#
# Youngs Moduli (GPa) = 90.27959 93.10449 102.07656
#
# Poissons Ratio (x) = 0.44057 0.33437
# Poissons Ratio (y) = 0.42720 -0.10630
# Poissons Ratio (z) = 0.29573 -0.09695
#
# Static dielectric constant tensor:
#      x y z
#    x 4.345520 0.148090 0.122920 
#    y 0.148090 4.295850 -0.173090 
#    z 0.122920 -0.173090 4.645270 
# 
# 
# High freq. dielectric constant tensor:
#      x y z
#    x 1.965540 0.016400 0.006630 
#    y 0.016400 1.965100 -0.012950 
#    z 0.006630 -0.012950 1.979280 
# 
# From -- ./inp_files/21864.got.cif
#   From: 2010.06.25/outbox.cif.g09.slc.cpg/sg2_11_cif.got.tgz:21864.got - 2010.06.27 13:26:56.
