data_PCOD8037085
_publ_section_title
;
Structure prediction by ZEFSAII (Michael W. Deem and Ramdas Pophale) SiO2 
 PCOD8037085
Probable space group: P -1
;
_chemical_formula_sum "Si O2"
_cell_formula_units_Z 10
_cell_length_a 5.784033
_cell_length_b 21.879856
_cell_length_c 4.849782
_cell_angle_alpha 64.794270
_cell_angle_beta 51.710987
_cell_angle_gamma 53.886133
_cell_volume 387.383820
_symmetry_space_group_name_H-M "P -1"
_symmetry_group_IT_number 2
_symmetry_cell_setting 'triclinic'
loop_
_space_group_symop_operation_xyz
x,y,z
-x,-y,-z
loop_
_atom_site_type_symbol
_atom_site_label
_atom_site_fract_x
_atom_site_fract_y
_atom_site_fract_z
Si Si1 0.378105 0.944773 0.321014
Si Si2 0.193736 0.541648 0.432509
Si Si3 0.529075 0.843421 0.902331
Si Si4 0.509628 0.359703 0.155389
Si Si5 0.790461 0.258381 0.635533
O O1 0.481977 0.914990 0.611981
O O2 0.511359 0.868620 0.184001
O O3 0.000000 0.000000 0.500000
O O4 0.500000 0.000000 0.000000
O O5 0.500000 0.500000 0.500000
O O6 0.000000 0.500000 0.500000
O O7 0.878218 0.604014 0.720292
O O8 0.349885 0.578077 0.023384
O O9 0.858987 0.768280 0.722482
O O10 0.241559 0.818119 0.128599
O O11 0.519439 0.317222 0.514489
O O12 0.756663 0.301654 0.861266
#
# Coordination Sequence:
#
# PCOD8037085 Si02
#       5
#     2   2   2   2   2
#     4  12  24  42  66  98 135 180 231 290 353 424
#     4  12  27  49  76 110 149 195 246 308 374 445
#     4  12  24  43  67  98 137 182 233 292 355 426
#     4  12  26  47  73 106 144 189 243 302 365 439
#     4  12  25  45  70 102 139 186 237 296 359 430
#
# _framework density 25.814193
#
# number of rings (size 3 to 8) (size 9 to 14) (size 15 to 20)
#    0.000    0.000    0.000   10.800    0.000    3.200 
#    0.000    0.000    0.000    0.000    0.000    0.000 
#    0.000    0.000    0.000    0.000    0.000    0.000 
#
# Total GULP energy -123912.192870 kJ/mol
# GULP energy per Si atom -12391.219287 kJ/mol
# Density = 2.575544 g / cm^3
# Si number density = 25.814193 Si / 1000 Ang^3
#
#
#
# Elastic Constant Matrix: (Units=GPa)
#
#
# Indices 1 2 3 4 5 6 
#
# 1 91.0182 22.0586 28.5626 -10.6135 -1.6920 1.8378
# 2 22.0586 76.0221 22.4034 -22.5885 -4.0399 -12.6996
# 3 28.5626 22.4034 134.3938 -22.3767 -14.4298 -10.8984
# 4 -10.6135 -22.5885 -22.3767 45.5992 -3.1272 -11.3889
# 5 -1.6920 -4.0399 -14.4298 -3.1272 48.9970 2.8200
# 6 1.8378 -12.6996 -10.8984 -11.3889 2.8200 31.9338
#
#
#
# Elastic Compliance Matrix: (Units=1/GPa)
#
#
# Indices 1 2 3 4 5 6 
#
# 1 0.012660 -0.003868 -0.002576 -0.001145 -0.000511 -0.003509
# 2 -0.003868 0.020090 0.000854 0.012823 0.001850 0.012914
# 3 -0.002576 0.000854 0.009652 0.006190 0.002889 0.005734
# 4 -0.001145 0.012823 0.006190 0.036291 0.004014 0.019866
# 5 -0.000511 0.001850 0.002889 0.004014 0.021578 0.001277
# 6 -0.003509 0.012914 0.005734 0.019866 0.001277 0.045582
#
#
# Mechanical properties :
#
#
# Convention : Reuss Voigt Hill
#
# Bulk Modulus (GPa) = 32.02839 49.72036 40.87438
# Shear Modulus (GPa) = 29.86126 40.53329 35.19728
#
# Velocity S-wave (km/s) = 3.40483 3.96687 3.69655
# Velocity P-wave (km/s) = 5.28123 6.34697 5.83847
#
# Compressibility (1/GPa) = 0.03122230
#
# Stress axis : x y z
#
# Youngs Moduli (GPa) = 78.98588 49.77484 103.60707
#
# Poissons Ratio (x) = 0.19253 0.26690
# Poissons Ratio (y) = 0.30552 -0.08847
# Poissons Ratio (z) = 0.20347 -0.04250
#
# Static dielectric constant tensor:
#      x y z
#    x 4.429750 -0.000990 -0.143150 
#    y -0.000990 4.790050 0.203120 
#    z -0.143150 0.203120 5.071940 
# 
# 
# High freq. dielectric constant tensor:
#      x y z
#    x 2.012880 -0.001990 -0.004360 
#    y -0.001990 2.050570 0.008120 
#    z -0.004360 0.008120 2.067080 
# 
# From -- ./inp_files/7355.got.cif
#   From: 2010.06.25/outbox.cif.g09.slc.cpg/sg2_4_cif.got.tgz:7355.got - 2010.06.27 13:26:56.
