data_PCOD8037570
_publ_section_title
;
Structure prediction by ZEFSAII (Michael W. Deem and Ramdas Pophale) SiO2 
 PCOD8037570
Probable space group: P -1
;
_chemical_formula_sum "Si O2"
_cell_formula_units_Z 12
_cell_length_a 9.222183
_cell_length_b 12.700419
_cell_length_c 11.770007
_cell_angle_alpha 139.845849
_cell_angle_beta 123.837490
_cell_angle_gamma 87.699977
_cell_volume 512.684326
_symmetry_space_group_name_H-M "P -1"
_symmetry_group_IT_number 2
_symmetry_cell_setting 'triclinic'
loop_
_space_group_symop_operation_xyz
x,y,z
-x,-y,-z
loop_
_atom_site_type_symbol
_atom_site_label
_atom_site_fract_x
_atom_site_fract_y
_atom_site_fract_z
Si Si1 0.292274 0.670774 0.779150
Si Si2 0.003992 0.180913 0.707003
Si Si3 0.550487 0.529398 0.180954
Si Si4 0.300754 0.505578 0.418590
Si Si5 0.606646 0.147878 0.419057
Si Si6 0.200700 0.982095 0.269593
O O1 0.366072 0.596371 0.851948
O O2 0.382498 0.664835 0.693734
O O3 0.000000 0.500000 0.500000
O O4 0.425775 0.932053 0.074960
O O5 0.865420 0.220652 0.601396
O O6 0.855943 0.097460 0.690881
O O7 0.000000 0.000000 0.500000
O O8 0.297862 0.420053 0.045167
O O9 0.768741 0.800183 0.540728
O O10 0.500000 0.500000 0.000000
O O11 0.500000 0.500000 0.500000
O O12 0.316910 0.626562 0.413118
O O13 0.026798 0.236247 0.088037
O O14 0.457966 0.071758 0.410803
#
# Coordination Sequence:
#
# PCOD8037570 Si02
#       6
#     2   2   2   2   2   2
#     4  12  26  48  75 111 149 196 250 303 373 439
#     4  12  25  47  75 111 145 193 255 304 372 441
#     4  12  27  48  79 109 150 199 249 310 373 440
#     4  12  29  47  73 109 152 197 249 303 374 448
#     4  12  27  48  77 108 149 200 247 311 370 445
#     4  12  26  48  73 108 153 193 248 308 375 441
#
# _framework density 23.406217000000002
#
# number of rings (size 3 to 8) (size 9 to 14) (size 15 to 20)
#    0.000    0.000    5.000    4.000    4.667    5.333 
#    0.000    0.000    0.000    0.000    0.000    0.000 
#    0.000    0.000    0.000    0.000    0.000    0.000 
#
# Total GULP energy -148805.044785 kJ/mol
# GULP energy per Si atom -12400.420399 kJ/mol
# Density = 2.335294 g / cm^3
# Si number density = 23.406217 Si / 1000 Ang^3
#
#
#
# Elastic Constant Matrix: (Units=GPa)
#
#
# Indices 1 2 3 4 5 6 
#
# 1 145.3367 61.1506 27.7344 -0.4106 5.9366 -1.8515
# 2 61.1506 129.2200 32.2615 1.6484 14.3675 -12.3573
# 3 27.7344 32.2615 128.0988 17.4124 -0.4121 -6.4623
# 4 -0.4106 1.6484 17.4124 35.0229 -2.3976 0.7139
# 5 5.9366 14.3675 -0.4121 -2.3976 47.8455 -14.7330
# 6 -1.8515 -12.3573 -6.4623 0.7139 -14.7330 50.4420
#
#
#
# Elastic Compliance Matrix: (Units=1/GPa)
#
#
# Indices 1 2 3 4 5 6 
#
# 1 0.008740 -0.003950 -0.001051 0.000819 -0.000121 -0.000829
# 2 -0.003950 0.010425 -0.001718 0.000137 -0.002170 0.001553
# 3 -0.001051 -0.001718 0.009123 -0.004432 0.000814 0.001010
# 4 0.000819 0.000137 -0.004432 0.030852 0.001182 -0.000596
# 5 -0.000121 -0.002170 0.000814 0.001182 0.023620 0.006450
# 6 -0.000829 0.001553 0.001010 -0.000596 0.006450 0.022197
#
#
# Mechanical properties :
#
#
# Convention : Reuss Voigt Hill
#
# Bulk Modulus (GPa) = 67.33806 71.66095 69.49950
# Shear Modulus (GPa) = 40.53761 45.42935 42.98348
#
# Velocity S-wave (km/s) = 4.16614 4.41036 4.28999
# Velocity P-wave (km/s) = 7.20931 7.52447 7.36857
#
# Compressibility (1/GPa) = 0.01485044
#
# Stress axis : x y z
#
# Youngs Moduli (GPa) = 114.42060 95.92624 109.61814
#
# Poissons Ratio (x) = 0.37887 0.11522
# Poissons Ratio (y) = 0.45192 0.18827
# Poissons Ratio (z) = 0.12027 0.16476
#
# Static dielectric constant tensor:
#      x y z
#    x 4.226880 0.066720 0.216050 
#    y 0.066720 4.093310 0.275270 
#    z 0.216050 0.275270 4.593280 
# 
# 
# High freq. dielectric constant tensor:
#      x y z
#    x 1.944670 0.003140 -0.008640 
#    y 0.003140 1.914470 0.003960 
#    z -0.008640 0.003960 1.945130 
# 
# From -- ./inp_files/68840.got.cif
#   From: 2010.06.25/outbox.cif.g09.slc.cpg/sg2_35_cif.got.tgz:68840.got - 2010.06.27 13:26:56.
