data_PCOD8037126
_publ_section_title
;
Structure prediction by ZEFSAII (Michael W. Deem and Ramdas Pophale) SiO2 
 PCOD8037126
Probable space group: P -1
;
_chemical_formula_sum "Si O2"
_cell_formula_units_Z 14
_cell_length_a 11.235026
_cell_length_b 14.902194
_cell_length_c 8.248427
_cell_angle_alpha 126.053100
_cell_angle_beta 62.379592
_cell_angle_gamma 148.040517
_cell_volume 588.925641
_symmetry_space_group_name_H-M "P -1"
_symmetry_group_IT_number 2
_symmetry_cell_setting 'triclinic'
loop_
_space_group_symop_operation_xyz
x,y,z
-x,-y,-z
loop_
_atom_site_type_symbol
_atom_site_label
_atom_site_fract_x
_atom_site_fract_y
_atom_site_fract_z
Si Si1 0.325783 0.462974 0.468704
Si Si2 0.034239 0.896656 0.898852
Si Si3 0.887977 0.847271 0.272726
Si Si4 0.530267 0.188220 0.802265
Si Si5 0.551770 0.794201 0.457738
Si Si6 0.320494 0.897928 0.149055
Si Si7 0.175208 0.422491 0.844377
O O1 0.500000 0.500000 0.500000
O O2 0.432633 0.641578 0.506369
O O3 0.150481 0.399134 0.640671
O O4 0.185164 0.307919 0.254213
O O5 0.261550 0.998848 0.790054
O O6 0.047053 0.897900 0.088953
O O7 0.000000 0.000000 0.000000
O O8 0.709343 0.815468 0.274397
O O9 0.751568 0.653241 0.228394
O O10 0.000000 0.000000 0.500000
O O11 0.598463 0.244243 0.627037
O O12 0.626790 0.140530 0.767512
O O13 0.626551 0.360315 0.012855
O O14 0.689326 0.979302 0.665422
O O15 0.062033 0.697028 0.049819
O O16 0.500000 0.000000 0.000000
#
# Coordination Sequence:
#
# PCOD8037126 Si02
#       7
#     2   2   2   2   2   2   2
#     4  12  26  44  74 112 150 190 241 300 372 438
#     4  12  25  43  70 109 148 190 241 303 368 429
#     4  12  24  43  73 107 150 185 242 303 372 426
#     4  12  27  47  74 107 150 194 248 299 360 442
#     4  12  26  45  71 106 144 190 240 304 366 429
#     4  12  27  51  75 102 144 200 249 296 363 436
#     4  12  25  46  76 106 147 191 245 304 361 433
#
# _framework density 23.772100999999999
#
# number of rings (size 3 to 8) (size 9 to 14) (size 15 to 20)
#    0.000    0.000    4.286    6.000    2.000    1.143 
#    0.000    2.143    0.000    0.000    0.000    0.000 
#    0.000    0.000    0.000    0.000    0.000    0.000 
#
# Total GULP energy -173477.939868 kJ/mol
# GULP energy per Si atom -12391.281419 kJ/mol
# Density = 2.371799 g / cm^3
# Si number density = 23.772101 Si / 1000 Ang^3
#
#
#
# Elastic Constant Matrix: (Units=GPa)
#
#
# Indices 1 2 3 4 5 6 
#
# 1 113.0070 50.7577 21.6903 5.6083 2.2461 -19.2438
# 2 50.7577 121.8276 51.2368 4.7301 1.1573 -15.9759
# 3 21.6903 51.2368 101.4474 2.4781 13.3490 -6.1969
# 4 5.6083 4.7301 2.4781 51.6416 -5.6456 1.3654
# 5 2.2461 1.1573 13.3490 -5.6456 40.4893 -1.6925
# 6 -19.2438 -15.9759 -6.1969 1.3654 -1.6925 48.7666
#
#
#
# Elastic Compliance Matrix: (Units=1/GPa)
#
#
# Indices 1 2 3 4 5 6 
#
# 1 0.011358 -0.004293 0.000021 -0.000980 -0.000522 0.003088
# 2 -0.004293 0.012553 -0.005535 -0.000275 0.001741 0.001783
# 3 0.000021 -0.005535 0.013212 -0.000592 -0.004292 -0.000259
# 4 -0.000980 -0.000275 -0.000592 0.019877 0.002987 -0.001005
# 5 -0.000522 0.001741 -0.004292 0.002987 0.026536 0.000656
# 6 0.003088 0.001783 -0.000259 -0.001005 0.000656 0.022326
#
#
# Mechanical properties :
#
#
# Convention : Reuss Voigt Hill
#
# Bulk Modulus (GPa) = 57.11707 64.85017 60.98362
# Shear Modulus (GPa) = 38.07673 42.35264 40.21469
#
# Velocity S-wave (km/s) = 4.00652 4.22549 4.11746
# Velocity P-wave (km/s) = 6.74403 7.15161 6.95081
#
# Compressibility (1/GPa) = 0.01750790
#
# Stress axis : x y z
#
# Youngs Moduli (GPa) = 88.04341 79.66252 75.68878
#
# Poissons Ratio (x) = 0.34200 -0.00159
# Poissons Ratio (y) = 0.37798 0.41897
# Poissons Ratio (z) = -0.00185 0.44097
#
# Static dielectric constant tensor:
#      x y z
#    x 4.517290 -0.131700 -0.179330 
#    y -0.131700 5.404760 -0.384810 
#    z -0.179330 -0.384810 4.062070 
# 
# 
# High freq. dielectric constant tensor:
#      x y z
#    x 1.950570 -0.021830 0.001710 
#    y -0.021830 1.952220 -0.001690 
#    z 0.001710 -0.001690 1.942950 
# 
# From -- ./inp_files/187130.got.cif
#   From: 2010.06.25/outbox.cif.g09.slc.cpg/sg2_94_cif.got.tgz:187130.got - 2010.06.27 13:26:56.
