data_PCOD8037268
_publ_section_title
;
Structure prediction by ZEFSAII (Michael W. Deem and Ramdas Pophale) SiO2 
 PCOD8037268
Probable space group: P -1
;
_chemical_formula_sum "Si O2"
_cell_formula_units_Z 16
_cell_length_a 17.581646
_cell_length_b 12.800506
_cell_length_c 9.263249
_cell_angle_alpha 132.752723
_cell_angle_beta 120.792954
_cell_angle_gamma 28.692932
_cell_volume 714.026108
_symmetry_space_group_name_H-M "P -1"
_symmetry_group_IT_number 2
_symmetry_cell_setting 'triclinic'
loop_
_space_group_symop_operation_xyz
x,y,z
-x,-y,-z
loop_
_atom_site_type_symbol
_atom_site_label
_atom_site_fract_x
_atom_site_fract_y
_atom_site_fract_z
Si Si1 0.836392 0.283081 0.049783
Si Si2 0.994537 0.846313 0.405354
Si Si3 0.865236 0.727604 0.695210
Si Si4 0.891319 0.446655 0.037068
Si Si5 0.250410 0.422364 0.487530
Si Si6 0.650313 0.253838 0.820867
Si Si7 0.630065 0.231787 0.457421
Si Si8 0.445096 0.972750 0.793661
O O1 0.887572 0.303583 0.980999
O O2 0.740133 0.507250 0.285206
O O3 0.735837 0.286350 0.896858
O O4 0.000000 0.000000 0.000000
O O5 0.089559 0.698502 0.509366
O O6 0.809248 0.048275 0.430952
O O7 0.000000 0.000000 0.500000
O O8 0.083687 0.619499 0.168813
O O9 0.757800 0.736254 0.642489
O O10 0.000000 0.500000 0.500000
O O11 0.958157 0.659859 0.863295
O O12 0.757730 0.996744 0.773134
O O13 0.718210 0.753804 0.187122
O O14 0.413360 0.235530 0.382332
O O15 0.593330 0.267512 0.625884
O O16 0.500000 0.500000 0.000000
O O17 0.500000 0.500000 0.500000
O O18 0.601840 0.112367 0.256049
O O19 0.500000 0.000000 0.000000
#
# Coordination Sequence:
#
# PCOD8037268 Si02
#       8
#     2   2   2   2   2   2   2   2
#     4  12  24  46  75 107 139 186 239 299 362 441
#     4  12  26  47  76 108 145 193 245 300 371 431
#     4  12  25  48  73 109 144 193 242 302 365 443
#     4  12  26  44  77 102 146 188 246 300 363 435
#     4  12  26  46  78 105 148 194 241 301 368 436
#     4  12  28  47  73 108 147 186 244 302 370 431
#     4  12  29  49  75 105 150 191 243 301 364 440
#     4  12  28  48  69 111 147 190 246 300 366 430
#
# _framework density 22.408144
#
# number of rings (size 3 to 8) (size 9 to 14) (size 15 to 20)
#    0.000    0.000    3.750    6.000    7.000    1.500 
#    0.000    0.000    0.000    0.000    0.000    0.000 
#    0.000    0.000    0.000    0.000    0.000    0.000 
#
# Total GULP energy -198471.413055 kJ/mol
# GULP energy per Si atom -12404.463316 kJ/mol
# Density = 2.235714 g / cm^3
# Si number density = 22.408144 Si / 1000 Ang^3
#
#
#
# Elastic Constant Matrix: (Units=GPa)
#
#
# Indices 1 2 3 4 5 6 
#
# 1 128.7472 34.7297 27.7804 13.4630 20.2819 -3.2954
# 2 34.7297 138.5472 24.9226 12.3993 6.9773 -1.4773
# 3 27.7804 24.9226 102.1213 -0.1946 8.0651 -2.0998
# 4 13.4630 12.3993 -0.1946 40.3450 -2.0601 -5.5188
# 5 20.2819 6.9773 8.0651 -2.0601 51.2888 9.7749
# 6 -3.2954 -1.4773 -2.0998 -5.5188 9.7749 36.9035
#
#
#
# Elastic Compliance Matrix: (Units=1/GPa)
#
#
# Indices 1 2 3 4 5 6 
#
# 1 0.009483 -0.001603 -0.001886 -0.002697 -0.003576 0.001219
# 2 -0.001603 0.008084 -0.001521 -0.001989 -0.000282 -0.000129
# 3 -0.001886 -0.001521 0.010761 0.001213 -0.000841 0.000787
# 4 -0.002697 -0.001989 0.001213 0.026841 0.001587 0.003342
# 5 -0.003576 -0.000282 -0.000841 0.001587 0.022298 -0.006047
# 6 0.001219 -0.000129 0.000787 0.003342 -0.006047 0.029348
#
#
# Mechanical properties :
#
#
# Convention : Reuss Voigt Hill
#
# Bulk Modulus (GPa) = 54.62134 60.47568 57.54851
# Shear Modulus (GPa) = 40.67028 44.50632 42.58830
#
# Velocity S-wave (km/s) = 4.26488 4.46148 4.36429
# Velocity P-wave (km/s) = 6.97716 7.32028 7.15078
#
# Compressibility (1/GPa) = 0.01830786
#
# Stress axis : x y z
#
# Youngs Moduli (GPa) = 105.44966 123.69981 92.92450
#
# Poissons Ratio (x) = 0.19835 0.17526
# Poissons Ratio (y) = 0.16908 0.14133
# Poissons Ratio (z) = 0.19889 0.18813
#
# Static dielectric constant tensor:
#      x y z
#    x 4.496380 0.179650 0.082080 
#    y 0.179650 4.224320 -0.094770 
#    z 0.082080 -0.094770 4.412430 
# 
# 
# High freq. dielectric constant tensor:
#      x y z
#    x 1.898650 -0.000290 0.008290 
#    y -0.000290 1.891870 0.002560 
#    z 0.008290 0.002560 1.901270 
# 
# From -- ./inp_files/207812.got.cif
#   From: 2010.06.25/outbox.cif.g09.slc.cpg/sg2_104_cif.got.tgz:207812.got - 2010.06.27 13:26:56.
