data_PCOD8037608
_publ_section_title
;
Structure prediction by ZEFSAII (Michael W. Deem and Ramdas Pophale) SiO2 
 PCOD8037608
Probable space group: P -1
;
_chemical_formula_sum "Si O2"
_cell_formula_units_Z 16
_cell_length_a 14.118225
_cell_length_b 8.880836
_cell_length_c 5.643336
_cell_angle_alpha 105.628935
_cell_angle_beta 91.731069
_cell_angle_gamma 74.858960
_cell_volume 657.140784
_symmetry_space_group_name_H-M "P -1"
_symmetry_group_IT_number 2
_symmetry_cell_setting 'triclinic'
loop_
_space_group_symop_operation_xyz
x,y,z
-x,-y,-z
loop_
_atom_site_type_symbol
_atom_site_label
_atom_site_fract_x
_atom_site_fract_y
_atom_site_fract_z
Si Si1 0.893904 0.981886 0.410142
Si Si2 0.725454 0.193119 0.767654
Si Si3 0.873326 0.255766 0.162207
Si Si4 0.598988 0.361480 0.429123
Si Si5 0.600359 0.052662 0.043382
Si Si6 0.734645 0.709559 0.900545
Si Si7 0.273256 0.450855 0.657788
Si Si8 0.056165 0.320152 0.998533
O O1 0.904968 0.793053 0.274664
O O2 0.802812 0.030869 0.603737
O O3 0.858638 0.103652 0.240317
O O4 0.000000 0.000000 0.500000
O O5 0.671821 0.337106 0.648717
O O6 0.799616 0.275394 0.944522
O O7 0.634756 0.139942 0.858351
O O8 0.836710 0.434039 0.357630
O O9 0.987275 0.228632 0.095500
O O10 0.500000 0.500000 0.500000
O O11 0.582102 0.185045 0.307078
O O12 0.657181 0.425769 0.252553
O O13 0.500000 0.000000 0.000000
O O14 0.688661 0.897349 0.034823
O O15 0.691009 0.658311 0.626276
O O16 0.717214 0.633931 0.121300
O O17 0.850005 0.675683 0.836889
O O18 0.000000 0.500000 0.000000
#
# Coordination Sequence:
#
# PCOD8037608 Si02
#       8
#     2   2   2   2   2   2   2   2
#     4  12  27  45  79 107 155 215 271 320 390 489
#     4  12  25  50  81 110 160 202 275 325 402 480
#     4  12  25  48  74 112 155 212 268 324 393 476
#     4  12  28  50  84 113 148 213 270 336 400 491
#     4  12  30  52  79 114 155 205 265 341 413 483
#     4  12  30  51  77 118 168 211 260 339 405 474
#     4  12  27  51  81 112 162 212 271 326 403 480
#     4  12  27  45  71 116 160 206 261 327 394 464
#
# _framework density 24.347904
#
# number of rings (size 3 to 8) (size 9 to 14) (size 15 to 20)
#    0.000    0.000    5.000    3.375    8.750    1.500 
#    0.000    0.000    0.000    0.000    0.000    0.000 
#    0.000    0.000    0.000    0.000    0.000    0.000 
#
# Total GULP energy -198212.950609 kJ/mol
# GULP energy per Si atom -12388.309413 kJ/mol
# Density = 2.429249 g / cm^3
# Si number density = 24.347904 Si / 1000 Ang^3
#
#
#
# Elastic Constant Matrix: (Units=GPa)
#
#
# Indices 1 2 3 4 5 6 
#
# 1 121.2859 18.7053 24.1247 -16.7475 -8.8080 6.6333
# 2 18.7053 144.2095 46.2536 14.7812 0.6230 -16.4394
# 3 24.1247 46.2536 105.5272 -3.6586 1.5406 3.4499
# 4 -16.7475 14.7812 -3.6586 37.5928 3.0405 -5.6779
# 5 -8.8080 0.6230 1.5406 3.0405 38.9036 1.4929
# 6 6.6333 -16.4394 3.4499 -5.6779 1.4929 52.5966
#
#
#
# Elastic Compliance Matrix: (Units=1/GPa)
#
#
# Indices 1 2 3 4 5 6 
#
# 1 0.009537 -0.001358 -0.001427 0.004317 0.001943 -0.001123
# 2 -0.001358 0.009115 -0.003919 -0.004136 -0.000084 0.002833
# 3 -0.001427 -0.003919 0.011649 0.001865 -0.000807 -0.001585
# 4 0.004317 -0.004136 0.001865 0.030662 -0.001480 0.001393
# 5 0.001943 -0.000084 -0.000807 -0.001480 0.026337 -0.001126
# 6 -0.001123 0.002833 -0.001585 0.001393 -0.001126 0.020326
#
#
# Mechanical properties :
#
#
# Convention : Reuss Voigt Hill
#
# Bulk Modulus (GPa) = 59.20218 61.02109 60.11164
# Shear Modulus (GPa) = 39.47436 44.61451 42.04444
#
# Velocity S-wave (km/s) = 4.03086 4.28527 4.16001
# Velocity P-wave (km/s) = 6.78466 7.04282 6.91495
#
# Compressibility (1/GPa) = 0.01689127
#
# Stress axis : x y z
#
# Youngs Moduli (GPa) = 104.85556 109.71050 85.84724
#
# Poissons Ratio (x) = 0.14902 0.12249
# Poissons Ratio (y) = 0.14242 0.33647
# Poissons Ratio (z) = 0.14962 0.43000
#
# Static dielectric constant tensor:
#      x y z
#    x 4.477080 -0.188500 -0.411120 
#    y -0.188500 4.751710 0.563100 
#    z -0.411120 0.563100 5.054770 
# 
# 
# High freq. dielectric constant tensor:
#      x y z
#    x 1.977440 -0.001940 -0.012050 
#    y -0.001940 1.985840 0.015090 
#    z -0.012050 0.015090 1.959140 
# 
# From -- ./inp_files/90735.got.cif
#   From: 2010.06.25/outbox.cif.g09.slc.cpg/sg2_46_cif.got.tgz:90735.got - 2010.06.27 13:26:56.
