data_PCOD8037710
_publ_section_title
;
Structure prediction by ZEFSAII (Michael W. Deem and Ramdas Pophale) SiO2 
 PCOD8037710
Probable space group: P -1
;
_chemical_formula_sum "Si O2"
_cell_formula_units_Z 14
_cell_length_a 10.843726
_cell_length_b 12.794997
_cell_length_c 6.680873
_cell_angle_alpha 132.535666
_cell_angle_beta 107.620944
_cell_angle_gamma 65.084031
_cell_volume 619.228784
_symmetry_space_group_name_H-M "P -1"
_symmetry_group_IT_number 2
_symmetry_cell_setting 'triclinic'
loop_
_space_group_symop_operation_xyz
x,y,z
-x,-y,-z
loop_
_atom_site_type_symbol
_atom_site_label
_atom_site_fract_x
_atom_site_fract_y
_atom_site_fract_z
Si Si1 0.238088 0.423896 0.015000
Si Si2 0.919984 0.415354 0.484698
Si Si3 0.717131 0.366651 0.019667
Si Si4 0.360562 0.965884 0.935593
Si Si5 0.484225 0.655069 0.803105
Si Si6 0.843801 0.043255 0.530872
Si Si7 0.834988 0.822642 0.585218
O O1 0.117560 0.509230 0.217449
O O2 0.367501 0.322979 0.073006
O O3 0.296629 0.533900 0.055419
O O4 0.185804 0.324995 0.709195
O O5 0.781024 0.425207 0.317661
O O6 0.000000 0.500000 0.500000
O O7 0.014072 0.242007 0.327951
O O8 0.574296 0.353799 0.013326
O O9 0.815106 0.209181 0.801826
O O10 0.389863 0.800395 0.828840
O O11 0.261072 0.973088 0.710333
O O12 0.500000 0.000000 0.000000
O O13 0.280787 0.100808 0.214191
O O14 0.500000 0.500000 0.500000
O O15 0.826528 0.943609 0.573740
O O16 0.000000 0.000000 0.500000
#
# Coordination Sequence:
#
# PCOD8037710 Si02
#       7
#     2   2   2   2   2   2   2
#     4  12  27  46  76 106 146 196 245 298 369 441
#     4  12  27  47  76 110 148 191 248 300 364 442
#     4  12  26  47  74 109 144 190 245 307 366 430
#     4  12  30  50  74 109 153 196 245 304 372 439
#     4  12  26  48  75 106 147 191 247 305 366 434
#     4  12  28  47  76 107 149 192 245 307 371 431
#     4  12  28  47  75 107 148 194 245 299 368 444
#
# _framework density 22.608767
#
# number of rings (size 3 to 8) (size 9 to 14) (size 15 to 20)
#    0.000    0.000    4.286    4.286   12.000    2.286 
#    0.000    0.000    0.000    0.000    0.000    0.000 
#    0.000    0.000    0.000    0.000    0.000    0.000 
#
# Total GULP energy -173596.961725 kJ/mol
# GULP energy per Si atom -12399.782980 kJ/mol
# Density = 2.255731 g / cm^3
# Si number density = 22.608767 Si / 1000 Ang^3
#
#
#
# Elastic Constant Matrix: (Units=GPa)
#
#
# Indices 1 2 3 4 5 6 
#
# 1 121.9887 40.4764 32.9223 -8.4888 -23.0984 -3.7335
# 2 40.4764 152.2225 25.5146 -3.1245 -25.7054 7.9871
# 3 32.9223 25.5146 107.6294 3.7550 -23.2326 -4.2106
# 4 -8.4888 -3.1245 3.7550 39.6800 -6.9407 -2.1644
# 5 -23.0984 -25.7054 -23.2326 -6.9407 52.9337 -5.9280
# 6 -3.7335 7.9871 -4.2106 -2.1644 -5.9280 47.0448
#
#
#
# Elastic Compliance Matrix: (Units=1/GPa)
#
#
# Indices 1 2 3 4 5 6 
#
# 1 0.010214 -0.001852 -0.002035 0.002873 0.003207 0.001479
# 2 -0.001852 0.007697 -0.000778 0.000665 0.002544 -0.001172
# 3 -0.002035 -0.000778 0.010955 -0.000832 0.003586 0.001365
# 4 0.002873 0.000665 -0.000832 0.026918 0.004954 0.001903
# 5 0.003207 0.002544 0.003586 0.004954 0.024132 0.003412
# 6 0.001479 -0.001172 0.001365 0.001903 0.003412 0.022212
#
#
# Mechanical properties :
#
#
# Convention : Reuss Voigt Hill
#
# Bulk Modulus (GPa) = 51.19139 64.40747 57.79943
# Shear Modulus (GPa) = 42.38398 46.79354 44.58876
#
# Velocity S-wave (km/s) = 4.33444 4.55434 4.44575
# Velocity P-wave (km/s) = 6.90951 7.49705 7.20926
#
# Compressibility (1/GPa) = 0.01953454
#
# Stress axis : x y z
#
# Youngs Moduli (GPa) = 97.90839 129.92253 91.28578
#
# Poissons Ratio (x) = 0.24059 0.18581
# Poissons Ratio (y) = 0.18131 0.07103
# Poissons Ratio (z) = 0.19929 0.10109
#
# Static dielectric constant tensor:
#      x y z
#    x 4.268180 -0.120350 -0.101060 
#    y -0.120350 4.032310 0.086700 
#    z -0.101060 0.086700 4.136360 
# 
# 
# High freq. dielectric constant tensor:
#      x y z
#    x 1.909440 -0.007600 -0.009250 
#    y -0.007600 1.909980 -0.001520 
#    z -0.009250 -0.001520 1.898060 
# 
# From -- ./inp_files/69437.got.cif
#   From: 2010.06.25/outbox.cif.g09.slc.cpg/sg2_35_cif.got.tgz:69437.got - 2010.06.27 13:26:56.
