data_PCOD8037173
_publ_section_title
;
Structure prediction by ZEFSAII (Michael W. Deem and Ramdas Pophale) SiO2 
 PCOD8037173
Probable space group: P -1
;
_chemical_formula_sum "Si O2"
_cell_formula_units_Z 16
_cell_length_a 8.930685
_cell_length_b 6.958413
_cell_length_c 18.746489
_cell_angle_alpha 49.203312
_cell_angle_beta 54.155975
_cell_angle_gamma 65.304413
_cell_volume 713.720969
_symmetry_space_group_name_H-M "P -1"
_symmetry_group_IT_number 2
_symmetry_cell_setting 'triclinic'
loop_
_space_group_symop_operation_xyz
x,y,z
-x,-y,-z
loop_
_atom_site_type_symbol
_atom_site_label
_atom_site_fract_x
_atom_site_fract_y
_atom_site_fract_z
Si Si1 0.604886 0.460946 0.053588
Si Si2 0.119878 0.007651 0.896108
Si Si3 0.124397 0.096032 0.145955
Si Si4 0.362337 0.427578 0.721515
Si Si5 0.172213 0.129908 0.454211
Si Si6 0.524612 0.780722 0.402074
Si Si7 0.357233 0.581759 0.227571
Si Si8 0.187205 0.964572 0.645500
O O1 0.697793 0.179354 0.102832
O O2 0.448285 0.485303 0.152051
O O3 0.500000 0.500000 0.000000
O O4 0.765419 0.659073 0.964539
O O5 0.011065 0.947173 0.870520
O O6 0.167850 0.301844 0.814015
O O7 0.000000 0.000000 0.000000
O O8 0.001886 0.129809 0.244269
O O9 0.270905 0.862175 0.172025
O O10 0.468467 0.245879 0.678360
O O11 0.475855 0.414164 0.765185
O O12 0.318805 0.722697 0.640744
O O13 0.196160 0.407007 0.345389
O O14 0.358136 0.970086 0.423747
O O15 0.145830 0.143003 0.544373
O O16 0.000000 0.000000 0.500000
O O17 0.500000 0.500000 0.500000
O O18 0.712357 0.876228 0.360736
#
# Coordination Sequence:
#
# PCOD8037173 Si02
#       8
#     2   2   2   2   2   2   2   2
#     4  12  26  49  76 105 151 193 244 306 371 439
#     4  12  24  44  75 108 142 188 244 300 368 433
#     4  12  27  45  74 110 148 187 246 305 365 439
#     4  12  24  46  75 102 148 192 237 299 366 437
#     4  12  29  45  74 108 151 194 245 304 358 437
#     4  12  24  47  74 102 142 197 244 292 369 425
#     4  12  27  47  70 107 149 193 246 298 370 435
#     4  12  26  49  71 111 148 193 247 301 362 439
#
# _framework density 22.417725999999998
#
# number of rings (size 3 to 8) (size 9 to 14) (size 15 to 20)
#    0.000    0.000    3.750    6.375    7.000    0.500 
#    0.000    0.000    0.000    0.000    0.000    0.000 
#    0.000    0.000    0.000    0.000    0.000    0.000 
#
# Total GULP energy -198405.885797 kJ/mol
# GULP energy per Si atom -12400.367862 kJ/mol
# Density = 2.236670 g / cm^3
# Si number density = 22.417726 Si / 1000 Ang^3
#
#
#
# Elastic Constant Matrix: (Units=GPa)
#
#
# Indices 1 2 3 4 5 6 
#
# 1 103.6556 14.5359 25.3072 1.8692 5.6094 23.3981
# 2 14.5359 81.1890 27.9695 3.7426 3.5432 8.1804
# 3 25.3072 27.9695 130.0683 9.0792 1.0817 16.8262
# 4 1.8692 3.7426 9.0792 56.0477 7.0920 0.0227
# 5 5.6094 3.5432 1.0817 7.0920 38.3926 -1.1946
# 6 23.3981 8.1804 16.8262 0.0227 -1.1946 47.0436
#
#
#
# Elastic Compliance Matrix: (Units=1/GPa)
#
#
# Indices 1 2 3 4 5 6 
#
# 1 0.011339 -0.000994 -0.001336 0.000123 -0.001707 -0.005032
# 2 -0.000994 0.013533 -0.002560 -0.000329 -0.001001 -0.000968
# 3 -0.001336 -0.002560 0.008848 -0.001262 0.000352 -0.002046
# 4 0.000123 -0.000329 -0.001262 0.018489 -0.003356 0.000353
# 5 -0.001707 -0.001001 0.000352 -0.003356 0.027048 0.001586
# 6 -0.005032 -0.000968 -0.002046 0.000353 0.001586 0.024700
#
#
# Mechanical properties :
#
#
# Convention : Reuss Voigt Hill
#
# Bulk Modulus (GPa) = 41.76984 50.05977 45.91481
# Shear Modulus (GPa) = 41.07866 44.77013 42.92439
#
# Velocity S-wave (km/s) = 4.28532 4.47373 4.38054
# Velocity P-wave (km/s) = 6.56949 7.00461 6.79054
#
# Compressibility (1/GPa) = 0.02394072
#
# Stress axis : x y z
#
# Youngs Moduli (GPa) = 88.19144 73.89171 113.01363
#
# Poissons Ratio (x) = 0.07345 0.15096
# Poissons Ratio (y) = 0.08767 0.28934
# Poissons Ratio (z) = 0.11781 0.18918
#
# Static dielectric constant tensor:
#      x y z
#    x 4.662420 0.905670 1.909070 
#    y 0.905670 5.826890 3.436890 
#    z 1.909070 3.436890 11.926670 
# 
# 
# High freq. dielectric constant tensor:
#      x y z
#    x 1.886170 0.006500 0.001360 
#    y 0.006500 1.893050 0.000240 
#    z 0.001360 0.000240 1.911430 
# 
# From -- ./inp_files/107329.got.cif
#   From: 2010.06.25/outbox.cif.g09.slc.cpg/sg2_54_cif.got.tgz:107329.got - 2010.06.27 13:26:56.
