data_PCOD8037545
_publ_section_title
;
Structure prediction by ZEFSAII (Michael W. Deem and Ramdas Pophale) SiO2 
 PCOD8037545
Probable space group: P -1
;
_chemical_formula_sum "Si O2"
_cell_formula_units_Z 12
_cell_length_a 12.679276
_cell_length_b 10.620826
_cell_length_c 5.018642
_cell_angle_alpha 85.379958
_cell_angle_beta 105.484071
_cell_angle_gamma 51.765897
_cell_volume 483.876555
_symmetry_space_group_name_H-M "P -1"
_symmetry_group_IT_number 2
_symmetry_cell_setting 'triclinic'
loop_
_space_group_symop_operation_xyz
x,y,z
-x,-y,-z
loop_
_atom_site_type_symbol
_atom_site_label
_atom_site_fract_x
_atom_site_fract_y
_atom_site_fract_z
Si Si1 0.829563 0.656360 0.879105
Si Si2 0.789954 0.850581 0.316235
Si Si3 0.672842 0.311127 0.590171
Si Si4 0.588001 0.231186 0.036211
Si Si5 0.933951 0.185102 0.497957
Si Si6 0.695282 0.505405 0.934084
O O1 0.784260 0.795030 0.612104
O O2 0.745975 0.588627 0.789131
O O3 0.782754 0.742827 0.121067
O O4 0.000000 0.500000 0.000000
O O5 0.935335 0.818626 0.356823
O O6 0.646352 0.048783 0.182301
O O7 0.641372 0.300354 0.263649
O O8 0.841721 0.232698 0.700115
O O9 0.597339 0.492136 0.658967
O O10 0.651590 0.208440 0.788128
O O11 0.411250 0.369688 0.915798
O O12 0.832220 0.323356 0.174561
O O13 0.000000 0.000000 0.500000
#
# Coordination Sequence:
#
# PCOD8037545 Si02
#       6
#     2   2   2   2   2   2
#     4  12  27  48  75 103 145 191 240 297 347 427
#     4  12  27  48  72 107 144 186 243 294 354 421
#     4  12  25  47  72 108 145 187 235 299 360 421
#     4  12  28  46  74 107 148 187 237 301 359 422
#     4  12  26  45  76 109 140 187 239 297 361 423
#     4  12  28  45  76 105 146 194 240 288 365 427
#
# _framework density 24.799714000000002
#
# number of rings (size 3 to 8) (size 9 to 14) (size 15 to 20)
#    0.000    0.000    5.000    3.500    4.667    2.667 
#    0.000    0.000    0.000    0.000    0.000    0.000 
#    0.000    0.000    0.000    0.000    0.000    0.000 
#
# Total GULP energy -148797.188857 kJ/mol
# GULP energy per Si atom -12399.765738 kJ/mol
# Density = 2.474327 g / cm^3
# Si number density = 24.799714 Si / 1000 Ang^3
#
#
#
# Elastic Constant Matrix: (Units=GPa)
#
#
# Indices 1 2 3 4 5 6 
#
# 1 73.1055 11.9380 21.3796 -10.3845 -24.8306 14.0018
# 2 11.9380 115.1037 21.5038 -15.6219 8.2600 0.8649
# 3 21.3796 21.5038 90.0773 -10.2818 -10.8915 -1.5561
# 4 -10.3845 -15.6219 -10.2818 49.7961 3.7437 -1.5221
# 5 -24.8306 8.2600 -10.8915 3.7437 42.1143 4.4607
# 6 14.0018 0.8649 -1.5561 -1.5221 4.4607 41.8055
#
#
#
# Elastic Compliance Matrix: (Units=1/GPa)
#
#
# Indices 1 2 3 4 5 6 
#
# 1 0.021153 -0.002269 -0.002849 0.001882 0.012908 -0.008453
# 2 -0.002269 0.009940 -0.002025 0.002570 -0.004147 0.001015
# 3 -0.002849 -0.002025 0.012641 0.001291 0.001731 0.001329
# 4 0.001882 0.002570 0.001291 0.021631 -0.001011 0.000260
# 5 0.012908 -0.004147 0.001731 -0.001011 0.033531 -0.007788
# 6 -0.008453 0.001015 0.001329 0.000260 -0.007788 0.027620
#
#
# Mechanical properties :
#
#
# Convention : Reuss Voigt Hill
#
# Bulk Modulus (GPa) = 33.95852 43.10324 38.53088
# Shear Modulus (GPa) = 33.19622 41.64086 37.41854
#
# Velocity S-wave (km/s) = 3.66262 4.10211 3.88858
# Velocity P-wave (km/s) = 5.62221 6.31306 5.97762
#
# Compressibility (1/GPa) = 0.02944769
#
# Stress axis : x y z
#
# Youngs Moduli (GPa) = 47.27403 100.60143 79.10822
#
# Poissons Ratio (x) = 0.22825 0.22541
# Poissons Ratio (y) = 0.10726 0.16020
# Poissons Ratio (z) = 0.13470 0.20372
#
# Static dielectric constant tensor:
#      x y z
#    x 6.665480 -0.391940 -1.387850 
#    y -0.391940 4.696800 0.224820 
#    z -1.387850 0.224820 5.265950 
# 
# 
# High freq. dielectric constant tensor:
#      x y z
#    x 2.005330 -0.008630 -0.014810 
#    y -0.008630 2.000850 0.000730 
#    z -0.014810 0.000730 1.984260 
# 
# From -- ./inp_files/60234.got.cif
#   From: 2010.06.25/outbox.cif.g09.slc.cpg/sg2_31_cif.got.tgz:60234.got - 2010.06.27 13:26:56.
