data_PCOD8037685
_publ_section_title
;
Structure prediction by ZEFSAII (Michael W. Deem and Ramdas Pophale) SiO2 
 PCOD8037685
Probable space group: P -1
;
_chemical_formula_sum "Si O2"
_cell_formula_units_Z 16
_cell_length_a 20.332345
_cell_length_b 9.258889
_cell_length_c 9.187493
_cell_angle_alpha 149.366557
_cell_angle_beta 127.520485
_cell_angle_gamma 52.737392
_cell_volume 684.659818
_symmetry_space_group_name_H-M "P -1"
_symmetry_group_IT_number 2
_symmetry_cell_setting 'triclinic'
loop_
_space_group_symop_operation_xyz
x,y,z
-x,-y,-z
loop_
_atom_site_type_symbol
_atom_site_label
_atom_site_fract_x
_atom_site_fract_y
_atom_site_fract_z
Si Si1 0.752400 0.407066 0.742017
Si Si2 0.392456 0.387114 0.489328
Si Si3 0.137807 0.141720 0.711711
Si Si4 0.289305 0.148073 0.379335
Si Si5 0.889621 0.888724 0.021499
Si Si6 0.504217 0.132293 0.962495
Si Si7 0.982258 0.368445 0.515505
Si Si8 0.674929 0.472634 0.004170
O O1 0.674288 0.603427 0.723044
O O2 0.724816 0.362615 0.830055
O O3 0.780868 0.099971 0.434216
O O4 0.833270 0.554250 0.976614
O O5 0.350366 0.318926 0.523100
O O6 0.474732 0.137217 0.352903
O O7 0.420368 0.693499 0.799971
O O8 0.065830 0.155029 0.503923
O O9 0.101934 0.077164 0.764439
O O10 0.203411 0.150712 0.179784
O O11 0.335889 0.816747 0.177480
O O12 0.270836 0.330928 0.662694
O O13 0.956220 0.615867 0.815348
O O14 0.909667 0.181238 0.231663
O O15 0.416486 0.333580 0.977826
O O16 0.500000 0.000000 0.000000
O O17 0.000000 0.500000 0.500000
#
# Coordination Sequence:
#
# PCOD8037685 Si02
#       8
#     2   2   2   2   2   2   2   2
#     4  12  26  45  75 108 139 191 247 294 350 430
#     4  12  26  47  75 104 145 188 249 296 357 434
#     4  12  26  47  76 106 143 192 239 291 356 429
#     4  12  28  47  73 109 145 191 238 305 362 423
#     4  12  26  50  74 103 148 191 234 290 360 432
#     4  12  26  46  74 105 144 194 240 302 362 426
#     4  12  28  47  73 111 146 185 236 295 360 425
#     4  12  28  46  72 108 148 190 242 301 368 423
#
# _framework density 23.36927
#
# number of rings (size 3 to 8) (size 9 to 14) (size 15 to 20)
#    0.000    0.000    2.500    6.750    8.750    3.000 
#    0.000    0.000    0.000    0.000    0.000    0.000 
#    0.000    0.000    0.000    0.000    0.000    0.000 
#
# Total GULP energy -198536.824396 kJ/mol
# GULP energy per Si atom -12408.551525 kJ/mol
# Density = 2.331608 g / cm^3
# Si number density = 23.369270 Si / 1000 Ang^3
#
#
#
# Elastic Constant Matrix: (Units=GPa)
#
#
# Indices 1 2 3 4 5 6 
#
# 1 110.0724 50.9337 29.5983 4.5795 -5.1385 11.4412
# 2 50.9337 126.3567 36.9395 7.3275 -0.8062 8.6611
# 3 29.5983 36.9395 112.1969 10.7628 -7.4673 5.3213
# 4 4.5795 7.3275 10.7628 36.4024 2.9095 -0.1388
# 5 -5.1385 -0.8062 -7.4673 2.9095 50.7230 10.4989
# 6 11.4412 8.6611 5.3213 -0.1388 10.4989 29.7227
#
#
#
# Elastic Compliance Matrix: (Units=1/GPa)
#
#
# Indices 1 2 3 4 5 6 
#
# 1 0.011837 -0.004056 -0.001459 -0.000392 0.001712 -0.003720
# 2 -0.004056 0.010311 -0.002217 -0.000887 -0.000329 -0.000934
# 3 -0.001459 -0.002217 0.010458 -0.002609 0.001776 -0.001304
# 4 -0.000392 -0.000887 -0.002609 0.028675 -0.002473 0.001884
# 5 0.001712 -0.000329 0.001776 -0.002473 0.022086 -0.008694
# 6 -0.003720 -0.000934 -0.001304 0.001884 -0.008694 0.038662
#
#
# Mechanical properties :
#
#
# Convention : Reuss Voigt Hill
#
# Bulk Modulus (GPa) = 58.34035 64.84099 61.59067
# Shear Modulus (GPa) = 34.91440 38.77993 36.84716
#
# Velocity S-wave (km/s) = 3.86946 4.07804 3.97512
# Velocity P-wave (km/s) = 6.70689 7.06968 6.89068
#
# Compressibility (1/GPa) = 0.01714080
#
# Stress axis : x y z
#
# Youngs Moduli (GPa) = 84.47957 96.98693 95.61902
#
# Poissons Ratio (x) = 0.39340 0.13953
# Poissons Ratio (y) = 0.34267 0.21200
# Poissons Ratio (z) = 0.12328 0.21503
#
# Static dielectric constant tensor:
#      x y z
#    x 4.439690 -0.387050 -0.129580 
#    y -0.387050 5.179280 0.335190 
#    z -0.129580 0.335190 4.385180 
# 
# 
# High freq. dielectric constant tensor:
#      x y z
#    x 1.932490 0.003460 0.000070 
#    y 0.003460 1.932160 0.007070 
#    z 0.000070 0.007070 1.939860 
# 
# From -- ./inp_files/343999.got.cif
#   From: 2010.06.25/outbox.cif.g09.slc.cpg/sg2_172_cif.got.tgz:343999.got - 2010.06.27 13:26:56.
