data_PCOD8037338
_publ_section_title
;
Structure prediction by ZEFSAII (Michael W. Deem and Ramdas Pophale) SiO2 
 PCOD8037338
Probable space group: P -1
;
_chemical_formula_sum "Si O2"
_cell_formula_units_Z 14
_cell_length_a 8.743976
_cell_length_b 14.706767
_cell_length_c 13.947291
_cell_angle_alpha 149.916309
_cell_angle_beta 126.636031
_cell_angle_gamma 74.728760
_cell_volume 560.917309
_symmetry_space_group_name_H-M "P -1"
_symmetry_group_IT_number 2
_symmetry_cell_setting 'triclinic'
loop_
_space_group_symop_operation_xyz
x,y,z
-x,-y,-z
loop_
_atom_site_type_symbol
_atom_site_label
_atom_site_fract_x
_atom_site_fract_y
_atom_site_fract_z
Si Si1 0.126874 0.187865 0.459340
Si Si2 0.301634 0.934479 0.944093
Si Si3 0.376947 0.406814 0.074693
Si Si4 0.976580 0.633475 0.232361
Si Si5 0.881093 0.236007 0.935088
Si Si6 0.408385 0.564484 0.439976
Si Si7 0.497461 0.923129 0.186816
O O1 0.401385 0.360599 0.682842
O O2 0.097882 0.282098 0.630905
O O3 0.068827 0.943105 0.238878
O O4 0.957558 0.175611 0.301259
O O5 0.312236 0.794274 0.907251
O O6 0.392896 0.160108 0.246331
O O7 0.500000 0.000000 0.000000
O O8 0.387844 0.436509 0.219141
O O9 0.126590 0.345312 0.885367
O O10 0.378527 0.195945 0.857529
O O11 0.846256 0.356336 0.943146
O O12 0.275203 0.798148 0.488230
O O13 0.657809 0.113154 0.812354
O O14 0.137660 0.468942 0.286533
O O15 0.500000 0.500000 0.500000
#
# Coordination Sequence:
#
# PCOD8037338 Si02
#       7
#     2   2   2   2   2   2   2
#     4  12  26  49  80 115 154 199 256 318 381 456
#     4  12  24  47  79 110 154 197 256 319 383 449
#     4  12  29  50  78 111 156 210 249 317 382 455
#     4  12  27  57  74 110 162 201 258 312 379 456
#     4  12  27  48  79 116 150 203 255 317 379 454
#     4  12  25  49  73 110 155 196 254 315 382 448
#     4  12  26  48  80 113 152 206 255 316 387 450
#
# _framework density 24.959116000000002
#
# number of rings (size 3 to 8) (size 9 to 14) (size 15 to 20)
#    0.000    0.000    5.714    3.429    2.000    2.857 
#    2.571    0.000    0.000    0.000    0.000    0.000 
#    0.000    0.000    0.000    0.000    0.000    0.000 
#
# Total GULP energy -173559.015312 kJ/mol
# GULP energy per Si atom -12397.072522 kJ/mol
# Density = 2.490231 g / cm^3
# Si number density = 24.959116 Si / 1000 Ang^3
#
#
#
# Elastic Constant Matrix: (Units=GPa)
#
#
# Indices 1 2 3 4 5 6 
#
# 1 112.0211 21.7767 26.1076 -0.3569 8.5378 9.5901
# 2 21.7767 130.8224 23.6413 -4.7172 -8.5416 -6.7234
# 3 26.1076 23.6413 73.0580 -1.2212 5.4571 13.7720
# 4 -0.3569 -4.7172 -1.2212 51.9973 1.6311 2.3419
# 5 8.5378 -8.5416 5.4571 1.6311 34.4153 5.0665
# 6 9.5901 -6.7234 13.7720 2.3419 5.0665 33.9679
#
#
#
# Elastic Compliance Matrix: (Units=1/GPa)
#
#
# Indices 1 2 3 4 5 6 
#
# 1 0.010145 -0.001439 -0.002667 0.000024 -0.002196 -0.001742
# 2 -0.001439 0.008776 -0.003069 0.000500 0.002561 0.002971
# 3 -0.002667 -0.003069 0.017006 0.000454 -0.001861 -0.006503
# 4 0.000024 0.000500 0.000454 0.019369 -0.000677 -0.001326
# 5 -0.002196 0.002561 -0.001861 -0.000677 0.030960 -0.002690
# 6 -0.001742 0.002971 -0.006503 -0.001326 -0.002690 0.033649
#
#
# Mechanical properties :
#
#
# Convention : Reuss Voigt Hill
#
# Bulk Modulus (GPa) = 46.34312 50.99474 48.66893
# Shear Modulus (GPa) = 35.34914 40.36782 37.85848
#
# Velocity S-wave (km/s) = 3.76743 4.02600 3.89886
# Velocity P-wave (km/s) = 6.12639 6.48747 6.30951
#
# Compressibility (1/GPa) = 0.02157818
#
# Stress axis : x y z
#
# Youngs Moduli (GPa) = 98.57397 113.94844 58.80177
#
# Poissons Ratio (x) = 0.16394 0.15682
# Poissons Ratio (y) = 0.14182 0.18044
# Poissons Ratio (z) = 0.26289 0.34967
#
# Static dielectric constant tensor:
#      x y z
#    x 4.833600 -0.647350 -0.064950 
#    y -0.647350 5.407530 0.269660 
#    z -0.064950 0.269660 4.756050 
# 
# 
# High freq. dielectric constant tensor:
#      x y z
#    x 1.996370 -0.009510 0.004930 
#    y -0.009510 2.020480 0.002350 
#    z 0.004930 0.002350 1.991850 
# 
# From -- ./inp_files/505977.got.cif
#   From: 2010.06.25/outbox.cif.g09.slc.cpg/sg2_253_cif.got.tgz:505977.got - 2010.06.27 13:26:56.
