data_PCOD8037423
_publ_section_title
;
Structure prediction by ZEFSAII (Michael W. Deem and Ramdas Pophale) SiO2 
 PCOD8037423
Probable space group: P -1
;
_chemical_formula_sum "Si O2"
_cell_formula_units_Z 14
_cell_length_a 8.509854
_cell_length_b 10.676857
_cell_length_c 11.505595
_cell_angle_alpha 73.744520
_cell_angle_beta 140.836143
_cell_angle_gamma 90.845352
_cell_volume 597.491689
_symmetry_space_group_name_H-M "P -1"
_symmetry_group_IT_number 2
_symmetry_cell_setting 'triclinic'
loop_
_space_group_symop_operation_xyz
x,y,z
-x,-y,-z
loop_
_atom_site_type_symbol
_atom_site_label
_atom_site_fract_x
_atom_site_fract_y
_atom_site_fract_z
Si Si1 0.240365 0.045591 0.416723
Si Si2 0.230334 0.337873 0.344253
Si Si3 0.384340 0.822468 0.738518
Si Si4 0.688994 0.090809 0.073435
Si Si5 0.988661 0.646880 0.144543
Si Si6 0.569284 0.328583 0.763500
Si Si7 0.668952 0.363468 0.432807
O O1 0.114857 0.212773 0.306857
O O2 0.993839 0.002832 0.234039
O O3 0.500000 0.000000 0.500000
O O4 0.325717 0.973663 0.608896
O O5 0.000610 0.486526 0.184751
O O6 0.423062 0.310358 0.569928
O O7 0.406811 0.333989 0.332859
O O8 0.270309 0.844192 0.796639
O O9 0.239427 0.733204 0.603756
O O10 0.695006 0.747462 0.944802
O O11 0.561351 0.211149 0.877829
O O12 0.500000 0.000000 0.000000
O O13 0.139098 0.679210 0.109597
O O14 0.111515 0.672241 0.331195
O O15 0.412458 0.476503 0.693481
#
# Coordination Sequence:
#
# PCOD8037423 Si02
#       7
#     2   2   2   2   2   2   2
#     4  12  25  45  73 102 131 185 241 286 332 413
#     4   9  19  42  70 102 134 173 238 294 332 397
#     4  12  25  41  69 102 142 179 225 287 353 408
#     4  12  29  46  65 100 150 188 224 281 360 416
#     4   9  21  42  73 102 136 178 231 292 339 406
#     4   9  20  42  69  98 137 186 229 279 341 415
#     4   9  20  40  69 106 136 172 234 290 340 403
#
# _framework density 23.431289
#
# number of rings (size 3 to 8) (size 9 to 14) (size 15 to 20)
#    0.000    1.714    1.429    3.857    4.000    1.714 
#    0.000    5.000    0.000    0.000    0.000    0.000 
#    0.000    0.000    0.000    0.000    0.000    0.000 
#
# Total GULP energy -173543.812230 kJ/mol
# GULP energy per Si atom -12395.986588 kJ/mol
# Density = 2.337796 g / cm^3
# Si number density = 23.431289 Si / 1000 Ang^3
#
#
#
# Elastic Constant Matrix: (Units=GPa)
#
#
# Indices 1 2 3 4 5 6 
#
# 1 83.8586 43.6354 31.0270 -6.2322 -9.4502 13.5055
# 2 43.6354 119.8803 37.9654 -8.6763 2.8502 13.0792
# 3 31.0270 37.9654 91.1419 -22.4138 5.2448 24.0712
# 4 -6.2322 -8.6763 -22.4138 33.8247 11.3632 -15.8478
# 5 -9.4502 2.8502 5.2448 11.3632 37.1500 7.2506
# 6 13.5055 13.0792 24.0712 -15.8478 7.2506 38.3710
#
#
#
# Elastic Compliance Matrix: (Units=1/GPa)
#
#
# Indices 1 2 3 4 5 6 
#
# 1 0.017697 -0.005053 -0.004481 -0.006883 0.008839 -0.006208
# 2 -0.005053 0.011091 -0.002627 0.001187 -0.002238 0.000559
# 3 -0.004481 -0.002627 0.017321 0.010713 -0.006111 -0.002814
# 4 -0.006883 0.001187 0.010713 0.054342 -0.024336 0.022340
# 5 0.008839 -0.002238 -0.006111 -0.024336 0.040822 -0.016280
# 6 -0.006208 0.000559 -0.002814 0.022340 -0.016280 0.042124
#
#
# Mechanical properties :
#
#
# Convention : Reuss Voigt Hill
#
# Bulk Modulus (GPa) = 45.90032 57.79294 51.84663
# Shear Modulus (GPa) = 23.25784 34.01932 28.63858
#
# Velocity S-wave (km/s) = 3.15397 3.81448 3.49984
# Velocity P-wave (km/s) = 5.73544 6.64220 6.20540
#
# Compressibility (1/GPa) = 0.02178634
#
# Stress axis : x y z
#
# Youngs Moduli (GPa) = 56.50785 90.16334 57.73347
#
# Poissons Ratio (x) = 0.45562 0.25871
# Poissons Ratio (y) = 0.28555 0.15165
# Poissons Ratio (z) = 0.25322 0.23683
#
# Static dielectric constant tensor:
#      x y z
#    x 4.267270 0.126950 -0.143480 
#    y 0.126950 4.574500 -0.101700 
#    z -0.143480 -0.101700 4.254540 
# 
# 
# High freq. dielectric constant tensor:
#      x y z
#    x 1.910340 0.004220 -0.007320 
#    y 0.004220 1.927640 -0.005230 
#    z -0.007320 -0.005230 1.943670 
# 
# From -- ./inp_files/389857.got.cif
#   From: 2010.06.25/outbox.cif.g09.slc.cpg/sg2_195_cif.got.tgz:389857.got - 2010.06.27 13:26:56.
