data_PCOD8037044
_publ_section_title
;
Structure prediction by ZEFSAII (Michael W. Deem and Ramdas Pophale) SiO2 
 PCOD8037044
Probable space group: P -1
;
_chemical_formula_sum "Si O2"
_cell_formula_units_Z 16
_cell_length_a 8.885956
_cell_length_b 24.906965
_cell_length_c 24.722688
_cell_angle_alpha 11.317572
_cell_angle_beta 140.168371
_cell_angle_gamma 139.976409
_cell_volume 684.239795
_symmetry_space_group_name_H-M "P -1"
_symmetry_group_IT_number 2
_symmetry_cell_setting 'triclinic'
loop_
_space_group_symop_operation_xyz
x,y,z
-x,-y,-z
loop_
_atom_site_type_symbol
_atom_site_label
_atom_site_fract_x
_atom_site_fract_y
_atom_site_fract_z
Si Si1 0.458809 0.148675 0.572798
Si Si2 0.012091 0.200903 0.464339
Si Si3 0.745481 0.653894 0.898580
Si Si4 0.417944 0.065098 0.853310
Si Si5 0.170040 0.265962 0.276387
Si Si6 0.117511 0.510739 0.299462
Si Si7 0.909658 0.244594 0.764484
Si Si8 0.228828 0.342684 0.854463
O O1 0.373065 0.275053 0.368190
O O2 0.652073 0.388180 0.409875
O O3 0.251992 0.093824 0.613794
O O4 0.578733 0.870257 0.872157
O O5 0.047976 0.348103 0.386166
O O6 0.822962 0.928445 0.684520
O O7 0.935899 0.431437 0.174403
O O8 0.708135 0.745351 0.736841
O O9 0.500000 0.500000 0.000000
O O10 0.240353 0.298631 0.580932
O O11 0.626872 0.194836 0.743233
O O12 0.500000 0.000000 0.000000
O O13 0.290966 0.790007 0.061475
O O14 0.000000 0.000000 0.500000
O O15 0.000000 0.500000 0.000000
O O16 0.878632 0.586523 0.187119
O O17 0.000000 0.500000 0.500000
O O18 0.013891 0.235676 0.862365
O O19 0.000000 0.000000 0.000000
#
# Coordination Sequence:
#
# PCOD8037044 Si02
#       8
#     2   2   2   2   2   2   2   2
#     4  12  26  46  78 104 151 195 247 305 379 440
#     4  12  27  50  74 111 150 195 246 305 377 449
#     4  12  26  49  76 110 150 192 249 312 368 443
#     4  12  26  50  79 104 148 204 249 307 370 443
#     4  12  23  48  76 104 142 195 249 298 365 443
#     4  12  28  49  76 110 152 197 252 304 381 449
#     4  12  28  47  75 110 149 192 260 310 367 437
#     4  12  28  48  72 110 151 196 247 309 372 447
#
# _framework density 23.383614999999999
#
# number of rings (size 3 to 8) (size 9 to 14) (size 15 to 20)
#    0.000    0.000    3.750    5.250    8.750    0.000 
#    0.000    0.000    0.000    0.000    0.000    0.000 
#    0.000    0.000    0.000    0.000    0.000    0.000 
#
# Total GULP energy -198428.002406 kJ/mol
# GULP energy per Si atom -12401.750150 kJ/mol
# Density = 2.333039 g / cm^3
# Si number density = 23.383615 Si / 1000 Ang^3
#
#
#
# Elastic Constant Matrix: (Units=GPa)
#
#
# Indices 1 2 3 4 5 6 
#
# 1 162.2680 65.2552 68.0282 -8.8693 5.2665 1.9131
# 2 65.2552 104.7635 42.2009 -22.1988 4.7886 0.9988
# 3 68.0282 42.2009 171.0412 -15.2035 9.6822 7.6978
# 4 -8.8693 -22.1988 -15.2035 53.3535 9.0590 -4.7508
# 5 5.2665 4.7886 9.6822 9.0590 48.6471 -6.0108
# 6 1.9131 0.9988 7.6978 -4.7508 -6.0108 29.0877
#
#
#
# Elastic Compliance Matrix: (Units=1/GPa)
#
#
# Indices 1 2 3 4 5 6 
#
# 1 0.009144 -0.004959 -0.002548 -0.001306 0.000259 0.000083
# 2 -0.004959 0.014189 -0.001016 0.005105 -0.001531 0.000625
# 3 -0.002548 -0.001016 0.007406 0.001367 -0.001583 -0.001861
# 4 -0.001306 0.005105 0.001367 0.021994 -0.004455 0.002220
# 5 0.000259 -0.001531 -0.001583 -0.004455 0.022361 0.004347
# 6 0.000083 0.000625 -0.001861 0.002220 0.004347 0.036105
#
#
# Mechanical properties :
#
#
# Convention : Reuss Voigt Hill
#
# Bulk Modulus (GPa) = 73.02965 87.67126 80.35045
# Shear Modulus (GPa) = 37.64813 43.72354 40.68584
#
# Velocity S-wave (km/s) = 4.01686 4.32885 4.17577
# Velocity P-wave (km/s) = 7.26722 7.90944 7.59512
#
# Compressibility (1/GPa) = 0.01369307
#
# Stress axis : x y z
#
# Youngs Moduli (GPa) = 109.35935 70.47608 135.03428
#
# Poissons Ratio (x) = 0.34947 0.34406
# Poissons Ratio (y) = 0.54227 0.13724
# Poissons Ratio (z) = 0.27864 0.07163
#
# Static dielectric constant tensor:
#      x y z
#    x 4.174620 0.077170 -0.019060 
#    y 0.077170 4.458370 -0.058060 
#    z -0.019060 -0.058060 4.581740 
# 
# 
# High freq. dielectric constant tensor:
#      x y z
#    x 1.927990 0.004620 0.000180 
#    y 0.004620 1.936140 -0.006450 
#    z 0.000180 -0.006450 1.949070 
# 
# From -- ./inp_files/617694.got.cif
#   From: 2010.06.25/outbox.cif.g09.slc.cpg/sg2_309_cif.got.tgz:617694.got - 2010.06.27 13:26:56.
