data_PCOD8037258
_publ_section_title
;
Structure prediction by ZEFSAII (Michael W. Deem and Ramdas Pophale) SiO2 
 PCOD8037258
Probable space group: P -1
;
_chemical_formula_sum "Si O2"
_cell_formula_units_Z 16
_cell_length_a 8.566110
_cell_length_b 19.675887
_cell_length_c 22.508988
_cell_angle_alpha 23.301190
_cell_angle_beta 147.501678
_cell_angle_gamma 149.985730
_cell_volume 728.122347
_symmetry_space_group_name_H-M "P -1"
_symmetry_group_IT_number 2
_symmetry_cell_setting 'triclinic'
loop_
_space_group_symop_operation_xyz
x,y,z
-x,-y,-z
loop_
_atom_site_type_symbol
_atom_site_label
_atom_site_fract_x
_atom_site_fract_y
_atom_site_fract_z
Si Si1 0.242441 0.106893 0.440737
Si Si2 0.950814 0.179840 0.617304
Si Si3 0.127252 0.877123 0.976904
Si Si4 0.039707 0.221175 0.474104
Si Si5 0.201538 0.490424 0.127289
Si Si6 0.090057 0.203680 0.893729
Si Si7 0.221055 0.563153 0.462742
Si Si8 0.840508 0.496233 0.124383
O O1 0.585782 0.129932 0.552809
O O2 0.282883 0.317518 0.276241
O O3 0.000000 0.000000 0.500000
O O4 0.124125 0.990707 0.434973
O O5 0.041942 0.200661 0.561309
O O6 0.185996 0.376729 0.565451
O O7 0.974057 0.999122 0.797540
O O8 0.972624 0.812311 0.043620
O O9 0.077587 0.695955 0.067296
O O10 0.500000 0.000000 0.000000
O O11 0.408869 0.329721 0.483271
O O12 0.825006 0.331712 0.297192
O O13 0.532401 0.676379 0.092994
O O14 0.982515 0.454129 0.143790
O O15 0.000000 0.500000 0.000000
O O16 0.876684 0.299336 0.719204
O O17 0.000000 0.000000 0.000000
O O18 0.000000 0.500000 0.500000
O O19 0.500000 0.500000 0.000000
#
# Coordination Sequence:
#
# PCOD8037258 Si02
#       8
#     2   2   2   2   2   2   2   2
#     4  12  26  48  71 105 142 186 243 290 353 420
#     4  12  26  46  72 105 142 187 239 295 352 418
#     4  12  26  46  72 104 146 184 236 292 355 422
#     4  12  26  45  74 103 142 187 236 292 355 421
#     4  12  28  46  74 105 143 188 236 295 354 425
#     4  12  26  47  73 107 144 186 235 291 357 419
#     4  12  24  46  74 105 143 183 239 295 351 422
#     4  12  26  47  70 104 143 185 233 291 360 422
#
# _framework density 21.974329000000001
#
# number of rings (size 3 to 8) (size 9 to 14) (size 15 to 20)
#    0.000    0.000    2.500    7.500    7.000    0.000 
#    0.000    0.000    0.000    0.000    0.000    0.000 
#    0.000    0.000    0.000    0.000    0.000    0.000 
#
# Total GULP energy -198507.523881 kJ/mol
# GULP energy per Si atom -12406.720243 kJ/mol
# Density = 2.192431 g / cm^3
# Si number density = 21.974329 Si / 1000 Ang^3
#
#
#
# Elastic Constant Matrix: (Units=GPa)
#
#
# Indices 1 2 3 4 5 6 
#
# 1 77.0206 16.1565 78.5279 -1.4800 2.2371 -7.0191
# 2 16.1565 132.6298 49.3639 -7.4444 17.6019 -2.3259
# 3 78.5279 49.3639 144.3775 2.0005 -6.3238 -11.1499
# 4 -1.4800 -7.4444 2.0005 48.1264 -3.6928 13.9803
# 5 2.2371 17.6019 -6.3238 -3.6928 38.9632 -0.5284
# 6 -7.0191 -2.3259 -11.1499 13.9803 -0.5284 52.7209
#
#
#
# Elastic Compliance Matrix: (Units=1/GPa)
#
#
# Indices 1 2 3 4 5 6 
#
# 1 0.031692 0.004198 -0.019005 0.001965 -0.006617 -0.000202
# 2 0.004198 0.010124 -0.006078 0.001747 -0.005646 -0.000800
# 3 -0.019005 -0.006078 0.019839 -0.002437 0.006855 0.002112
# 4 0.001965 0.001747 -0.002437 0.023101 0.000807 -0.006294
# 5 -0.006617 -0.005646 0.006855 0.000807 0.029790 0.000404
# 6 -0.000202 -0.000800 0.002112 -0.006294 0.000404 0.021025
#
#
# Mechanical properties :
#
#
# Convention : Reuss Voigt Hill
#
# Bulk Modulus (GPa) = 50.29277 71.34715 60.81996
# Shear Modulus (GPa) = 27.17834 41.96074 34.56954
#
# Velocity S-wave (km/s) = 3.52066 4.37456 3.97063
# Velocity P-wave (km/s) = 6.28200 7.61936 6.98277
#
# Compressibility (1/GPa) = 0.01988357
#
# Stress axis : x y z
#
# Youngs Moduli (GPa) = 31.55396 98.77511 50.40648
#
# Poissons Ratio (x) = -0.41466 0.95799
# Poissons Ratio (y) = -0.13247 0.30638
# Poissons Ratio (z) = 0.59970 0.60037
#
# Static dielectric constant tensor:
#      x y z
#    x 3.780460 -0.120720 0.115100 
#    y -0.120720 4.430840 -0.009840 
#    z 0.115100 -0.009840 4.096530 
# 
# 
# High freq. dielectric constant tensor:
#      x y z
#    x 1.879310 -0.003470 0.002610 
#    y -0.003470 1.887350 -0.000600 
#    z 0.002610 -0.000600 1.883650 
# 
# From -- ./inp_files/186732.got.cif
#   From: 2010.06.25/outbox.cif.g09.slc.cpg/sg2_94_cif.got.tgz:186732.got - 2010.06.27 13:26:56.
