data_PCOD8037553
_publ_section_title
;
Structure prediction by ZEFSAII (Michael W. Deem and Ramdas Pophale) SiO2 
 PCOD8037553
Probable space group: P -1
;
_chemical_formula_sum "Si O2"
_cell_formula_units_Z 16
_cell_length_a 8.615352
_cell_length_b 23.381479
_cell_length_c 9.087422
_cell_angle_alpha 42.503389
_cell_angle_beta 94.621132
_cell_angle_gamma 126.776616
_cell_volume 738.319059
_symmetry_space_group_name_H-M "P -1"
_symmetry_group_IT_number 2
_symmetry_cell_setting 'triclinic'
loop_
_space_group_symop_operation_xyz
x,y,z
-x,-y,-z
loop_
_atom_site_type_symbol
_atom_site_label
_atom_site_fract_x
_atom_site_fract_y
_atom_site_fract_z
Si Si1 0.827257 0.247182 0.410684
Si Si2 0.470619 0.723370 0.739196
Si Si3 0.950000 0.001930 0.659354
Si Si4 0.947706 0.270019 0.708182
Si Si5 0.218115 0.548418 0.329428
Si Si6 0.425862 0.005344 0.328376
Si Si7 0.668519 0.713251 0.271292
Si Si8 0.382272 0.536684 0.872658
O O1 0.635571 0.243057 0.423633
O O2 0.899585 0.239971 0.587808
O O3 0.685205 0.115374 0.554688
O O4 0.086958 0.391826 0.072434
O O5 0.379728 0.597549 0.895623
O O6 0.780231 0.863665 0.493594
O O7 0.354665 0.674253 0.989579
O O8 0.788435 0.016939 0.624955
O O9 0.000000 0.000000 0.500000
O O10 0.799621 0.862053 0.996500
O O11 0.094149 0.420395 0.466924
O O12 0.116606 0.264319 0.788425
O O13 0.677968 0.155873 0.989436
O O14 0.440956 0.605312 0.339733
O O15 0.000000 0.500000 0.500000
O O16 0.500000 0.000000 0.500000
O O17 0.547732 0.650477 0.541369
O O18 0.500000 0.500000 0.000000
#
# Coordination Sequence:
#
# PCOD8037553 Si02
#       8
#     2   2   2   2   2   2   2   2
#     4  12  26  48  72 105 150 188 242 296 365 436
#     4  12  26  46  75 105 148 190 238 302 364 428
#     4  12  26  49  73 106 146 184 244 299 361 430
#     4  12  27  48  71 105 148 192 241 298 364 434
#     4  12  26  45  75 109 144 190 246 302 361 426
#     4  12  29  47  76 106 143 193 242 302 365 432
#     4  12  26  46  77 106 145 191 245 298 364 431
#     4  12  25  47  73 109 146 188 240 299 364 431
#
# _framework density 21.670846999999998
#
# number of rings (size 3 to 8) (size 9 to 14) (size 15 to 20)
#    0.000    0.000    3.750    5.625    7.000    0.500 
#    0.000    0.000    0.000    0.000    0.000    0.000 
#    0.000    0.000    0.000    0.000    0.000    0.000 
#
# Total GULP energy -198539.254566 kJ/mol
# GULP energy per Si atom -12408.703410 kJ/mol
# Density = 2.162152 g / cm^3
# Si number density = 21.670847 Si / 1000 Ang^3
#
#
#
# Elastic Constant Matrix: (Units=GPa)
#
#
# Indices 1 2 3 4 5 6 
#
# 1 154.0132 41.6427 27.3698 -9.4760 7.3277 19.4754
# 2 41.6427 119.8250 39.3940 -6.5410 7.4819 12.0397
# 3 27.3698 39.3940 136.0087 -0.7003 -3.5959 10.1636
# 4 -9.4760 -6.5410 -0.7003 39.4125 0.8119 -4.2981
# 5 7.3277 7.4819 -3.5959 0.8119 41.8093 -5.4266
# 6 19.4754 12.0397 10.1636 -4.2981 -5.4266 39.3031
#
#
#
# Elastic Compliance Matrix: (Units=1/GPa)
#
#
# Indices 1 2 3 4 5 6 
#
# 1 0.007695 -0.001946 -0.000787 0.001207 -0.001492 -0.003087
# 2 -0.001946 0.010181 -0.002478 0.001036 -0.001931 -0.001667
# 3 -0.000787 -0.002478 0.008325 -0.000576 0.001192 -0.000902
# 4 0.001207 0.001036 -0.000576 0.026056 -0.000695 0.001987
# 5 -0.001492 -0.001931 0.001192 -0.000695 0.025216 0.004428
# 6 -0.003087 -0.001667 -0.000902 0.001987 0.004428 0.028546
#
#
# Mechanical properties :
#
#
# Convention : Reuss Voigt Hill
#
# Bulk Modulus (GPa) = 63.38347 69.62885 66.50616
# Shear Modulus (GPa) = 41.08458 44.20100 42.64279
#
# Velocity S-wave (km/s) = 4.35885 4.52115 4.44074
# Velocity P-wave (km/s) = 7.39220 7.71066 7.55311
#
# Compressibility (1/GPa) = 0.01577699
#
# Stress axis : x y z
#
# Youngs Moduli (GPa) = 129.95974 98.22034 120.12432
#
# Poissons Ratio (x) = 0.19114 0.09458
# Poissons Ratio (y) = 0.25290 0.29772
# Poissons Ratio (z) = 0.10232 0.24343
#
# Static dielectric constant tensor:
#      x y z
#    x 4.304640 0.182010 -0.030160 
#    y 0.182010 4.082110 0.038720 
#    z -0.030160 0.038720 4.595290 
# 
# 
# High freq. dielectric constant tensor:
#      x y z
#    x 1.868960 0.007440 -0.003760 
#    y 0.007440 1.861050 -0.005350 
#    z -0.003760 -0.005350 1.870240 
# 
# From -- ./inp_files/225980.got.cif
#   From: 2010.06.25/outbox.cif.g09.slc.cpg/sg2_113_cif.got.tgz:225980.got - 2010.06.27 13:26:56.
