data_PCOD8037445
_publ_section_title
;
Structure prediction by ZEFSAII (Michael W. Deem and Ramdas Pophale) SiO2 
 PCOD8037445
Probable space group: P -1
;
_chemical_formula_sum "Si O2"
_cell_formula_units_Z 12
_cell_length_a 14.687421
_cell_length_b 5.077888
_cell_length_c 7.507140
_cell_angle_alpha 115.034654
_cell_angle_beta 79.778918
_cell_angle_gamma 108.422853
_cell_volume 480.668674
_symmetry_space_group_name_H-M "P -1"
_symmetry_group_IT_number 2
_symmetry_cell_setting 'triclinic'
loop_
_space_group_symop_operation_xyz
x,y,z
-x,-y,-z
loop_
_atom_site_type_symbol
_atom_site_label
_atom_site_fract_x
_atom_site_fract_y
_atom_site_fract_z
Si Si1 0.202694 0.542271 0.874719
Si Si2 0.894090 0.921188 0.938630
Si Si3 0.450515 0.263963 0.597821
Si Si4 0.703390 0.213129 0.634276
Si Si5 0.411878 0.712206 0.979349
Si Si6 0.185543 0.212365 0.432898
O O1 0.175078 0.371091 0.024136
O O2 0.318668 0.691430 0.876306
O O3 0.159371 0.291335 0.663743
O O4 0.149896 0.800271 0.934728
O O5 0.898077 0.837224 0.702680
O O6 0.000000 0.000000 0.000000
O O7 0.500000 0.500000 0.500000
O O8 0.451841 0.423464 0.835527
O O9 0.500000 0.000000 0.500000
O O10 0.339279 0.101286 0.547642
O O11 0.731968 0.493216 0.572698
O O12 0.786306 0.108145 0.682228
O O13 0.621905 0.290220 0.807278
O O14 0.500000 0.000000 0.000000
#
# Coordination Sequence:
#
# PCOD8037445 Si02
#       6
#     2   2   2   2   2   2
#     4  12  27  48  76 109 150 195 246 305 377 447
#     4  12  27  50  79 111 146 190 248 314 381 450
#     4  12  27  43  65 103 144 195 258 306 355 434
#     4  12  25  44  70 101 151 198 244 303 368 436
#     4  12  26  46  73 109 150 203 251 303 369 444
#     4  12  25  47  76 107 150 192 242 311 378 446
#
# _framework density 24.965223000000002
#
# number of rings (size 3 to 8) (size 9 to 14) (size 15 to 20)
#    0.000    0.000    6.667    2.500    0.000    3.333 
#    0.000    0.000    0.000    0.000    0.000    0.000 
#    0.000    0.000    0.000    0.000    0.000    0.000 
#
# Total GULP energy -148750.318119 kJ/mol
# GULP energy per Si atom -12395.859843 kJ/mol
# Density = 2.490840 g / cm^3
# Si number density = 24.965223 Si / 1000 Ang^3
#
#
#
# Elastic Constant Matrix: (Units=GPa)
#
#
# Indices 1 2 3 4 5 6 
#
# 1 110.9302 24.7940 20.1940 21.5030 0.2966 -1.1569
# 2 24.7940 115.8877 24.2203 16.1749 -17.5733 -28.4317
# 3 20.1940 24.2203 129.9554 27.8936 13.6014 -6.4121
# 4 21.5030 16.1749 27.8936 43.1652 -8.4159 -1.4310
# 5 0.2966 -17.5733 13.6014 -8.4159 37.0498 10.9919
# 6 -1.1569 -28.4317 -6.4121 -1.4310 10.9919 40.3936
#
#
#
# Elastic Compliance Matrix: (Units=1/GPa)
#
#
# Indices 1 2 3 4 5 6 
#
# 1 0.010400 -0.002026 -0.000057 -0.004777 -0.001872 -0.000797
# 2 -0.002026 0.011899 -0.001673 -0.001377 0.003902 0.006941
# 3 -0.000057 -0.001673 0.010422 -0.007357 -0.006912 0.002095
# 4 -0.004777 -0.001377 -0.007357 0.032775 0.010727 -0.004032
# 5 -0.001872 0.003902 -0.006912 0.010727 0.036164 -0.007865
# 6 -0.000797 0.006941 0.002095 -0.004032 -0.007865 0.031949
#
#
# Mechanical properties :
#
#
# Convention : Reuss Voigt Hill
#
# Bulk Modulus (GPa) = 39.66769 55.02112 47.34441
# Shear Modulus (GPa) = 33.43947 43.29271 38.36609
#
# Velocity S-wave (km/s) = 3.66381 4.16880 3.92443
# Velocity P-wave (km/s) = 5.81564 6.72746 6.28810
#
# Compressibility (1/GPa) = 0.02520943
#
# Stress axis : x y z
#
# Youngs Moduli (GPa) = 96.14974 84.04002 95.95474
#
# Poissons Ratio (x) = 0.17027 0.00544
# Poissons Ratio (y) = 0.19480 0.16054
# Poissons Ratio (z) = 0.00545 0.14061
#
# Static dielectric constant tensor:
#      x y z
#    x 5.029620 0.001770 0.265050 
#    y 0.001770 4.434600 0.196610 
#    z 0.265050 0.196610 5.088440 
# 
# 
# High freq. dielectric constant tensor:
#      x y z
#    x 1.991980 -0.012130 0.022570 
#    y -0.012130 1.996060 0.023130 
#    z 0.022570 0.023130 2.015890 
# 
# From -- ./inp_files/286580.got.cif
#   From: 2010.06.25/outbox.cif.g09.slc.cpg/sg2_144_cif.got.tgz:286580.got - 2010.06.27 13:26:56.
