data_PCOD8037267
_publ_section_title
;
Structure prediction by ZEFSAII (Michael W. Deem and Ramdas Pophale) SiO2 
 PCOD8037267
Probable space group: P -1
;
_chemical_formula_sum "Si O2"
_cell_formula_units_Z 12
_cell_length_a 9.463798
_cell_length_b 8.313887
_cell_length_c 12.118453
_cell_angle_alpha 118.902535
_cell_angle_beta 85.423049
_cell_angle_gamma 135.614200
_cell_volume 526.098285
_symmetry_space_group_name_H-M "P -1"
_symmetry_group_IT_number 2
_symmetry_cell_setting 'triclinic'
loop_
_space_group_symop_operation_xyz
x,y,z
-x,-y,-z
loop_
_atom_site_type_symbol
_atom_site_label
_atom_site_fract_x
_atom_site_fract_y
_atom_site_fract_z
Si Si1 0.248846 0.243864 0.390268
Si Si2 0.193126 0.587336 0.575035
Si Si3 0.768401 0.768467 0.868060
Si Si4 0.440060 0.747065 0.973590
Si Si5 0.015802 0.353683 0.743671
Si Si6 0.629551 0.242794 0.771320
O O1 0.500000 0.500000 0.500000
O O2 0.146729 0.337563 0.452417
O O3 0.208397 0.148026 0.233100
O O4 0.134832 0.973957 0.384142
O O5 0.000000 0.500000 0.500000
O O6 0.163442 0.568931 0.702341
O O7 0.433244 0.910754 0.628763
O O8 0.603134 0.748348 0.926900
O O9 0.660571 0.456031 0.766306
O O10 0.000000 0.000000 0.000000
O O11 0.183953 0.450125 0.858996
O O12 0.451278 0.766143 0.109556
O O13 0.500000 0.000000 0.000000
O O14 0.863500 0.368140 0.802021
#
# Coordination Sequence:
#
# PCOD8037267 Si02
#       6
#     2   2   2   2   2   2
#     4  12  26  48  73 107 144 189 243 290 357 426
#     4  12  28  44  73 106 144 190 236 292 362 428
#     4  12  28  47  76 107 146 191 238 299 362 424
#     4  12  24  46  75 105 140 185 245 293 355 426
#     4  12  25  48  74 104 144 189 239 299 352 426
#     4  12  26  47  73 106 148 185 237 296 361 426
#
# _framework density 22.809425999999998
#
# number of rings (size 3 to 8) (size 9 to 14) (size 15 to 20)
#    0.000    0.000    3.333    6.500    7.000    1.333 
#    0.000    0.000    0.000    0.000    0.000    0.000 
#    0.000    0.000    0.000    0.000    0.000    0.000 
#
# Total GULP energy -148821.969868 kJ/mol
# GULP energy per Si atom -12401.830822 kJ/mol
# Density = 2.275751 g / cm^3
# Si number density = 22.809426 Si / 1000 Ang^3
#
#
#
# Elastic Constant Matrix: (Units=GPa)
#
#
# Indices 1 2 3 4 5 6 
#
# 1 183.0626 32.7854 30.0254 11.6375 -16.6721 18.5263
# 2 32.7854 99.9805 16.4489 18.4980 -6.8289 -5.4613
# 3 30.0254 16.4489 82.5290 1.6114 4.7437 9.5246
# 4 11.6375 18.4980 1.6114 44.7684 3.6669 -4.8100
# 5 -16.6721 -6.8289 4.7437 3.6669 49.3389 1.2126
# 6 18.5263 -5.4613 9.5246 -4.8100 1.2126 46.1462
#
#
#
# Elastic Compliance Matrix: (Units=1/GPa)
#
#
# Indices 1 2 3 4 5 6 
#
# 1 0.006639 -0.001572 -0.001901 -0.001491 0.002385 -0.002677
# 2 -0.001572 0.011869 -0.002026 -0.004342 0.001581 0.001960
# 3 -0.001901 -0.002026 0.013572 0.000796 -0.002234 -0.002136
# 4 -0.001491 -0.004342 0.000796 0.025025 -0.003105 0.002610
# 5 0.002385 0.001581 -0.002234 -0.003105 0.021768 -0.001205
# 6 -0.002677 0.001960 -0.002136 0.002610 -0.001205 0.023722
#
#
# Mechanical properties :
#
#
# Convention : Reuss Voigt Hill
#
# Bulk Modulus (GPa) = 47.43410 58.23238 52.83324
# Shear Modulus (GPa) = 41.45285 47.13821 44.29553
#
# Velocity S-wave (km/s) = 4.26767 4.55093 4.41157
# Velocity P-wave (km/s) = 6.71751 7.29383 7.01160
#
# Compressibility (1/GPa) = 0.02108188
#
# Stress axis : x y z
#
# Youngs Moduli (GPa) = 150.62906 84.25338 73.68204
#
# Poissons Ratio (x) = 0.13242 0.14008
# Poissons Ratio (y) = 0.23674 0.14929
# Poissons Ratio (z) = 0.28636 0.17070
#
# Static dielectric constant tensor:
#      x y z
#    x 4.114820 0.105360 0.213320 
#    y 0.105360 3.163910 -0.502060 
#    z 0.213320 -0.502060 3.763340 
# 
# 
# High freq. dielectric constant tensor:
#      x y z
#    x 1.919970 -0.001980 -0.002820 
#    y -0.001980 1.913710 0.009360 
#    z -0.002820 0.009360 1.904150 
# 
# From -- ./inp_files/20925.got.cif
#   From: 2010.06.25/outbox.cif.g09.slc.cpg/sg2_11_cif.got.tgz:20925.got - 2010.06.27 13:26:56.
