data_PCOD8037767
_publ_section_title
;
Structure prediction by ZEFSAII (Michael W. Deem and Ramdas Pophale) SiO2 
 PCOD8037767
Probable space group: P -1
;
_chemical_formula_sum "Si O2"
_cell_formula_units_Z 10
_cell_length_a 11.204061
_cell_length_b 8.505510
_cell_length_c 22.574835
_cell_angle_alpha 31.496694
_cell_angle_beta 23.576824
_cell_angle_gamma 43.797981
_cell_volume 430.811295
_symmetry_space_group_name_H-M "P -1"
_symmetry_group_IT_number 2
_symmetry_cell_setting 'triclinic'
loop_
_space_group_symop_operation_xyz
x,y,z
-x,-y,-z
loop_
_atom_site_type_symbol
_atom_site_label
_atom_site_fract_x
_atom_site_fract_y
_atom_site_fract_z
Si Si1 0.193432 0.316920 0.140754
Si Si2 0.585650 0.208596 0.525787
Si Si3 0.683300 0.292670 0.683604
Si Si4 0.801556 0.323011 0.200063
Si Si5 0.345226 0.050188 0.306644
O O1 0.952608 0.296919 0.311927
O O2 0.003873 0.297264 0.172857
O O3 0.364428 0.043665 0.154392
O O4 0.476298 0.637329 0.911121
O O5 0.500000 0.500000 0.500000
O O6 0.382256 0.039338 0.616601
O O7 0.483472 0.957011 0.706666
O O8 0.424764 0.463963 0.755900
O O9 0.000000 0.500000 0.500000
O O10 0.676637 0.246634 0.630530
O O11 0.000000 0.500000 0.000000
O O12 0.000000 0.000000 0.500000
#
# Coordination Sequence:
#
# PCOD8037767 Si02
#       5
#     2   2   2   2   2
#     4  12  27  50  79 107 154 202 248 310 382 443
#     4  12  27  47  76 109 150 198 250 314 373 442
#     4  12  27  49  78 109 154 197 251 313 370 452
#     4  12  27  50  74 114 151 195 255 306 376 449
#     4  12  26  49  73 113 151 191 258 305 371 451
#
# _framework density 23.212018
#
# number of rings (size 3 to 8) (size 9 to 14) (size 15 to 20)
#    0.000    0.000    6.000    2.400    5.600    2.400 
#    0.000    0.000    0.000    0.000    0.000    0.000 
#    0.000    0.000    0.000    0.000    0.000    0.000 
#
# Total GULP energy -123906.680465 kJ/mol
# GULP energy per Si atom -12390.668047 kJ/mol
# Density = 2.315919 g / cm^3
# Si number density = 23.212018 Si / 1000 Ang^3
#
#
#
# Elastic Constant Matrix: (Units=GPa)
#
#
# Indices 1 2 3 4 5 6 
#
# 1 122.0018 44.5285 26.7975 2.0736 3.0330 13.9586
# 2 44.5285 168.5963 40.0458 1.4248 -4.7429 20.0944
# 3 26.7975 40.0458 130.3495 -7.9551 7.0406 24.4403
# 4 2.0736 1.4248 -7.9551 35.9386 1.9748 1.2173
# 5 3.0330 -4.7429 7.0406 1.9748 47.9546 -6.7909
# 6 13.9586 20.0944 24.4403 1.2173 -6.7909 41.9489
#
#
#
# Elastic Compliance Matrix: (Units=1/GPa)
#
#
# Indices 1 2 3 4 5 6 
#
# 1 0.009389 -0.002068 -0.000964 -0.000568 -0.000874 -0.001697
# 2 -0.002068 0.007062 -0.001506 -0.000483 0.000834 -0.001668
# 3 -0.000964 -0.001506 0.009541 0.002521 -0.002295 -0.004961
# 4 -0.000568 -0.000483 0.002521 0.028612 -0.001869 -0.002181
# 5 -0.000874 0.000834 -0.002295 -0.001869 0.022093 0.004859
# 6 -0.001697 -0.001668 -0.004961 -0.002181 0.004859 0.028942
#
#
# Mechanical properties :
#
#
# Convention : Reuss Voigt Hill
#
# Bulk Modulus (GPa) = 59.12213 71.52125 65.32169
# Shear Modulus (GPa) = 41.54447 45.80680 43.67563
#
# Velocity S-wave (km/s) = 4.23517 4.44713 4.34244
# Velocity P-wave (km/s) = 7.03145 7.56626 7.30375
#
# Compressibility (1/GPa) = 0.01691414
#
# Stress axis : x y z
#
# Youngs Moduli (GPa) = 106.51076 141.60979 104.81519
#
# Poissons Ratio (x) = 0.29289 0.10105
# Poissons Ratio (y) = 0.22029 0.15786
# Poissons Ratio (z) = 0.10268 0.21328
#
# Static dielectric constant tensor:
#      x y z
#    x 4.054990 0.363420 -0.168450 
#    y 0.363420 4.062030 -0.010920 
#    z -0.168450 -0.010920 4.202110 
# 
# 
# High freq. dielectric constant tensor:
#      x y z
#    x 1.955240 0.005250 -0.000360 
#    y 0.005250 1.919280 -0.004250 
#    z -0.000360 -0.004250 1.924410 
# 
# From -- ./inp_files/58867.got.cif
#   From: 2010.06.25/outbox.cif.g09.slc.cpg/sg2_30_cif.got.tgz:58867.got - 2010.06.27 13:26:56.
