data_PCOD8037678
_publ_section_title
;
Structure prediction by ZEFSAII (Michael W. Deem and Ramdas Pophale) SiO2 
 PCOD8037678
Probable space group: P -1
;
_chemical_formula_sum "Si O2"
_cell_formula_units_Z 16
_cell_length_a 24.232166
_cell_length_b 25.079923
_cell_length_c 5.732986
_cell_angle_alpha 75.469559
_cell_angle_beta 102.422926
_cell_angle_gamma 168.241251
_cell_volume 679.065971
_symmetry_space_group_name_H-M "P -1"
_symmetry_group_IT_number 2
_symmetry_cell_setting 'triclinic'
loop_
_space_group_symop_operation_xyz
x,y,z
-x,-y,-z
loop_
_atom_site_type_symbol
_atom_site_label
_atom_site_fract_x
_atom_site_fract_y
_atom_site_fract_z
Si Si1 0.688433 0.420336 0.997219
Si Si2 0.145457 0.528378 0.679406
Si Si3 0.196137 0.732709 0.026709
Si Si4 0.731152 0.096581 0.414112
Si Si5 0.774981 0.022775 0.310976
Si Si6 0.155087 0.258185 0.906289
Si Si7 0.206968 0.245831 0.468359
Si Si8 0.618713 0.789726 0.763259
O O1 0.795010 0.459973 0.081256
O O2 0.556277 0.323139 0.206753
O O3 0.927206 0.689204 0.845239
O O4 0.460810 0.198155 0.844018
O O5 0.434305 0.831295 0.536257
O O6 0.990522 0.346881 0.542163
O O7 0.940177 0.382721 0.721815
O O8 0.195099 0.791425 0.845791
O O9 0.000000 0.500000 0.000000
O O10 0.500000 0.000000 0.000000
O O11 0.719950 0.021706 0.431258
O O12 0.775188 0.961772 0.489172
O O13 0.129215 0.199831 0.699053
O O14 0.413055 0.544223 0.787006
O O15 0.207894 0.280562 0.183777
O O16 0.852969 0.997878 0.938593
O O17 0.500000 0.500000 0.500000
O O18 0.000000 0.000000 0.500000
#
# Coordination Sequence:
#
# PCOD8037678 Si02
#       8
#     2   2   2   2   2   2   2   2
#     4  12  26  44  73 102 145 195 239 286 362 458
#     4  12  26  45  72 100 134 180 239 289 360 452
#     4  12  28  46  69  98 133 174 234 310 370 416
#     4  12  26  45  72 100 134 180 239 289 360 452
#     4  12  26  44  73 102 145 195 239 286 362 458
#     4  12  28  47  78 118 158 195 260 326 372 440
#     4  12  26  52  81 110 153 212 264 310 372 440
#     4  12  28  45  70 114 156 189 240 308 380 428
#
# _framework density 23.561775000000001
#
# number of rings (size 3 to 8) (size 9 to 14) (size 15 to 20)
#    0.000    0.000    2.500    6.750    8.750    3.000 
#    0.000    0.000    0.000    0.000    0.000    0.000 
#    0.000    0.000    0.000    0.000    0.000    0.000 
#
# Total GULP energy -198215.379849 kJ/mol
# GULP energy per Si atom -12388.461241 kJ/mol
# Density = 2.350815 g / cm^3
# Si number density = 23.561775 Si / 1000 Ang^3
#
#
#
# Elastic Constant Matrix: (Units=GPa)
#
#
# Indices 1 2 3 4 5 6 
#
# 1 78.3148 27.3656 30.4233 -2.8839 8.7886 1.3108
# 2 27.3656 210.8458 31.4186 2.1350 -7.4132 -14.4942
# 3 30.4233 31.4186 103.1415 7.6640 4.0643 -5.6974
# 4 -2.8839 2.1350 7.6640 49.1107 4.4179 5.8665
# 5 8.7886 -7.4132 4.0643 4.4179 46.4939 6.0628
# 6 1.3108 -14.4942 -5.6974 5.8665 6.0628 61.6748
#
#
#
# Elastic Compliance Matrix: (Units=1/GPa)
#
#
# Indices 1 2 3 4 5 6 
#
# 1 0.015330 -0.001561 -0.004136 0.001987 -0.002846 -0.000984
# 2 -0.001561 0.005225 -0.001087 -0.000380 0.001118 0.001087
# 3 -0.004136 -0.001087 0.011478 -0.002090 -0.000343 0.001125
# 4 0.001987 -0.000380 -0.002090 0.021258 -0.001993 -0.002151
# 5 -0.002846 0.001118 -0.000343 -0.001993 0.022672 -0.001748
# 6 -0.000984 0.001087 0.001125 -0.002151 -0.001748 0.016971
#
#
# Mechanical properties :
#
#
# Convention : Reuss Voigt Hill
#
# Bulk Modulus (GPa) = 54.15853 63.41302 58.78578
# Shear Modulus (GPa) = 44.38256 51.66218 48.02237
#
# Velocity S-wave (km/s) = 4.34483 4.68763 4.51948
# Velocity P-wave (km/s) = 6.94304 7.50136 7.22759
#
# Compressibility (1/GPa) = 0.01846431
#
# Stress axis : x y z
#
# Youngs Moduli (GPa) = 65.23019 191.37785 87.12638
#
# Poissons Ratio (x) = 0.29878 0.36038
# Poissons Ratio (y) = 0.10184 0.09471
# Poissons Ratio (z) = 0.26981 0.20803
#
# Static dielectric constant tensor:
#      x y z
#    x 4.386560 -0.044140 -0.075210 
#    y -0.044140 4.521240 -0.096530 
#    z -0.075210 -0.096530 4.467920 
# 
# 
# High freq. dielectric constant tensor:
#      x y z
#    x 1.940120 0.002520 0.000690 
#    y 0.002520 1.967200 -0.006340 
#    z 0.000690 -0.006340 1.936510 
# 
# From -- ./inp_files/127754.got.cif
#   From: 2010.06.25/outbox.cif.g09.slc.cpg/sg2_64_cif.got.tgz:127754.got - 2010.06.27 13:26:56.
