data_PCOD8037004
_publ_section_title
;
Structure prediction by ZEFSAII (Michael W. Deem and Ramdas Pophale) SiO2 
 PCOD8037004
Probable space group: P -1
;
_chemical_formula_sum "Si O2"
_cell_formula_units_Z 14
_cell_length_a 15.247307
_cell_length_b 8.634219
_cell_length_c 14.488715
_cell_angle_alpha 39.875284
_cell_angle_beta 29.480427
_cell_angle_gamma 39.212991
_cell_volume 566.337014
_symmetry_space_group_name_H-M "P -1"
_symmetry_group_IT_number 2
_symmetry_cell_setting 'triclinic'
loop_
_space_group_symop_operation_xyz
x,y,z
-x,-y,-z
loop_
_atom_site_type_symbol
_atom_site_label
_atom_site_fract_x
_atom_site_fract_y
_atom_site_fract_z
Si Si1 0.022290 0.738428 0.656899
Si Si2 0.266864 0.935084 0.121670
Si Si3 0.964608 0.251970 0.855831
Si Si4 0.592705 0.543465 0.490219
Si Si5 0.463326 0.523699 0.818183
Si Si6 0.508914 0.923904 0.726508
Si Si7 0.929800 0.799771 0.417755
O O1 0.063444 0.466009 0.690286
O O2 0.205057 0.678849 0.583238
O O3 0.825179 0.781996 0.876458
O O4 0.000000 0.000000 0.500000
O O5 0.407803 0.766006 0.146174
O O6 0.066257 0.883850 0.322309
O O7 0.370815 0.905366 0.943426
O O8 0.042871 0.121911 0.746949
O O9 0.743815 0.413928 0.979593
O O10 0.000000 0.000000 0.000000
O O11 0.500000 0.500000 0.500000
O O12 0.462212 0.557679 0.693399
O O13 0.609299 0.824115 0.337164
O O14 0.559508 0.693631 0.712142
O O15 0.706141 0.926788 0.589520
O O16 0.000000 0.500000 0.500000
#
# Coordination Sequence:
#
# PCOD8037004 Si02
#       7
#     2   2   2   2   2   2   2
#     4  12  27  52  78 110 163 208 258 321 400 467
#     4  12  26  47  76 116 151 201 264 316 388 467
#     4  12  27  47  79 114 151 204 264 322 389 465
#     4  12  28  49  76 110 154 205 259 323 397 458
#     4  12  24  49  75 110 154 202 257 320 386 466
#     4  12  25  47  78 113 155 199 262 326 387 458
#     4  12  23  46  77 112 158 201 259 319 383 472
#
# _framework density 24.720264
#
# number of rings (size 3 to 8) (size 9 to 14) (size 15 to 20)
#    0.000    0.000    4.286    6.000    2.000    2.286 
#    0.000    0.000    0.000    0.000    0.000    0.000 
#    0.000    0.000    0.000    0.000    0.000    0.000 
#
# Total GULP energy -173486.690667 kJ/mol
# GULP energy per Si atom -12391.906476 kJ/mol
# Density = 2.466400 g / cm^3
# Si number density = 24.720264 Si / 1000 Ang^3
#
#
#
# Elastic Constant Matrix: (Units=GPa)
#
#
# Indices 1 2 3 4 5 6 
#
# 1 107.7560 20.7363 38.9926 13.3916 13.6282 -14.4431
# 2 20.7363 118.6711 34.4099 13.0240 2.6158 -29.8909
# 3 38.9926 34.4099 99.5443 12.4554 6.8017 -10.5020
# 4 13.3916 13.0240 12.4554 52.7692 -7.1597 6.3407
# 5 13.6282 2.6158 6.8017 -7.1597 46.6045 10.9068
# 6 -14.4431 -29.8909 -10.5020 6.3407 10.9068 48.2686
#
#
#
# Elastic Compliance Matrix: (Units=1/GPa)
#
#
# Indices 1 2 3 4 5 6 
#
# 1 0.012187 0.000652 -0.003722 -0.003591 -0.004727 0.004780
# 2 0.000652 0.011571 -0.002765 -0.003704 -0.002852 0.007890
# 3 -0.003722 -0.002765 0.012758 -0.001556 -0.000943 0.000367
# 4 -0.003591 -0.003704 -0.001556 0.023089 0.006979 -0.008317
# 5 -0.004727 -0.002852 -0.000943 0.006979 0.026624 -0.010319
# 6 0.004780 0.007890 0.000367 -0.008317 -0.010319 0.030538
#
#
# Mechanical properties :
#
#
# Convention : Reuss Voigt Hill
#
# Bulk Modulus (GPa) = 40.24827 57.13878 48.69352
# Shear Modulus (GPa) = 36.57152 44.98397 40.77774
#
# Velocity S-wave (km/s) = 3.85049 4.27045 4.06589
# Velocity P-wave (km/s) = 6.00709 6.89057 6.46394
#
# Compressibility (1/GPa) = 0.02484579
#
# Stress axis : x y z
#
# Youngs Moduli (GPa) = 82.05725 86.42255 78.38524
#
# Poissons Ratio (x) = -0.05637 0.29179
# Poissons Ratio (y) = -0.05353 0.21670
# Poissons Ratio (z) = 0.30545 0.23892
#
# Static dielectric constant tensor:
#      x y z
#    x 4.964110 -0.376530 -0.238690 
#    y -0.376530 2.848670 -1.156370 
#    z -0.238690 -1.156370 3.792740 
# 
# 
# High freq. dielectric constant tensor:
#      x y z
#    x 1.995730 -0.000160 0.002180 
#    y -0.000160 2.006950 0.013310 
#    z 0.002180 0.013310 1.981120 
# 
# From -- ./inp_files/308419.got.cif
#   From: 2010.06.25/outbox.cif.g09.slc.cpg/sg2_155_cif.got.tgz:308419.got - 2010.06.27 13:26:56.
