data_PCOD8037612
_publ_section_title
;
Structure prediction by ZEFSAII (Michael W. Deem and Ramdas Pophale) SiO2 
 PCOD8037612
Probable space group: P -1
;
_chemical_formula_sum "Si O2"
_cell_formula_units_Z 16
_cell_length_a 9.140392
_cell_length_b 15.493363
_cell_length_c 9.756658
_cell_angle_alpha 115.296396
_cell_angle_beta 113.940456
_cell_angle_gamma 34.546449
_cell_volume 704.474201
_symmetry_space_group_name_H-M "P -1"
_symmetry_group_IT_number 2
_symmetry_cell_setting 'triclinic'
loop_
_space_group_symop_operation_xyz
x,y,z
-x,-y,-z
loop_
_atom_site_type_symbol
_atom_site_label
_atom_site_fract_x
_atom_site_fract_y
_atom_site_fract_z
Si Si1 0.033975 0.835897 0.550862
Si Si2 0.786283 0.139065 0.110445
Si Si3 0.021155 0.378499 0.905364
Si Si4 0.438267 0.417456 0.543749
Si Si5 0.886165 0.702955 0.416326
Si Si6 0.513597 0.455438 0.128989
Si Si7 0.433392 0.139949 0.097243
Si Si8 0.446600 0.849558 0.551693
O O1 0.078325 0.895288 0.720460
O O2 0.315765 0.654879 0.496091
O O3 0.881303 0.815801 0.535809
O O4 0.843181 0.971962 0.457330
O O5 0.673903 0.282808 0.084796
O O6 0.589123 0.145899 0.072158
O O7 0.000000 0.000000 0.000000
O O8 0.758787 0.442575 0.838448
O O9 0.175312 0.282928 0.758708
O O10 0.000000 0.500000 0.000000
O O11 0.144944 0.281354 0.025876
O O12 0.367115 0.515126 0.714323
O O13 0.579168 0.251624 0.519543
O O14 0.169361 0.522353 0.432733
O O15 0.648089 0.769025 0.450579
O O16 0.500000 0.500000 0.000000
O O17 0.438455 0.159149 0.272575
O O18 0.500000 0.000000 0.000000
#
# Coordination Sequence:
#
# PCOD8037612 Si02
#       8
#     2   2   2   2   2   2   2   2
#     4  12  25  48  76 103 150 196 253 303 373 436
#     4  12  29  49  75 109 152 195 247 314 373 441
#     4  12  26  46  74 103 152 194 246 306 377 437
#     4  12  25  48  76 105 144 193 258 306 362 439
#     4  12  26  47  74 106 145 200 250 306 371 442
#     4  12  29  48  78 111 144 198 254 310 373 445
#     4  12  29  47  72 109 157 198 241 303 378 447
#     4  12  29  45  73 113 152 195 250 309 369 444
#
# _framework density 22.711974000000001
#
# number of rings (size 3 to 8) (size 9 to 14) (size 15 to 20)
#    0.000    0.000    5.000    3.750   10.500    0.000 
#    0.000    0.000    0.000    0.000    0.000    0.000 
#    0.000    0.000    0.000    0.000    0.000    0.000 
#
# Total GULP energy -198339.399505 kJ/mol
# GULP energy per Si atom -12396.212469 kJ/mol
# Density = 2.266028 g / cm^3
# Si number density = 22.711974 Si / 1000 Ang^3
#
#
#
# Elastic Constant Matrix: (Units=GPa)
#
#
# Indices 1 2 3 4 5 6 
#
# 1 49.0391 3.9829 30.2646 9.0284 3.3101 8.2897
# 2 3.9829 133.1410 43.4174 -8.4818 4.2083 7.0021
# 3 30.2646 43.4174 143.4466 2.3620 -4.9092 1.4854
# 4 9.0284 -8.4818 2.3620 44.1193 2.3247 4.6762
# 5 3.3101 4.2083 -4.9092 2.3247 41.0247 8.7809
# 6 8.2897 7.0021 1.4854 4.6762 8.7809 45.7946
#
#
#
# Elastic Compliance Matrix: (Units=1/GPa)
#
#
# Indices 1 2 3 4 5 6 
#
# 1 0.025299 0.001063 -0.005612 -0.004177 -0.001773 -0.003794
# 2 0.001063 0.008647 -0.002895 0.001806 -0.001124 -0.001389
# 3 -0.005612 -0.002895 0.009081 -0.000072 0.001658 0.000853
# 4 -0.004177 0.001806 -0.000072 0.024108 -0.000834 -0.001820
# 5 -0.001773 -0.001124 0.001658 -0.000834 0.025827 -0.004428
# 6 -0.003794 -0.001389 0.000853 -0.001820 -0.004428 0.023743
#
#
# Mechanical properties :
#
#
# Convention : Reuss Voigt Hill
#
# Bulk Modulus (GPa) = 35.53961 53.43962 44.48962
# Shear Modulus (GPa) = 35.46773 42.71850 39.09311
#
# Velocity S-wave (km/s) = 3.95604 4.34162 4.15330
# Velocity P-wave (km/s) = 6.04557 6.97948 6.52925
#
# Compressibility (1/GPa) = 0.02813762
#
# Stress axis : x y z
#
# Youngs Moduli (GPa) = 39.52736 115.64898 110.12450
#
# Poissons Ratio (x) = -0.12290 0.61801
# Poissons Ratio (y) = -0.04201 0.31883
# Poissons Ratio (z) = 0.22182 0.33483
#
# Static dielectric constant tensor:
#      x y z
#    x 4.250660 0.020110 0.156470 
#    y 0.020110 4.193420 -0.059580 
#    z 0.156470 -0.059580 3.902940 
# 
# 
# High freq. dielectric constant tensor:
#      x y z
#    x 1.907350 0.010530 0.011890 
#    y 0.010530 1.909890 -0.003180 
#    z 0.011890 -0.003180 1.902960 
# 
# From -- ./inp_files/208461.got.cif
#   From: 2010.06.25/outbox.cif.g09.slc.cpg/sg2_105_cif.got.tgz:208461.got - 2010.06.27 13:26:56.
