data_PCOD8037992
_publ_section_title
;
Structure prediction by ZEFSAII (Michael W. Deem and Ramdas Pophale) SiO2 
 PCOD8037992
Probable space group: P -1
;
_chemical_formula_sum "Si O2"
_cell_formula_units_Z 16
_cell_length_a 12.206428
_cell_length_b 9.112823
_cell_length_c 21.003684
_cell_angle_alpha 140.217092
_cell_angle_beta 139.814158
_cell_angle_gamma 70.511015
_cell_volume 761.530337
_symmetry_space_group_name_H-M "P -1"
_symmetry_group_IT_number 2
_symmetry_cell_setting 'triclinic'
loop_
_space_group_symop_operation_xyz
x,y,z
-x,-y,-z
loop_
_atom_site_type_symbol
_atom_site_label
_atom_site_fract_x
_atom_site_fract_y
_atom_site_fract_z
Si Si1 0.151094 0.661450 0.468314
Si Si2 0.690843 0.609873 0.765457
Si Si3 0.476363 0.733259 0.541499
Si Si4 0.592135 0.255911 0.266652
Si Si5 0.314338 0.634395 0.981229
Si Si6 0.292872 0.673107 0.794130
Si Si7 0.286300 0.265606 0.744253
Si Si8 0.857018 0.154209 0.932410
O O1 0.262983 0.674746 0.457404
O O2 0.288810 0.670818 0.589351
O O3 0.907072 0.371043 0.272578
O O4 0.126190 0.919530 0.545168
O O5 0.564317 0.310416 0.567507
O O6 0.530960 0.601057 0.740849
O O7 0.776876 0.868732 0.840420
O O8 0.890915 0.668440 0.913887
O O9 0.500000 0.500000 0.500000
O O10 0.698321 0.050958 0.765751
O O11 0.754781 0.388602 0.323481
O O12 0.425157 0.905003 0.071206
O O13 0.190846 0.348326 0.786258
O O14 0.486646 0.649895 0.106335
O O15 0.152699 0.628889 0.955017
O O16 0.334146 0.452239 0.764873
O O17 0.500000 0.000000 0.000000
#
# Coordination Sequence:
#
# PCOD8037992 Si02
#       8
#     2   2   2   2   2   2   2   2
#     4  11  22  39  60  86 118 154 198 245 292 350
#     4   9  18  29  56  85 116 148 194 245 295 338
#     4  10  17  33  56  88 114 147 198 252 290 335
#     4  10  19  40  54  85 123 153 189 242 297 355
#     4   9  17  34  60  81 118 150 197 239 297 342
#     4  12  25  36  58  88 122 156 195 240 297 359
#     4  10  20  37  57  85 116 157 197 241 291 352
#     4   9  16  30  54  87 112 147 190 254 288 336
#
# _framework density 21.010325999999999
#
# number of rings (size 3 to 8) (size 9 to 14) (size 15 to 20)
#    0.000    2.000    6.250    0.750    1.750    2.000 
#    0.000    0.000    0.000    1.500    0.000    0.000 
#    0.000    0.000    0.000    0.000    0.000    0.000 
#
# Total GULP energy -198280.633884 kJ/mol
# GULP energy per Si atom -12392.539618 kJ/mol
# Density = 2.096251 g / cm^3
# Si number density = 21.010326 Si / 1000 Ang^3
#
#
#
# Elastic Constant Matrix: (Units=GPa)
#
#
# Indices 1 2 3 4 5 6 
#
# 1 82.6134 40.0085 36.1579 -2.4765 1.8383 -27.0974
# 2 40.0085 55.6936 16.7600 3.5182 3.2091 -10.1110
# 3 36.1579 16.7600 97.9109 -3.3853 3.2633 -13.2779
# 4 -2.4765 3.5182 -3.3853 15.7349 -5.9235 -2.6977
# 5 1.8383 3.2091 3.2633 -5.9235 30.2995 -2.2355
# 6 -27.0974 -10.1110 -13.2779 -2.6977 -2.2355 30.7631
#
#
#
# Elastic Compliance Matrix: (Units=1/GPa)
#
#
# Indices 1 2 3 4 5 6 
#
# 1 0.029053 -0.016907 -0.004941 0.012245 0.004378 0.019293
# 2 -0.016907 0.030005 -0.000034 -0.012393 -0.005051 -0.006499
# 3 -0.004941 -0.000034 0.012269 0.001830 -0.000583 0.001050
# 4 0.012245 -0.012393 0.001830 0.077587 0.016686 0.015519
# 5 0.004378 -0.005051 -0.000583 0.016686 0.037048 0.006100
# 6 0.019293 -0.006499 0.001050 0.015519 0.006100 0.049622
#
#
# Mechanical properties :
#
#
# Convention : Reuss Voigt Hill
#
# Bulk Modulus (GPa) = 36.28055 46.89674 41.58865
# Shear Modulus (GPa) = 17.32887 24.91226 21.12056
#
# Velocity S-wave (km/s) = 2.87501 3.44716 3.17400
# Velocity P-wave (km/s) = 5.32225 6.18168 5.76799
#
# Compressibility (1/GPa) = 0.02756298
#
# Stress axis : x y z
#
# Youngs Moduli (GPa) = 34.42004 33.32775 81.50609
#
# Poissons Ratio (x) = 0.56347 0.40273
# Poissons Ratio (y) = 0.58193 0.00277
# Poissons Ratio (z) = 0.17007 0.00113
#
# Static dielectric constant tensor:
#      x y z
#    x 3.948110 -0.269140 -0.231890 
#    y -0.269140 3.692680 -0.263800 
#    z -0.231890 -0.263800 4.168710 
# 
# 
# High freq. dielectric constant tensor:
#      x y z
#    x 1.812150 -0.030260 -0.018520 
#    y -0.030260 1.794610 -0.029510 
#    z -0.018520 -0.029510 1.819990 
# 
# From -- ./inp_files/594266.got.cif
#   From: 2010.06.25/outbox.cif.g09.slc.cpg/sg2_298_cif.got.tgz:594266.got - 2010.06.27 13:26:56.
