data_PCOD8037089
_publ_section_title
;
Structure prediction by ZEFSAII (Michael W. Deem and Ramdas Pophale) SiO2 
 PCOD8037089
Probable space group: P -1
;
_chemical_formula_sum "Si O2"
_cell_formula_units_Z 12
_cell_length_a 10.946472
_cell_length_b 11.449004
_cell_length_c 11.469319
_cell_angle_alpha 127.920537
_cell_angle_beta 23.872741
_cell_angle_gamma 123.538662
_cell_volume 458.701194
_symmetry_space_group_name_H-M "P -1"
_symmetry_group_IT_number 2
_symmetry_cell_setting 'triclinic'
loop_
_space_group_symop_operation_xyz
x,y,z
-x,-y,-z
loop_
_atom_site_type_symbol
_atom_site_label
_atom_site_fract_x
_atom_site_fract_y
_atom_site_fract_z
Si Si1 0.716131 0.676237 0.681836
Si Si2 0.056709 0.313992 0.259647
Si Si3 0.142308 0.839931 0.251334
Si Si4 0.963008 0.844124 0.157984
Si Si5 0.415525 0.386394 0.786787
Si Si6 0.407728 0.009731 0.720953
O O1 0.881682 0.627575 0.628045
O O2 0.521944 0.536524 0.725243
O O3 0.955645 0.711646 0.396082
O O4 0.487774 0.820537 0.984079
O O5 0.701520 0.292815 0.535191
O O6 0.185746 0.426315 0.118691
O O7 0.245739 0.161831 0.987900
O O8 0.158179 0.805759 0.078081
O O9 0.000000 0.000000 0.500000
O O10 0.753056 0.709818 0.221248
O O11 0.733211 0.981132 0.482143
O O12 0.176004 0.882876 0.886169
O O13 0.500000 0.000000 0.500000
#
# Coordination Sequence:
#
# PCOD8037089 Si02
#       6
#     2   2   2   2   2   2
#     4  12  26  47  72 101 140 190 233 275 352 417
#     4  12  24  44  70 104 143 181 234 289 343 413
#     4  12  26  49  73 100 136 187 236 289 336 417
#     4  12  26  43  69 106 144 176 237 286 346 412
#     4  12  26  42  70 105 145 182 225 292 351 411
#     4  12  24  42  69 106 138 181 226 290 352 404
#
# _framework density 26.160820000000001
#
# number of rings (size 3 to 8) (size 9 to 14) (size 15 to 20)
#    0.000    0.000    1.667    9.000    0.000    1.333 
#    0.000    0.000    0.000    0.000    0.000    0.000 
#    0.000    0.000    0.000    0.000    0.000    0.000 
#
# Total GULP energy -148814.326886 kJ/mol
# GULP energy per Si atom -12401.193907 kJ/mol
# Density = 2.610128 g / cm^3
# Si number density = 26.160820 Si / 1000 Ang^3
#
#
#
# Elastic Constant Matrix: (Units=GPa)
#
#
# Indices 1 2 3 4 5 6 
#
# 1 109.9949 27.3124 25.3446 -16.4938 3.9429 0.3704
# 2 27.3124 66.9430 0.1371 -29.9085 21.2673 -7.8080
# 3 25.3446 0.1371 112.5287 -24.8523 2.8591 1.7383
# 4 -16.4938 -29.9085 -24.8523 47.3357 -9.5605 -1.6468
# 5 3.9429 21.2673 2.8591 -9.5605 44.9711 2.6844
# 6 0.3704 -7.8080 1.7383 -1.6468 2.6844 25.6928
#
#
#
# Elastic Compliance Matrix: (Units=1/GPa)
#
#
# Indices 1 2 3 4 5 6 
#
# 1 0.010915 -0.005625 -0.002655 -0.000847 0.001807 -0.001930
# 2 -0.005625 0.030007 0.005305 0.017975 -0.010878 0.011130
# 3 -0.002655 0.005305 0.011284 0.008131 -0.001357 0.001550
# 4 -0.000847 0.017975 0.008131 0.036381 -0.001652 0.007429
# 5 0.001807 -0.010878 -0.001357 -0.001652 0.027327 -0.006201
# 6 -0.001930 0.011130 0.001550 0.007429 -0.006201 0.043351
#
#
# Mechanical properties :
#
#
# Convention : Reuss Voigt Hill
#
# Bulk Modulus (GPa) = 21.61928 43.89499 32.75714
# Shear Modulus (GPa) = 27.68022 39.37808 33.52915
#
# Velocity S-wave (km/s) = 3.25634 3.88394 3.58391
# Velocity P-wave (km/s) = 4.73501 6.07689 5.44743
#
# Compressibility (1/GPa) = 0.04625500
#
# Stress axis : x y z
#
# Youngs Moduli (GPa) = 91.62113 33.32571 88.61823
#
# Poissons Ratio (x) = 0.18747 0.23525
# Poissons Ratio (y) = 0.51541 -0.47009
# Poissons Ratio (z) = 0.24322 -0.17678
#
# Static dielectric constant tensor:
#      x y z
#    x 4.777300 -0.301750 -0.100640 
#    y -0.301750 4.830500 0.246180 
#    z -0.100640 0.246180 6.131440 
# 
# 
# High freq. dielectric constant tensor:
#      x y z
#    x 2.032390 -0.010620 -0.008450 
#    y -0.010620 2.050750 -0.001020 
#    z -0.008450 -0.001020 2.079460 
# 
# From -- ./inp_files/428624.got.cif
#   From: 2010.06.25/outbox.cif.g09.slc.cpg/sg2_215_cif.got.tgz:428624.got - 2010.06.27 13:26:56.
