data_PCOD8037000
_publ_section_title
;
Structure prediction by ZEFSAII (Michael W. Deem and Ramdas Pophale) SiO2 
 PCOD8037000
Probable space group: P -1
;
_chemical_formula_sum "Si O2"
_cell_formula_units_Z 14
_cell_length_a 11.864611
_cell_length_b 9.371976
_cell_length_c 8.779762
_cell_angle_alpha 59.941804
_cell_angle_beta 108.824853
_cell_angle_gamma 67.632315
_cell_volume 599.566481
_symmetry_space_group_name_H-M "P -1"
_symmetry_group_IT_number 2
_symmetry_cell_setting 'triclinic'
loop_
_space_group_symop_operation_xyz
x,y,z
-x,-y,-z
loop_
_atom_site_type_symbol
_atom_site_label
_atom_site_fract_x
_atom_site_fract_y
_atom_site_fract_z
Si Si1 0.387496 0.243406 0.882176
Si Si2 0.057990 0.947014 0.725716
Si Si3 0.949000 0.708678 0.957249
Si Si4 0.577688 0.387713 0.936323
Si Si5 0.886122 0.374060 0.628866
Si Si6 0.401620 0.043066 0.286638
Si Si7 0.588864 0.570177 0.566782
O O1 0.215049 0.403643 0.637186
O O2 0.470886 0.343244 0.834829
O O3 0.363376 0.233679 0.058337
O O4 0.500000 0.000000 0.000000
O O5 0.240630 0.836742 0.854703
O O6 0.029597 0.794488 0.870142
O O7 0.000000 0.000000 0.500000
O O8 0.969203 0.166311 0.668024
O O9 0.759260 0.898988 0.761154
O O10 0.000000 0.500000 0.000000
O O11 0.991852 0.649221 0.188466
O O12 0.500000 0.500000 0.000000
O O13 0.577861 0.557846 0.750823
O O14 0.768238 0.389909 0.684907
O O15 0.500000 0.000000 0.500000
O O16 0.509068 0.816983 0.356141
O O17 0.500000 0.500000 0.500000
#
# Coordination Sequence:
#
# PCOD8037000 Si02
#       7
#     2   2   2   2   2   2   2
#     4  12  27  47  76 112 146 197 255 310 383 454
#     4  12  30  48  77 115 154 201 259 321 389 453
#     4  12  30  50  76 113 155 203 256 320 393 452
#     4  12  27  47  77 108 152 199 256 311 379 464
#     4  12  26  50  78 109 157 198 259 318 384 458
#     4  12  28  48  75 108 153 197 253 314 386 460
#     4  12  23  46  77 106 142 198 253 304 376 461
#
# _framework density 23.350206
#
# number of rings (size 3 to 8) (size 9 to 14) (size 15 to 20)
#    0.000    0.000    4.286    3.857   12.000    0.571 
#    0.000    0.000    0.000    0.000    0.000    0.000 
#    0.000    0.000    0.000    0.000    0.000    0.000 
#
# Total GULP energy -173578.884613 kJ/mol
# GULP energy per Si atom -12398.491758 kJ/mol
# Density = 2.329706 g / cm^3
# Si number density = 23.350206 Si / 1000 Ang^3
#
#
#
# Elastic Constant Matrix: (Units=GPa)
#
#
# Indices 1 2 3 4 5 6 
#
# 1 97.5304 36.1707 44.5284 2.3831 5.0794 -18.6732
# 2 36.1707 173.8514 62.5194 -4.4878 7.3158 -12.0802
# 3 44.5284 62.5194 171.2951 18.9420 -1.8244 -1.5943
# 4 2.3831 -4.4878 18.9420 46.9565 -4.4050 4.2474
# 5 5.0794 7.3158 -1.8244 -4.4050 56.9222 2.1214
# 6 -18.6732 -12.0802 -1.5943 4.2474 2.1214 43.0174
#
#
#
# Elastic Compliance Matrix: (Units=1/GPa)
#
#
# Indices 1 2 3 4 5 6 
#
# 1 0.013139 -0.001275 -0.002889 -0.000228 -0.001317 0.005326
# 2 -0.001275 0.007039 -0.002403 0.001522 -0.000796 0.001223
# 3 -0.002889 -0.002403 0.007797 -0.003045 0.000632 -0.001371
# 4 -0.000228 0.001522 -0.003045 0.023024 0.001589 -0.002136
# 5 -0.001317 -0.000796 0.000632 0.001589 0.017999 -0.001816
# 6 0.005326 0.001223 -0.001371 -0.002136 -0.001816 0.026152
#
#
# Mechanical properties :
#
#
# Convention : Reuss Voigt Hill
#
# Bulk Modulus (GPa) = 67.38463 81.01264 74.19864
# Shear Modulus (GPa) = 44.15758 49.34310 46.75034
#
# Velocity S-wave (km/s) = 4.35340 4.60192 4.47938
# Velocity P-wave (km/s) = 7.36141 7.93768 7.65497
#
# Compressibility (1/GPa) = 0.01484018
#
# Stress axis : x y z
#
# Youngs Moduli (GPa) = 76.10859 142.06031 128.25850
#
# Poissons Ratio (x) = 0.18113 0.37059
# Poissons Ratio (y) = 0.09704 0.30822
# Poissons Ratio (z) = 0.21991 0.34139
#
# Static dielectric constant tensor:
#      x y z
#    x 4.453030 0.177900 -0.031740 
#    y 0.177900 3.039850 0.327350 
#    z -0.031740 0.327350 4.076980 
# 
# 
# High freq. dielectric constant tensor:
#      x y z
#    x 1.930910 -0.012600 -0.001200 
#    y -0.012600 1.933830 0.013420 
#    z -0.001200 0.013420 1.946000 
# 
# From -- ./inp_files/156816.got.cif
#   From: 2010.06.25/outbox.cif.g09.slc.cpg/sg2_79_cif.got.tgz:156816.got - 2010.06.27 13:26:56.
