data_PCOD8037325
_publ_section_title
;
Structure prediction by ZEFSAII (Michael W. Deem and Ramdas Pophale) SiO2 
 PCOD8037325
Probable space group: P -1
;
_chemical_formula_sum "Si O2"
_cell_formula_units_Z 12
_cell_length_a 9.345544
_cell_length_b 12.180466
_cell_length_c 6.602580
_cell_angle_alpha 115.573693
_cell_angle_beta 119.166811
_cell_angle_gamma 54.631348
_cell_volume 523.230437
_symmetry_space_group_name_H-M "P -1"
_symmetry_group_IT_number 2
_symmetry_cell_setting 'triclinic'
loop_
_space_group_symop_operation_xyz
x,y,z
-x,-y,-z
loop_
_atom_site_type_symbol
_atom_site_label
_atom_site_fract_x
_atom_site_fract_y
_atom_site_fract_z
Si Si1 0.201183 0.417403 0.992716
Si Si2 0.990366 0.140409 0.019460
Si Si3 0.628479 0.395458 0.839068
Si Si4 0.300358 0.030797 0.804105
Si Si5 0.776965 0.779340 0.478576
Si Si6 0.466927 0.245404 0.375326
O O1 0.273281 0.528718 0.143301
O O2 0.324228 0.289859 0.123103
O O3 0.186622 0.364645 0.715958
O O4 0.000000 0.500000 0.000000
O O5 0.046960 0.224498 0.287392
O O6 0.777315 0.245375 0.904663
O O7 0.126536 0.105587 0.892749
O O8 0.000000 0.000000 0.000000
O O9 0.494715 0.373024 0.571533
O O10 0.500000 0.500000 0.000000
O O11 0.270623 0.108995 0.637109
O O12 0.331988 0.876513 0.651899
O O13 0.500000 0.000000 0.000000
O O14 0.610781 0.816069 0.551014
#
# Coordination Sequence:
#
# PCOD8037325 Si02
#       6
#     2   2   2   2   2   2
#     4  12  27  46  74 109 148 196 253 301 371 441
#     4  12  30  49  76 113 149 196 249 308 372 438
#     4  12  28  49  73 110 151 195 245 305 373 436
#     4  12  25  46  76 110 144 193 254 298 370 439
#     4  12  24  47  76 106 150 193 248 305 371 439
#     4  12  26  46  78 106 149 200 244 308 369 443
#
# _framework density 22.934445
#
# number of rings (size 3 to 8) (size 9 to 14) (size 15 to 20)
#    0.000    0.000    5.000    4.000    7.000    5.333 
#    0.000    0.000    0.000    0.000    0.000    0.000 
#    0.000    0.000    0.000    0.000    0.000    0.000 
#
# Total GULP energy -148768.061622 kJ/mol
# GULP energy per Si atom -12397.338469 kJ/mol
# Density = 2.288225 g / cm^3
# Si number density = 22.934445 Si / 1000 Ang^3
#
#
#
# Elastic Constant Matrix: (Units=GPa)
#
#
# Indices 1 2 3 4 5 6 
#
# 1 118.4887 43.1101 35.5609 -1.5978 -6.6681 -0.4566
# 2 43.1101 118.0321 27.2768 -0.0066 -15.9405 -7.8677
# 3 35.5609 27.2768 131.1595 15.0945 2.8411 -0.7080
# 4 -1.5978 -0.0066 15.0945 43.2225 6.7810 -1.7630
# 5 -6.6681 -15.9405 2.8411 6.7810 33.8982 4.0947
# 6 -0.4566 -7.8677 -0.7080 -1.7630 4.0947 49.3361
#
#
#
# Elastic Compliance Matrix: (Units=1/GPa)
#
#
# Indices 1 2 3 4 5 6 
#
# 1 0.010331 -0.003203 -0.002272 0.001069 0.000558 -0.000456
# 2 -0.003203 0.010644 -0.001403 -0.000264 0.004392 0.001274
# 3 -0.002272 -0.001403 0.008904 -0.003005 -0.001237 -0.000122
# 4 0.001069 -0.000264 -0.003005 0.025030 -0.004816 0.001219
# 5 0.000558 0.004392 -0.001237 -0.004816 0.033011 -0.002224
# 6 -0.000456 0.001274 -0.000122 0.001219 -0.002224 0.020694
#
#
# Mechanical properties :
#
#
# Convention : Reuss Voigt Hill
#
# Bulk Modulus (GPa) = 62.02611 64.39730 63.21171
# Shear Modulus (GPa) = 39.13991 42.74021 40.94006
#
# Velocity S-wave (km/s) = 4.13558 4.32161 4.22962
# Velocity P-wave (km/s) = 7.06454 7.28296 7.17458
#
# Compressibility (1/GPa) = 0.01612224
#
# Stress axis : x y z
#
# Youngs Moduli (GPa) = 96.79512 93.94525 112.30698
#
# Poissons Ratio (x) = 0.30093 0.25521
# Poissons Ratio (y) = 0.31005 0.15758
# Poissons Ratio (z) = 0.21996 0.13182
#
# Static dielectric constant tensor:
#      x y z
#    x 4.015610 -0.057680 0.059770 
#    y -0.057680 4.349490 0.040200 
#    z 0.059770 0.040200 3.882300 
# 
# 
# High freq. dielectric constant tensor:
#      x y z
#    x 1.907760 0.005030 0.002210 
#    y 0.005030 1.917320 0.015540 
#    z 0.002210 0.015540 1.925960 
# 
# From -- ./inp_files/21674.got.cif
#   From: 2010.06.25/outbox.cif.g09.slc.cpg/sg2_11_cif.got.tgz:21674.got - 2010.06.27 13:26:56.
