data_PCOD8037156
_publ_section_title
;
Structure prediction by ZEFSAII (Michael W. Deem and Ramdas Pophale) SiO2 
 PCOD8037156
Probable space group: P -1
;
_chemical_formula_sum "Si O2"
_cell_formula_units_Z 14
_cell_length_a 12.287452
_cell_length_b 14.266022
_cell_length_c 8.436584
_cell_angle_alpha 52.777072
_cell_angle_beta 32.898180
_cell_angle_gamma 59.460681
_cell_volume 639.616170
_symmetry_space_group_name_H-M "P -1"
_symmetry_group_IT_number 2
_symmetry_cell_setting 'triclinic'
loop_
_space_group_symop_operation_xyz
x,y,z
-x,-y,-z
loop_
_atom_site_type_symbol
_atom_site_label
_atom_site_fract_x
_atom_site_fract_y
_atom_site_fract_z
Si Si1 0.326093 0.588161 0.155895
Si Si2 0.872023 0.894666 0.198192
Si Si3 0.488771 0.802140 0.944119
Si Si4 0.169346 0.706567 0.933229
Si Si5 0.421967 0.239864 0.775870
Si Si6 0.790360 0.979985 0.863003
Si Si7 0.110804 0.421737 0.821185
O O1 0.173181 0.519302 0.520675
O O2 0.500000 0.500000 0.000000
O O3 0.399382 0.710354 0.020473
O O4 0.227281 0.605317 0.088021
O O5 0.676203 0.869658 0.568119
O O6 0.809283 0.917328 0.072295
O O7 0.023681 0.787085 0.132535
O O8 0.000000 0.000000 0.000000
O O9 0.554015 0.732188 0.094806
O O10 0.321269 0.896289 0.104399
O O11 0.367525 0.770757 0.561608
O O12 0.051990 0.664070 0.966338
O O13 0.291448 0.344935 0.751739
O O14 0.328020 0.110223 0.011924
O O15 0.000000 0.000000 0.500000
O O16 0.000000 0.500000 0.000000
#
# Coordination Sequence:
#
# PCOD8037156 Si02
#       7
#     2   2   2   2   2   2   2
#     4  12  26  47  71 104 144 189 238 289 352 416
#     4  12  24  44  72 106 142 183 237 291 355 423
#     4  12  27  44  74 108 144 187 235 295 354 424
#     4  12  25  48  73 102 144 186 237 293 352 418
#     4  12  26  48  72 106 144 184 239 291 356 422
#     4  12  25  47  74 105 144 184 237 293 359 423
#     4  12  28  45  74 103 141 191 239 291 350 420
#
# _framework density 21.888128999999999
#
# number of rings (size 3 to 8) (size 9 to 14) (size 15 to 20)
#    0.000    0.000    2.857    7.286    6.000    1.143 
#    0.000    0.000    0.000    0.000    0.000    0.000 
#    0.000    0.000    0.000    0.000    0.000    0.000 
#
# Total GULP energy -173625.962342 kJ/mol
# GULP energy per Si atom -12401.854453 kJ/mol
# Density = 2.183831 g / cm^3
# Si number density = 21.888129 Si / 1000 Ang^3
#
#
#
# Elastic Constant Matrix: (Units=GPa)
#
#
# Indices 1 2 3 4 5 6 
#
# 1 105.4272 22.5666 27.7932 11.0649 9.3037 -16.8890
# 2 22.5666 132.9054 44.0274 19.2920 -12.3526 3.0625
# 3 27.7932 44.0274 165.1099 19.0083 2.8041 -3.9743
# 4 11.0649 19.2920 19.0083 40.2259 2.3595 1.0042
# 5 9.3037 -12.3526 2.8041 2.3595 43.0427 -5.9648
# 6 -16.8890 3.0625 -3.9743 1.0042 -5.9648 40.0470
#
#
#
# Elastic Compliance Matrix: (Units=1/GPa)
#
#
# Indices 1 2 3 4 5 6 
#
# 1 0.011203 -0.001568 -0.001119 -0.001790 -0.002081 0.004469
# 2 -0.001568 0.009204 -0.001894 -0.003247 0.003143 -0.001004
# 3 -0.001119 -0.001894 0.007006 -0.002068 -0.000599 0.000331
# 4 -0.001790 -0.003247 -0.002068 0.028058 -0.002190 -0.001742
# 5 -0.002081 0.003143 -0.000599 -0.002190 0.025106 0.002617
# 6 0.004469 -0.001004 0.000331 -0.001742 0.002617 0.027398
#
#
# Mechanical properties :
#
#
# Convention : Reuss Voigt Hill
#
# Bulk Modulus (GPa) = 54.78893 65.80189 60.29541
# Shear Modulus (GPa) = 40.57696 45.26681 42.92189
#
# Velocity S-wave (km/s) = 4.31029 4.55257 4.43308
# Velocity P-wave (km/s) = 7.06096 7.60017 7.33552
#
# Compressibility (1/GPa) = 0.01825186
#
# Stress axis : x y z
#
# Youngs Moduli (GPa) = 89.26004 108.64275 142.73190
#
# Poissons Ratio (x) = 0.17037 0.15967
# Poissons Ratio (y) = 0.13998 0.27035
# Poissons Ratio (z) = 0.09985 0.20578
#
# Static dielectric constant tensor:
#      x y z
#    x 4.291810 0.228750 -0.159170 
#    y 0.228750 4.523360 -0.091710 
#    z -0.159170 -0.091710 4.175410 
# 
# 
# High freq. dielectric constant tensor:
#      x y z
#    x 1.879680 -0.001950 0.003120 
#    y -0.001950 1.874010 0.005200 
#    z 0.003120 0.005200 1.879960 
# 
# From -- ./inp_files/27783.got.cif
#   From: 2010.06.25/outbox.cif.g09.slc.cpg/sg2_14_cif.got.tgz:27783.got - 2010.06.27 13:26:56.
