data_PCOD8037436
_publ_section_title
;
Structure prediction by ZEFSAII (Michael W. Deem and Ramdas Pophale) SiO2 
 PCOD8037436
Probable space group: P -1
;
_chemical_formula_sum "Si O2"
_cell_formula_units_Z 14
_cell_length_a 9.536607
_cell_length_b 21.578525
_cell_length_c 6.654302
_cell_angle_alpha 128.385459
_cell_angle_beta 51.003860
_cell_angle_gamma 144.269250
_cell_volume 602.924882
_symmetry_space_group_name_H-M "P -1"
_symmetry_group_IT_number 2
_symmetry_cell_setting 'triclinic'
loop_
_space_group_symop_operation_xyz
x,y,z
-x,-y,-z
loop_
_atom_site_type_symbol
_atom_site_label
_atom_site_fract_x
_atom_site_fract_y
_atom_site_fract_z
Si Si1 0.931913 0.758430 0.270802
Si Si2 0.459836 0.541338 0.424777
Si Si3 0.748275 0.098447 0.355402
Si Si4 0.066979 0.101040 0.755709
Si Si5 0.394839 0.775638 0.356872
Si Si6 0.969980 0.358151 0.258517
Si Si7 0.823504 0.398907 0.100051
O O1 0.707011 0.626505 0.240586
O O2 0.870540 0.814473 0.298399
O O3 0.035699 0.819824 0.513053
O O4 0.111588 0.753429 0.976203
O O5 0.500000 0.500000 0.500000
O O6 0.412873 0.617572 0.681750
O O7 0.233115 0.435018 0.291309
O O8 0.668992 0.151663 0.410108
O O9 0.500000 0.000000 0.500000
O O10 0.850199 0.064198 0.033412
O O11 0.314097 0.156890 0.772030
O O12 0.000000 0.000000 0.500000
O O13 0.252999 0.684619 0.476275
O O14 0.278550 0.713778 0.124843
O O15 0.977347 0.427080 0.219250
O O16 0.000000 0.500000 0.000000
#
# Coordination Sequence:
#
# PCOD8037436 Si02
#       7
#     2   2   2   2   2   2   2
#     4  12  26  47  75 107 153 197 251 313 380 450
#     4  12  26  44  73 112 157 197 254 309 374 456
#     4  12  28  52  79 107 150 197 254 325 386 455
#     4  12  30  49  78 116 146 197 262 319 390 458
#     4  12  26  48  77 106 152 196 252 311 379 452
#     4  12  25  46  73 108 149 206 245 300 379 453
#     4  12  25  43  70 104 148 199 250 297 369 452
#
# _framework density 23.220137999999999
#
# number of rings (size 3 to 8) (size 9 to 14) (size 15 to 20)
#    0.000    0.000    4.286    5.143    6.000    4.571 
#    0.000    0.000    0.000    0.000    0.000    0.000 
#    0.000    0.000    0.000    0.000    0.000    0.000 
#
# Total GULP energy -173567.663805 kJ/mol
# GULP energy per Si atom -12397.690272 kJ/mol
# Density = 2.316729 g / cm^3
# Si number density = 23.220138 Si / 1000 Ang^3
#
#
#
# Elastic Constant Matrix: (Units=GPa)
#
#
# Indices 1 2 3 4 5 6 
#
# 1 164.6939 50.3309 57.4799 -7.2046 9.6155 -7.9274
# 2 50.3309 115.5678 52.8747 -6.8095 9.0983 -0.1749
# 3 57.4799 52.8747 147.9389 5.2173 -4.7376 -4.2372
# 4 -7.2046 -6.8095 5.2173 33.5684 -6.5404 -0.8077
# 5 9.6155 9.0983 -4.7376 -6.5404 38.1241 -1.9631
# 6 -7.9274 -0.1749 -4.2372 -0.8077 -1.9631 37.4621
#
#
#
# Elastic Compliance Matrix: (Units=1/GPa)
#
#
# Indices 1 2 3 4 5 6 
#
# 1 0.007728 -0.002120 -0.002300 0.001339 -0.001432 0.001319
# 2 -0.002120 0.011443 -0.003434 0.001924 -0.002337 -0.000865
# 3 -0.002300 -0.003434 0.009043 -0.002156 0.002184 0.000588
# 4 0.001339 0.001924 -0.002156 0.031687 0.004421 0.000963
# 5 -0.001432 -0.002337 0.002184 0.004421 0.028257 0.001509
# 6 0.001319 -0.000865 0.000588 0.000963 0.001509 0.027135
#
#
# Mechanical properties :
#
#
# Convention : Reuss Voigt Hill
#
# Bulk Modulus (GPa) = 79.95450 83.28574 81.62012
# Shear Modulus (GPa) = 36.99039 39.66526 38.32782
#
# Velocity S-wave (km/s) = 3.99561 4.13755 4.06720
# Velocity P-wave (km/s) = 7.46957 7.66626 7.56856
#
# Compressibility (1/GPa) = 0.01250711
#
# Stress axis : x y z
#
# Youngs Moduli (GPa) = 129.39725 87.38851 110.57755
#
# Poissons Ratio (x) = 0.18523 0.25437
# Poissons Ratio (y) = 0.27427 0.37970
# Poissons Ratio (z) = 0.29766 0.30007
#
# Static dielectric constant tensor:
#      x y z
#    x 4.294850 -0.017450 -0.090900 
#    y -0.017450 4.101960 0.069590 
#    z -0.090900 0.069590 4.355230 
# 
# 
# High freq. dielectric constant tensor:
#      x y z
#    x 1.928160 -0.007370 -0.001240 
#    y -0.007370 1.913590 -0.001020 
#    z -0.001240 -0.001020 1.941500 
# 
# From -- ./inp_files/47542.got.cif
#   From: 2010.06.25/outbox.cif.g09.slc.cpg/sg2_24_cif.got.tgz:47542.got - 2010.06.27 13:26:56.
