data_PCOD8037049
_publ_section_title
;
Structure prediction by ZEFSAII (Michael W. Deem and Ramdas Pophale) SiO2 
 PCOD8037049
Probable space group: P -1
;
_chemical_formula_sum "Si O2"
_cell_formula_units_Z 16
_cell_length_a 8.019635
_cell_length_b 26.741653
_cell_length_c 9.257698
_cell_angle_alpha 144.905613
_cell_angle_beta 107.265697
_cell_angle_gamma 45.963975
_cell_volume 617.957121
_symmetry_space_group_name_H-M "P -1"
_symmetry_group_IT_number 2
_symmetry_cell_setting 'triclinic'
loop_
_space_group_symop_operation_xyz
x,y,z
-x,-y,-z
loop_
_atom_site_type_symbol
_atom_site_label
_atom_site_fract_x
_atom_site_fract_y
_atom_site_fract_z
Si Si1 0.561783 0.182966 0.435615
Si Si2 0.729479 0.060041 0.493740
Si Si3 0.849930 0.788994 0.206054
Si Si4 0.493573 0.630599 0.313084
Si Si5 0.995530 0.680923 0.446920
Si Si6 0.891650 0.249398 0.111340
Si Si7 0.750106 0.537667 0.457240
Si Si8 0.185741 0.099504 0.246070
O O1 0.584049 0.174522 0.595738
O O2 0.643795 0.244952 0.546197
O O3 0.209480 0.321867 0.613926
O O4 0.780231 0.017862 0.036520
O O5 0.457915 0.144146 0.734792
O O6 0.000000 0.000000 0.500000
O O7 0.892386 0.905975 0.110514
O O8 0.788087 0.883641 0.540667
O O9 0.943777 0.805412 0.129320
O O10 0.123965 0.610535 0.889942
O O11 0.642298 0.616042 0.457756
O O12 0.160181 0.728631 0.505302
O O13 0.702600 0.469252 0.921219
O O14 0.102247 0.662376 0.591671
O O15 0.692604 0.869975 0.753540
O O16 0.545198 0.352213 0.251310
O O17 0.000000 0.500000 0.500000
#
# Coordination Sequence:
#
# PCOD8037049 Si02
#       8
#     2   2   2   2   2   2   2   2
#     4  12  26  46  76 109 144 193 246 305 369 433
#     4  12  26  49  73 107 154 193 240 306 373 438
#     4  12  27  48  75 110 145 197 247 302 368 437
#     4  12  26  46  76 109 144 193 246 305 369 433
#     4  12  23  48  78 101 145 192 254 304 355 433
#     4  12  27  48  75 110 145 197 247 302 368 437
#     4  12  26  49  73 107 154 193 240 306 373 438
#     4  12  23  48  78 101 145 192 254 304 355 433
#
# _framework density 25.891763999999998
#
# number of rings (size 3 to 8) (size 9 to 14) (size 15 to 20)
#    0.000    0.000    5.000    4.500    3.500    0.000 
#    0.000    0.000    0.000    0.000    0.000    0.000 
#    0.000    0.000    0.000    0.000    0.000    0.000 
#
# Total GULP energy -198265.175707 kJ/mol
# GULP energy per Si atom -12391.573482 kJ/mol
# Density = 2.583283 g / cm^3
# Si number density = 25.891764 Si / 1000 Ang^3
#
#
#
# Elastic Constant Matrix: (Units=GPa)
#
#
# Indices 1 2 3 4 5 6 
#
# 1 78.2744 43.9185 5.3824 -2.4189 -4.2803 8.5830
# 2 43.9185 118.0818 -8.4181 -18.1991 4.1088 -7.1942
# 3 5.3824 -8.4181 51.2297 0.4645 16.8162 25.8590
# 4 -2.4189 -18.1991 0.4645 53.0933 4.5325 0.7717
# 5 -4.2803 4.1088 16.8162 4.5325 37.0503 9.4490
# 6 8.5830 -7.1942 25.8590 0.7717 9.4490 40.3177
#
#
#
# Elastic Compliance Matrix: (Units=1/GPa)
#
#
# Indices 1 2 3 4 5 6 
#
# 1 0.018059 -0.007730 -0.002527 -0.002212 0.005604 -0.004874
# 2 -0.007730 0.012573 0.002883 0.004307 -0.004916 0.003110
# 3 -0.002527 0.002883 0.032666 0.001799 -0.011246 -0.017297
# 4 -0.002212 0.004307 0.001799 0.020546 -0.004238 0.000686
# 5 0.005604 -0.004916 -0.011246 -0.004238 0.034538 -0.002870
# 6 -0.004874 0.003110 -0.017297 0.000686 -0.002870 0.038149
#
#
# Mechanical properties :
#
#
# Convention : Reuss Voigt Hill
#
# Bulk Modulus (GPa) = 20.59658 36.59461 28.59560
# Shear Modulus (GPa) = 26.67211 39.87246 33.27228
#
# Velocity S-wave (km/s) = 3.21306 3.92850 3.58865
# Velocity P-wave (km/s) = 4.66231 5.89422 5.31408
#
# Compressibility (1/GPa) = 0.04855174
#
# Stress axis : x y z
#
# Youngs Moduli (GPa) = 55.37437 79.53236 30.61324
#
# Poissons Ratio (x) = 0.61476 0.07735
# Poissons Ratio (y) = 0.42803 -0.08826
# Poissons Ratio (z) = 0.13991 -0.22931
#
# Static dielectric constant tensor:
#      x y z
#    x 4.805980 -0.235630 -0.312760 
#    y -0.235630 4.453010 0.438560 
#    z -0.312760 0.438560 4.941750 
# 
# 
# High freq. dielectric constant tensor:
#      x y z
#    x 2.060350 -0.014760 -0.011590 
#    y -0.014760 2.029660 0.020500 
#    z -0.011590 0.020500 2.056130 
# 
# From -- ./inp_files/227758.got.cif
#   From: 2010.06.25/outbox.cif.g09.slc.cpg/sg2_114_cif.got.tgz:227758.got - 2010.06.27 13:26:56.
