data_PCOD8037030
_publ_section_title
;
Structure prediction by ZEFSAII (Michael W. Deem and Ramdas Pophale) SiO2 
 PCOD8037030
Probable space group: P -1
;
_chemical_formula_sum "Si O2"
_cell_formula_units_Z 14
_cell_length_a 9.584286
_cell_length_b 9.187847
_cell_length_c 11.841827
_cell_angle_alpha 92.439420
_cell_angle_beta 130.654869
_cell_angle_gamma 117.384118
_cell_volume 605.053079
_symmetry_space_group_name_H-M "P -1"
_symmetry_group_IT_number 2
_symmetry_cell_setting 'triclinic'
loop_
_space_group_symop_operation_xyz
x,y,z
-x,-y,-z
loop_
_atom_site_type_symbol
_atom_site_label
_atom_site_fract_x
_atom_site_fract_y
_atom_site_fract_z
Si Si1 0.096454 0.939494 0.253308
Si Si2 0.523866 0.080675 0.891564
Si Si3 0.772176 0.480725 0.358215
Si Si4 0.441592 0.304276 0.982777
Si Si5 0.980053 0.316234 0.993465
Si Si6 0.900582 0.100114 0.497344
Si Si7 0.604639 0.639245 0.664847
O O1 0.212350 0.966112 0.438197
O O2 0.246140 0.142007 0.280066
O O3 0.086811 0.789274 0.166210
O O4 0.831130 0.865359 0.132790
O O5 0.300115 0.925551 0.687815
O O6 0.512240 0.250322 0.906379
O O7 0.774602 0.165741 0.969277
O O8 0.500000 0.000000 0.000000
O O9 0.598168 0.319040 0.169089
O O10 0.631366 0.429314 0.397746
O O11 0.000000 0.500000 0.500000
O O12 0.861417 0.680554 0.363327
O O13 0.500000 0.500000 0.000000
O O14 0.233365 0.382924 0.172603
O O15 0.000000 0.500000 0.000000
O O16 0.000000 0.000000 0.500000
O O17 0.500000 0.500000 0.500000
#
# Coordination Sequence:
#
# PCOD8037030 Si02
#       7
#     2   2   2   2   2   2   2
#     4  12  26  51  80 108 158 208 253 314 391 448
#     4  12  28  47  76 110 150 193 258 311 376 461
#     4  12  28  46  75 109 147 197 258 312 377 454
#     4  12  23  47  77 105 146 200 254 306 374 456
#     4  12  30  50  77 114 156 204 255 315 390 455
#     4  12  26  48  79 110 149 201 257 313 378 457
#     4  12  30  49  76 112 159 199 256 322 384 452
#
# _framework density 23.138466999999999
#
# number of rings (size 3 to 8) (size 9 to 14) (size 15 to 20)
#    0.000    0.000    4.286    3.857   12.000    0.571 
#    0.000    0.000    0.000    0.000    0.000    0.000 
#    0.000    0.000    0.000    0.000    0.000    0.000 
#
# Total GULP energy -173658.859648 kJ/mol
# GULP energy per Si atom -12404.204261 kJ/mol
# Density = 2.308580 g / cm^3
# Si number density = 23.138467 Si / 1000 Ang^3
#
#
#
# Elastic Constant Matrix: (Units=GPa)
#
#
# Indices 1 2 3 4 5 6 
#
# 1 161.0618 30.1505 48.0411 -4.6104 -4.8119 3.5328
# 2 30.1505 105.8047 27.2844 -4.3657 -4.6396 1.5822
# 3 48.0411 27.2844 147.0845 -17.7246 -8.9155 -4.0385
# 4 -4.6104 -4.3657 -17.7246 39.5647 -1.8864 -7.2425
# 5 -4.8119 -4.6396 -8.9155 -1.8864 52.6669 5.9173
# 6 3.5328 1.5822 -4.0385 -7.2425 5.9173 36.3504
#
#
#
# Elastic Compliance Matrix: (Units=1/GPa)
#
#
# Indices 1 2 3 4 5 6 
#
# 1 0.007135 -0.001478 -0.002123 -0.000453 0.000258 -0.000997
# 2 -0.001478 0.010270 -0.001365 0.000288 0.000605 -0.000496
# 3 -0.002123 -0.001365 0.008300 0.003691 0.001026 0.001756
# 4 -0.000453 0.000288 0.003691 0.028028 0.000953 0.005871
# 5 0.000258 0.000605 0.001026 0.000953 0.019602 -0.002938
# 6 -0.000997 -0.000496 0.001756 0.005871 -0.002938 0.029472
#
#
# Mechanical properties :
#
#
# Convention : Reuss Voigt Hill
#
# Bulk Modulus (GPa) = 63.39171 69.43367 66.41269
# Shear Modulus (GPa) = 42.37397 46.28139 44.32768
#
# Velocity S-wave (km/s) = 4.28404 4.47720 4.38168
# Velocity P-wave (km/s) = 7.20602 7.53659 7.37316
#
# Compressibility (1/GPa) = 0.01577493
#
# Stress axis : x y z
#
# Youngs Moduli (GPa) = 140.14834 97.36749 120.47572
#
# Poissons Ratio (x) = 0.14395 0.25572
# Poissons Ratio (y) = 0.20719 0.16440
# Poissons Ratio (z) = 0.29748 0.13287
#
# Static dielectric constant tensor:
#      x y z
#    x 4.420640 -0.180350 -0.319360 
#    y -0.180350 3.973660 0.028940 
#    z -0.319360 0.028940 4.388080 
# 
# 
# High freq. dielectric constant tensor:
#      x y z
#    x 1.925470 -0.003590 -0.005740 
#    y -0.003590 1.924740 0.006630 
#    z -0.005740 0.006630 1.934610 
# 
# From -- ./inp_files/379756.got.cif
#   From: 2010.06.25/outbox.cif.g09.slc.cpg/sg2_190_cif.got.tgz:379756.got - 2010.06.27 13:26:56.
