data_PCOD8037441
_publ_section_title
;
Structure prediction by ZEFSAII (Michael W. Deem and Ramdas Pophale) SiO2 
 PCOD8037441
Probable space group: P -1
;
_chemical_formula_sum "Si O2"
_cell_formula_units_Z 14
_cell_length_a 14.137176
_cell_length_b 5.225765
_cell_length_c 12.343911
_cell_angle_alpha 107.791570
_cell_angle_beta 134.237233
_cell_angle_gamma 69.201694
_cell_volume 608.507131
_symmetry_space_group_name_H-M "P -1"
_symmetry_group_IT_number 2
_symmetry_cell_setting 'triclinic'
loop_
_space_group_symop_operation_xyz
x,y,z
-x,-y,-z
loop_
_atom_site_type_symbol
_atom_site_label
_atom_site_fract_x
_atom_site_fract_y
_atom_site_fract_z
Si Si1 0.000674 0.434488 0.196542
Si Si2 0.603857 0.985502 0.869626
Si Si3 0.678504 0.078078 0.351482
Si Si4 0.263718 0.639102 0.132117
Si Si5 0.124355 0.397297 0.663420
Si Si6 0.634290 0.310534 0.127172
Si Si7 0.172833 0.842650 0.309218
O O1 0.076908 0.623290 0.209804
O O2 0.931942 0.628243 0.264551
O O3 0.096118 0.160166 0.285373
O O4 0.891473 0.341135 0.020704
O O5 0.441755 0.074336 0.732073
O O6 0.655834 0.672479 0.836731
O O7 0.669220 0.189229 0.876568
O O8 0.641659 0.021202 0.031405
O O9 0.615225 0.304961 0.240780
O O10 0.731498 0.209330 0.515799
O O11 0.801679 0.894231 0.361162
O O12 0.266303 0.776512 0.269673
O O13 0.227687 0.598502 0.778673
O O14 0.000000 0.500000 0.500000
O O15 0.500000 0.500000 0.000000
#
# Coordination Sequence:
#
# PCOD8037441 Si02
#       7
#     2   2   2   2   2   2   2
#     4  12  25  46  73 106 145 191 247 300 368 441
#     4  12  26  46  75 107 141 193 247 304 361 439
#     4  12  28  44  73 109 152 185 245 303 377 442
#     4  12  26  48  76 104 141 198 253 297 360 436
#     4  12  25  43  73 108 150 189 238 301 380 439
#     4  12  25  47  74 108 149 194 242 307 371 441
#     4  12  28  48  72 105 150 192 242 310 362 432
#
# _framework density 23.007128000000002
#
# number of rings (size 3 to 8) (size 9 to 14) (size 15 to 20)
#    0.000    0.000    4.286    5.571    2.000    2.286 
#    0.000    0.000    0.000    0.000    0.000    0.000 
#    0.000    0.000    0.000    0.000    0.000    0.000 
#
# Total GULP energy -173645.994516 kJ/mol
# GULP energy per Si atom -12403.285323 kJ/mol
# Density = 2.295476 g / cm^3
# Si number density = 23.007128 Si / 1000 Ang^3
#
#
#
# Elastic Constant Matrix: (Units=GPa)
#
#
# Indices 1 2 3 4 5 6 
#
# 1 100.4118 25.8350 52.9844 2.0819 -3.0256 2.7233
# 2 25.8350 101.6304 36.8640 -5.6133 0.8928 3.0277
# 3 52.9844 36.8640 121.5945 -11.5624 -18.0854 -18.6143
# 4 2.0819 -5.6133 -11.5624 28.8764 -7.8942 0.4372
# 5 -3.0256 0.8928 -18.0854 -7.8942 48.1263 10.3268
# 6 2.7233 3.0277 -18.6143 0.4372 10.3268 36.7126
#
#
#
# Elastic Compliance Matrix: (Units=1/GPa)
#
#
# Indices 1 2 3 4 5 6 
#
# 1 0.014157 -0.001130 -0.007114 -0.004472 -0.001626 -0.004053
# 2 -0.001130 0.011485 -0.003420 0.000721 -0.000949 -0.002339
# 3 -0.007114 -0.003420 0.014799 0.006996 0.004852 0.006865
# 4 -0.004472 0.000721 0.006996 0.040273 0.008752 0.000878
# 5 -0.001626 -0.000949 0.004852 0.008752 0.024908 -0.004452
# 6 -0.004053 -0.002339 0.006865 0.000878 -0.004452 0.032455
#
#
# Mechanical properties :
#
#
# Convention : Reuss Voigt Hill
#
# Bulk Modulus (GPa) = 58.43768 61.66706 60.05237
# Shear Modulus (GPa) = 29.92032 36.60664 33.26348
#
# Velocity S-wave (km/s) = 3.61013 3.99319 3.80648
# Velocity P-wave (km/s) = 6.54464 6.93703 6.74369
#
# Compressibility (1/GPa) = 0.01711225
#
# Stress axis : x y z
#
# Youngs Moduli (GPa) = 70.63515 87.06740 67.57385
#
# Poissons Ratio (x) = 0.09842 0.48071
# Poissons Ratio (y) = 0.07985 0.23112
# Poissons Ratio (z) = 0.50249 0.29779
#
# Static dielectric constant tensor:
#      x y z
#    x 4.431870 -0.156770 -0.080940 
#    y -0.156770 4.209540 0.031760 
#    z -0.080940 0.031760 4.414230 
# 
# 
# High freq. dielectric constant tensor:
#      x y z
#    x 1.922730 -0.004050 0.000850 
#    y -0.004050 1.907750 0.000570 
#    z 0.000850 0.000570 1.921320 
# 
# From -- ./inp_files/70509.got.cif
#   From: 2010.06.25/outbox.cif.g09.slc.cpg/sg2_36_cif.got.tgz:70509.got - 2010.06.27 13:26:56.
