data_PCOD8037609
_publ_section_title
;
Structure prediction by ZEFSAII (Michael W. Deem and Ramdas Pophale) SiO2 
 PCOD8037609
Probable space group: P -1
;
_chemical_formula_sum "Si O2"
_cell_formula_units_Z 16
_cell_length_a 19.142265
_cell_length_b 9.648783
_cell_length_c 13.494217
_cell_angle_alpha 41.720841
_cell_angle_beta 154.767589
_cell_angle_gamma 129.248697
_cell_volume 699.104667
_symmetry_space_group_name_H-M "P -1"
_symmetry_group_IT_number 2
_symmetry_cell_setting 'triclinic'
loop_
_space_group_symop_operation_xyz
x,y,z
-x,-y,-z
loop_
_atom_site_type_symbol
_atom_site_label
_atom_site_fract_x
_atom_site_fract_y
_atom_site_fract_z
Si Si1 0.608996 0.904620 0.900503
Si Si2 0.747149 0.882973 0.884304
Si Si3 0.720109 0.198628 0.501501
Si Si4 0.859634 0.683445 0.685726
Si Si5 0.873403 0.614110 0.511947
Si Si6 0.901547 0.113436 0.591623
Si Si7 0.766387 0.426050 0.089369
Si Si8 0.509136 0.691087 0.337655
O O1 0.631566 0.977864 0.776778
O O2 0.474669 0.742872 0.806314
O O3 0.529091 0.098374 0.760460
O O4 0.781280 0.796700 0.225782
O O5 0.746692 0.064576 0.706940
O O6 0.692914 0.671407 0.881303
O O7 0.927993 0.812703 0.198434
O O8 0.809582 0.400117 0.516676
O O9 0.805426 0.058294 0.595947
O O10 0.826158 0.666583 0.535900
O O11 0.689649 0.673245 0.530408
O O12 0.927894 0.903298 0.671590
O O13 0.000000 0.500000 0.000000
O O14 0.069526 0.596314 0.756437
O O15 0.800308 0.311112 0.299114
O O16 0.628736 0.309631 0.923151
O O17 0.500000 0.500000 0.500000
#
# Coordination Sequence:
#
# PCOD8037609 Si02
#       8
#     2   2   2   2   2   2   2   2
#     4  12  27  48  72 106 149 191 240 292 362 421
#     4  12  26  46  75 107 145 195 236 295 361 424
#     4  12  26  46  74 106 147 189 243 299 351 424
#     4  12  29  48  76 107 141 189 242 295 361 427
#     4  12  27  46  74 109 145 192 239 295 357 427
#     4  12  25  48  75 101 148 191 239 296 353 428
#     4  12  27  47  74 109 148 188 239 294 362 423
#     4  12  29  48  74 107 147 186 239 300 358 428
#
# _framework density 22.886416000000001
#
# number of rings (size 3 to 8) (size 9 to 14) (size 15 to 20)
#    0.000    0.000    3.750    5.250   10.500    2.000 
#    0.000    0.000    0.000    0.000    0.000    0.000 
#    0.000    0.000    0.000    0.000    0.000    0.000 
#
# Total GULP energy -198482.235452 kJ/mol
# GULP energy per Si atom -12405.139716 kJ/mol
# Density = 2.283433 g / cm^3
# Si number density = 22.886416 Si / 1000 Ang^3
#
#
#
# Elastic Constant Matrix: (Units=GPa)
#
#
# Indices 1 2 3 4 5 6 
#
# 1 153.4048 43.0014 41.1567 2.8976 10.2346 -11.2690
# 2 43.0014 77.5128 33.6055 0.6379 -0.7348 3.4595
# 3 41.1567 33.6055 77.2969 -1.3338 8.3978 -4.6813
# 4 2.8976 0.6379 -1.3338 35.6710 5.6855 -1.1008
# 5 10.2346 -0.7348 8.3978 5.6855 37.6170 2.0586
# 6 -11.2690 3.4595 -4.6813 -1.1008 2.0586 33.8043
#
#
#
# Elastic Compliance Matrix: (Units=1/GPa)
#
#
# Indices 1 2 3 4 5 6 
#
# 1 0.008637 -0.003844 -0.002535 -0.000319 -0.001977 0.003032
# 2 -0.003844 0.018043 -0.006417 -0.000891 0.003198 -0.004240
# 3 -0.002535 -0.006417 0.017669 0.001661 -0.003770 0.002542
# 4 -0.000319 -0.000891 0.001661 0.028940 -0.004755 0.001447
# 5 -0.001977 0.003198 -0.003770 -0.004755 0.028932 -0.003425
# 6 0.003032 -0.004240 0.002542 0.001447 -0.003425 0.031634
#
#
# Mechanical properties :
#
#
# Convention : Reuss Voigt Hill
#
# Bulk Modulus (GPa) = 53.31342 60.41573 56.86457
# Shear Modulus (GPa) = 30.17535 34.11519 32.14527
#
# Velocity S-wave (km/s) = 3.63503 3.86506 3.75181
# Velocity P-wave (km/s) = 6.40026 6.80982 6.60821
#
# Compressibility (1/GPa) = 0.01875700
#
# Stress axis : x y z
#
# Youngs Moduli (GPa) = 115.78329 55.42456 56.59700
#
# Poissons Ratio (x) = 0.21305 0.14345
# Poissons Ratio (y) = 0.44506 0.36318
# Poissons Ratio (z) = 0.29347 0.35566
#
# Static dielectric constant tensor:
#      x y z
#    x 4.539710 -0.124980 0.098380 
#    y -0.124980 4.385880 0.225180 
#    z 0.098380 0.225180 4.241920 
# 
# 
# High freq. dielectric constant tensor:
#      x y z
#    x 1.924470 -0.003020 -0.000790 
#    y -0.003020 1.913970 0.011400 
#    z -0.000790 0.011400 1.912700 
# 
# From -- ./inp_files/299205.got.cif
#   From: 2010.06.25/outbox.cif.g09.slc.cpg/sg2_150_cif.got.tgz:299205.got - 2010.06.27 13:26:56.
