data_PCOD8037963
_publ_section_title
;
Structure prediction by ZEFSAII (Michael W. Deem and Ramdas Pophale) SiO2 
 PCOD8037963
Probable space group: P -1
;
_chemical_formula_sum "Si O2"
_cell_formula_units_Z 16
_cell_length_a 6.000000
_cell_length_b 12.000000
_cell_length_c 21.000000
_cell_angle_alpha 140.000000
_cell_angle_beta 120.000000
_cell_angle_gamma 50.000000
_cell_volume 744.426066
_symmetry_space_group_name_H-M "P -1"
_symmetry_group_IT_number 2
_symmetry_cell_setting 'triclinic'
loop_
_space_group_symop_operation_xyz
x,y,z
-x,-y,-z
loop_
_atom_site_type_symbol
_atom_site_label
_atom_site_fract_x
_atom_site_fract_y
_atom_site_fract_z
Si Si1 0.607432 0.916945 0.796251
Si Si2 0.796764 0.230357 0.383601
Si Si3 0.294203 0.934934 0.252348
Si Si4 0.022425 0.488156 0.283145
Si Si5 0.059799 0.289494 0.892552
Si Si6 0.557016 0.367035 0.536655
Si Si7 0.468273 0.802138 0.409904
Si Si8 0.956109 0.730511 0.266877
O O1 0.380568 0.835512 0.717677
O O2 0.872131 0.747490 0.800720
O O3 0.757949 0.940209 0.764491
O O4 0.394506 0.130998 0.891054
O O5 0.711252 0.205582 0.432699
O O6 0.733120 0.451785 0.454877
O O7 0.129232 0.077613 0.350220
O O8 0.617626 0.852501 0.289352
O O9 0.185015 0.773513 0.148918
O O10 0.691712 0.624953 0.319397
O O11 0.068680 0.528983 0.234330
O O12 0.216843 0.551117 0.381605
O O13 0.025991 0.314177 0.823487
O O14 0.000000 0.500000 0.000000
O O15 0.471911 0.273304 0.541955
O O16 0.142421 0.843535 0.361642
O O17 0.500000 0.000000 0.500000
#
# Coordination Sequence:
#
# PCOD8037963 Si02
#       8
#     2   2   2   2   2   2   2   2
#     4   9  20  36  60  88 115 151 196 239 296 355
#     4   9  18  35  57  82 113 152 197 250 293 335
#     4  10  20  37  63  86 116 153 190 245 300 346
#     4  10  21  38  56  81 119 160 197 243 290 342
#     4  10  22  41  67  95 117 144 188 243 303 363
#     4   9  20  35  54  82 113 152 207 246 285 343
#     4  11  24  38  56  83 121 166 206 242 283 336
#     4  10  23  40  60  87 120 157 199 240 293 354
#
# _framework density 21.493068000000001
#
# number of rings (size 3 to 8) (size 9 to 14) (size 15 to 20)
#    0.000    2.250    0.000    1.500    0.000   14.000 
#    0.000    6.250    0.000    9.000    0.000    0.000 
#    0.000    0.000    0.000    0.000    0.000    0.000 
#
# Total GULP energy -198232.471942 kJ/mol
# GULP energy per Si atom -12389.529496 kJ/mol
# Density = 2.144415 g / cm^3
# Si number density = 21.493068 Si / 1000 Ang^3
#
#
#
# Elastic Constant Matrix: (Units=GPa)
#
#
# Indices 1 2 3 4 5 6 
#
# 1 115.8890 60.1078 43.9691 17.6726 5.7451 3.2069
# 2 60.1078 129.0954 51.5442 25.3643 3.5444 9.9504
# 3 43.9691 51.5442 76.8216 26.9446 3.4242 -4.4839
# 4 17.6726 25.3643 26.9446 32.8367 -1.0170 -0.1516
# 5 5.7451 3.5444 3.4242 -1.0170 20.3039 -4.2667
# 6 3.2069 9.9504 -4.4839 -0.1516 -4.2667 28.9129
#
#
#
# Elastic Compliance Matrix: (Units=1/GPa)
#
#
# Indices 1 2 3 4 5 6 
#
# 1 0.012494 -0.003852 -0.004471 -0.000158 -0.002348 -0.001101
# 2 -0.003852 0.012806 -0.005407 -0.003451 -0.001469 -0.005053
# 3 -0.004471 -0.005407 0.024292 -0.013365 -0.001326 0.005858
# 4 -0.000158 -0.003451 -0.013365 0.044332 0.005148 0.000125
# 5 -0.002348 -0.001469 -0.001326 0.005148 0.052403 0.008320
# 6 -0.001101 -0.005053 0.005858 0.000125 0.008320 0.038585
#
#
# Mechanical properties :
#
#
# Convention : Reuss Voigt Hill
#
# Bulk Modulus (GPa) = 45.17932 70.33866 57.75899
# Shear Modulus (GPa) = 22.75326 27.48970 25.12148
#
# Velocity S-wave (km/s) = 3.25719 3.58019 3.42251
# Velocity P-wave (km/s) = 5.93395 7.06312 6.52301
#
# Compressibility (1/GPa) = 0.02213402
#
# Stress axis : x y z
#
# Youngs Moduli (GPa) = 80.03864 78.08570 41.16497
#
# Poissons Ratio (x) = 0.30078 0.18403
# Poissons Ratio (y) = 0.30830 0.22258
# Poissons Ratio (z) = 0.35782 0.42221
#
# Static dielectric constant tensor:
#      x y z
#    x 4.214650 -0.146230 -0.069210 
#    y -0.146230 4.567220 0.338910 
#    z -0.069210 0.338910 3.676230 
# 
# 
# High freq. dielectric constant tensor:
#      x y z
#    x 1.860200 0.005170 0.000250 
#    y 0.005170 1.860780 0.018130 
#    z 0.000250 0.018130 1.791330 
# 
# From -- ./inp_files/112974.got.cif
#   From: 2010.06.25/outbox.ucp.g09.slc.cvg/sg2_57_cif.got.tgz:112974.got - 2010.06.28 11:54:26.
