data_PCOD8037982
_publ_section_title
;
Structure prediction by ZEFSAII (Michael W. Deem and Ramdas Pophale) SiO2 
 PCOD8037982
Probable space group: P -1
;
_chemical_formula_sum "Si O2"
_cell_formula_units_Z 16
_cell_length_a 11.810457
_cell_length_b 14.598780
_cell_length_c 11.255360
_cell_angle_alpha 118.856408
_cell_angle_beta 123.290684
_cell_angle_gamma 107.184552
_cell_volume 914.329327
_symmetry_space_group_name_H-M "P -1"
_symmetry_group_IT_number 2
_symmetry_cell_setting 'triclinic'
loop_
_space_group_symop_operation_xyz
x,y,z
-x,-y,-z
loop_
_atom_site_type_symbol
_atom_site_label
_atom_site_fract_x
_atom_site_fract_y
_atom_site_fract_z
Si Si1 0.144972 0.301556 0.593718
Si Si2 0.122459 0.993028 0.896121
Si Si3 0.454010 0.547495 0.751416
Si Si4 0.109035 0.216258 0.959951
Si Si5 0.068234 0.922083 0.469778
Si Si6 0.041890 0.264841 0.191185
Si Si7 0.453850 0.156685 0.004841
Si Si8 0.890475 0.324333 0.323274
O O1 0.385557 0.463268 0.790458
O O2 0.066024 0.147721 0.390094
O O3 0.108803 0.260188 0.686940
O O4 0.999495 0.311723 0.472127
O O5 0.080404 0.913287 0.948547
O O6 0.135233 0.125625 0.995103
O O7 0.338083 0.075158 0.013833
O O8 0.278556 0.408962 0.468528
O O9 0.673830 0.629216 0.886260
O O10 0.461535 0.675884 0.851537
O O11 0.928139 0.101493 0.683530
O O12 0.050395 0.270977 0.056270
O O13 0.296830 0.038489 0.730916
O O14 0.000000 0.000000 0.500000
O O15 0.915128 0.290603 0.183373
O O16 0.645159 0.188665 0.128918
O O17 0.000000 0.500000 0.500000
#
# Coordination Sequence:
#
# PCOD8037982 Si02
#       8
#     2   2   2   2   2   2   2   2
#     4   9  18  31  52  83  98 131 178 207 260 289
#     4   8  17  30  50  74 104 129 166 214 252 296
#     4   9  17  31  52  78  99 129 171 219 253 291
#     4  11  19  33  49  73 114 140 158 206 260 315
#     4  11  20  34  51  75 111 138 164 206 254 318
#     4  10  20  31  51  80 101 134 173 210 263 294
#     4  10  17  33  56  78  97 134 173 214 257 286
#     4  10  18  34  57  77 100 127 176 228 246 285
#
# _framework density 17.499165999999999
#
# number of rings (size 3 to 8) (size 9 to 14) (size 15 to 20)
#    0.000    2.500    6.250    0.750    0.000    5.000 
#    0.000    0.625    0.000    0.750    0.000    0.000 
#    0.000    0.000    0.000    0.000    0.000    0.000 
#
# Total GULP energy -198234.948542 kJ/mol
# GULP energy per Si atom -12389.684284 kJ/mol
# Density = 1.745934 g / cm^3
# Si number density = 17.499166 Si / 1000 Ang^3
#
#
#
# Elastic Constant Matrix: (Units=GPa)
#
#
# Indices 1 2 3 4 5 6 
#
# 1 100.3083 40.4788 30.6545 -2.2474 -1.0284 18.7274
# 2 40.4788 84.6290 34.3164 10.5520 -4.4410 16.8971
# 3 30.6545 34.3164 62.5782 7.7400 2.2450 14.2628
# 4 -2.2474 10.5520 7.7400 28.1507 7.2038 -2.8723
# 5 -1.0284 -4.4410 2.2450 7.2038 29.7486 -1.4991
# 6 18.7274 16.8971 14.2628 -2.8723 -1.4991 18.9040
#
#
#
# Elastic Compliance Matrix: (Units=1/GPa)
#
#
# Indices 1 2 3 4 5 6 
#
# 1 0.014168 -0.004509 -0.003191 0.003244 -0.001090 -0.007192
# 2 -0.004509 0.019357 -0.005329 -0.008335 0.004665 -0.009711
# 3 -0.003191 -0.005329 0.023691 -0.005389 -0.001939 -0.010923
# 4 0.003244 -0.008335 -0.005389 0.044606 -0.010810 0.014223
# 5 -0.001090 0.004665 -0.001939 -0.010810 0.037021 -0.000333
# 6 -0.007192 -0.009711 -0.010923 0.014223 -0.000333 0.079079
#
#
# Mechanical properties :
#
#
# Convention : Reuss Voigt Hill
#
# Bulk Modulus (GPa) = 32.09402 50.93499 41.51451
# Shear Modulus (GPa) = 19.65678 24.83171 22.24424
#
# Velocity S-wave (km/s) = 3.35520 3.77108 3.56920
# Velocity P-wave (km/s) = 5.77840 6.93770 6.38442
#
# Compressibility (1/GPa) = 0.03115845
#
# Stress axis : x y z
#
# Youngs Moduli (GPa) = 70.58161 51.66172 42.20984
#
# Poissons Ratio (x) = 0.23292 0.13469
# Poissons Ratio (y) = 0.31822 0.22495
# Poissons Ratio (z) = 0.22522 0.27532
#
# Static dielectric constant tensor:
#      x y z
#    x 3.181490 0.161490 0.071630 
#    y 0.161490 3.455510 0.283740 
#    z 0.071630 0.283740 3.286200 
# 
# 
# High freq. dielectric constant tensor:
#      x y z
#    x 1.656230 0.014660 0.001870 
#    y 0.014660 1.671310 0.028000 
#    z 0.001870 0.028000 1.664900 
# 
# From -- ./inp_files/249385.got.cif
#   From: 2010.06.25/outbox.cif.g09.slc.cpg/sg2_125_cif.got.tgz:249385.got - 2010.06.27 13:26:56.
