data_PCOD8037711
_publ_section_title
;
Structure prediction by ZEFSAII (Michael W. Deem and Ramdas Pophale) SiO2 
 PCOD8037711
Probable space group: P -1
;
_chemical_formula_sum "Si O2"
_cell_formula_units_Z 8
_cell_length_a 10.892638
_cell_length_b 7.480961
_cell_length_c 15.895055
_cell_angle_alpha 35.965526
_cell_angle_beta 156.546882
_cell_angle_gamma 131.913471
_cell_volume 286.967481
_symmetry_space_group_name_H-M "P -1"
_symmetry_group_IT_number 2
_symmetry_cell_setting 'triclinic'
loop_
_space_group_symop_operation_xyz
x,y,z
-x,-y,-z
loop_
_atom_site_type_symbol
_atom_site_label
_atom_site_fract_x
_atom_site_fract_y
_atom_site_fract_z
Si Si1 0.652368 0.413870 0.220217
Si Si2 0.341885 0.298829 0.226319
Si Si3 0.413641 0.117446 0.797423
Si Si4 0.735148 0.228026 0.805787
O O1 0.480192 0.218868 0.246859
O O2 0.028576 0.214219 0.526707
O O3 0.500000 0.500000 0.000000
O O4 0.593353 0.776228 0.088222
O O5 0.452888 0.594855 0.209287
O O6 0.500000 0.000000 0.500000
O O7 0.949197 0.378669 0.946646
O O8 0.521285 0.048953 0.791956
O O9 0.500000 0.500000 0.500000
O O10 0.000000 0.000000 0.000000
#
# Coordination Sequence:
#
# PCOD8037711 Si02
#       4
#     2   2   2   2
#     4  12  27  49  76 110 152 201 252 310 378 453
#     4  12  27  49  78 115 154 200 253 316 380 450
#     4  12  26  47  74 110 150 198 252 312 376 449
#     4  12  26  47  74 109 151 199 250 308 375 450
#
# _framework density 27.877725999999999
#
# number of rings (size 3 to 8) (size 9 to 14) (size 15 to 20)
#    0.000    0.000    0.000   10.500    0.000    8.000 
#    0.000    0.000    0.000    0.000    0.000    0.000 
#    0.000    0.000    0.000    0.000    0.000    0.000 
#
# Total GULP energy -99206.401747 kJ/mol
# GULP energy per Si atom -12400.800218 kJ/mol
# Density = 2.781428 g / cm^3
# Si number density = 27.877726 Si / 1000 Ang^3
#
#
#
# Elastic Constant Matrix: (Units=GPa)
#
#
# Indices 1 2 3 4 5 6 
#
# 1 142.6605 39.1992 81.3393 -9.6111 -3.7265 68.2411
# 2 39.1992 77.2355 58.7815 -13.3570 -13.7719 41.2332
# 3 81.3393 58.7815 242.2023 -3.8564 -1.2439 44.2962
# 4 -9.6111 -13.3570 -3.8564 60.0595 8.9707 2.0747
# 5 -3.7265 -13.7719 -1.2439 8.9707 64.5570 1.6362
# 6 68.2411 41.2332 44.2962 2.0747 1.6362 65.2505
#
#
#
# Elastic Compliance Matrix: (Units=1/GPa)
#
#
# Indices 1 2 3 4 5 6 
#
# 1 0.016750 0.004985 -0.003370 0.003931 0.001889 -0.018552
# 2 0.004985 0.025847 -0.004363 0.006121 0.005346 -0.018913
# 3 -0.003370 -0.004363 0.005867 -0.001076 -0.000922 0.002356
# 4 0.003931 0.006121 -0.001076 0.018980 -0.000927 -0.007829
# 5 0.001889 0.005346 -0.000922 -0.000927 0.016981 -0.005124
# 6 -0.018552 -0.018913 0.002356 -0.007829 -0.005124 0.045458
#
#
# Mechanical properties :
#
#
# Convention : Reuss Voigt Hill
#
# Bulk Modulus (GPa) = 23.27354 91.19315 57.23334
# Shear Modulus (GPa) = 33.40005 56.82531 45.11268
#
# Velocity S-wave (km/s) = 3.46510 4.51974 4.02709
# Velocity P-wave (km/s) = 4.93718 7.74727 6.49600
#
# Compressibility (1/GPa) = 0.04296725
#
# Stress axis : x y z
#
# Youngs Moduli (GPa) = 59.70221 38.68932 170.45850
#
# Poissons Ratio (x) = -0.19285 0.57437
# Poissons Ratio (y) = -0.29759 0.74371
# Poissons Ratio (z) = 0.20117 0.16880
#
# Static dielectric constant tensor:
#      x y z
#    x 7.452230 -0.713460 0.348790 
#    y -0.713460 6.147960 -0.022420 
#    z 0.348790 -0.022420 4.872280 
# 
# 
# High freq. dielectric constant tensor:
#      x y z
#    x 2.197300 -0.006850 0.001060 
#    y -0.006850 2.164190 0.000580 
#    z 0.001060 0.000580 2.115440 
# 
# From -- ./inp_files/16576.got.cif
#   From: 2010.06.25/outbox.cif.g09.slc.cpg/sg2_9_cif.got.tgz:16576.got - 2010.06.27 13:26:56.
