data_PCOD8037950
_publ_section_title
;
Structure prediction by ZEFSAII (Michael W. Deem and Ramdas Pophale) SiO2 
 PCOD8037950
Probable space group: P -1
;
_chemical_formula_sum "Si O2"
_cell_formula_units_Z 16
_cell_length_a 13.278618
_cell_length_b 15.781122
_cell_length_c 9.647674
_cell_angle_alpha 52.758270
_cell_angle_beta 122.457328
_cell_angle_gamma 151.795994
_cell_volume 760.611920
_symmetry_space_group_name_H-M "P -1"
_symmetry_group_IT_number 2
_symmetry_cell_setting 'triclinic'
loop_
_space_group_symop_operation_xyz
x,y,z
-x,-y,-z
loop_
_atom_site_type_symbol
_atom_site_label
_atom_site_fract_x
_atom_site_fract_y
_atom_site_fract_z
Si Si1 0.926826 0.302695 0.727701
Si Si2 0.651301 0.515802 0.427587
Si Si3 0.946852 0.122503 0.101533
Si Si4 0.448577 0.239672 0.973563
Si Si5 0.331205 0.684928 0.500021
Si Si6 0.599525 0.961914 0.648131
Si Si7 0.286633 0.305009 0.961527
Si Si8 0.254371 0.368964 0.318353
O O1 0.752435 0.265137 0.673920
O O2 0.154647 0.519157 0.645926
O O3 0.843504 0.166964 0.670729
O O4 0.952931 0.250438 0.934866
O O5 0.635146 0.376442 0.535118
O O6 0.766273 0.652154 0.244675
O O7 0.415722 0.390284 0.396100
O O8 0.791029 0.644691 0.539768
O O9 0.032156 0.177256 0.267912
O O10 0.096316 0.163436 0.070353
O O11 0.707281 0.899358 0.135028
O O12 0.314719 0.207442 0.020431
O O13 0.650270 0.453160 0.855941
O O14 0.512485 0.178237 0.161864
O O15 0.555642 0.860211 0.577174
O O16 0.500000 0.000000 0.500000
O O17 0.500000 0.500000 0.000000
#
# Coordination Sequence:
#
# PCOD8037950 Si02
#       8
#     2   2   2   2   2   2   2   2
#     4   9  19  30  52  82 103 132 173 222 269 309
#     4  10  20  36  57  76 110 144 181 212 266 318
#     4  11  19  34  55  77 108 138 174 226 269 305
#     4  10  20  32  54  79 106 141 181 211 271 322
#     4  10  17  33  53  75 107 137 171 221 267 308
#     4   9  18  31  51  80 107 132 172 224 266 306
#     4  11  18  33  56  81 106 137 174 228 268 308
#     4  10  22  38  52  76 112 149 173 218 261 320
#
# _framework density 21.035693999999999
#
# number of rings (size 3 to 8) (size 9 to 14) (size 15 to 20)
#    0.000    2.000    3.750    1.875    0.000    0.000 
#    0.000    7.500    0.000    6.750    0.000    0.000 
#    0.000    0.000    0.000    0.000    0.000    0.000 
#
# Total GULP energy -198290.393599 kJ/mol
# GULP energy per Si atom -12393.149600 kJ/mol
# Density = 2.098782 g / cm^3
# Si number density = 21.035694 Si / 1000 Ang^3
#
#
#
# Elastic Constant Matrix: (Units=GPa)
#
#
# Indices 1 2 3 4 5 6 
#
# 1 48.8075 22.4855 27.6738 10.5426 6.5873 -19.4058
# 2 22.4855 89.4187 29.1551 28.2750 3.0987 -17.2404
# 3 27.6738 29.1551 91.2266 26.7430 6.8966 -14.5031
# 4 10.5426 28.2750 26.7430 42.9249 -7.1999 -3.9576
# 5 6.5873 3.0987 6.8966 -7.1999 26.7687 1.8182
# 6 -19.4058 -17.2404 -14.5031 -3.9576 1.8182 23.2179
#
#
#
# Elastic Compliance Matrix: (Units=1/GPa)
#
#
# Indices 1 2 3 4 5 6 
#
# 1 0.036804 -0.000400 -0.004135 -0.005534 -0.011324 0.027825
# 2 -0.000400 0.017088 0.000100 -0.011158 -0.005651 0.010958
# 3 -0.004135 0.000100 0.016442 -0.009818 -0.006259 0.005706
# 4 -0.005534 -0.011158 -0.009818 0.039684 0.016780 -0.013593
# 5 -0.011324 -0.005651 -0.006259 0.016780 0.048179 -0.018483
# 6 0.027825 0.010958 0.005706 -0.013593 -0.018483 0.077158
#
#
# Mechanical properties :
#
#
# Convention : Reuss Voigt Hill
#
# Bulk Modulus (GPa) = 16.26917 43.12017 29.69467
# Shear Modulus (GPa) = 18.88842 28.59152 23.73997
#
# Velocity S-wave (km/s) = 2.99979 3.69072 3.36304
# Velocity P-wave (km/s) = 4.44400 6.22133 5.40621
#
# Compressibility (1/GPa) = 0.06146593
#
# Stress axis : x y z
#
# Youngs Moduli (GPa) = 27.17079 58.52088 60.81828
#
# Poissons Ratio (x) = 0.02338 0.25149
# Poissons Ratio (y) = 0.01086 -0.00610
# Poissons Ratio (z) = 0.11235 -0.00587
#
# Static dielectric constant tensor:
#      x y z
#    x 3.559640 -0.276450 0.296540 
#    y -0.276450 4.182940 0.280910 
#    z 0.296540 0.280910 3.905070 
# 
# 
# High freq. dielectric constant tensor:
#      x y z
#    x 1.779890 -0.022550 0.031770 
#    y -0.022550 1.835180 0.015310 
#    z 0.031770 0.015310 1.819680 
# 
# From -- ./inp_files/258839.got.cif
#   From: 2010.06.25/outbox.cif.g09.slc.cpg/sg2_130_cif.got.tgz:258839.got - 2010.06.27 13:26:56.
