data_PCOD8037414
_publ_section_title
;
Structure prediction by ZEFSAII (Michael W. Deem and Ramdas Pophale) SiO2 
 PCOD8037414
Probable space group: P -1
;
_chemical_formula_sum "Si O2"
_cell_formula_units_Z 16
_cell_length_a 8.743457
_cell_length_b 9.021629
_cell_length_c 10.884504
_cell_angle_alpha 96.144638
_cell_angle_beta 118.508077
_cell_angle_gamma 66.154756
_cell_volume 686.115638
_symmetry_space_group_name_H-M "P -1"
_symmetry_group_IT_number 2
_symmetry_cell_setting 'triclinic'
loop_
_space_group_symop_operation_xyz
x,y,z
-x,-y,-z
loop_
_atom_site_type_symbol
_atom_site_label
_atom_site_fract_x
_atom_site_fract_y
_atom_site_fract_z
Si Si1 0.670724 0.826772 0.035210
Si Si2 0.117225 0.103371 0.523256
Si Si3 0.619754 0.540032 0.655505
Si Si4 0.463690 0.078480 0.359618
Si Si5 0.519808 0.404494 0.129000
Si Si6 0.941232 0.297261 0.259824
Si Si7 0.977950 0.623783 0.310090
Si Si8 0.109978 0.112836 0.082453
O O1 0.590264 0.711087 0.927286
O O2 0.846336 0.829103 0.025146
O O3 0.772834 0.746710 0.191988
O O4 0.500000 0.000000 0.000000
O O5 0.001603 0.281556 0.553887
O O6 0.105704 0.142566 0.375818
O O7 0.334143 0.005383 0.640909
O O8 0.000000 0.000000 0.500000
O O9 0.500000 0.500000 0.500000
O O10 0.600520 0.725912 0.647786
O O11 0.558290 0.497716 0.763593
O O12 0.840843 0.418529 0.713198
O O13 0.312565 0.027372 0.223972
O O14 0.500000 0.000000 0.500000
O O15 0.741308 0.296588 0.222881
O O16 0.500000 0.500000 0.000000
O O17 0.954999 0.461139 0.323852
O O18 0.971321 0.268322 0.122361
O O19 0.000000 0.000000 0.000000
#
# Coordination Sequence:
#
# PCOD8037414 Si02
#       8
#     2   2   2   2   2   2   2   2
#     4  12  27  50  74 108 153 201 258 319 392 467
#     4  12  27  45  77 111 154 202 259 317 390 464
#     4  12  27  51  76 113 156 201 259 324 394 471
#     4  12  24  50  76 112 157 204 260 328 386 467
#     4  12  26  48  77 110 155 199 255 323 395 468
#     4  12  25  48  72 112 149 201 258 315 387 469
#     4  12  26  47  77 107 150 203 250 320 388 464
#     4  12  27  47  79 109 156 202 260 320 391 465
#
# _framework density 23.319683999999999
#
# number of rings (size 3 to 8) (size 9 to 14) (size 15 to 20)
#    0.000    0.000    5.000    4.125    5.250    3.000 
#    2.250    0.000    0.000    0.000    0.000    0.000 
#    0.000    0.000    0.000    0.000    0.000    0.000 
#
# Total GULP energy -198320.471134 kJ/mol
# GULP energy per Si atom -12395.029446 kJ/mol
# Density = 2.326661 g / cm^3
# Si number density = 23.319684 Si / 1000 Ang^3
#
#
#
# Elastic Constant Matrix: (Units=GPa)
#
#
# Indices 1 2 3 4 5 6 
#
# 1 143.2367 53.3899 42.3788 13.3833 18.7936 -2.7977
# 2 53.3899 127.5566 44.3508 12.0382 6.5714 2.0947
# 3 42.3788 44.3508 119.1630 4.8265 14.1518 9.3570
# 4 13.3833 12.0382 4.8265 41.4943 -3.8006 8.2376
# 5 18.7936 6.5714 14.1518 -3.8006 51.7231 0.9844
# 6 -2.7977 2.0947 9.3570 8.2376 0.9844 52.3484
#
#
#
# Elastic Compliance Matrix: (Units=1/GPa)
#
#
# Indices 1 2 3 4 5 6 
#
# 1 0.009213 -0.002847 -0.001910 -0.002442 -0.002669 0.001382
# 2 -0.002847 0.010125 -0.002746 -0.001704 0.000370 0.000195
# 3 -0.001910 -0.002746 0.010432 0.000414 -0.001745 -0.001889
# 4 -0.002442 -0.001704 0.000414 0.026476 0.003019 -0.004359
# 5 -0.002669 0.000370 -0.001745 0.003019 0.020969 -0.000715
# 6 0.001382 0.000195 -0.001889 -0.004359 -0.000715 0.020206
#
#
# Mechanical properties :
#
#
# Convention : Reuss Voigt Hill
#
# Bulk Modulus (GPa) = 67.73024 74.46615 71.09819
# Shear Modulus (GPa) = 42.60872 45.76894 44.18883
#
# Velocity S-wave (km/s) = 4.27916 4.43501 4.35778
# Velocity P-wave (km/s) = 7.31589 7.63072 7.47496
#
# Compressibility (1/GPa) = 0.01476445
#
# Stress axis : x y z
#
# Youngs Moduli (GPa) = 108.54260 98.76911 95.86067
#
# Poissons Ratio (x) = 0.28119 0.18305
# Poissons Ratio (y) = 0.30901 0.26324
# Poissons Ratio (z) = 0.20726 0.27122
#
# Static dielectric constant tensor:
#      x y z
#    x 4.500070 -0.274970 0.141160 
#    y -0.274970 4.231560 0.016720 
#    z 0.141160 0.016720 4.451290 
# 
# 
# High freq. dielectric constant tensor:
#      x y z
#    x 1.946770 -0.008430 0.005230 
#    y -0.008430 1.911750 0.002530 
#    z 0.005230 0.002530 1.938280 
# 
# From -- ./inp_files/382743.got.cif
#   From: 2010.06.25/outbox.cif.g09.slc.cpg/sg2_192_cif.got.tgz:382743.got - 2010.06.27 13:26:56.
