data_PCOD8037808
_publ_section_title
;
Structure prediction by ZEFSAII (Michael W. Deem and Ramdas Pophale) SiO2 
 PCOD8037808
Probable space group: P -1
;
_chemical_formula_sum "Si O2"
_cell_formula_units_Z 12
_cell_length_a 5.399331
_cell_length_b 12.318075
_cell_length_c 8.895481
_cell_angle_alpha 75.382175
_cell_angle_beta 58.182113
_cell_angle_gamma 91.697411
_cell_volume 476.838123
_symmetry_space_group_name_H-M "P -1"
_symmetry_group_IT_number 2
_symmetry_cell_setting 'triclinic'
loop_
_space_group_symop_operation_xyz
x,y,z
-x,-y,-z
loop_
_atom_site_type_symbol
_atom_site_label
_atom_site_fract_x
_atom_site_fract_y
_atom_site_fract_z
Si Si1 0.368136 0.878872 0.014213
Si Si2 0.714185 0.577407 0.251294
Si Si3 0.401878 0.878418 0.649760
Si Si4 0.833193 0.740982 0.408158
Si Si5 0.186121 0.277900 0.096573
Si Si6 0.156579 0.433932 0.306309
O O1 0.051007 0.835800 0.208790
O O2 0.357264 0.895855 0.834013
O O3 0.560824 0.784826 0.023489
O O4 0.500000 0.000000 0.000000
O O5 0.626897 0.654780 0.388156
O O6 0.413857 0.520254 0.281511
O O7 0.904217 0.490857 0.291487
O O8 0.923415 0.658571 0.035676
O O9 0.640018 0.801758 0.561303
O O10 0.084011 0.813186 0.711962
O O11 0.500000 0.000000 0.500000
O O12 0.998214 0.661777 0.489294
O O13 0.314736 0.372614 0.147057
#
# Coordination Sequence:
#
# PCOD8037808 Si02
#       6
#     2   2   2   2   2   2
#     4  12  29  52  80 116 157 209 269 337 407 479
#     4  12  27  49  81 121 165 217 269 328 401 485
#     4  12  29  52  80 116 157 209 269 337 407 479
#     4  12  27  52  82 118 164 208 269 332 402 482
#     4  12  27  50  80 118 164 208 269 336 400 480
#     4  12  27  49  81 121 165 217 269 328 401 485
#
# _framework density 25.165775
#
# number of rings (size 3 to 8) (size 9 to 14) (size 15 to 20)
#    0.000    0.000    3.333    5.000    4.667    5.333 
#    0.000    0.000    0.000    0.000    0.000    0.000 
#    0.000    0.000    0.000    0.000    0.000    0.000 
#
# Total GULP energy -148777.072649 kJ/mol
# GULP energy per Si atom -12398.089387 kJ/mol
# Density = 2.510850 g / cm^3
# Si number density = 25.165775 Si / 1000 Ang^3
#
#
#
# Elastic Constant Matrix: (Units=GPa)
#
#
# Indices 1 2 3 4 5 6 
#
# 1 63.7752 2.7267 -8.4179 -10.3296 18.8027 8.6774
# 2 2.7267 109.4582 -3.5720 9.5527 16.8695 13.5895
# 3 -8.4179 -3.5720 83.9865 -3.1695 22.6420 -3.4864
# 4 -10.3296 9.5527 -3.1695 44.6333 -7.0782 11.9590
# 5 18.8027 16.8695 22.6420 -7.0782 45.2966 -0.7537
# 6 8.6774 13.5895 -3.4864 11.9590 -0.7537 26.9425
#
#
#
# Elastic Compliance Matrix: (Units=1/GPa)
#
#
# Indices 1 2 3 4 5 6 
#
# 1 0.022232 0.002261 0.005340 0.005980 -0.011982 -0.010599
# 2 0.002261 0.010927 0.002125 -0.001163 -0.006345 -0.005626
# 3 0.005340 0.002125 0.015361 0.000547 -0.010623 -0.001344
# 4 0.005980 -0.001163 0.000547 0.028026 0.001829 -0.013657
# 5 -0.011982 -0.006345 -0.010623 0.001829 0.035107 0.005855
# 6 -0.010599 -0.005626 -0.001344 -0.013657 0.005855 0.049419
#
#
# Mechanical properties :
#
#
# Convention : Reuss Voigt Hill
#
# Bulk Modulus (GPa) = 14.71208 26.52150 20.61679
# Shear Modulus (GPa) = 30.43638 41.14002 35.78820
#
# Velocity S-wave (km/s) = 3.48147 4.04760 3.77516
# Velocity P-wave (km/s) = 4.69250 5.69260 5.21657
#
# Compressibility (1/GPa) = 0.06797136
#
# Stress axis : x y z
#
# Youngs Moduli (GPa) = 44.98098 91.51779 65.09964
#
# Poissons Ratio (x) = -0.20693 -0.34765
# Poissons Ratio (y) = -0.10170 -0.13831
# Poissons Ratio (z) = -0.24021 -0.19444
#
# Static dielectric constant tensor:
#      x y z
#    x 4.294370 0.102440 0.332170 
#    y 0.102440 4.935180 0.000770 
#    z 0.332170 0.000770 5.016340 
# 
# 
# High freq. dielectric constant tensor:
#      x y z
#    x 1.991280 0.005720 0.016800 
#    y 0.005720 2.026140 0.001230 
#    z 0.016800 0.001230 2.031170 
# 
# From -- ./inp_files/131405.got.cif
#   From: 2010.06.25/outbox.cif.g09.slc.cpg/sg2_66_cif.got.tgz:131405.got - 2010.06.27 13:26:56.
