data_PCOD8037656
_publ_section_title
;
Structure prediction by ZEFSAII (Michael W. Deem and Ramdas Pophale) SiO2 
 PCOD8037656
Probable space group: P -1
;
_chemical_formula_sum "Si O2"
_cell_formula_units_Z 14
_cell_length_a 6.757947
_cell_length_b 12.059738
_cell_length_c 7.727256
_cell_angle_alpha 80.003521
_cell_angle_beta 83.671936
_cell_angle_gamma 100.937391
_cell_volume 602.226573
_symmetry_space_group_name_H-M "P -1"
_symmetry_group_IT_number 2
_symmetry_cell_setting 'triclinic'
loop_
_space_group_symop_operation_xyz
x,y,z
-x,-y,-z
loop_
_atom_site_type_symbol
_atom_site_label
_atom_site_fract_x
_atom_site_fract_y
_atom_site_fract_z
Si Si1 0.755835 0.281295 0.972965
Si Si2 0.755467 0.722769 0.610279
Si Si3 0.610378 0.452115 0.164515
Si Si4 0.935980 0.591820 0.352894
Si Si5 0.390096 0.103293 0.948952
Si Si6 0.986406 0.858993 0.824286
Si Si7 0.318137 0.049735 0.584679
O O1 0.522200 0.225469 0.965723
O O2 0.859036 0.352370 0.780791
O O3 0.755270 0.369895 0.105523
O O4 0.864121 0.177130 0.038616
O O5 0.559581 0.620346 0.674157
O O6 0.877837 0.694274 0.440947
O O7 0.889781 0.738701 0.768305
O O8 0.709862 0.850548 0.570397
O O9 0.753764 0.546794 0.245587
O O10 0.500000 0.500000 0.000000
O O11 0.000000 0.500000 0.500000
O O12 0.368594 0.113300 0.744218
O O13 0.174807 0.082304 0.074665
O O14 0.500000 0.000000 0.000000
O O15 0.115347 0.949676 0.651670
O O16 0.500000 0.000000 0.500000
#
# Coordination Sequence:
#
# PCOD8037656 Si02
#       7
#     2   2   2   2   2   2   2
#     4  12  26  47  77 103 144 194 243 294 369 440
#     4  12  26  44  75 104 146 186 234 305 370 419
#     4  12  26  50  74 104 144 195 255 299 361 442
#     4  12  28  46  72 109 145 188 248 316 364 421
#     4  12  26  46  75 107 145 195 242 290 360 455
#     4  12  25  50  72 109 148 193 238 290 369 456
#     4  12  27  44  73 110 151 184 239 300 366 442
#
# _framework density 23.247064000000002
#
# number of rings (size 3 to 8) (size 9 to 14) (size 15 to 20)
#    0.000    0.000    2.857    6.857    8.000    0.000 
#    0.000    0.000    0.000    0.000    0.000    0.000 
#    0.000    0.000    0.000    0.000    0.000    0.000 
#
# Total GULP energy -173649.603851 kJ/mol
# GULP energy per Si atom -12403.543132 kJ/mol
# Density = 2.319415 g / cm^3
# Si number density = 23.247064 Si / 1000 Ang^3
#
#
#
# Elastic Constant Matrix: (Units=GPa)
#
#
# Indices 1 2 3 4 5 6 
#
# 1 118.4143 42.2098 41.2203 3.4888 -12.8745 1.3401
# 2 42.2098 93.1947 26.2841 8.9227 -5.7285 -0.0227
# 3 41.2203 26.2841 103.1209 3.3048 -14.8740 8.6262
# 4 3.4888 8.9227 3.3048 59.2014 -2.1326 -4.2689
# 5 -12.8745 -5.7285 -14.8740 -2.1326 51.1541 -1.3094
# 6 1.3401 -0.0227 8.6262 -4.2689 -1.3094 38.9228
#
#
#
# Elastic Compliance Matrix: (Units=1/GPa)
#
#
# Indices 1 2 3 4 5 6 
#
# 1 0.011178 -0.004075 -0.003265 0.000219 0.001427 0.000408
# 2 -0.004075 0.013214 -0.001732 -0.001634 -0.000109 0.000349
# 3 -0.003265 -0.001732 0.012009 -0.000311 0.002399 -0.002504
# 4 0.000219 -0.001634 -0.000311 0.017305 0.000554 0.001977
# 5 0.001427 -0.000109 0.002399 0.000554 0.020621 0.000174
# 6 0.000408 0.000349 -0.002504 0.001977 0.000174 0.026456
#
#
# Mechanical properties :
#
#
# Convention : Reuss Voigt Hill
#
# Bulk Modulus (GPa) = 54.76962 59.35094 57.06028
# Shear Modulus (GPa) = 39.99618 43.52339 41.75978
#
# Velocity S-wave (km/s) = 4.15237 4.33160 4.24293
# Velocity P-wave (km/s) = 6.82646 7.11357 6.97149
#
# Compressibility (1/GPa) = 0.01825830
#
# Stress axis : x y z
#
# Youngs Moduli (GPa) = 89.46033 75.67661 83.26933
#
# Poissons Ratio (x) = 0.30839 0.27186
# Poissons Ratio (y) = 0.36456 0.14419
# Poissons Ratio (z) = 0.29207 0.13105
#
# Static dielectric constant tensor:
#      x y z
#    x 3.769660 -0.117160 -0.234120 
#    y -0.117160 4.153140 -0.026210 
#    z -0.234120 -0.026210 4.144540 
# 
# 
# High freq. dielectric constant tensor:
#      x y z
#    x 1.930370 0.002930 -0.004200 
#    y 0.002930 1.930410 0.005960 
#    z -0.004200 0.005960 1.931960 
# 
# From -- ./inp_files/116618.got.cif
#   From: 2010.06.25/outbox.cif.g09.slc.cpg/sg2_59_cif.got.tgz:116618.got - 2010.06.27 13:26:56.
