data_PCOD8037307
_publ_section_title
;
Structure prediction by ZEFSAII (Michael W. Deem and Ramdas Pophale) SiO2 
 PCOD8037307
Probable space group: P -1
;
_chemical_formula_sum "Si O2"
_cell_formula_units_Z 16
_cell_length_a 17.859757
_cell_length_b 5.336051
_cell_length_c 9.181645
_cell_angle_alpha 53.851473
_cell_angle_beta 120.205440
_cell_angle_gamma 106.299482
_cell_volume 610.471709
_symmetry_space_group_name_H-M "P -1"
_symmetry_group_IT_number 2
_symmetry_cell_setting 'triclinic'
loop_
_space_group_symop_operation_xyz
x,y,z
-x,-y,-z
loop_
_atom_site_type_symbol
_atom_site_label
_atom_site_fract_x
_atom_site_fract_y
_atom_site_fract_z
Si Si1 0.530635 0.799798 0.346806
Si Si2 0.121988 0.958227 0.945554
Si Si3 0.067827 0.839059 0.383648
Si Si4 0.354272 0.102277 0.329787
Si Si5 0.686374 0.552072 0.412431
Si Si6 0.586890 0.686887 0.994386
Si Si7 0.137502 0.192399 0.583979
Si Si8 0.820825 0.716027 0.825278
O O1 0.500000 0.500000 0.500000
O O2 0.608463 0.770084 0.319433
O O3 0.565335 0.993182 0.453703
O O4 0.447511 0.958388 0.131323
O O5 0.172081 0.022510 0.821169
O O6 0.135364 0.586091 0.106290
O O7 0.019226 0.016354 0.818259
O O8 0.158378 0.202234 0.013641
O O9 0.073218 0.468622 0.488414
O O10 0.079359 0.946008 0.525499
O O11 0.149364 0.977522 0.332777
O O12 0.309834 0.766764 0.380467
O O13 0.379776 0.296497 0.145625
O O14 0.283569 0.315418 0.276559
O O15 0.781463 0.697448 0.471782
O O16 0.663919 0.544467 0.219006
O O17 0.500000 0.500000 0.000000
#
# Coordination Sequence:
#
# PCOD8037307 Si02
#       8
#     2   2   2   2   2   2   2   2
#     4  12  25  45  75 100 139 186 236 296 363 428
#     4  12  26  46  72 110 145 188 244 304 352 436
#     4  12  24  47  74 105 147 191 240 297 363 433
#     4  12  26  47  71 102 149 184 234 306 360 428
#     4  12  26  46  71 103 144 188 238 299 360 435
#     4  12  25  46  72 103 137 185 237 292 362 432
#     4  12  26  45  74 106 144 194 241 295 369 430
#     4  12  26  45  73 105 147 190 241 292 373 428
#
# _framework density 26.209240000000001
#
# number of rings (size 3 to 8) (size 9 to 14) (size 15 to 20)
#    0.000    0.000    3.750    6.750    1.750    2.000 
#    0.000    0.000    0.000    0.000    0.000    0.000 
#    0.000    0.000    0.000    0.000    0.000    0.000 
#
# Total GULP energy -198255.810902 kJ/mol
# GULP energy per Si atom -12390.988181 kJ/mol
# Density = 2.614959 g / cm^3
# Si number density = 26.209240 Si / 1000 Ang^3
#
#
#
# Elastic Constant Matrix: (Units=GPa)
#
#
# Indices 1 2 3 4 5 6 
#
# 1 80.6594 3.0186 0.1577 6.5940 -3.9952 -8.0458
# 2 3.0186 103.5712 10.7981 -3.2657 8.7469 -9.7187
# 3 0.1577 10.7981 83.5747 -9.4644 -3.2279 3.4113
# 4 6.5940 -3.2657 -9.4644 31.3621 2.7864 -0.2843
# 5 -3.9952 8.7469 -3.2279 2.7864 49.7208 -7.0168
# 6 -8.0458 -9.7187 3.4113 -0.2843 -7.0168 40.8894
#
#
#
# Elastic Compliance Matrix: (Units=1/GPa)
#
#
# Indices 1 2 3 4 5 6 
#
# 1 0.013014 -0.000312 -0.000374 -0.003002 0.001637 0.002778
# 2 -0.000312 0.010180 -0.001368 0.000879 -0.001644 0.002196
# 3 -0.000374 -0.001368 0.012638 0.003681 0.000639 -0.001318
# 4 -0.003002 0.000879 0.003681 0.033905 -0.002173 -0.000826
# 5 0.001637 -0.001644 0.000639 -0.002173 0.021190 0.003499
# 6 0.002778 0.002196 -0.001318 -0.000826 0.003499 0.026229
#
#
# Mechanical properties :
#
#
# Convention : Reuss Voigt Hill
#
# Bulk Modulus (GPa) = 31.52441 32.86158 32.19299
# Shear Modulus (GPa) = 37.92479 41.31654 39.62067
#
# Velocity S-wave (km/s) = 3.80807 3.97471 3.89228
# Velocity P-wave (km/s) = 5.60262 5.79912 5.70172
#
# Compressibility (1/GPa) = 0.03172145
#
# Stress axis : x y z
#
# Youngs Moduli (GPa) = 76.84166 98.23582 79.12516
#
# Poissons Ratio (x) = 0.03070 0.02962
# Poissons Ratio (y) = 0.02401 0.10826
# Poissons Ratio (z) = 0.02876 0.13441
#
# Static dielectric constant tensor:
#      x y z
#    x 4.713770 -0.156370 -0.245410 
#    y -0.156370 5.056710 -0.485310 
#    z -0.245410 -0.485310 4.819500 
# 
# 
# High freq. dielectric constant tensor:
#      x y z
#    x 2.069600 0.005090 -0.007950 
#    y 0.005090 2.045120 0.000440 
#    z -0.007950 0.000440 2.058200 
# 
# From -- ./inp_files/47350.got.cif
#   From: 2010.06.25/outbox.cif.g09.slc.cpg/sg2_24_cif.got.tgz:47350.got - 2010.06.27 13:26:56.
