data_PCOD8037798
_publ_section_title
;
Structure prediction by ZEFSAII (Michael W. Deem and Ramdas Pophale) SiO2 
 PCOD8037798
Probable space group: P -1
;
_chemical_formula_sum "Si O2"
_cell_formula_units_Z 14
_cell_length_a 18.900496
_cell_length_b 12.787775
_cell_length_c 8.571482
_cell_angle_alpha 67.113656
_cell_angle_beta 51.036215
_cell_angle_gamma 26.745954
_cell_volume 630.550843
_symmetry_space_group_name_H-M "P -1"
_symmetry_group_IT_number 2
_symmetry_cell_setting 'triclinic'
loop_
_space_group_symop_operation_xyz
x,y,z
-x,-y,-z
loop_
_atom_site_type_symbol
_atom_site_label
_atom_site_fract_x
_atom_site_fract_y
_atom_site_fract_z
Si Si1 0.093453 0.981026 0.001484
Si Si2 0.137584 0.677355 0.571127
Si Si3 0.852541 0.848751 0.355650
Si Si4 0.768089 0.949362 0.769627
Si Si5 0.477493 0.136604 0.554574
Si Si6 0.615184 0.473063 0.932224
Si Si7 0.713436 0.753370 0.950519
O O1 0.943754 0.167588 0.251649
O O2 0.303414 0.674470 0.935834
O O3 0.146795 0.040026 0.814141
O O4 0.000000 0.000000 0.000000
O O5 0.360629 0.363488 0.482721
O O6 0.190085 0.707216 0.344345
O O7 0.961119 0.790334 0.685314
O O8 0.764019 0.978400 0.573737
O O9 0.088420 0.530792 0.246199
O O10 0.706154 0.922280 0.425591
O O11 0.785952 0.796839 0.872442
O O12 0.541786 0.245975 0.977848
O O13 0.500000 0.000000 0.500000
O O14 0.324580 0.280177 0.827061
O O15 0.500000 0.500000 0.000000
O O16 0.500000 0.000000 0.000000
#
# Coordination Sequence:
#
# PCOD8037798 Si02
#       7
#     2   2   2   2   2   2   2
#     4  12  28  47  75 105 149 193 242 304 358 431
#     4  12  27  49  73 111 147 191 247 299 366 431
#     4  12  28  50  73 113 144 192 247 298 370 433
#     4  12  28  46  79 105 147 198 240 302 363 437
#     4  12  27  45  77 109 151 189 238 306 364 436
#     4  12  27  49  75 106 146 194 248 294 364 433
#     4  12  27  48  75 109 147 190 245 297 370 436
#
# _framework density 22.202808999999998
#
# number of rings (size 3 to 8) (size 9 to 14) (size 15 to 20)
#    0.000    0.000    4.286    4.286   12.000    1.714 
#    0.000    0.000    0.000    0.000    0.000    0.000 
#    0.000    0.000    0.000    0.000    0.000    0.000 
#
# Total GULP energy -173633.982564 kJ/mol
# GULP energy per Si atom -12402.427326 kJ/mol
# Density = 2.215227 g / cm^3
# Si number density = 22.202809 Si / 1000 Ang^3
#
#
#
# Elastic Constant Matrix: (Units=GPa)
#
#
# Indices 1 2 3 4 5 6 
#
# 1 168.6583 33.3570 54.0949 0.9983 -5.8114 -11.5565
# 2 33.3570 108.4986 37.5273 -11.4599 -7.7338 -10.4612
# 3 54.0949 37.5273 121.7772 -8.9651 -6.3392 7.7313
# 4 0.9983 -11.4599 -8.9651 36.9689 1.8877 -7.5162
# 5 -5.8114 -7.7338 -6.3392 1.8877 37.0219 1.6718
# 6 -11.5565 -10.4612 7.7313 -7.5162 1.6718 42.9993
#
#
#
# Elastic Compliance Matrix: (Units=1/GPa)
#
#
# Indices 1 2 3 4 5 6 
#
# 1 0.007288 -0.001033 -0.003098 -0.000859 0.000347 0.002101
# 2 -0.001033 0.011363 -0.002941 0.003493 0.001368 0.003573
# 3 -0.003098 -0.002941 0.010830 0.001076 0.000850 -0.003340
# 4 -0.000859 0.003493 0.001076 0.029614 -0.000985 0.005641
# 5 0.000347 0.001368 0.000850 -0.000985 0.027591 -0.000972
# 6 0.002101 0.003573 -0.003340 0.005641 -0.000972 0.026314
#
#
# Mechanical properties :
#
#
# Convention : Reuss Voigt Hill
#
# Bulk Modulus (GPa) = 65.20202 72.09916 68.65059
# Shear Modulus (GPa) = 37.80583 41.66167 39.73375
#
# Velocity S-wave (km/s) = 4.13092 4.33646 4.23493
# Velocity P-wave (km/s) = 7.22378 7.59056 7.40944
#
# Compressibility (1/GPa) = 0.01533695
#
# Stress axis : x y z
#
# Youngs Moduli (GPa) = 137.21361 88.00863 92.33928
#
# Poissons Ratio (x) = 0.09088 0.28604
# Poissons Ratio (y) = 0.14169 0.27159
# Poissons Ratio (z) = 0.42505 0.25886
#
# Static dielectric constant tensor:
#      x y z
#    x 4.125970 -0.072110 0.049550 
#    y -0.072110 4.315450 -0.274920 
#    z 0.049550 -0.274920 4.129540 
# 
# 
# High freq. dielectric constant tensor:
#      x y z
#    x 1.888770 0.000000 -0.000700 
#    y 0.000000 1.893530 -0.005740 
#    z -0.000700 -0.005740 1.885010 
# 
# From -- ./inp_files/28509.got.cif
#   From: 2010.06.25/outbox.cif.g09.slc.cpg/sg2_15_cif.got.tgz:28509.got - 2010.06.27 13:26:56.
