data_PCOD8037241
_publ_section_title
;
Structure prediction by ZEFSAII (Michael W. Deem and Ramdas Pophale) SiO2 
 PCOD8037241
Probable space group: P -1
;
_chemical_formula_sum "Si O2"
_cell_formula_units_Z 16
_cell_length_a 8.634892
_cell_length_b 20.620970
_cell_length_c 11.465972
_cell_angle_alpha 157.999409
_cell_angle_beta 70.313474
_cell_angle_gamma 105.197540
_cell_volume 712.793851
_symmetry_space_group_name_H-M "P -1"
_symmetry_group_IT_number 2
_symmetry_cell_setting 'triclinic'
loop_
_space_group_symop_operation_xyz
x,y,z
-x,-y,-z
loop_
_atom_site_type_symbol
_atom_site_label
_atom_site_fract_x
_atom_site_fract_y
_atom_site_fract_z
Si Si1 0.265191 0.247075 0.377757
Si Si2 0.885352 0.375499 0.382661
Si Si3 0.845102 0.059121 0.713813
Si Si4 0.900590 0.389438 0.670153
Si Si5 0.303743 0.887763 0.630703
Si Si6 0.509512 0.490486 0.619501
Si Si7 0.681958 0.765050 0.391897
Si Si8 0.627140 0.134963 0.678705
O O1 0.401070 0.346192 0.447836
O O2 0.329868 0.189956 0.394031
O O3 0.088509 0.374655 0.648579
O O4 0.258578 0.072550 0.014282
O O5 0.936082 0.351859 0.463522
O O6 0.695153 0.450667 0.548671
O O7 0.000000 0.500000 0.500000
O O8 0.907371 0.186672 0.004366
O O9 0.713033 0.151611 0.809494
O O10 0.783236 0.897706 0.523047
O O11 0.000000 0.000000 0.500000
O O12 0.816356 0.238197 0.498107
O O13 0.782531 0.572212 0.024606
O O14 0.494116 0.794405 0.440323
O O15 0.262638 0.919808 0.556207
O O16 0.500000 0.500000 0.500000
O O17 0.456176 0.669673 0.999529
O O18 0.500000 0.000000 0.500000
#
# Coordination Sequence:
#
# PCOD8037241 Si02
#       8
#     2   2   2   2   2   2   2   2
#     4  12  27  46  75 105 144 186 238 297 356 420
#     4  12  26  47  71 106 143 185 238 290 354 422
#     4  12  28  44  72 104 146 188 231 294 351 420
#     4  12  27  45  73 108 143 186 237 298 353 421
#     4  12  25  47  74 103 146 186 237 294 353 427
#     4  12  24  46  72 102 140 185 236 288 355 418
#     4  12  25  49  71 104 145 188 238 290 360 420
#     4  12  26  46  72 106 141 186 239 287 354 421
#
# _framework density 22.446881999999999
#
# number of rings (size 3 to 8) (size 9 to 14) (size 15 to 20)
#    0.000    0.000    2.500    7.500    7.000    0.000 
#    0.000    0.000    0.000    0.000    0.000    0.000 
#    0.000    0.000    0.000    0.000    0.000    0.000 
#
# Total GULP energy -198400.699702 kJ/mol
# GULP energy per Si atom -12400.043731 kJ/mol
# Density = 2.239579 g / cm^3
# Si number density = 22.446882 Si / 1000 Ang^3
#
#
#
# Elastic Constant Matrix: (Units=GPa)
#
#
# Indices 1 2 3 4 5 6 
#
# 1 84.4503 26.1506 14.2100 22.8232 2.0599 26.4568
# 2 26.1506 188.3002 35.2291 15.1781 20.9080 15.7010
# 3 14.2100 35.2291 124.2245 0.9254 -0.8273 5.3419
# 4 22.8232 15.1781 0.9254 42.2998 1.8517 9.9170
# 5 2.0599 20.9080 -0.8273 1.8517 37.7739 -0.0829
# 6 26.4568 15.7010 5.3419 9.9170 -0.0829 40.1477
#
#
#
# Elastic Compliance Matrix: (Units=1/GPa)
#
#
# Indices 1 2 3 4 5 6 
#
# 1 0.016950 -0.000800 -0.001275 -0.006704 -0.000201 -0.009032
# 2 -0.000800 0.006338 -0.001658 -0.001325 -0.003439 -0.001411
# 3 -0.001275 -0.001658 0.008662 0.001024 0.001127 0.000086
# 4 -0.006704 -0.001325 0.001024 0.028233 -0.000267 -0.002174
# 5 -0.000201 -0.003439 0.001127 -0.000267 0.028429 0.001452
# 6 -0.009032 -0.001411 0.000086 -0.002174 0.001452 0.031940
#
#
# Mechanical properties :
#
#
# Convention : Reuss Voigt Hill
#
# Bulk Modulus (GPa) = 40.84284 60.90604 50.87444
# Shear Modulus (GPa) = 36.71622 45.46997 41.09309
#
# Velocity S-wave (km/s) = 4.04876 4.50563 4.28329
# Velocity P-wave (km/s) = 6.33178 7.36613 6.86845
#
# Compressibility (1/GPa) = 0.02448410
#
# Stress axis : x y z
#
# Youngs Moduli (GPa) = 58.99824 157.77046 115.44273
#
# Poissons Ratio (x) = 0.12615 0.14720
# Poissons Ratio (y) = 0.04717 0.19145
# Poissons Ratio (z) = 0.07523 0.26165
#
# Static dielectric constant tensor:
#      x y z
#    x 4.147120 0.082910 -0.206540 
#    y 0.082910 4.211540 0.068640 
#    z -0.206540 0.068640 4.033510 
# 
# 
# High freq. dielectric constant tensor:
#      x y z
#    x 1.894880 -0.000380 0.002010 
#    y -0.000380 1.912790 -0.004540 
#    z 0.002010 -0.004540 1.901130 
# 
# From -- ./inp_files/405763.got.cif
#   From: 2010.06.25/outbox.cif.g09.slc.cpg/sg2_203_cif.got.tgz:405763.got - 2010.06.27 13:26:56.
