data_PCOD8037663
_publ_section_title
;
Structure prediction by ZEFSAII (Michael W. Deem and Ramdas Pophale) SiO2 
 PCOD8037663
Probable space group: P -1
;
_chemical_formula_sum "Si O2"
_cell_formula_units_Z 12
_cell_length_a 9.382054
_cell_length_b 15.435402
_cell_length_c 14.242131
_cell_angle_alpha 151.238383
_cell_angle_beta 141.966946
_cell_angle_gamma 28.177267
_cell_volume 467.601038
_symmetry_space_group_name_H-M "P -1"
_symmetry_group_IT_number 2
_symmetry_cell_setting 'triclinic'
loop_
_space_group_symop_operation_xyz
x,y,z
-x,-y,-z
loop_
_atom_site_type_symbol
_atom_site_label
_atom_site_fract_x
_atom_site_fract_y
_atom_site_fract_z
Si Si1 0.836286 0.089875 0.671037
Si Si2 0.844739 0.423671 0.619716
Si Si3 0.334127 0.897683 0.079674
Si Si4 0.184868 0.315105 0.504628
Si Si5 0.897398 0.435451 0.973061
Si Si6 0.648357 0.095157 0.118306
O O1 0.470011 0.278975 0.664343
O O2 0.951947 0.192425 0.759204
O O3 0.988953 0.820684 0.467891
O O4 0.988587 0.069167 0.831866
O O5 0.478025 0.645089 0.657119
O O6 0.945223 0.378515 0.519945
O O7 0.949704 0.561893 0.851517
O O8 0.362655 0.058633 0.310530
O O9 0.535290 0.642291 0.988463
O O10 0.442547 0.883875 0.016708
O O11 0.000000 0.000000 0.000000
O O12 0.000000 0.500000 0.500000
O O13 0.000000 0.500000 0.000000
O O14 0.500000 0.000000 0.000000
#
# Coordination Sequence:
#
# PCOD8037663 Si02
#       6
#     2   2   2   2   2   2
#     4  12  27  47  82 109 153 207 252 317 389 445
#     4  12  26  51  76 114 157 194 261 316 380 462
#     4  12  26  48  75 109 157 197 254 318 380 456
#     4  12  28  50  76 118 154 198 262 316 382 464
#     4  12  26  50  74 113 154 200 255 318 383 455
#     4  12  25  50  76 111 154 203 254 318 382 456
#
# _framework density 25.662901999999999
#
# number of rings (size 3 to 8) (size 9 to 14) (size 15 to 20)
#    0.000    0.000    5.000    4.000    2.333    1.333 
#    6.000    0.000    0.000    0.000    0.000    0.000 
#    0.000    0.000    0.000    0.000    0.000    0.000 
#
# Total GULP energy -148681.162091 kJ/mol
# GULP energy per Si atom -12390.096841 kJ/mol
# Density = 2.560449 g / cm^3
# Si number density = 25.662902 Si / 1000 Ang^3
#
#
#
# Elastic Constant Matrix: (Units=GPa)
#
#
# Indices 1 2 3 4 5 6 
#
# 1 128.8617 34.0580 50.3348 26.5692 -6.7604 17.1452
# 2 34.0580 183.8006 23.7132 7.6862 8.9572 2.3334
# 3 50.3348 23.7132 115.1936 35.0800 3.0263 16.2909
# 4 26.5692 7.6862 35.0800 46.2160 11.9425 1.8024
# 5 -6.7604 8.9572 3.0263 11.9425 46.7547 2.1937
# 6 17.1452 2.3334 16.2909 1.8024 2.1937 33.5612
#
#
#
# Elastic Compliance Matrix: (Units=1/GPa)
#
#
# Indices 1 2 3 4 5 6 
#
# 1 0.010891 -0.001616 -0.002432 -0.004882 0.003488 -0.004237
# 2 -0.001616 0.005880 -0.000898 0.001012 -0.001603 0.000903
# 3 -0.002432 -0.000898 0.013192 -0.008642 0.001396 -0.004726
# 4 -0.004882 0.001012 -0.008642 0.032953 -0.009013 0.005438
# 5 0.003488 -0.001603 0.001396 -0.009013 0.024574 -0.003470
# 6 -0.004237 0.000903 -0.004726 0.005438 -0.003470 0.034127
#
#
# Mechanical properties :
#
#
# Convention : Reuss Voigt Hill
#
# Bulk Modulus (GPa) = 49.82299 71.56309 60.69304
# Shear Modulus (GPa) = 36.17972 46.62304 41.40138
#
# Velocity S-wave (km/s) = 3.75881 4.26696 4.02092
# Velocity P-wave (km/s) = 6.18828 7.22650 6.72744
#
# Compressibility (1/GPa) = 0.02007106
#
# Stress axis : x y z
#
# Youngs Moduli (GPa) = 91.82227 170.05733 75.80366
#
# Poissons Ratio (x) = 0.27486 0.18433
# Poissons Ratio (y) = 0.14841 0.06807
# Poissons Ratio (z) = 0.22328 0.15271
#
# Static dielectric constant tensor:
#      x y z
#    x 3.837560 -0.456920 0.469380 
#    y -0.456920 5.444280 0.345540 
#    z 0.469380 0.345540 3.647320 
# 
# 
# High freq. dielectric constant tensor:
#      x y z
#    x 1.997220 -0.004210 0.019970 
#    y -0.004210 2.073550 -0.006000 
#    z 0.019970 -0.006000 2.043670 
# 
# From -- ./inp_files/505988.got.cif
#   From: 2010.06.25/outbox.cif.g09.slc.cpg/sg2_253_cif.got.tgz:505988.got - 2010.06.27 13:26:56.
