data_PCOD8037084
_publ_section_title
;
Structure prediction by ZEFSAII (Michael W. Deem and Ramdas Pophale) SiO2 
 PCOD8037084
Probable space group: P -1
;
_chemical_formula_sum "Si O2"
_cell_formula_units_Z 14
_cell_length_a 5.055899
_cell_length_b 29.084788
_cell_length_c 5.068296
_cell_angle_alpha 90.236873
_cell_angle_beta 59.853641
_cell_angle_gamma 89.807043
_cell_volume 644.469225
_symmetry_space_group_name_H-M "P -1"
_symmetry_group_IT_number 2
_symmetry_cell_setting 'triclinic'
loop_
_space_group_symop_operation_xyz
x,y,z
-x,-y,-z
loop_
_atom_site_type_symbol
_atom_site_label
_atom_site_fract_x
_atom_site_fract_y
_atom_site_fract_z
Si Si1 0.234440 0.837925 0.090224
Si Si2 0.098948 0.126922 0.240728
Si Si3 0.088461 0.303491 0.245599
Si Si4 0.756286 0.268384 0.912487
Si Si5 0.165470 0.019336 0.167520
Si Si6 0.520796 0.553935 0.528844
Si Si7 0.145568 0.410202 0.140112
O O1 0.152862 0.784720 0.162074
O O2 0.036731 0.866460 0.400171
O O3 0.593766 0.844431 0.954530
O O4 0.152072 0.855553 0.840807
O O5 0.173326 0.073949 0.158859
O O6 0.170695 0.356315 0.173530
O O7 0.947566 0.296836 0.604587
O O8 0.394921 0.273827 0.051648
O O9 0.838590 0.287316 0.159681
O O10 0.000000 0.000000 0.500000
O O11 0.500000 0.000000 0.000000
O O12 0.000000 0.000000 0.000000
O O13 0.500000 0.500000 0.500000
O O14 0.760434 0.563405 0.641262
O O15 0.193609 0.574748 0.774424
O O16 0.624327 0.577632 0.208457
#
# Coordination Sequence:
#
# PCOD8037084 Si02
#       7
#     2   2   2   2   2   2   2
#     4  12  25  43  66  94 128 166 210 262 316 375
#     4  12  25  44  67  96 129 168 211 260 316 375
#     4  12  25  43  66  94 128 169 213 262 316 378
#     4  12  24  43  65  94 126 166 212 262 315 375
#     4  12  25  44  67  96 129 168 211 260 313 375
#     4  12  24  42  66  96 129 168 213 264 318 378
#     4  12  24  43  65  94 129 169 212 262 318 378
#
# _framework density 21.723303000000001
#
# number of rings (size 3 to 8) (size 9 to 14) (size 15 to 20)
#    0.000    0.000    0.000   12.000    0.000    0.000 
#    0.000    0.000    0.000    0.000    0.000    0.000 
#    0.000    0.000    0.000    0.000    0.000    0.000 
#
# Total GULP energy -173759.584566 kJ/mol
# GULP energy per Si atom -12411.398898 kJ/mol
# Density = 2.167386 g / cm^3
# Si number density = 21.723303 Si / 1000 Ang^3
#
#
#
# Elastic Constant Matrix: (Units=GPa)
#
#
# Indices 1 2 3 4 5 6 
#
# 1 106.8398 42.7183 40.0010 -0.2350 7.5631 0.2192
# 2 42.7183 145.6080 24.6610 -2.5899 22.9494 -7.6303
# 3 40.0010 24.6610 104.0026 -1.9313 -2.1459 0.8045
# 4 -0.2350 -2.5899 -1.9313 32.7526 -3.5755 -0.6412
# 5 7.5631 22.9494 -2.1459 -3.5755 46.6368 3.7330
# 6 0.2192 -7.6303 0.8045 -0.6412 3.7330 38.8926
#
#
#
# Elastic Compliance Matrix: (Units=1/GPa)
#
#
# Indices 1 2 3 4 5 6 
#
# 1 0.012010 -0.002759 -0.003986 -0.000460 -0.000772 -0.000460
# 2 -0.002759 0.008602 -0.001073 0.000203 -0.003988 0.002111
# 3 -0.003986 -0.001073 0.011458 0.000748 0.001806 -0.000586
# 4 -0.000460 0.000203 0.000748 0.030851 0.002350 0.000310
# 5 -0.000772 -0.003988 0.001806 0.002350 0.024040 -0.003084
# 6 -0.000460 0.002111 -0.000586 0.000310 -0.003084 0.026442
#
#
# Mechanical properties :
#
#
# Convention : Reuss Voigt Hill
#
# Bulk Modulus (GPa) = 60.85101 63.46788 62.15944
# Shear Modulus (GPa) = 37.16980 40.26108 38.71544
#
# Velocity S-wave (km/s) = 4.14098 4.30974 4.22620
# Velocity P-wave (km/s) = 7.13697 7.35153 7.24504
#
# Compressibility (1/GPa) = 0.01643358
#
# Stress axis : x y z
#
# Youngs Moduli (GPa) = 83.26509 116.25432 87.27246
#
# Poissons Ratio (x) = 0.32075 0.34786
# Poissons Ratio (y) = 0.22973 0.09367
# Poissons Ratio (z) = 0.33188 0.12478
#
# Static dielectric constant tensor:
#      x y z
#    x 4.272400 -0.013450 -0.028480 
#    y -0.013450 4.128640 -0.012180 
#    z -0.028480 -0.012180 4.030500 
# 
# 
# High freq. dielectric constant tensor:
#      x y z
#    x 1.871670 0.000550 0.000690 
#    y 0.000550 1.874460 -0.001410 
#    z 0.000690 -0.001410 1.869840 
# 
# From -- ./inp_files/14534.got.cif
#   From: 2010.06.25/outbox.cif.g09.slc.cpg/sg2_8_cif.got.tgz:14534.got - 2010.06.27 13:26:56.
