data_PCOD8037760
_publ_section_title
;
Structure prediction by ZEFSAII (Michael W. Deem and Ramdas Pophale) SiO2 
 PCOD8037760
Probable space group: P -1
;
_chemical_formula_sum "Si O2"
_cell_formula_units_Z 12
_cell_length_a 9.131976
_cell_length_b 8.665821
_cell_length_c 11.272969
_cell_angle_alpha 40.708469
_cell_angle_beta 87.963902
_cell_angle_gamma 67.042977
_cell_volume 482.883268
_symmetry_space_group_name_H-M "P -1"
_symmetry_group_IT_number 2
_symmetry_cell_setting 'triclinic'
loop_
_space_group_symop_operation_xyz
x,y,z
-x,-y,-z
loop_
_atom_site_type_symbol
_atom_site_label
_atom_site_fract_x
_atom_site_fract_y
_atom_site_fract_z
Si Si1 0.218974 0.785232 0.279929
Si Si2 0.678014 0.211078 0.134895
Si Si3 0.482999 0.742855 0.126518
Si Si4 0.932997 0.374814 0.979473
Si Si5 0.140615 0.734898 0.569600
Si Si6 0.852925 0.636623 0.593892
O O1 0.412564 0.666947 0.290003
O O2 0.209366 0.814094 0.406124
O O3 0.148776 0.592450 0.354599
O O4 0.090805 0.114211 0.049728
O O5 0.708505 0.954356 0.365714
O O6 0.500000 0.500000 0.000000
O O7 0.663563 0.155002 0.030205
O O8 0.838377 0.248588 0.127324
O O9 0.678448 0.473434 0.240384
O O10 0.500000 0.000000 0.000000
O O11 0.805961 0.613367 0.746199
O O12 0.000000 0.500000 0.000000
O O13 0.049025 0.573447 0.623630
O O14 0.000000 0.000000 0.500000
#
# Coordination Sequence:
#
# PCOD8037760 Si02
#       6
#     2   2   2   2   2   2
#     4  12  26  50  81 117 158 209 270 329 401 477
#     4  12  29  51  76 115 161 209 266 331 400 472
#     4  12  28  49  76 116 163 205 267 332 395 475
#     4  12  28  49  79 117 158 209 267 329 402 478
#     4  12  26  48  80 115 156 209 263 325 402 477
#     4  12  26  50  81 111 156 211 267 326 399 475
#
# _framework density 24.850726000000002
#
# number of rings (size 3 to 8) (size 9 to 14) (size 15 to 20)
#    0.000    0.000    3.333    5.500    7.000    0.667 
#    3.000    0.000    0.000    0.000    0.000    0.000 
#    0.000    0.000    0.000    0.000    0.000    0.000 
#
# Total GULP energy -148798.182658 kJ/mol
# GULP energy per Si atom -12399.848555 kJ/mol
# Density = 2.479416 g / cm^3
# Si number density = 24.850726 Si / 1000 Ang^3
#
#
#
# Elastic Constant Matrix: (Units=GPa)
#
#
# Indices 1 2 3 4 5 6 
#
# 1 134.2133 60.5847 39.6881 -23.0193 -7.1460 10.6367
# 2 60.5847 146.3494 73.1580 -10.9277 -5.7688 7.1543
# 3 39.6881 73.1580 167.0951 -5.1802 -3.8347 6.3271
# 4 -23.0193 -10.9277 -5.1802 46.0704 -5.8818 1.4692
# 5 -7.1460 -5.7688 -3.8347 -5.8818 43.5387 -4.2714
# 6 10.6367 7.1543 6.3271 1.4692 -4.2714 46.9354
#
#
#
# Elastic Compliance Matrix: (Units=1/GPa)
#
#
# Indices 1 2 3 4 5 6 
#
# 1 0.010167 -0.003383 -0.000695 0.004457 0.001596 -0.001689
# 2 -0.003383 0.010081 -0.003578 0.000369 0.000490 -0.000255
# 3 -0.000695 -0.003578 0.007719 -0.000315 0.000017 -0.000326
# 4 0.004457 0.000369 -0.000315 0.024532 0.003926 -0.001434
# 5 0.001596 0.000490 0.000017 0.003926 0.023986 0.001621
# 6 -0.001689 -0.000255 -0.000326 -0.001434 0.001621 0.021964
#
#
# Mechanical properties :
#
#
# Convention : Reuss Voigt Hill
#
# Bulk Modulus (GPa) = 79.01793 88.27991 83.64892
# Shear Modulus (GPa) = 42.38035 45.59070 43.98553
#
# Velocity S-wave (km/s) = 4.13413 4.28785 4.21169
# Velocity P-wave (km/s) = 7.39284 7.75341 7.57527
#
# Compressibility (1/GPa) = 0.01265536
#
# Stress axis : x y z
#
# Youngs Moduli (GPa) = 98.36054 99.19239 129.54824
#
# Poissons Ratio (x) = 0.33558 0.09001
# Poissons Ratio (y) = 0.33277 0.46352
# Poissons Ratio (z) = 0.06834 0.35491
#
# Static dielectric constant tensor:
#      x y z
#    x 5.671490 0.264230 1.081030 
#    y 0.264230 4.366340 0.226580 
#    z 1.081030 0.226580 5.804530 
# 
# 
# High freq. dielectric constant tensor:
#      x y z
#    x 1.988050 0.008600 -0.003600 
#    y 0.008600 1.994010 0.005510 
#    z -0.003600 0.005510 2.008030 
# 
# From -- ./inp_files/314372.got.cif
#   From: 2010.06.25/outbox.cif.g09.slc.cpg/sg2_158_cif.got.tgz:314372.got - 2010.06.27 13:26:56.
