data_PCOD8037535
_publ_section_title
;
Structure prediction by ZEFSAII (Michael W. Deem and Ramdas Pophale) SiO2 
 PCOD8037535
Probable space group: P -1
;
_chemical_formula_sum "Si O2"
_cell_formula_units_Z 14
_cell_length_a 12.185794
_cell_length_b 9.627926
_cell_length_c 9.194016
_cell_angle_alpha 67.118769
_cell_angle_beta 71.198105
_cell_angle_gamma 122.553553
_cell_volume 610.708399
_symmetry_space_group_name_H-M "P -1"
_symmetry_group_IT_number 2
_symmetry_cell_setting 'triclinic'
loop_
_space_group_symop_operation_xyz
x,y,z
-x,-y,-z
loop_
_atom_site_type_symbol
_atom_site_label
_atom_site_fract_x
_atom_site_fract_y
_atom_site_fract_z
Si Si1 0.451232 0.619784 0.007505
Si Si2 0.671014 0.277034 0.544311
Si Si3 0.156243 0.314987 0.499192
Si Si4 0.248468 0.582341 0.870157
Si Si5 0.739428 0.128879 0.067043
Si Si6 0.061908 0.949364 0.866797
Si Si7 0.798969 0.133225 0.722047
O O1 0.278841 0.456063 0.249659
O O2 0.500000 0.500000 0.000000
O O3 0.409646 0.667907 0.857591
O O4 0.618444 0.858350 0.919886
O O5 0.759533 0.517615 0.466326
O O6 0.666885 0.276062 0.373224
O O7 0.790668 0.256262 0.556432
O O8 0.472217 0.059734 0.777530
O O9 0.962819 0.187280 0.590907
O O10 0.138560 0.122154 0.629410
O O11 0.173129 0.654353 0.958521
O O12 0.097822 0.309854 0.019510
O O13 0.782692 0.005542 0.159354
O O14 0.825837 0.234787 0.827794
O O15 0.000000 0.000000 0.000000
#
# Coordination Sequence:
#
# PCOD8037535 Si02
#       7
#     2   2   2   2   2   2   2
#     4  12  29  48  76 110 157 197 252 311 373 452
#     4  12  25  46  79 109 148 199 255 307 378 442
#     4  12  27  49  77 111 147 205 248 305 381 448
#     4  12  27  48  72 114 149 197 257 309 371 445
#     4  12  25  46  79 109 153 199 252 311 372 447
#     4  12  26  48  74 110 152 194 252 312 375 442
#     4  12  25  50  76 110 153 196 252 309 377 447
#
# _framework density 22.924199000000002
#
# number of rings (size 3 to 8) (size 9 to 14) (size 15 to 20)
#    0.000    0.000    5.714    3.429    2.000    5.143 
#    0.000    0.000    0.000    0.000    0.000    0.000 
#    0.000    0.000    0.000    0.000    0.000    0.000 
#
# Total GULP energy -173720.155835 kJ/mol
# GULP energy per Si atom -12408.582560 kJ/mol
# Density = 2.287202 g / cm^3
# Si number density = 22.924199 Si / 1000 Ang^3
#
#
#
# Elastic Constant Matrix: (Units=GPa)
#
#
# Indices 1 2 3 4 5 6 
#
# 1 163.0555 54.0481 59.8823 15.9446 11.9775 -8.8785
# 2 54.0481 127.3579 45.2917 -2.8438 1.7863 -13.0404
# 3 59.8823 45.2917 127.0022 9.9737 2.2573 1.7849
# 4 15.9446 -2.8438 9.9737 42.8081 5.8485 0.9924
# 5 11.9775 1.7863 2.2573 5.8485 38.2153 -6.2506
# 6 -8.8785 -13.0404 1.7849 0.9924 -6.2506 39.6176
#
#
#
# Elastic Compliance Matrix: (Units=1/GPa)
#
#
# Indices 1 2 3 4 5 6 
#
# 1 0.008439 -0.002483 -0.002885 -0.002408 -0.001830 0.000975
# 2 -0.002483 0.010201 -0.002683 0.002073 0.000628 0.002969
# 3 -0.002885 -0.002683 0.010331 -0.001513 0.000340 -0.001904
# 4 -0.002408 0.002073 -0.001513 0.025215 -0.003265 -0.000936
# 5 -0.001830 0.000628 0.000340 -0.003265 0.027889 0.004263
# 6 0.000975 0.002969 -0.001904 -0.000936 0.004263 0.027219
#
#
# Mechanical properties :
#
#
# Convention : Reuss Voigt Hill
#
# Bulk Modulus (GPa) = 77.71404 81.76218 79.73811
# Shear Modulus (GPa) = 38.55471 41.34109 39.94790
#
# Velocity S-wave (km/s) = 4.10547 4.25123 4.17898
# Velocity P-wave (km/s) = 7.51313 7.73570 7.62523
#
# Compressibility (1/GPa) = 0.01286769
#
# Stress axis : x y z
#
# Youngs Moduli (GPa) = 118.50093 98.02594 96.79990
#
# Poissons Ratio (x) = 0.24344 0.27930
# Poissons Ratio (y) = 0.29428 0.25970
# Poissons Ratio (z) = 0.34191 0.26298
#
# Static dielectric constant tensor:
#      x y z
#    x 4.442110 -0.030560 0.168520 
#    y -0.030560 4.401490 -0.125790 
#    z 0.168520 -0.125790 4.541580 
# 
# 
# High freq. dielectric constant tensor:
#      x y z
#    x 1.919040 -0.000040 0.006630 
#    y -0.000040 1.920540 -0.004970 
#    z 0.006630 -0.004970 1.908400 
# 
# From -- ./inp_files/159341.got.cif
#   From: 2010.06.25/outbox.cif.g09.slc.cpg/sg2_80_cif.got.tgz:159341.got - 2010.06.27 13:26:56.
