data_PCOD8037872
_publ_section_title
;
Structure prediction by ZEFSAII (Michael W. Deem and Ramdas Pophale) SiO2 
 PCOD8037872
Probable space group: P -1
;
_chemical_formula_sum "Si O2"
_cell_formula_units_Z 16
_cell_length_a 17.443177
_cell_length_b 15.228418
_cell_length_c 9.001622
_cell_angle_alpha 134.964804
_cell_angle_beta 139.877746
_cell_angle_gamma 33.613102
_cell_volume 836.491942
_symmetry_space_group_name_H-M "P -1"
_symmetry_group_IT_number 2
_symmetry_cell_setting 'triclinic'
loop_
_space_group_symop_operation_xyz
x,y,z
-x,-y,-z
loop_
_atom_site_type_symbol
_atom_site_label
_atom_site_fract_x
_atom_site_fract_y
_atom_site_fract_z
Si Si1 0.318793 0.042636 0.130403
Si Si2 0.503046 0.862033 0.905323
Si Si3 0.088961 0.995346 0.765935
Si Si4 0.796701 0.261746 0.793457
Si Si5 0.526165 0.318510 0.598384
Si Si6 0.422577 0.224978 0.594423
Si Si7 0.676194 0.595206 0.051900
Si Si8 0.645091 0.335722 0.338073
O O1 0.326246 0.188030 0.309598
O O2 0.422975 0.936172 0.298832
O O3 0.377823 0.940606 0.944845
O O4 0.146731 0.100009 0.958700
O O5 0.453406 0.808642 0.634468
O O6 0.666103 0.705237 0.035017
O O7 0.500000 0.000000 0.000000
O O8 0.238703 0.805530 0.780219
O O9 0.000000 0.000000 0.500000
O O10 0.967885 0.083909 0.830783
O O11 0.693751 0.276156 0.794132
O O12 0.811179 0.402641 0.998648
O O13 0.710597 0.288799 0.544561
O O14 0.481351 0.299863 0.671677
O O15 0.386092 0.502215 0.562079
O O16 0.302887 0.352006 0.695180
O O17 0.513799 0.631605 0.855987
#
# Coordination Sequence:
#
# PCOD8037872 Si02
#       8
#     2   2   2   2   2   2   2   2
#     4  10  20  37  53  82 111 145 181 220 274 321
#     4  11  17  29  56  81 105 132 181 234 259 304
#     4  10  19  35  58  80 106 149 181 218 273 328
#     4  10  19  32  57  81 107 143 179 232 267 317
#     4  11  19  32  55  87 106 136 186 230 273 303
#     4  10  21  33  56  80 114 143 176 226 273 327
#     4  10  18  35  53  81 109 141 183 226 271 311
#     4  10  17  32  56  78 110 135 184 233 265 313
#
# _framework density 19.127499
#
# number of rings (size 3 to 8) (size 9 to 14) (size 15 to 20)
#    0.000    1.750    6.250    1.500    0.000    2.000 
#    0.000    1.250    0.000    8.250    0.000    0.000 
#    0.000    0.000    0.000    0.000    0.000    0.000 
#
# Total GULP energy -198221.883725 kJ/mol
# GULP energy per Si atom -12388.867733 kJ/mol
# Density = 1.908396 g / cm^3
# Si number density = 19.127499 Si / 1000 Ang^3
#
#
#
# Elastic Constant Matrix: (Units=GPa)
#
#
# Indices 1 2 3 4 5 6 
#
# 1 70.9433 30.5330 10.2716 -0.0506 10.4068 13.1481
# 2 30.5330 90.0139 15.5104 22.7575 10.9846 -6.3214
# 3 10.2716 15.5104 63.5054 14.2673 7.5432 0.1739
# 4 -0.0506 22.7575 14.2673 25.8597 -0.8656 3.4780
# 5 10.4068 10.9846 7.5432 -0.8656 26.7158 4.0129
# 6 13.1481 -6.3214 0.1739 3.4780 4.0129 32.4804
#
#
#
# Elastic Compliance Matrix: (Units=1/GPa)
#
#
# Indices 1 2 3 4 5 6 
#
# 1 0.021663 -0.010828 -0.003720 0.013241 -0.000676 -0.012191
# 2 -0.010828 0.021869 0.002370 -0.022457 -0.007975 0.012017
# 3 -0.003720 0.002370 0.019544 -0.013628 -0.006097 0.004075
# 4 0.013241 -0.022457 -0.013628 0.068919 0.012956 -0.018638
# 5 -0.000676 -0.007975 -0.006097 0.012956 0.044333 -0.008111
# 6 -0.012191 0.012017 0.004075 -0.018638 -0.008111 0.041038
#
#
# Mechanical properties :
#
#
# Convention : Reuss Voigt Hill
#
# Bulk Modulus (GPa) = 25.82743 37.45476 31.64110
# Shear Modulus (GPa) = 19.63639 28.22101 23.92870
#
# Velocity S-wave (km/s) = 3.20754 3.84528 3.54080
# Velocity P-wave (km/s) = 5.22014 6.27208 5.77014
#
# Compressibility (1/GPa) = 0.03871852
#
# Stress axis : x y z
#
# Youngs Moduli (GPa) = 46.16214 45.72691 51.16558
#
# Poissons Ratio (x) = 0.49515 0.19035
# Poissons Ratio (y) = 0.49986 -0.12126
# Poissons Ratio (z) = 0.17174 -0.10837
#
# Static dielectric constant tensor:
#      x y z
#    x 3.596600 -0.031570 0.032760 
#    y -0.031570 4.160880 0.401980 
#    z 0.032760 0.401980 3.538820 
# 
# 
# High freq. dielectric constant tensor:
#      x y z
#    x 1.725490 -0.000770 -0.005960 
#    y -0.000770 1.730890 0.040170 
#    z -0.005960 0.040170 1.733160 
# 
# From -- ./inp_files/255090.got.cif
#   From: 2010.06.25/outbox.cif.g09.slc.cpg/sg2_128_cif.got.tgz:255090.got - 2010.06.27 13:26:56.
