data_PCOD8037187
_publ_section_title
;
Structure prediction by ZEFSAII (Michael W. Deem and Ramdas Pophale) SiO2 
 PCOD8037187
Probable space group: P -1
;
_chemical_formula_sum "Si O2"
_cell_formula_units_Z 16
_cell_length_a 13.278113
_cell_length_b 12.952178
_cell_length_c 8.366621
_cell_angle_alpha 108.086393
_cell_angle_beta 88.307953
_cell_angle_gamma 145.874859
_cell_volume 694.032478
_symmetry_space_group_name_H-M "P -1"
_symmetry_group_IT_number 2
_symmetry_cell_setting 'triclinic'
loop_
_space_group_symop_operation_xyz
x,y,z
-x,-y,-z
loop_
_atom_site_type_symbol
_atom_site_label
_atom_site_fract_x
_atom_site_fract_y
_atom_site_fract_z
Si Si1 0.281717 0.322618 0.858413
Si Si2 0.627470 0.527812 0.429536
Si Si3 0.960280 0.119072 0.284227
Si Si4 0.044014 0.516882 0.190040
Si Si5 0.637821 0.140287 0.209797
Si Si6 0.395776 0.109299 0.323108
Si Si7 0.989462 0.751824 0.991475
Si Si8 0.737484 0.089488 0.456050
O O1 0.292547 0.369623 0.698643
O O2 0.171221 0.318175 0.953284
O O3 0.500000 0.500000 0.000000
O O4 0.154914 0.095470 0.760792
O O5 0.500000 0.500000 0.500000
O O6 0.806227 0.679227 0.616387
O O7 0.480586 0.290722 0.315671
O O8 0.916114 0.181699 0.427797
O O9 0.910933 0.095327 0.090126
O O10 0.860246 0.361303 0.244083
O O11 0.203846 0.749789 0.364241
O O12 0.117712 0.459482 0.164045
O O13 0.000000 0.500000 0.000000
O O14 0.560695 0.172112 0.319988
O O15 0.615996 0.017204 0.271700
O O16 0.500000 0.000000 0.000000
O O17 0.170925 0.882509 0.160468
O O18 0.385863 0.105460 0.515376
#
# Coordination Sequence:
#
# PCOD8037187 Si02
#       8
#     2   2   2   2   2   2   2   2
#     4  12  27  50  76 105 139 189 244 304 370 438
#     4  12  26  46  72 107 141 185 243 301 367 429
#     4  12  25  48  75 104 143 188 243 307 365 432
#     4  12  25  46  72 105 150 195 242 297 364 430
#     4  12  24  45  68 106 145 188 243 294 359 430
#     4  12  25  44  69 106 146 192 236 298 355 436
#     4  12  25  47  72 104 148 191 242 301 367 430
#     4  12  25  46  70 107 148 196 242 298 361 429
#
# _framework density 23.053675999999999
#
# number of rings (size 3 to 8) (size 9 to 14) (size 15 to 20)
#    0.000    0.000    3.750    6.000    3.500    0.000 
#    2.250    0.000    0.000    0.000    0.000    0.000 
#    0.000    0.000    0.000    0.000    0.000    0.000 
#
# Total GULP energy -198347.809105 kJ/mol
# GULP energy per Si atom -12396.738069 kJ/mol
# Density = 2.300120 g / cm^3
# Si number density = 23.053676 Si / 1000 Ang^3
#
#
#
# Elastic Constant Matrix: (Units=GPa)
#
#
# Indices 1 2 3 4 5 6 
#
# 1 184.6936 55.3866 38.6575 -6.4435 -13.5302 12.7524
# 2 55.3866 114.1801 41.7868 -31.7354 -7.8741 -9.1810
# 3 38.6575 41.7868 99.0988 -20.6761 6.9062 1.1555
# 4 -6.4435 -31.7354 -20.6761 54.8518 -3.6366 -1.9540
# 5 -13.5302 -7.8741 6.9062 -3.6366 32.2566 -11.2929
# 6 12.7524 -9.1810 1.1555 -1.9540 -11.2929 36.8382
#
#
#
# Elastic Compliance Matrix: (Units=1/GPa)
#
#
# Indices 1 2 3 4 5 6 
#
# 1 0.007041 -0.003447 -0.001729 -0.001843 0.001238 -0.002961
# 2 -0.003447 0.015010 -0.003965 0.007483 0.006520 0.007454
# 3 -0.001729 -0.003965 0.013252 0.002081 -0.005085 -0.002254
# 4 -0.001843 0.007483 0.002081 0.023655 0.005117 0.005261
# 5 0.001238 0.006520 -0.005085 0.005117 0.039597 0.013766
# 6 -0.002961 0.007454 -0.002254 0.005261 0.013766 0.034598
#
#
# Mechanical properties :
#
#
# Convention : Reuss Voigt Hill
#
# Bulk Modulus (GPa) = 58.75174 74.40381 66.57778
# Shear Modulus (GPa) = 31.82498 42.26542 37.04520
#
# Velocity S-wave (km/s) = 3.71950 4.28641 4.01298
# Velocity P-wave (km/s) = 6.63222 7.53936 7.10029
#
# Compressibility (1/GPa) = 0.01702077
#
# Stress axis : x y z
#
# Youngs Moduli (GPa) = 142.02658 66.62150 75.46035
#
# Poissons Ratio (x) = 0.22968 0.13048
# Poissons Ratio (y) = 0.48963 0.29917
# Poissons Ratio (z) = 0.24558 0.26413
#
# Static dielectric constant tensor:
#      x y z
#    x 4.779660 -0.084250 -0.356640 
#    y -0.084250 4.158010 -0.251670 
#    z -0.356640 -0.251670 4.522260 
# 
# 
# High freq. dielectric constant tensor:
#      x y z
#    x 1.934120 -0.000410 0.002040 
#    y -0.000410 1.922490 -0.023160 
#    z 0.002040 -0.023160 1.912490 
# 
# From -- ./inp_files/259080.got.cif
#   From: 2010.06.25/outbox.cif.g09.slc.cpg/sg2_130_cif.got.tgz:259080.got - 2010.06.27 13:26:56.
