data_PCOD8037250
_publ_section_title
;
Structure prediction by ZEFSAII (Michael W. Deem and Ramdas Pophale) SiO2 
 PCOD8037250
Probable space group: P -1
;
_chemical_formula_sum "Si O2"
_cell_formula_units_Z 16
_cell_length_a 14.743804
_cell_length_b 9.410709
_cell_length_c 18.210915
_cell_angle_alpha 37.979931
_cell_angle_beta 37.041618
_cell_angle_gamma 28.840705
_cell_volume 698.914022
_symmetry_space_group_name_H-M "P -1"
_symmetry_group_IT_number 2
_symmetry_cell_setting 'triclinic'
loop_
_space_group_symop_operation_xyz
x,y,z
-x,-y,-z
loop_
_atom_site_type_symbol
_atom_site_label
_atom_site_fract_x
_atom_site_fract_y
_atom_site_fract_z
Si Si1 0.071927 0.674450 0.105477
Si Si2 0.727997 0.352154 0.413070
Si Si3 0.364531 0.358000 0.929341
Si Si4 0.951781 0.358017 0.529157
Si Si5 0.553764 0.705670 0.875938
Si Si6 0.557676 0.639873 0.733666
Si Si7 0.793900 0.606064 0.127881
Si Si8 0.245535 0.300521 0.628626
O O1 0.233217 0.471203 0.149534
O O2 0.870845 0.741474 0.222029
O O3 0.160773 0.486768 0.048976
O O4 0.000000 0.000000 0.000000
O O5 0.500000 0.500000 0.500000
O O6 0.809372 0.432822 0.261393
O O7 0.743718 0.460007 0.438119
O O8 0.858117 0.987261 0.476589
O O9 0.445555 0.507342 0.855925
O O10 0.311992 0.454991 0.838781
O O11 0.500000 0.000000 0.000000
O O12 0.778572 0.366540 0.669286
O O13 0.871984 0.572018 0.422810
O O14 0.000000 0.500000 0.500000
O O15 0.575325 0.737810 0.762801
O O16 0.366975 0.028951 0.901592
O O17 0.500000 0.500000 0.000000
O O18 0.455972 0.947428 0.625181
O O19 0.000000 0.500000 0.000000
#
# Coordination Sequence:
#
# PCOD8037250 Si02
#       8
#     2   2   2   2   2   2   2   2
#     4  12  25  44  75 111 148 192 242 300 378 440
#     4  12  30  51  77 109 150 199 253 304 377 444
#     4  12  26  43  70 111 151 185 238 306 370 437
#     4  12  30  49  76 107 146 194 257 306 366 442
#     4  12  24  46  73 106 154 192 241 302 376 446
#     4  12  26  47  75 108 145 197 243 304 369 439
#     4  12  29  47  77 110 149 192 250 311 368 440
#     4  12  26  50  77 103 149 197 249 304 370 446
#
# _framework density 22.892658000000001
#
# number of rings (size 3 to 8) (size 9 to 14) (size 15 to 20)
#    0.000    0.000    5.000    3.000   12.250    0.000 
#    0.000    0.000    0.000    0.000    0.000    0.000 
#    0.000    0.000    0.000    0.000    0.000    0.000 
#
# Total GULP energy -198304.492240 kJ/mol
# GULP energy per Si atom -12394.030765 kJ/mol
# Density = 2.284055 g / cm^3
# Si number density = 22.892658 Si / 1000 Ang^3
#
#
#
# Elastic Constant Matrix: (Units=GPa)
#
#
# Indices 1 2 3 4 5 6 
#
# 1 126.9846 48.1455 23.2335 -15.9993 15.8934 13.8109
# 2 48.1455 162.4646 28.1364 -7.7037 0.0563 -3.5335
# 3 23.2335 28.1364 86.8292 5.8834 3.6205 -4.4032
# 4 -15.9993 -7.7037 5.8834 45.2146 -4.9201 -1.3843
# 5 15.8934 0.0563 3.6205 -4.9201 39.9035 -3.3382
# 6 13.8109 -3.5335 -4.4032 -1.3843 -3.3382 38.7757
#
#
#
# Elastic Compliance Matrix: (Units=1/GPa)
#
#
# Indices 1 2 3 4 5 6 
#
# 1 0.010712 -0.002739 -0.002246 0.003034 -0.004066 -0.004562
# 2 -0.002739 0.007323 -0.001667 0.000703 0.001453 0.001604
# 3 -0.002246 -0.001667 0.012964 -0.002754 -0.000453 0.001983
# 4 0.003034 0.000703 -0.002754 0.023872 0.001958 -0.000308
# 5 -0.004066 0.001453 -0.000453 0.001958 0.027291 0.003949
# 6 -0.004562 0.001604 0.001983 -0.000308 0.003949 0.028114
#
#
# Mechanical properties :
#
#
# Convention : Reuss Voigt Hill
#
# Bulk Modulus (GPa) = 56.51376 63.92324 60.21850
# Shear Modulus (GPa) = 38.61623 43.22962 40.92293
#
# Velocity S-wave (km/s) = 4.11157 4.35024 4.23259
# Velocity P-wave (km/s) = 6.87605 7.29496 7.08860
#
# Compressibility (1/GPa) = 0.01769481
#
# Stress axis : x y z
#
# Youngs Moduli (GPa) = 93.35479 136.54920 77.13640
#
# Poissons Ratio (x) = 0.37406 0.17324
# Poissons Ratio (y) = 0.25573 0.12858
# Poissons Ratio (z) = 0.20966 0.22762
#
# Static dielectric constant tensor:
#      x y z
#    x 4.547100 -0.009160 0.618760 
#    y -0.009160 4.497300 0.480290 
#    z 0.618760 0.480290 5.132070 
# 
# 
# High freq. dielectric constant tensor:
#      x y z
#    x 1.918550 0.000870 0.006970 
#    y 0.000870 1.926660 0.007780 
#    z 0.006970 0.007780 1.903770 
# 
# From -- ./inp_files/495629.got.cif
#   From: 2010.06.25/outbox.cif.g09.slc.cpg/sg2_248_cif.got.tgz:495629.got - 2010.06.27 13:26:56.
