data_PCOD8037289
_publ_section_title
;
Structure prediction by ZEFSAII (Michael W. Deem and Ramdas Pophale) SiO2 
 PCOD8037289
Probable space group: P -1
;
_chemical_formula_sum "Si O2"
_cell_formula_units_Z 14
_cell_length_a 9.655413
_cell_length_b 12.068444
_cell_length_c 7.843455
_cell_angle_alpha 115.497794
_cell_angle_beta 92.763067
_cell_angle_gamma 130.920666
_cell_volume 545.430146
_symmetry_space_group_name_H-M "P -1"
_symmetry_group_IT_number 2
_symmetry_cell_setting 'triclinic'
loop_
_space_group_symop_operation_xyz
x,y,z
-x,-y,-z
loop_
_atom_site_type_symbol
_atom_site_label
_atom_site_fract_x
_atom_site_fract_y
_atom_site_fract_z
Si Si1 0.492743 0.299240 0.957317
Si Si2 0.517507 0.045451 0.837503
Si Si3 0.094040 0.831833 0.183419
Si Si4 0.727929 0.474618 0.749581
Si Si5 0.888874 0.310954 0.590467
Si Si6 0.743122 0.557695 0.444693
Si Si7 0.006466 0.976366 0.784506
O O1 0.436345 0.605461 0.161769
O O2 0.570156 0.441496 0.207043
O O3 0.603455 0.240567 0.953585
O O4 0.244710 0.118599 0.831930
O O5 0.668513 0.049198 0.758428
O O6 0.294044 0.890984 0.633906
O O7 0.500000 0.000000 0.000000
O O8 0.013510 0.703616 0.257321
O O9 0.092188 0.977087 0.299945
O O10 0.938043 0.694728 0.928884
O O11 0.800428 0.381835 0.690980
O O12 0.627232 0.452764 0.549172
O O13 0.088886 0.444659 0.563995
O O14 0.868716 0.767975 0.589192
O O15 0.000000 0.000000 0.000000
#
# Coordination Sequence:
#
# PCOD8037289 Si02
#       7
#     2   2   2   2   2   2   2
#     4  12  27  52  81 118 155 207 267 325 393 469
#     4  12  24  46  79 115 152 204 268 323 388 464
#     4  12  25  47  75 111 160 202 255 333 383 465
#     4  12  25  49  80 115 160 198 267 332 390 463
#     4  12  24  47  79 120 152 207 265 325 400 460
#     4  12  26  52  81 117 156 212 264 322 396 469
#     4  12  28  55  78 113 165 210 264 320 394 477
#
# _framework density 25.667814
#
# number of rings (size 3 to 8) (size 9 to 14) (size 15 to 20)
#    0.000    0.000    5.714    4.714    0.000    1.714 
#    2.571    0.000    0.000    0.000    0.000    0.000 
#    0.000    0.000    0.000    0.000    0.000    0.000 
#
# Total GULP energy -173666.019551 kJ/mol
# GULP energy per Si atom -12404.715682 kJ/mol
# Density = 2.560939 g / cm^3
# Si number density = 25.667814 Si / 1000 Ang^3
#
#
#
# Elastic Constant Matrix: (Units=GPa)
#
#
# Indices 1 2 3 4 5 6 
#
# 1 99.1353 48.6306 33.3904 1.2825 -4.7600 0.8820
# 2 48.6306 138.3079 61.7061 -14.5594 -5.2434 0.9339
# 3 33.3904 61.7061 122.9139 -0.4603 -18.6573 -2.0921
# 4 1.2825 -14.5594 -0.4603 44.3882 3.6606 -7.6617
# 5 -4.7600 -5.2434 -18.6573 3.6606 26.3002 -0.7542
# 6 0.8820 0.9339 -2.0921 -7.6617 -0.7542 49.8596
#
#
#
# Elastic Compliance Matrix: (Units=1/GPa)
#
#
# Indices 1 2 3 4 5 6 
#
# 1 0.012549 -0.003993 -0.001299 -0.001833 0.000795 -0.000471
# 2 -0.003993 0.011123 -0.004860 0.003959 -0.002497 0.000229
# 3 -0.001299 -0.004860 0.012091 -0.001988 0.007663 0.000432
# 4 -0.001833 0.003959 -0.001988 0.024840 -0.004306 0.003627
# 5 0.000795 -0.002497 0.007663 -0.004306 0.043714 0.000354
# 6 -0.000471 0.000229 0.000432 0.003627 0.000354 0.020641
#
#
# Mechanical properties :
#
#
# Convention : Reuss Voigt Hill
#
# Bulk Modulus (GPa) = 64.67762 71.97903 68.32833
# Shear Modulus (GPa) = 33.24141 38.55160 35.89650
#
# Velocity S-wave (km/s) = 3.60260 3.87970 3.74371
# Velocity P-wave (km/s) = 6.52362 6.94066 6.73537
#
# Compressibility (1/GPa) = 0.01546130
#
# Stress axis : x y z
#
# Youngs Moduli (GPa) = 79.68538 89.90638 82.70410
#
# Poissons Ratio (x) = 0.35896 0.10742
# Poissons Ratio (y) = 0.31815 0.40191
# Poissons Ratio (z) = 0.10350 0.43691
#
# Static dielectric constant tensor:
#      x y z
#    x 4.486260 -0.142110 -0.102170 
#    y -0.142110 4.471240 -0.019720 
#    z -0.102170 -0.019720 4.375050 
# 
# 
# High freq. dielectric constant tensor:
#      x y z
#    x 2.032670 0.001170 -0.008300 
#    y 0.001170 2.033700 -0.001430 
#    z -0.008300 -0.001430 2.033190 
# 
# From -- ./inp_files/190292.got.cif
#   From: 2010.06.25/outbox.cif.g09.slc.cpg/sg2_96_cif.got.tgz:190292.got - 2010.06.27 13:26:56.
