data_PCOD8037904
_publ_section_title
;
Structure prediction by ZEFSAII (Michael W. Deem and Ramdas Pophale) SiO2 
 PCOD8037904
Probable space group: P -1
;
_chemical_formula_sum "Si O2"
_cell_formula_units_Z 16
_cell_length_a 14.997708
_cell_length_b 9.072959
_cell_length_c 15.642385
_cell_angle_alpha 37.290437
_cell_angle_beta 41.375527
_cell_angle_gamma 54.010060
_cell_volume 852.164317
_symmetry_space_group_name_H-M "P -1"
_symmetry_group_IT_number 2
_symmetry_cell_setting 'triclinic'
loop_
_space_group_symop_operation_xyz
x,y,z
-x,-y,-z
loop_
_atom_site_type_symbol
_atom_site_label
_atom_site_fract_x
_atom_site_fract_y
_atom_site_fract_z
Si Si1 0.767255 0.218871 0.439929
Si Si2 0.961635 0.975489 0.135648
Si Si3 0.850761 0.207854 0.784466
Si Si4 0.387029 0.833907 0.264877
Si Si5 0.145874 0.588810 0.886804
Si Si6 0.671878 0.834057 0.991713
Si Si7 0.913870 0.724469 0.547074
Si Si8 0.864694 0.461497 0.413596
O O1 0.628278 0.173062 0.616362
O O2 0.757766 0.321103 0.303295
O O3 0.859541 0.418371 0.334177
O O4 0.824938 0.952257 0.524002
O O5 0.872559 0.193817 0.133702
O O6 0.866486 0.735034 0.320422
O O7 0.104939 0.947952 0.093119
O O8 0.000000 0.000000 0.000000
O O9 0.818957 0.488506 0.700294
O O10 0.986653 0.203564 0.633745
O O11 0.722921 0.076183 0.893606
O O12 0.269767 0.656189 0.391836
O O13 0.360615 0.095288 0.116465
O O14 0.534325 0.739612 0.179483
O O15 0.218046 0.374514 0.985206
O O16 0.000000 0.500000 0.000000
O O17 0.000316 0.670677 0.593778
#
# Coordination Sequence:
#
# PCOD8037904 Si02
#       8
#     2   2   2   2   2   2   2   2
#     4  10  20  36  58  88 114 150 199 235 294 346
#     4  11  22  36  54  89 122 148 183 243 307 345
#     4  10  19  31  57  83 115 147 187 246 291 335
#     4   9  23  38  62  81 115 168 195 239 275 352
#     4  12  23  35  61  90 120 149 190 247 299 349
#     4  11  21  41  57  86 121 158 201 232 291 346
#     4  10  17  32  57  89 108 145 191 248 292 333
#     4   9  20  35  57  83 117 151 195 236 287 343
#
# _framework density 18.77572
#
# number of rings (size 3 to 8) (size 9 to 14) (size 15 to 20)
#    0.750    1.000    3.750    1.125    0.000    2.500 
#    0.000    1.250    0.000    0.000    0.000    0.000 
#    0.000    0.000    0.000    0.000    0.000    0.000 
#
# Total GULP energy -198214.245397 kJ/mol
# GULP energy per Si atom -12388.390337 kJ/mol
# Density = 1.873299 g / cm^3
# Si number density = 18.775720 Si / 1000 Ang^3
#
#
#
# Elastic Constant Matrix: (Units=GPa)
#
#
# Indices 1 2 3 4 5 6 
#
# 1 30.7660 19.6241 16.3150 -3.2805 13.6054 0.4059
# 2 19.6241 83.6144 21.9245 -12.9177 1.4258 3.6944
# 3 16.3150 21.9245 78.8575 9.5185 9.3260 -2.3090
# 4 -3.2805 -12.9177 9.5185 32.1496 9.0745 4.1373
# 5 13.6054 1.4258 9.3260 9.0745 33.9073 2.7191
# 6 0.4059 3.6944 -2.3090 4.1373 2.7191 29.4481
#
#
#
# Elastic Compliance Matrix: (Units=1/GPa)
#
#
# Indices 1 2 3 4 5 6 
#
# 1 0.052182 -0.008491 -0.007109 0.009992 -0.021328 0.000354
# 2 -0.008491 0.016083 -0.003873 0.006517 0.002319 -0.003334
# 3 -0.007109 -0.003873 0.016182 -0.007542 0.000352 0.002880
# 4 0.009992 0.006517 -0.007542 0.041380 -0.012788 -0.006180
# 5 -0.021328 0.002319 0.000352 -0.012788 0.041438 -0.001999
# 6 0.000354 -0.003334 0.002880 -0.006180 -0.001999 0.035650
#
#
# Mechanical properties :
#
#
# Convention : Reuss Voigt Hill
#
# Bulk Modulus (GPa) = 21.97793 34.32947 28.15370
# Shear Modulus (GPa) = 19.45318 28.12597 23.78958
#
# Velocity S-wave (km/s) = 3.22231 3.87460 3.56341
# Velocity P-wave (km/s) = 5.05721 6.19196 5.65312
#
# Compressibility (1/GPa) = 0.04550020
#
# Stress axis : x y z
#
# Youngs Moduli (GPa) = 19.16381 62.17887 61.79810
#
# Poissons Ratio (x) = 0.52798 0.43929
# Poissons Ratio (y) = 0.16272 0.23935
# Poissons Ratio (z) = 0.13623 0.24083
#
# Static dielectric constant tensor:
#      x y z
#    x 3.857930 -0.528470 2.098200 
#    y -0.528470 4.407520 -2.913650 
#    z 2.098200 -2.913650 10.896190 
# 
# 
# High freq. dielectric constant tensor:
#      x y z
#    x 1.708780 0.013800 0.018130 
#    y 0.013800 1.714040 -0.009610 
#    z 0.018130 -0.009610 1.736780 
# 
# From -- ./inp_files/527123.got.cif
#   From: 2010.06.25/outbox.cif.g09.slc.cpg/sg2_264_cif.got.tgz:527123.got - 2010.06.27 13:26:56.
