data_PCOD8037777
_publ_section_title
;
Structure prediction by ZEFSAII (Michael W. Deem and Ramdas Pophale) SiO2 
 PCOD8037777
Probable space group: P -1
;
_chemical_formula_sum "Si O2"
_cell_formula_units_Z 14
_cell_length_a 11.663263
_cell_length_b 7.566864
_cell_length_c 8.894676
_cell_angle_alpha 114.309840
_cell_angle_beta 128.015739
_cell_angle_gamma 67.811231
_cell_volume 555.128522
_symmetry_space_group_name_H-M "P -1"
_symmetry_group_IT_number 2
_symmetry_cell_setting 'triclinic'
loop_
_space_group_symop_operation_xyz
x,y,z
-x,-y,-z
loop_
_atom_site_type_symbol
_atom_site_label
_atom_site_fract_x
_atom_site_fract_y
_atom_site_fract_z
Si Si1 0.303303 0.829084 0.133693
Si Si2 0.884050 0.441190 0.591859
Si Si3 0.190664 0.298306 0.907661
Si Si4 0.768030 0.886565 0.573311
Si Si5 0.666435 0.470622 0.679160
Si Si6 0.560842 0.864527 0.142899
Si Si7 0.077451 0.901762 0.739550
O O1 0.326339 0.660465 0.214610
O O2 0.426673 0.786303 0.088137
O O3 0.295230 0.036463 0.287808
O O4 0.149216 0.821080 0.925827
O O5 0.815432 0.650286 0.536188
O O6 0.768983 0.375483 0.593410
O O7 0.910548 0.274751 0.429590
O O8 0.041153 0.451820 0.803599
O O9 0.314196 0.309976 0.882534
O O10 0.154303 0.077640 0.800606
O O11 0.265824 0.338042 0.142527
O O12 0.640396 0.965079 0.376338
O O13 0.906814 0.984626 0.668001
O O14 0.500000 0.500000 0.500000
O O15 0.500000 0.000000 0.000000
#
# Coordination Sequence:
#
# PCOD8037777 Si02
#       7
#     2   2   2   2   2   2   2
#     4  12  28  48  77 112 158 205 258 320 391 461
#     4  12  27  51  81 119 157 201 265 318 390 465
#     4  12  27  50  81 112 158 204 260 323 389 458
#     4  12  27  51  80 115 157 204 260 322 387 468
#     4  12  30  50  79 116 159 206 262 321 392 466
#     4  12  28  48  81 111 157 202 263 315 397 456
#     4  12  26  49  80 117 152 206 258 322 390 458
#
# _framework density 25.219387000000001
#
# number of rings (size 3 to 8) (size 9 to 14) (size 15 to 20)
#    0.000    0.000    2.857    5.571    8.000    0.571 
#    0.000    0.000    0.000    0.000    0.000    0.000 
#    0.000    0.000    0.000    0.000    0.000    0.000 
#
# Total GULP energy -173570.738519 kJ/mol
# GULP energy per Si atom -12397.909894 kJ/mol
# Density = 2.516199 g / cm^3
# Si number density = 25.219387 Si / 1000 Ang^3
#
#
#
# Elastic Constant Matrix: (Units=GPa)
#
#
# Indices 1 2 3 4 5 6 
#
# 1 148.2701 42.6196 38.5970 -16.6973 -11.3644 -8.6680
# 2 42.6196 87.1177 39.0481 -10.8260 4.3936 3.7256
# 3 38.5970 39.0481 182.8986 -30.9736 9.1996 -0.2579
# 4 -16.6973 -10.8260 -30.9736 41.8409 4.1265 0.4087
# 5 -11.3644 4.3936 9.1996 4.1265 40.6251 -4.9866
# 6 -8.6680 3.7256 -0.2579 0.4087 -4.9866 35.7719
#
#
#
# Elastic Compliance Matrix: (Units=1/GPa)
#
#
# Indices 1 2 3 4 5 6 
#
# 1 0.008707 -0.003967 -0.000911 0.001420 0.003290 0.002959
# 2 -0.003967 0.014703 -0.001993 0.001041 -0.002710 -0.002897
# 3 -0.000911 -0.001993 0.006949 0.004475 -0.002105 -0.000308
# 4 0.001420 0.001041 0.004475 0.028418 -0.003685 -0.000570
# 5 0.003290 -0.002710 -0.002105 -0.003685 0.027282 0.004910
# 6 0.002959 -0.002897 -0.000308 -0.000570 0.004910 0.029662
#
#
# Mechanical properties :
#
#
# Convention : Reuss Voigt Hill
#
# Bulk Modulus (GPa) = 60.18596 73.20173 66.69385
# Shear Modulus (GPa) = 37.03614 43.51571 40.27592
#
# Velocity S-wave (km/s) = 3.83633 4.15840 4.00061
# Velocity P-wave (km/s) = 6.59849 7.22118 6.91684
#
# Compressibility (1/GPa) = 0.01661517
#
# Stress axis : x y z
#
# Youngs Moduli (GPa) = 114.84873 68.01384 143.91205
#
# Poissons Ratio (x) = 0.26982 0.13114
# Poissons Ratio (y) = 0.45563 0.28686
# Poissons Ratio (z) = 0.10466 0.13557
#
# Static dielectric constant tensor:
#      x y z
#    x 5.060360 -0.280950 0.342280 
#    y -0.280950 4.465990 -0.032810 
#    z 0.342280 -0.032810 6.029170 
# 
# 
# High freq. dielectric constant tensor:
#      x y z
#    x 2.023210 -0.008920 -0.003850 
#    y -0.008920 1.995240 -0.012800 
#    z -0.003850 -0.012800 2.028570 
# 
# From -- ./inp_files/245694.got.cif
#   From: 2010.06.25/outbox.cif.g09.slc.cpg/sg2_123_cif.got.tgz:245694.got - 2010.06.27 13:26:56.
