data_PCOD8037556
_publ_section_title
;
Structure prediction by ZEFSAII (Michael W. Deem and Ramdas Pophale) SiO2 
 PCOD8037556
Probable space group: P -1
;
_chemical_formula_sum "Si O2"
_cell_formula_units_Z 16
_cell_length_a 16.593121
_cell_length_b 19.720361
_cell_length_c 11.255060
_cell_angle_alpha 45.077515
_cell_angle_beta 35.502059
_cell_angle_gamma 21.161460
_cell_volume 746.967569
_symmetry_space_group_name_H-M "P -1"
_symmetry_group_IT_number 2
_symmetry_cell_setting 'triclinic'
loop_
_space_group_symop_operation_xyz
x,y,z
-x,-y,-z
loop_
_atom_site_type_symbol
_atom_site_label
_atom_site_fract_x
_atom_site_fract_y
_atom_site_fract_z
Si Si1 0.896647 0.010054 0.995032
Si Si2 0.854557 0.644627 0.262572
Si Si3 0.420823 0.397808 0.938139
Si Si4 0.363878 0.014957 0.549489
Si Si5 0.598227 0.365681 0.305934
Si Si6 0.333618 0.810350 0.347606
Si Si7 0.660816 0.804302 0.036445
Si Si8 0.032698 0.628533 0.582397
O O1 0.796739 0.965742 0.204215
O O2 0.148589 0.841546 0.808006
O O3 0.645738 0.226139 0.976827
O O4 0.000000 0.000000 0.000000
O O5 0.832695 0.680877 0.103457
O O6 0.875099 0.520216 0.414694
O O7 0.574819 0.841849 0.419251
O O8 0.114768 0.536570 0.151705
O O9 0.359566 0.547311 0.833262
O O10 0.527155 0.296036 0.811777
O O11 0.168205 0.192951 0.480581
O O12 0.500000 0.000000 0.500000
O O13 0.557861 0.337145 0.514064
O O14 0.302815 0.533566 0.387158
O O15 0.436051 0.854237 0.215042
O O16 0.000000 0.000000 0.500000
O O17 0.890303 0.679626 0.812623
O O18 0.500000 0.000000 0.000000
#
# Coordination Sequence:
#
# PCOD8037556 Si02
#       8
#     2   2   2   2   2   2   2   2
#     4  12  28  49  70 104 148 190 250 300 343 426
#     4  12  25  47  74 104 145 189 235 302 359 427
#     4  12  27  46  76 106 147 191 238 298 367 427
#     4  12  28  45  72 104 140 190 247 295 350 419
#     4  12  27  46  76 106 145 192 240 292 371 426
#     4  12  26  46  76 109 149 183 233 301 369 436
#     4  12  26  45  78 109 145 186 234 299 374 433
#     4  12  25  47  74 104 143 188 239 295 362 428
#
# _framework density 21.419937999999998
#
# number of rings (size 3 to 8) (size 9 to 14) (size 15 to 20)
#    0.000    0.000    5.000    4.500    3.500    6.000 
#    0.000    0.000    0.000    0.000    0.000    0.000 
#    0.000    0.000    0.000    0.000    0.000    0.000 
#
# Total GULP energy -198410.800995 kJ/mol
# GULP energy per Si atom -12400.675062 kJ/mol
# Density = 2.137118 g / cm^3
# Si number density = 21.419938 Si / 1000 Ang^3
#
#
#
# Elastic Constant Matrix: (Units=GPa)
#
#
# Indices 1 2 3 4 5 6 
#
# 1 131.7588 38.0226 5.7864 -5.1350 4.5361 -13.8415
# 2 38.0226 151.4209 39.1653 -11.3906 -23.6081 2.5235
# 3 5.7864 39.1653 118.5046 -11.7758 -53.8988 8.8547
# 4 -5.1350 -11.3906 -11.7758 40.3176 5.9717 -8.4780
# 5 4.5361 -23.6081 -53.8988 5.9717 97.2363 -22.2822
# 6 -13.8415 2.5235 8.8547 -8.4780 -22.2822 49.9209
#
#
#
# Elastic Compliance Matrix: (Units=1/GPa)
#
#
# Indices 1 2 3 4 5 6 
#
# 1 0.008531 -0.002177 0.000040 0.001062 -0.000404 0.002468
# 2 -0.002177 0.007890 -0.002003 0.001230 0.000814 -0.000075
# 3 0.000040 -0.002003 0.012135 0.002291 0.006371 0.001193
# 4 0.001062 0.001230 0.002291 0.026823 0.000975 0.004817
# 5 -0.000404 0.000814 0.006371 0.000975 0.015279 0.005702
# 6 0.002468 -0.000075 0.001193 0.004817 0.005702 0.023872
#
#
# Mechanical properties :
#
#
# Convention : Reuss Voigt Hill
#
# Bulk Modulus (GPa) = 49.31961 63.07030 56.19495
# Shear Modulus (GPa) = 45.63465 58.74231 52.18848
#
# Velocity S-wave (km/s) = 4.62071 5.24249 4.94139
# Velocity P-wave (km/s) = 7.17935 8.13348 7.67126
#
# Compressibility (1/GPa) = 0.02027591
#
# Stress axis : x y z
#
# Youngs Moduli (GPa) = 117.22521 126.75073 82.40899
#
# Poissons Ratio (x) = 0.27590 -0.00333
# Poissons Ratio (y) = 0.25516 0.16507
# Poissons Ratio (z) = -0.00473 0.25389
#
# Static dielectric constant tensor:
#      x y z
#    x 4.238160 -0.050450 -0.071280 
#    y -0.050450 4.484380 0.252530 
#    z -0.071280 0.252530 4.241380 
# 
# 
# High freq. dielectric constant tensor:
#      x y z
#    x 1.858290 0.000040 -0.004690 
#    y 0.000040 1.864900 0.000310 
#    z -0.004690 0.000310 1.854080 
# 
# From -- ./inp_files/226448.got.cif
#   From: 2010.06.25/outbox.cif.g09.slc.cpg/sg2_114_cif.got.tgz:226448.got - 2010.06.27 13:26:56.
