data_PCOD8037518
_publ_section_title
;
Structure prediction by ZEFSAII (Michael W. Deem and Ramdas Pophale) SiO2 
 PCOD8037518
Probable space group: P -1
;
_chemical_formula_sum "Si O2"
_cell_formula_units_Z 14
_cell_length_a 15.496030
_cell_length_b 5.385906
_cell_length_c 18.347611
_cell_angle_alpha 53.313500
_cell_angle_beta 151.548045
_cell_angle_gamma 116.050344
_cell_volume 569.976212
_symmetry_space_group_name_H-M "P -1"
_symmetry_group_IT_number 2
_symmetry_cell_setting 'triclinic'
loop_
_space_group_symop_operation_xyz
x,y,z
-x,-y,-z
loop_
_atom_site_type_symbol
_atom_site_label
_atom_site_fract_x
_atom_site_fract_y
_atom_site_fract_z
Si Si1 0.506387 0.325085 0.112474
Si Si2 0.074377 0.810251 0.515310
Si Si3 0.764060 0.588580 0.631982
Si Si4 0.431389 0.805777 0.547836
Si Si5 0.665519 0.218085 0.891622
Si Si6 0.124616 0.694823 0.836076
Si Si7 0.117804 0.730819 0.086313
O O1 0.702190 0.318747 0.297464
O O2 0.494452 0.955686 0.168636
O O3 0.500000 0.500000 0.000000
O O4 0.322128 0.504350 0.986083
O O5 0.000000 0.500000 0.500000
O O6 0.000000 0.000000 0.500000
O O7 0.997432 0.050259 0.352272
O O8 0.666245 0.449923 0.517688
O O9 0.730027 0.461326 0.709980
O O10 0.983318 0.481479 0.794085
O O11 0.693357 0.968967 0.523891
O O12 0.591439 0.595710 0.754756
O O13 0.500000 0.000000 0.500000
O O14 0.771253 0.089679 0.918141
O O15 0.825684 0.132104 0.085885
O O16 0.000000 0.500000 0.000000
O O17 0.000000 0.000000 0.000000
#
# Coordination Sequence:
#
# PCOD8037518 Si02
#       7
#     2   2   2   2   2   2   2
#     4  12  28  54  83 119 165 211 276 348 410 492
#     4  12  29  54  84 116 160 213 273 345 418 490
#     4  12  27  49  77 113 167 213 274 336 404 491
#     4  12  28  49  77 117 166 217 274 341 404 480
#     4  12  29  47  81 118 164 219 274 338 415 485
#     4  12  29  49  83 120 162 217 277 336 421 489
#     4  12  25  46  75 115 161 213 271 333 398 488
#
# _framework density 24.562429000000002
#
# number of rings (size 3 to 8) (size 9 to 14) (size 15 to 20)
#    0.000    0.000    4.286    3.857    8.000    1.143 
#    0.000    0.000    0.000    0.000    0.000    0.000 
#    0.000    0.000    0.000    0.000    0.000    0.000 
#
# Total GULP energy -173439.664295 kJ/mol
# GULP energy per Si atom -12388.547450 kJ/mol
# Density = 2.450652 g / cm^3
# Si number density = 24.562429 Si / 1000 Ang^3
#
#
#
# Elastic Constant Matrix: (Units=GPa)
#
#
# Indices 1 2 3 4 5 6 
#
# 1 152.8632 59.2417 65.1816 -4.1447 6.8123 2.8111
# 2 59.2417 135.8470 47.7874 9.9062 3.2851 -9.1226
# 3 65.1816 47.7874 181.5622 1.0606 -2.6439 -0.8474
# 4 -4.1447 9.9062 1.0606 47.1159 2.6071 1.2980
# 5 6.8123 3.2851 -2.6439 2.6071 58.0920 -6.1476
# 6 2.8111 -9.1226 -0.8474 1.2980 -6.1476 55.5806
#
#
#
# Elastic Compliance Matrix: (Units=1/GPa)
#
#
# Indices 1 2 3 4 5 6 
#
# 1 0.008927 -0.003221 -0.002389 0.001614 -0.001171 -0.001184
# 2 -0.003221 0.009518 -0.001326 -0.002307 0.000070 0.001766
# 3 -0.002389 -0.001326 0.006725 -0.000122 0.000676 0.000083
# 4 0.001614 -0.002307 -0.000122 0.021949 -0.001166 -0.001104
# 5 -0.001171 0.000070 0.000676 -0.001166 0.017649 0.002060
# 6 -0.001184 0.001766 0.000083 -0.001104 0.002060 0.018597
#
#
# Mechanical properties :
#
#
# Convention : Reuss Voigt Hill
#
# Bulk Modulus (GPa) = 88.51570 90.52154 89.51862
# Shear Modulus (GPa) = 49.50434 52.02848 50.76641
#
# Velocity S-wave (km/s) = 4.49425 4.60740 4.55117
# Velocity P-wave (km/s) = 7.94017 8.07699 8.00887
#
# Compressibility (1/GPa) = 0.01129743
#
# Stress axis : x y z
#
# Youngs Moduli (GPa) = 112.02578 105.06872 148.69341
#
# Poissons Ratio (x) = 0.33846 0.35520
# Poissons Ratio (y) = 0.36087 0.19714
# Poissons Ratio (z) = 0.26761 0.13930
#
# Static dielectric constant tensor:
#      x y z
#    x 5.030580 0.318190 -0.107390 
#    y 0.318190 4.670150 -0.184530 
#    z -0.107390 -0.184530 4.931190 
# 
# 
# High freq. dielectric constant tensor:
#      x y z
#    x 1.992750 0.003180 -0.002340 
#    y 0.003180 1.974300 -0.006380 
#    z -0.002340 -0.006380 2.001120 
# 
# From -- ./inp_files/571601.got.cif
#   From: 2010.06.25/outbox.cif.g09.slc.cpg/sg2_286_cif.got.tgz:571601.got - 2010.06.27 13:26:56.
