data_PCOD8037688
_publ_section_title
;
Structure prediction by ZEFSAII (Michael W. Deem and Ramdas Pophale) SiO2 
 PCOD8037688
Probable space group: P -1
;
_chemical_formula_sum "Si O2"
_cell_formula_units_Z 12
_cell_length_a 9.421338
_cell_length_b 13.655367
_cell_length_c 9.420968
_cell_angle_alpha 75.494721
_cell_angle_beta 149.971187
_cell_angle_gamma 115.826516
_cell_volume 523.914470
_symmetry_space_group_name_H-M "P -1"
_symmetry_group_IT_number 2
_symmetry_cell_setting 'triclinic'
loop_
_space_group_symop_operation_xyz
x,y,z
-x,-y,-z
loop_
_atom_site_type_symbol
_atom_site_label
_atom_site_fract_x
_atom_site_fract_y
_atom_site_fract_z
Si Si1 0.326918 0.013454 0.983897
Si Si2 0.043271 0.513440 0.700221
Si Si3 0.949159 0.153857 0.610462
Si Si4 0.302359 0.346104 0.641221
Si Si5 0.905208 0.275159 0.799285
Si Si6 0.248865 0.224809 0.354925
O O1 0.194254 0.103699 0.808183
O O2 0.586037 0.058274 0.317243
O O3 0.044518 0.895937 0.828715
O O4 0.500000 0.000000 0.000000
O O5 0.000000 0.500000 0.500000
O O6 0.800036 0.558433 0.531184
O O7 0.963060 0.395875 0.747272
O O8 0.399618 0.603549 0.013455
O O9 0.998405 0.204982 0.791557
O O10 0.011287 0.249987 0.511404
O O11 0.381280 0.294901 0.588400
O O12 0.535230 0.205370 0.544967
O O13 0.134157 0.294643 0.124558
#
# Coordination Sequence:
#
# PCOD8037688 Si02
#       6
#     2   2   2   2   2   2
#     4  12  26  46  76 107 141 191 245 291 355 431
#     4  12  26  46  76 107 141 191 245 291 355 431
#     4  12  26  45  77 106 140 193 244 291 355 431
#     4  12  26  45  77 106 140 193 244 291 355 431
#     4  12  28  47  71 109 150 187 236 306 360 418
#     4  12  28  47  71 109 150 187 236 306 360 418
#
# _framework density 22.904502000000001
#
# number of rings (size 3 to 8) (size 9 to 14) (size 15 to 20)
#    0.000    0.000    3.333    6.000    4.667    8.000 
#    0.000    0.000    0.000    0.000    0.000    0.000 
#    0.000    0.000    0.000    0.000    0.000    0.000 
#
# Total GULP energy -148899.224822 kJ/mol
# GULP energy per Si atom -12408.268735 kJ/mol
# Density = 2.285237 g / cm^3
# Si number density = 22.904502 Si / 1000 Ang^3
#
#
#
# Elastic Constant Matrix: (Units=GPa)
#
#
# Indices 1 2 3 4 5 6 
#
# 1 106.9322 56.0755 34.8966 5.0236 -2.4237 -19.5285
# 2 56.0755 103.3181 39.6469 1.9351 -4.3057 -18.0978
# 3 34.8966 39.6469 142.6683 5.6409 -0.6651 -18.4112
# 4 5.0236 1.9351 5.6409 37.0478 -8.6092 6.1229
# 5 -2.4237 -4.3057 -0.6651 -8.6092 38.6668 -5.8385
# 6 -19.5285 -18.0978 -18.4112 6.1229 -5.8385 27.6953
#
#
#
# Elastic Compliance Matrix: (Units=1/GPa)
#
#
# Indices 1 2 3 4 5 6 
#
# 1 0.014096 -0.006214 -0.000861 -0.002306 0.000559 0.005934
# 2 -0.006214 0.014633 -0.001998 0.000119 0.001869 0.004220
# 3 -0.000861 -0.001998 0.008365 -0.001698 0.000100 0.004044
# 4 -0.002306 0.000119 -0.001698 0.030150 0.005311 -0.008223
# 5 0.000559 0.001869 0.000100 0.005311 0.028266 0.006467
# 6 0.005934 0.004220 0.004044 -0.008223 0.006467 0.048918
#
#
# Mechanical properties :
#
#
# Convention : Reuss Voigt Hill
#
# Bulk Modulus (GPa) = 52.77917 68.23962 60.50939
# Shear Modulus (GPa) = 29.60481 35.50198 32.55340
#
# Velocity S-wave (km/s) = 3.59908 3.94128 3.77406
# Velocity P-wave (km/s) = 6.35329 7.11121 6.74291
#
# Compressibility (1/GPa) = 0.01894687
#
# Stress axis : x y z
#
# Youngs Moduli (GPa) = 70.94049 68.33824 119.55064
#
# Poissons Ratio (x) = 0.42467 0.10299
# Poissons Ratio (y) = 0.44084 0.23885
# Poissons Ratio (z) = 0.06111 0.13653
#
# Static dielectric constant tensor:
#      x y z
#    x 4.278630 -0.107000 0.028620 
#    y -0.107000 4.343770 0.002440 
#    z 0.028620 0.002440 4.461500 
# 
# 
# High freq. dielectric constant tensor:
#      x y z
#    x 1.910410 -0.006230 0.002050 
#    y -0.006230 1.914840 -0.000030 
#    z 0.002050 -0.000030 1.922230 
# 
# From -- ./inp_files/175644.got.cif
#   From: 2010.06.25/outbox.cif.g09.slc.cpg/sg2_88_cif.got.tgz:175644.got - 2010.06.27 13:26:56.
