data_PCOD8037382
_publ_section_title
;
Structure prediction by ZEFSAII (Michael W. Deem and Ramdas Pophale) SiO2 
 PCOD8037382
Probable space group: P -1
;
_chemical_formula_sum "Si O2"
_cell_formula_units_Z 16
_cell_length_a 8.885465
_cell_length_b 19.657293
_cell_length_c 15.887400
_cell_angle_alpha 20.414217
_cell_angle_beta 136.419080
_cell_angle_gamma 136.498019
_cell_volume 654.697048
_symmetry_space_group_name_H-M "P -1"
_symmetry_group_IT_number 2
_symmetry_cell_setting 'triclinic'
loop_
_space_group_symop_operation_xyz
x,y,z
-x,-y,-z
loop_
_atom_site_type_symbol
_atom_site_label
_atom_site_fract_x
_atom_site_fract_y
_atom_site_fract_z
Si Si1 0.357497 0.793945 0.931581
Si Si2 0.756405 0.775823 0.994257
Si Si3 0.943494 0.492216 0.113639
Si Si4 0.953422 0.058131 0.604759
Si Si5 0.090516 0.806563 0.232052
Si Si6 0.550464 0.977189 0.143989
Si Si7 0.281091 0.165916 0.385983
Si Si8 0.248783 0.587546 0.693058
O O1 0.560816 0.827883 0.910967
O O2 0.426545 0.816480 0.032360
O O3 0.228750 0.978714 0.645958
O O4 0.205623 0.578790 0.106420
O O5 0.868536 0.975471 0.758248
O O6 0.664164 0.595820 0.102766
O O7 0.937055 0.705894 0.210185
O O8 0.879302 0.268728 0.311292
O O9 0.891353 0.498338 0.183669
O O10 0.815371 0.645553 0.835593
O O11 0.220958 0.102769 0.661987
O O12 0.834357 0.897914 0.675865
O O13 0.345968 0.832685 0.273648
O O14 0.076626 0.668095 0.468652
O O15 0.000000 0.000000 0.000000
O O16 0.500000 0.000000 0.000000
O O17 0.545140 0.241584 0.393845
#
# Coordination Sequence:
#
# PCOD8037382 Si02
#       8
#     2   2   2   2   2   2   2   2
#     4  12  27  48  77 110 154 195 253 314 376 449
#     4  12  26  50  76 111 151 203 250 310 381 444
#     4  12  28  48  73 115 150 202 252 307 379 445
#     4  12  28  49  79 111 154 202 246 311 378 444
#     4  12  24  48  77 108 149 200 249 312 376 444
#     4  12  25  48  79 110 150 194 247 311 377 444
#     4  12  26  51  78 108 157 197 253 312 371 453
#     4  12  27  48  77 110 152 198 259 307 377 452
#
# _framework density 24.438783999999998
#
# number of rings (size 3 to 8) (size 9 to 14) (size 15 to 20)
#    0.000    0.000    6.250    2.625    3.500    1.500 
#    0.000    1.250    0.000    0.000    0.000    0.000 
#    0.000    0.000    0.000    0.000    0.000    0.000 
#
# Total GULP energy -198388.081272 kJ/mol
# GULP energy per Si atom -12399.255079 kJ/mol
# Density = 2.438316 g / cm^3
# Si number density = 24.438784 Si / 1000 Ang^3
#
#
#
# Elastic Constant Matrix: (Units=GPa)
#
#
# Indices 1 2 3 4 5 6 
#
# 1 128.6292 33.9943 26.5671 1.1953 0.8920 1.1984
# 2 33.9943 109.4993 34.5152 4.6705 -6.3107 8.2551
# 3 26.5671 34.5152 118.4241 -7.9305 5.9558 -2.3204
# 4 1.1953 4.6705 -7.9305 33.4802 -1.7598 -3.6748
# 5 0.8920 -6.3107 5.9558 -1.7598 35.4339 -1.3525
# 6 1.1984 8.2551 -2.3204 -3.6748 -1.3525 32.3631
#
#
#
# Elastic Compliance Matrix: (Units=1/GPa)
#
#
# Indices 1 2 3 4 5 6 
#
# 1 0.008650 -0.002309 -0.001263 -0.000295 -0.000426 0.000127
# 2 -0.002309 0.011317 -0.003127 -0.002465 0.002354 -0.003207
# 3 -0.001263 -0.003127 0.009971 0.002937 -0.001986 0.001810
# 4 -0.000295 -0.002465 0.002937 0.031450 0.000807 0.004455
# 5 -0.000426 0.002354 -0.001986 0.000807 0.029048 0.000578
# 6 0.000127 -0.003207 0.001810 0.004455 0.000578 0.032373
#
#
# Mechanical properties :
#
#
# Convention : Reuss Voigt Hill
#
# Bulk Modulus (GPa) = 60.45827 60.74507 60.60167
# Shear Modulus (GPa) = 35.28079 37.68718 36.48398
#
# Velocity S-wave (km/s) = 3.80365 3.93123 3.86796
# Velocity P-wave (km/s) = 6.63948 6.74656 6.69323
#
# Compressibility (1/GPa) = 0.01654033
#
# Stress axis : x y z
#
# Youngs Moduli (GPa) = 115.60844 88.35884 100.29002
#
# Poissons Ratio (x) = 0.20399 0.12671
# Poissons Ratio (y) = 0.26691 0.31360
# Poissons Ratio (z) = 0.14606 0.27629
#
# Static dielectric constant tensor:
#      x y z
#    x 4.474380 -0.061640 -0.074800 
#    y -0.061640 4.602370 0.106990 
#    z -0.074800 0.106990 4.381640 
# 
# 
# High freq. dielectric constant tensor:
#      x y z
#    x 1.985170 -0.003210 -0.002380 
#    y -0.003210 1.979840 -0.001100 
#    z -0.002380 -0.001100 1.962150 
# 
# From -- ./inp_files/562899.got.cif
#   From: 2010.06.25/outbox.cif.g09.slc.cpg/sg2_282_cif.got.tgz:562899.got - 2010.06.27 13:26:56.
