data_PCOD8037048
_publ_section_title
;
Structure prediction by ZEFSAII (Michael W. Deem and Ramdas Pophale) SiO2 
 PCOD8037048
Probable space group: P -1
;
_chemical_formula_sum "Si O2"
_cell_formula_units_Z 16
_cell_length_a 5.507356
_cell_length_b 22.849078
_cell_length_c 11.187222
_cell_angle_alpha 148.880966
_cell_angle_beta 61.393159
_cell_angle_gamma 105.286860
_cell_volume 604.659008
_symmetry_space_group_name_H-M "P -1"
_symmetry_group_IT_number 2
_symmetry_cell_setting 'triclinic'
loop_
_space_group_symop_operation_xyz
x,y,z
-x,-y,-z
loop_
_atom_site_type_symbol
_atom_site_label
_atom_site_fract_x
_atom_site_fract_y
_atom_site_fract_z
Si Si1 0.368684 0.141028 0.293483
Si Si2 0.832728 0.200795 0.135710
Si Si3 0.752084 0.046389 0.475541
Si Si4 0.949470 0.408498 0.569339
Si Si5 0.374240 0.535944 0.779391
Si Si6 0.390429 0.220351 0.681515
Si Si7 0.206178 0.744705 0.019389
Si Si8 0.188511 0.657410 0.266036
O O1 0.585487 0.207987 0.305541
O O2 0.315748 0.153798 0.469454
O O3 0.055386 0.210569 0.429432
O O4 0.500000 0.000000 0.000000
O O5 0.050445 0.267247 0.257959
O O6 0.689454 0.270047 0.168447
O O7 0.983925 0.064519 0.826011
O O8 0.659787 0.130428 0.530173
O O9 0.837067 0.120133 0.691020
O O10 0.500000 0.000000 0.500000
O O11 0.693391 0.467155 0.635985
O O12 0.810683 0.422898 0.759639
O O13 0.225015 0.457895 0.594546
O O14 0.423158 0.641569 0.870124
O O15 0.142708 0.591306 0.038683
O O16 0.489562 0.330449 0.804303
O O17 0.113370 0.271654 0.923233
#
# Coordination Sequence:
#
# PCOD8037048 Si02
#       8
#     2   2   2   2   2   2   2   2
#     4  12  27  45  77 117 165 201 256 335 407 472
#     4  12  28  50  74 120 160 201 258 335 405 469
#     4  12  27  46  81 113 155 208 262 319 398 493
#     4  12  29  49  79 118 159 212 265 341 396 458
#     4  12  27  51  82 110 159 215 275 324 388 486
#     4  12  23  48  77 113 155 204 263 317 398 478
#     4  12  27  50  78 114 154 207 266 325 396 480
#     4  12  25  48  78 114 155 209 270 322 394 475
#
# _framework density 26.461195
#
# number of rings (size 3 to 8) (size 9 to 14) (size 15 to 20)
#    0.000    0.000    5.000    4.125    3.500    3.000 
#    0.000    0.000    0.000    0.000    0.000    0.000 
#    0.000    0.000    0.000    0.000    0.000    0.000 
#
# Total GULP energy -198366.643960 kJ/mol
# GULP energy per Si atom -12397.915248 kJ/mol
# Density = 2.640097 g / cm^3
# Si number density = 26.461195 Si / 1000 Ang^3
#
#
#
# Elastic Constant Matrix: (Units=GPa)
#
#
# Indices 1 2 3 4 5 6 
#
# 1 107.9855 2.7616 30.9758 15.5832 5.7503 -1.4306
# 2 2.7616 83.8170 7.4868 0.2279 6.4216 -14.3769
# 3 30.9758 7.4868 99.2707 11.0520 18.0330 -0.7432
# 4 15.5832 0.2279 11.0520 36.8124 2.9867 7.3795
# 5 5.7503 6.4216 18.0330 2.9867 47.0440 2.2292
# 6 -1.4306 -14.3769 -0.7432 7.3795 2.2292 49.6218
#
#
#
# Elastic Compliance Matrix: (Units=1/GPa)
#
#
# Indices 1 2 3 4 5 6 
#
# 1 0.010651 0.000064 -0.002898 -0.003809 0.000002 0.000849
# 2 0.000064 0.012772 -0.000587 -0.000566 -0.001673 0.003853
# 3 -0.002898 -0.000587 0.011998 -0.002128 -0.004050 0.000424
# 4 -0.003809 -0.000566 -0.002128 0.030412 -0.000344 -0.004813
# 5 0.000002 -0.001673 -0.004050 -0.000344 0.023132 -0.001533
# 6 0.000849 0.003853 0.000424 -0.004813 -0.001533 0.022084
#
#
# Mechanical properties :
#
#
# Convention : Reuss Voigt Hill
#
# Bulk Modulus (GPa) = 34.99340 41.50240 38.24790
# Shear Modulus (GPa) = 39.24090 43.35224 41.29657
#
# Velocity S-wave (km/s) = 3.85510 4.05202 3.95479
# Velocity P-wave (km/s) = 5.75055 6.13271 5.94470
#
# Compressibility (1/GPa) = 0.02857682
#
# Stress axis : x y z
#
# Youngs Moduli (GPa) = 93.88723 78.29841 83.34842
#
# Poissons Ratio (x) = -0.00499 0.24156
# Poissons Ratio (y) = -0.00598 0.04896
# Poissons Ratio (z) = 0.27210 0.04599
#
# Static dielectric constant tensor:
#      x y z
#    x 4.611780 -0.135640 0.043580 
#    y -0.135640 5.084780 0.003920 
#    z 0.043580 0.003920 5.614290 
# 
# 
# High freq. dielectric constant tensor:
#      x y z
#    x 2.053330 -0.007070 0.006270 
#    y -0.007070 2.076960 0.005070 
#    z 0.006270 0.005070 2.069890 
# 
# From -- ./inp_files/371081.got.cif
#   From: 2010.06.25/outbox.cif.g09.slc.cpg/sg2_186_cif.got.tgz:371081.got - 2010.06.27 13:26:56.
