data_PCOD8037729
_publ_section_title
;
Structure prediction by ZEFSAII (Michael W. Deem and Ramdas Pophale) SiO2 
 PCOD8037729
Probable space group: P -1
;
_chemical_formula_sum "Si O2"
_cell_formula_units_Z 16
_cell_length_a 12.833763
_cell_length_b 8.662474
_cell_length_c 8.951099
_cell_angle_alpha 132.220532
_cell_angle_beta 78.602473
_cell_angle_gamma 101.734232
_cell_volume 718.989679
_symmetry_space_group_name_H-M "P -1"
_symmetry_group_IT_number 2
_symmetry_cell_setting 'triclinic'
loop_
_space_group_symop_operation_xyz
x,y,z
-x,-y,-z
loop_
_atom_site_type_symbol
_atom_site_label
_atom_site_fract_x
_atom_site_fract_y
_atom_site_fract_z
Si Si1 0.951811 0.175523 0.531957
Si Si2 0.891235 0.050283 0.140534
Si Si3 0.468944 0.209610 0.215613
Si Si4 0.259881 0.328432 0.185398
Si Si5 0.849806 0.512866 0.403321
Si Si6 0.588785 0.905162 0.508711
Si Si7 0.663702 0.492672 0.222155
Si Si8 0.740191 0.301427 0.787176
O O1 0.902422 0.064884 0.325160
O O2 0.866235 0.285947 0.727120
O O3 0.039051 0.363575 0.590550
O O4 0.000000 0.000000 0.500000
O O5 0.857584 0.266592 0.225464
O O6 0.795982 0.873379 0.014936
O O7 0.000000 0.000000 0.000000
O O8 0.361183 0.270684 0.210988
O O9 0.456292 0.173722 0.370847
O O10 0.565260 0.388037 0.278436
O O11 0.500000 0.000000 0.000000
O O12 0.174667 0.423317 0.379323
O O13 0.298754 0.508204 0.173252
O O14 0.757466 0.576288 0.362253
O O15 0.628066 0.699861 0.283658
O O16 0.500000 0.000000 0.500000
O O17 0.686808 0.079978 0.603962
O O18 0.706573 0.332778 0.988107
#
# Coordination Sequence:
#
# PCOD8037729 Si02
#       8
#     2   2   2   2   2   2   2   2
#     4  12  28  48  74 109 152 186 241 307 361 431
#     4  12  26  47  78 105 142 195 244 295 363 429
#     4  12  26  49  75 107 146 192 242 301 362 433
#     4  12  27  48  77 104 149 191 246 300 360 435
#     4  12  26  50  75 106 145 194 246 295 359 440
#     4  12  28  47  75 107 150 190 246 304 363 429
#     4  12  28  48  77 106 147 198 241 296 370 434
#     4  12  29  48  70 111 150 189 245 302 361 433
#
# _framework density 22.253450999999998
#
# number of rings (size 3 to 8) (size 9 to 14) (size 15 to 20)
#    0.000    0.000    5.000    3.750    8.750    1.500 
#    0.000    0.000    0.000    0.000    0.000    0.000 
#    0.000    0.000    0.000    0.000    0.000    0.000 
#
# Total GULP energy -198511.897387 kJ/mol
# GULP energy per Si atom -12406.993587 kJ/mol
# Density = 2.220280 g / cm^3
# Si number density = 22.253451 Si / 1000 Ang^3
#
#
#
# Elastic Constant Matrix: (Units=GPa)
#
#
# Indices 1 2 3 4 5 6 
#
# 1 133.3824 55.8651 55.7781 -6.5211 0.1480 4.2958
# 2 55.8651 140.3468 48.4922 6.3526 -1.2292 0.9147
# 3 55.7781 48.4922 90.5915 15.8276 -4.7788 3.7478
# 4 -6.5211 6.3526 15.8276 41.6150 -1.5945 0.6187
# 5 0.1480 -1.2292 -4.7788 -1.5945 39.8686 3.8918
# 6 4.2958 0.9147 3.7478 0.6187 3.8918 53.2291
#
#
#
# Elastic Compliance Matrix: (Units=1/GPa)
#
#
# Indices 1 2 3 4 5 6 
#
# 1 0.011564 -0.002538 -0.006599 0.004689 -0.000683 -0.000430
# 2 -0.002538 0.009314 -0.003346 -0.000557 -0.000156 0.000298
# 3 -0.006599 -0.003346 0.018317 -0.007406 0.001894 -0.000752
# 4 0.004689 -0.000557 -0.007406 0.027677 0.000203 -0.000184
# 5 -0.000683 -0.000156 0.001894 0.000203 0.025505 -0.001943
# 6 -0.000430 0.000298 -0.000752 -0.000184 -0.001943 0.019013
#
#
# Mechanical properties :
#
#
# Convention : Reuss Voigt Hill
#
# Bulk Modulus (GPa) = 70.27848 76.06574 73.17211
# Shear Modulus (GPa) = 35.43624 40.55488 37.99556
#
# Velocity S-wave (km/s) = 3.99481 4.27360 4.13655
# Velocity P-wave (km/s) = 7.27513 7.65554 7.46776
#
# Compressibility (1/GPa) = 0.01422911
#
# Stress axis : x y z
#
# Youngs Moduli (GPa) = 86.47712 107.37083 54.59322
#
# Poissons Ratio (x) = 0.27255 0.36024
# Poissons Ratio (y) = 0.21952 0.18265
# Poissons Ratio (z) = 0.57064 0.35922
#
# Static dielectric constant tensor:
#      x y z
#    x 4.313120 -0.001600 -0.181310 
#    y -0.001600 4.209380 0.075010 
#    z -0.181310 0.075010 4.256800 
# 
# 
# High freq. dielectric constant tensor:
#      x y z
#    x 1.889270 0.001010 -0.007450 
#    y 0.001010 1.893120 0.009770 
#    z -0.007450 0.009770 1.890440 
# 
# From -- ./inp_files/245883.got.cif
#   From: 2010.06.25/outbox.cif.g09.slc.cpg/sg2_123_cif.got.tgz:245883.got - 2010.06.27 13:26:56.
