data_PCOD8037322
_publ_section_title
;
Structure prediction by ZEFSAII (Michael W. Deem and Ramdas Pophale) SiO2 
 PCOD8037322
Probable space group: P -1
;
_chemical_formula_sum "Si O2"
_cell_formula_units_Z 12
_cell_length_a 8.964245
_cell_length_b 9.117168
_cell_length_c 11.914552
_cell_angle_alpha 56.508632
_cell_angle_beta 79.313316
_cell_angle_gamma 45.046304
_cell_volume 539.114396
_symmetry_space_group_name_H-M "P -1"
_symmetry_group_IT_number 2
_symmetry_cell_setting 'triclinic'
loop_
_space_group_symop_operation_xyz
x,y,z
-x,-y,-z
loop_
_atom_site_type_symbol
_atom_site_label
_atom_site_fract_x
_atom_site_fract_y
_atom_site_fract_z
Si Si1 0.486080 0.993691 0.135496
Si Si2 0.614616 0.582493 0.916537
Si Si3 0.090854 0.591057 0.663717
Si Si4 0.957510 0.819476 0.828346
Si Si5 0.261358 0.642634 0.425168
Si Si6 0.319632 0.305244 0.372631
O O1 0.664946 0.698295 0.273745
O O2 0.537039 0.138078 0.122567
O O3 0.238701 0.154427 0.143179
O O4 0.500000 0.000000 0.000000
O O5 0.609737 0.622617 0.767250
O O6 0.500000 0.500000 0.000000
O O7 0.869003 0.362383 0.019129
O O8 0.082548 0.750976 0.503690
O O9 0.075658 0.690048 0.746469
O O10 0.909807 0.594126 0.670598
O O11 0.854628 0.101900 0.736168
O O12 0.500000 0.500000 0.500000
O O13 0.293426 0.444249 0.427862
O O14 0.500000 0.000000 0.500000
#
# Coordination Sequence:
#
# PCOD8037322 Si02
#       6
#     2   2   2   2   2   2
#     4  12  24  47  76 105 146 194 243 295 377 441
#     4  12  29  46  75 115 149 192 248 312 366 436
#     4  12  25  49  78 104 149 197 245 306 370 443
#     4  12  26  49  74 112 149 188 249 308 372 441
#     4  12  27  46  77 110 145 196 250 303 371 440
#     4  12  28  50  75 107 154 196 249 302 371 446
#
# _framework density 22.258725999999999
#
# number of rings (size 3 to 8) (size 9 to 14) (size 15 to 20)
#    0.000    0.000    5.000    4.500    9.333    0.667 
#    0.000    0.000    0.000    0.000    0.000    0.000 
#    0.000    0.000    0.000    0.000    0.000    0.000 
#
# Total GULP energy -148864.516239 kJ/mol
# GULP energy per Si atom -12405.376353 kJ/mol
# Density = 2.220806 g / cm^3
# Si number density = 22.258726 Si / 1000 Ang^3
#
#
#
# Elastic Constant Matrix: (Units=GPa)
#
#
# Indices 1 2 3 4 5 6 
#
# 1 101.1417 30.9084 27.8171 2.1590 -12.1463 -2.8529
# 2 30.9084 118.2730 42.8228 0.4019 -3.5181 7.8485
# 3 27.8171 42.8228 125.3690 7.0961 -9.4884 -3.2484
# 4 2.1590 0.4019 7.0961 52.4182 -6.7145 -6.6935
# 5 -12.1463 -3.5181 -9.4884 -6.7145 43.8727 2.7493
# 6 -2.8529 7.8485 -3.2484 -6.6935 2.7493 40.2387
#
#
#
# Elastic Compliance Matrix: (Units=1/GPa)
#
#
# Indices 1 2 3 4 5 6 
#
# 1 0.011373 -0.002426 -0.001484 0.000214 0.002602 0.001018
# 2 -0.002426 0.010358 -0.003093 0.000088 -0.000346 -0.002404
# 3 -0.001484 -0.003093 0.009532 -0.000920 0.001197 0.001033
# 4 0.000214 0.000088 -0.000920 0.019932 0.002726 0.003053
# 5 0.002602 -0.000346 0.001197 0.002726 0.024216 -0.000852
# 6 0.001018 -0.002404 0.001033 0.003053 -0.000852 0.026042
#
#
# Mechanical properties :
#
#
# Convention : Reuss Voigt Hill
#
# Bulk Modulus (GPa) = 57.94661 60.87558 59.41110
# Shear Modulus (GPa) = 41.25088 43.52161 42.38625
#
# Velocity S-wave (km/s) = 4.30960 4.42663 4.36851
# Velocity P-wave (km/s) = 7.13115 7.31677 7.22456
#
# Compressibility (1/GPa) = 0.01725726
#
# Stress axis : x y z
#
# Youngs Moduli (GPa) = 87.92647 96.54558 104.91357
#
# Poissons Ratio (x) = 0.23420 0.15566
# Poissons Ratio (y) = 0.21329 0.32451
# Poissons Ratio (z) = 0.13046 0.29863
#
# Static dielectric constant tensor:
#      x y z
#    x 4.103940 -0.070380 -0.032260 
#    y -0.070380 4.447290 -0.167920 
#    z -0.032260 -0.167920 4.325100 
# 
# 
# High freq. dielectric constant tensor:
#      x y z
#    x 1.881910 0.002120 -0.011610 
#    y 0.002120 1.887330 -0.000620 
#    z -0.011610 -0.000620 1.896650 
# 
# From -- ./inp_files/21768.got.cif
#   From: 2010.06.25/outbox.cif.g09.slc.cpg/sg2_11_cif.got.tgz:21768.got - 2010.06.27 13:26:56.
