data_PCOD8037569
_publ_section_title
;
Structure prediction by ZEFSAII (Michael W. Deem and Ramdas Pophale) SiO2 
 PCOD8037569
Probable space group: P -1
;
_chemical_formula_sum "Si O2"
_cell_formula_units_Z 16
_cell_length_a 5.153651
_cell_length_b 20.151207
_cell_length_c 20.566606
_cell_angle_alpha 21.039857
_cell_angle_beta 111.111320
_cell_angle_gamma 103.551676
_cell_volume 681.477257
_symmetry_space_group_name_H-M "P -1"
_symmetry_group_IT_number 2
_symmetry_cell_setting 'triclinic'
loop_
_space_group_symop_operation_xyz
x,y,z
-x,-y,-z
loop_
_atom_site_type_symbol
_atom_site_label
_atom_site_fract_x
_atom_site_fract_y
_atom_site_fract_z
Si Si1 0.221482 0.412328 0.752625
Si Si2 0.164637 0.168767 0.694923
Si Si3 0.574990 0.719361 0.626747
Si Si4 0.154288 0.971032 0.609754
Si Si5 0.983957 0.024549 0.689113
Si Si6 0.693949 0.465541 0.986685
Si Si7 0.822806 0.990880 0.928390
Si Si8 0.871581 0.392216 0.863779
O O1 0.018130 0.604837 0.522680
O O2 0.111604 0.408491 0.819484
O O3 0.561133 0.403331 0.792818
O O4 0.191789 0.227097 0.880783
O O5 0.213765 0.081670 0.704785
O O6 0.495932 0.137007 0.777025
O O7 0.990927 0.046973 0.831033
O O8 0.510216 0.606031 0.786762
O O9 0.838590 0.571332 0.746304
O O10 0.311941 0.804833 0.473779
O O11 0.613773 0.914454 0.482919
O O12 0.991868 0.063546 0.576966
O O13 0.280601 0.746876 0.842492
O O14 0.000000 0.000000 0.500000
O O15 0.988247 0.805761 0.902903
O O16 0.500000 0.500000 0.000000
O O17 0.000000 0.500000 0.000000
O O18 0.000000 0.000000 0.000000
#
# Coordination Sequence:
#
# PCOD8037569 Si02
#       8
#     2   2   2   2   2   2   2   2
#     4  12  25  47  75 109 154 195 247 303 368 432
#     4  12  26  47  78 110 152 200 251 304 366 443
#     4  12  28  46  76 106 146 188 258 311 378 445
#     4  12  27  47  74 105 150 194 248 315 383 445
#     4  12  26  45  76 109 141 200 252 308 372 447
#     4  12  28  49  71 100 144 191 242 304 382 454
#     4  12  27  48  77 116 157 198 245 303 368 443
#     4  12  26  45  75 110 147 195 248 312 367 440
#
# _framework density 23.478408000000002
#
# number of rings (size 3 to 8) (size 9 to 14) (size 15 to 20)
#    0.000    0.000    6.250    2.625    5.250    2.000 
#    0.000    0.000    0.000    0.000    0.000    0.000 
#    0.000    0.000    0.000    0.000    0.000    0.000 
#
# Total GULP energy -198312.285418 kJ/mol
# GULP energy per Si atom -12394.517839 kJ/mol
# Density = 2.342497 g / cm^3
# Si number density = 23.478408 Si / 1000 Ang^3
#
#
#
# Elastic Constant Matrix: (Units=GPa)
#
#
# Indices 1 2 3 4 5 6 
#
# 1 83.2746 10.2404 28.8591 3.6158 -1.1978 3.1404
# 2 10.2404 100.9265 40.2297 2.1673 -8.0493 6.0413
# 3 28.8591 40.2297 177.5743 -9.2817 2.4334 13.2266
# 4 3.6158 2.1673 -9.2817 36.7941 6.0663 1.3168
# 5 -1.1978 -8.0493 2.4334 6.0663 36.1478 -1.7141
# 6 3.1404 6.0413 13.2266 1.3168 -1.7141 33.6844
#
#
#
# Elastic Compliance Matrix: (Units=1/GPa)
#
#
# Indices 1 2 3 4 5 6 
#
# 1 0.012884 -0.000350 -0.002111 -0.001903 0.000801 -0.000195
# 2 -0.000350 0.011286 -0.002574 -0.001736 0.002930 -0.000764
# 3 -0.002111 -0.002574 0.006873 0.002439 -0.001620 -0.002218
# 4 -0.001903 -0.001736 0.002439 0.029071 -0.005582 -0.001890
# 5 0.000801 0.002930 -0.001620 -0.005582 0.029472 0.001754
# 6 -0.000195 -0.000764 -0.002218 -0.001890 0.001754 0.030877
#
#
# Mechanical properties :
#
#
# Convention : Reuss Voigt Hill
#
# Bulk Modulus (GPa) = 47.67670 57.82599 52.75134
# Shear Modulus (GPa) = 36.35753 40.15501 38.25627
#
# Velocity S-wave (km/s) = 3.93943 4.14006 4.04099
# Velocity P-wave (km/s) = 6.40647 6.89466 6.65504
#
# Compressibility (1/GPa) = 0.02097461
#
# Stress axis : x y z
#
# Youngs Moduli (GPa) = 77.61307 88.60240 145.50634
#
# Poissons Ratio (x) = 0.03097 0.30713
# Poissons Ratio (y) = 0.02713 0.37455
# Poissons Ratio (z) = 0.16382 0.22807
#
# Static dielectric constant tensor:
#      x y z
#    x -0.450550 -4.574340 -0.001350 
#    y -4.574340 -0.335300 -0.040870 
#    z -0.001350 -0.040870 4.686370 
# 
# 
# High freq. dielectric constant tensor:
#      x y z
#    x 1.924880 0.001780 -0.003440 
#    y 0.001780 1.928510 -0.007970 
#    z -0.003440 -0.007970 1.957960 
# 
# From -- ./inp_files/584287.got.cif
#   From: 2010.06.25/outbox.cif.g09.slc.cpg/sg2_293_cif.got.tgz:584287.got - 2010.06.27 13:26:56.
