data_PCOD8037068
_publ_section_title
;
Structure prediction by ZEFSAII (Michael W. Deem and Ramdas Pophale) SiO2 
 PCOD8037068
Probable space group: P -1
;
_chemical_formula_sum "Si O2"
_cell_formula_units_Z 14
_cell_length_a 11.550765
_cell_length_b 11.075545
_cell_length_c 13.233553
_cell_angle_alpha 122.606185
_cell_angle_beta 56.419976
_cell_angle_gamma 155.146774
_cell_volume 589.488085
_symmetry_space_group_name_H-M "P -1"
_symmetry_group_IT_number 2
_symmetry_cell_setting 'triclinic'
loop_
_space_group_symop_operation_xyz
x,y,z
-x,-y,-z
loop_
_atom_site_type_symbol
_atom_site_label
_atom_site_fract_x
_atom_site_fract_y
_atom_site_fract_z
Si Si1 0.946555 0.567602 0.642303
Si Si2 0.121510 0.783835 0.969200
Si Si3 0.612453 0.797781 0.310929
Si Si4 0.275162 0.751498 0.183876
Si Si5 0.363633 0.394049 0.625705
Si Si6 0.759879 0.709787 0.040715
Si Si7 0.223719 0.001889 0.238936
O O1 0.000000 0.500000 0.500000
O O2 0.709217 0.464875 0.677332
O O3 0.868746 0.420700 0.718365
O O4 0.224594 0.913563 0.671897
O O5 0.953897 0.483075 0.902649
O O6 0.420282 0.051083 0.887508
O O7 0.179379 0.895026 0.101647
O O8 0.873320 0.650997 0.972650
O O9 0.641277 0.772945 0.401853
O O10 0.715325 0.744691 0.184581
O O11 0.323803 0.965979 0.250739
O O12 0.500000 0.500000 0.500000
O O13 0.052451 0.173687 0.662661
O O14 0.538313 0.663280 0.731467
O O15 0.500000 0.500000 0.000000
O O16 0.000000 0.000000 0.000000
#
# Coordination Sequence:
#
# PCOD8037068 Si02
#       7
#     2   2   2   2   2   2   2
#     4  12  28  47  73 102 142 191 237 297 355 427
#     4  12  24  45  71 110 146 187 242 293 366 429
#     4  12  26  48  71 105 141 182 243 292 360 422
#     4  12  26  45  74 106 150 191 241 291 359 435
#     4  12  28  47  78 105 143 191 246 300 359 423
#     4  12  24  40  71 103 144 186 228 290 354 426
#     4  12  26  48  74 110 145 193 238 299 362 427
#
# _framework density 23.749421999999999
#
# number of rings (size 3 to 8) (size 9 to 14) (size 15 to 20)
#    0.000    0.000    1.429    9.429    6.000    0.000 
#    0.000    0.000    0.000    0.000    0.000    0.000 
#    0.000    0.000    0.000    0.000    0.000    0.000 
#
# Total GULP energy -173547.185775 kJ/mol
# GULP energy per Si atom -12396.227555 kJ/mol
# Density = 2.369537 g / cm^3
# Si number density = 23.749422 Si / 1000 Ang^3
#
#
#
# Elastic Constant Matrix: (Units=GPa)
#
#
# Indices 1 2 3 4 5 6 
#
# 1 128.6450 26.6299 18.0275 -8.8186 9.6292 -4.8283
# 2 26.6299 123.0292 15.6128 0.8019 -2.6917 0.2938
# 3 18.0275 15.6128 79.4623 -3.9113 2.8219 -3.2169
# 4 -8.8186 0.8019 -3.9113 36.8978 -4.1734 1.0728
# 5 9.6292 -2.6917 2.8219 -4.1734 23.7866 0.9228
# 6 -4.8283 0.2938 -3.2169 1.0728 0.9228 38.6039
#
#
#
# Elastic Compliance Matrix: (Units=1/GPa)
#
#
# Indices 1 2 3 4 5 6 
#
# 1 0.008737 -0.001800 -0.001391 0.001572 -0.003340 0.001027
# 2 -0.001800 0.008742 -0.001418 -0.000554 0.001806 -0.000438
# 3 -0.001391 -0.001418 0.013301 0.000963 -0.001043 0.000943
# 4 0.001572 -0.000554 0.000963 0.028077 0.004136 -0.000598
# 5 -0.003340 0.001806 -0.001043 0.004136 0.044512 -0.001697
# 6 0.001027 -0.000438 0.000943 -0.000598 -0.001697 0.026172
#
#
# Mechanical properties :
#
#
# Convention : Reuss Voigt Hill
#
# Bulk Modulus (GPa) = 46.37911 50.18632 48.28272
# Shear Modulus (GPa) = 34.25881 37.91541 36.08711
#
# Velocity S-wave (km/s) = 3.80216 3.99993 3.90230
# Velocity P-wave (km/s) = 6.23267 6.51997 6.37794
#
# Compressibility (1/GPa) = 0.02156143
#
# Stress axis : x y z
#
# Youngs Moduli (GPa) = 114.45270 114.39007 75.17992
#
# Poissons Ratio (x) = 0.20595 0.10457
# Poissons Ratio (y) = 0.20607 0.10663
# Poissons Ratio (z) = 0.15919 0.16224
#
# Static dielectric constant tensor:
#      x y z
#    x 4.563610 -0.340500 -0.309050 
#    y -0.340500 5.112020 0.356080 
#    z -0.309050 0.356080 4.586100 
# 
# 
# High freq. dielectric constant tensor:
#      x y z
#    x 1.952120 -0.001560 -0.005030 
#    y -0.001560 1.963710 -0.007260 
#    z -0.005030 -0.007260 1.943150 
# 
# From -- ./inp_files/519820.got.cif
#   From: 2010.06.25/outbox.cif.g09.slc.cpg/sg2_260_cif.got.tgz:519820.got - 2010.06.27 13:26:56.
