data_PCOD8037799
_publ_section_title
;
Structure prediction by ZEFSAII (Michael W. Deem and Ramdas Pophale) SiO2 
 PCOD8037799
Probable space group: P -1
;
_chemical_formula_sum "Si O2"
_cell_formula_units_Z 14
_cell_length_a 13.697685
_cell_length_b 18.810663
_cell_length_c 11.292859
_cell_angle_alpha 144.666307
_cell_angle_beta 158.454015
_cell_angle_gamma 35.032627
_cell_volume 592.809743
_symmetry_space_group_name_H-M "P -1"
_symmetry_group_IT_number 2
_symmetry_cell_setting 'triclinic'
loop_
_space_group_symop_operation_xyz
x,y,z
-x,-y,-z
loop_
_atom_site_type_symbol
_atom_site_label
_atom_site_fract_x
_atom_site_fract_y
_atom_site_fract_z
Si Si1 0.562528 0.886438 0.508166
Si Si2 0.136912 0.911503 0.274890
Si Si3 0.404836 0.267126 0.320891
Si Si4 0.331151 0.507119 0.700031
Si Si5 0.304198 0.355180 0.831820
Si Si6 0.966092 0.884626 0.383311
Si Si7 0.497424 0.646987 0.693888
O O1 0.316882 0.899927 0.343272
O O2 0.574448 0.759858 0.276538
O O3 0.500000 0.000000 0.500000
O O4 0.846185 0.883239 0.887891
O O5 0.275430 0.802757 0.381293
O O6 0.104928 0.055002 0.483422
O O7 0.285086 0.370118 0.429008
O O8 0.332210 0.339881 0.212732
O O9 0.275806 0.149289 0.008661
O O10 0.024789 0.599861 0.498555
O O11 0.500000 0.500000 0.000000
O O12 0.519544 0.544151 0.859936
O O13 0.354454 0.316791 0.973943
O O14 0.204849 0.752201 0.488752
O O15 0.000000 0.000000 0.500000
O O16 0.500000 0.500000 0.500000
#
# Coordination Sequence:
#
# PCOD8037799 Si02
#       7
#     2   2   2   2   2   2   2
#     4  12  27  49  75 110 153 202 263 326 386 461
#     4  12  27  48  78 113 151 203 263 321 387 463
#     4  12  27  46  79 111 159 200 262 321 392 465
#     4  12  27  49  77 110 151 203 258 318 389 470
#     4  12  27  47  75 110 152 203 257 319 395 455
#     4  12  27  48  79 115 157 207 261 318 395 471
#     4  12  27  49  76 114 161 201 258 324 392 466
#
# _framework density 23.616344000000002
#
# number of rings (size 3 to 8) (size 9 to 14) (size 15 to 20)
#    0.000    0.000    2.857    6.429    6.000    1.143 
#    0.000    0.000    0.000    0.000    0.000    0.000 
#    0.000    0.000    0.000    0.000    0.000    0.000 
#
# Total GULP energy -173559.121264 kJ/mol
# GULP energy per Si atom -12397.080090 kJ/mol
# Density = 2.356259 g / cm^3
# Si number density = 23.616344 Si / 1000 Ang^3
#
#
#
# Elastic Constant Matrix: (Units=GPa)
#
#
# Indices 1 2 3 4 5 6 
#
# 1 115.8314 42.6040 42.7172 8.4620 -15.2085 -2.0602
# 2 42.6040 136.1943 32.1099 8.9245 -14.6007 -2.6531
# 3 42.7172 32.1099 118.4613 13.0033 -19.5180 -4.1017
# 4 8.4620 8.9245 13.0033 49.0900 -7.4612 -7.8612
# 5 -15.2085 -14.6007 -19.5180 -7.4612 48.5152 5.9837
# 6 -2.0602 -2.6531 -4.1017 -7.8612 5.9837 48.0952
#
#
#
# Elastic Compliance Matrix: (Units=1/GPa)
#
#
# Indices 1 2 3 4 5 6 
#
# 1 0.010868 -0.002525 -0.002960 -0.000444 0.001409 -0.000174
# 2 -0.002525 0.008575 -0.001141 -0.000632 0.001231 0.000011
# 3 -0.002960 -0.001141 0.010439 -0.001626 0.002666 0.000103
# 4 -0.000444 -0.000632 -0.001626 0.021794 0.001983 0.003123
# 5 0.001409 0.001231 0.002666 0.001983 0.023072 -0.002191
# 6 -0.000174 0.000011 0.000103 0.003123 -0.002191 0.021577
#
#
# Mechanical properties :
#
#
# Convention : Reuss Voigt Hill
#
# Bulk Modulus (GPa) = 60.12948 67.26102 63.69525
# Shear Modulus (GPa) = 43.43254 46.01048 44.72151
#
# Velocity S-wave (km/s) = 4.29311 4.41868 4.35635
# Velocity P-wave (km/s) = 7.07747 7.38753 7.23416
#
# Compressibility (1/GPa) = 0.01663078
#
# Stress axis : x y z
#
# Youngs Moduli (GPa) = 92.01461 116.61747 95.79109
#
# Poissons Ratio (x) = 0.29447 0.28350
# Poissons Ratio (y) = 0.23234 0.10931
# Poissons Ratio (z) = 0.27232 0.13307
#
# Static dielectric constant tensor:
#      x y z
#    x 4.683100 0.041800 -0.548490 
#    y 0.041800 4.761790 -0.450410 
#    z -0.548490 -0.450410 5.205240 
# 
# 
# High freq. dielectric constant tensor:
#      x y z
#    x 1.948330 -0.004700 -0.018090 
#    y -0.004700 1.951570 0.005570 
#    z -0.018090 0.005570 1.947870 
# 
# From -- ./inp_files/457798.got.cif
#   From: 2010.06.25/outbox.cif.g09.slc.cpg/sg2_229_cif.got.tgz:457798.got - 2010.06.27 13:26:56.
