data_PCOD8037887
_publ_section_title
;
Structure prediction by ZEFSAII (Michael W. Deem and Ramdas Pophale) SiO2 
 PCOD8037887
Probable space group: P -1
;
_chemical_formula_sum "Si O2"
_cell_formula_units_Z 16
_cell_length_a 14.870937
_cell_length_b 11.606661
_cell_length_c 9.143730
_cell_angle_alpha 112.310277
_cell_angle_beta 51.744890
_cell_angle_gamma 135.157016
_cell_volume 868.885575
_symmetry_space_group_name_H-M "P -1"
_symmetry_group_IT_number 2
_symmetry_cell_setting 'triclinic'
loop_
_space_group_symop_operation_xyz
x,y,z
-x,-y,-z
loop_
_atom_site_type_symbol
_atom_site_label
_atom_site_fract_x
_atom_site_fract_y
_atom_site_fract_z
Si Si1 0.047717 0.443609 0.295368
Si Si2 0.612458 0.892030 0.848422
Si Si3 0.297794 0.788428 0.171275
Si Si4 0.700051 0.565775 0.959487
Si Si5 0.413933 0.263838 0.926891
Si Si6 0.486299 0.801673 0.491530
Si Si7 0.462240 0.600347 0.668887
Si Si8 0.716951 0.169884 0.467175
O O1 0.155663 0.607592 0.163999
O O2 0.145019 0.392058 0.223272
O O3 0.000000 0.500000 0.500000
O O4 0.894042 0.283211 0.299278
O O5 0.607293 0.764572 0.688963
O O6 0.727179 0.082262 0.774058
O O7 0.446166 0.835576 0.972726
O O8 0.662276 0.892711 0.964645
O O9 0.306420 0.772114 0.329780
O O10 0.558513 0.410451 0.941879
O O11 0.709004 0.716734 0.976938
O O12 0.671860 0.525660 0.142443
O O13 0.470699 0.253329 0.712704
O O14 0.414096 0.667207 0.627704
O O15 0.360410 0.812890 0.580379
O O16 0.639469 0.979957 0.474614
O O17 0.500000 0.500000 0.500000
#
# Coordination Sequence:
#
# PCOD8037887 Si02
#       8
#     2   2   2   2   2   2   2   2
#     4  10  19  36  56  79 110 148 184 222 281 329
#     4  10  19  32  56  85 108 140 184 229 271 317
#     4  10  17  32  57  81 110 141 182 227 272 327
#     4  10  20  35  57  84 107 143 189 226 268 336
#     4  10  18  33  57  83 107 138 186 231 269 318
#     4  11  20  35  54  85 111 138 190 231 278 320
#     4  11  20  33  56  83 115 143 174 233 277 322
#     4  10  21  33  55  80 112 146 180 232 275 329
#
# _framework density 18.414391999999999
#
# number of rings (size 3 to 8) (size 9 to 14) (size 15 to 20)
#    0.000    1.750    6.250    0.750    0.000    0.000 
#    0.000    1.250    0.000    3.000    0.000    0.000 
#    0.000    0.000    0.000    0.000    0.000    0.000 
#
# Total GULP energy -198231.857828 kJ/mol
# GULP energy per Si atom -12389.491114 kJ/mol
# Density = 1.837248 g / cm^3
# Si number density = 18.414392 Si / 1000 Ang^3
#
#
#
# Elastic Constant Matrix: (Units=GPa)
#
#
# Indices 1 2 3 4 5 6 
#
# 1 100.3220 47.7035 38.8290 -10.7974 -4.2857 -17.8539
# 2 47.7035 88.2550 23.4780 -13.0264 -6.0568 -12.5557
# 3 38.8290 23.4780 68.3361 12.8538 -6.4503 0.8356
# 4 -10.7974 -13.0264 12.8538 21.1262 2.3965 -5.8854
# 5 -4.2857 -6.0568 -6.4503 2.3965 30.3579 0.2671
# 6 -17.8539 -12.5557 0.8356 -5.8854 0.2671 27.8051
#
#
#
# Elastic Compliance Matrix: (Units=1/GPa)
#
#
# Indices 1 2 3 4 5 6 
#
# 1 0.026669 -0.000060 -0.022326 0.034627 -0.003945 0.025136
# 2 -0.000060 0.019722 -0.011269 0.022952 -0.000404 0.014068
# 3 -0.022326 -0.011269 0.042546 -0.054159 0.008199 -0.032245
# 4 0.034627 0.022952 -0.054159 0.130889 -0.012919 0.062055
# 5 -0.003945 -0.000404 0.008199 -0.012919 0.035118 -0.006034
# 6 0.025136 0.014068 -0.032245 0.062055 -0.006034 0.072619
#
#
# Mechanical properties :
#
#
# Convention : Reuss Voigt Hill
#
# Bulk Modulus (GPa) = 46.23694 52.99269 49.61481
# Shear Modulus (GPa) = 12.43524 25.65133 19.04328
#
# Velocity S-wave (km/s) = 2.60147 3.73635 3.21931
# Velocity P-wave (km/s) = 5.84698 6.88869 6.38910
#
# Compressibility (1/GPa) = 0.02162773
#
# Stress axis : x y z
#
# Youngs Moduli (GPa) = 37.49676 50.70383 23.50370
#
# Poissons Ratio (x) = 0.00303 0.52474
# Poissons Ratio (y) = 0.00224 0.26487
# Poissons Ratio (z) = 0.83715 0.57140
#
# Static dielectric constant tensor:
#      x y z
#    x 3.578230 -0.268980 0.164980 
#    y -0.268980 3.896430 -0.058420 
#    z 0.164980 -0.058420 3.439080 
# 
# 
# High freq. dielectric constant tensor:
#      x y z
#    x 1.688990 -0.027160 0.013650 
#    y -0.027160 1.715290 0.013940 
#    z 0.013650 0.013940 1.701900 
# 
# From -- ./inp_files/266672.got.cif
#   From: 2010.06.25/outbox.cif.g09.slc.cpg/sg2_134_cif.got.tgz:266672.got - 2010.06.27 13:26:56.
