data_PCOD8037660
_publ_section_title
;
Structure prediction by ZEFSAII (Michael W. Deem and Ramdas Pophale) SiO2 
 PCOD8037660
Probable space group: P -1
;
_chemical_formula_sum "Si O2"
_cell_formula_units_Z 16
_cell_length_a 15.105787
_cell_length_b 12.409050
_cell_length_c 9.397888
_cell_angle_alpha 77.686227
_cell_angle_beta 113.567679
_cell_angle_gamma 48.849049
_cell_volume 879.762008
_symmetry_space_group_name_H-M "P -1"
_symmetry_group_IT_number 2
_symmetry_cell_setting 'triclinic'
loop_
_space_group_symop_operation_xyz
x,y,z
-x,-y,-z
loop_
_atom_site_type_symbol
_atom_site_label
_atom_site_fract_x
_atom_site_fract_y
_atom_site_fract_z
Si Si1 0.992472 0.134923 0.926186
Si Si2 0.846598 0.733724 0.228130
Si Si3 0.767088 0.569222 0.151430
Si Si4 0.103120 0.586675 0.027947
Si Si5 0.381326 0.243330 0.506011
Si Si6 0.754793 0.926795 0.839970
Si Si7 0.171115 0.575843 0.482382
Si Si8 0.574366 0.991492 0.188873
O O1 0.875576 0.310396 0.919551
O O2 0.904101 0.239045 0.684399
O O3 0.185784 0.005479 0.093009
O O4 0.000000 0.000000 0.000000
O O5 0.862171 0.585625 0.278823
O O6 0.759599 0.860611 0.284305
O O7 0.030119 0.614345 0.349666
O O8 0.725594 0.878231 0.974299
O O9 0.785663 0.454248 0.313969
O O10 0.866715 0.435570 0.113704
O O11 0.564081 0.781856 0.925491
O O12 0.240622 0.374749 0.251632
O O13 0.905681 0.731965 0.890489
O O14 0.339798 0.374240 0.562948
O O15 0.389967 0.114625 0.618598
O O16 0.566852 0.102822 0.595057
O O17 0.500000 0.000000 0.000000
#
# Coordination Sequence:
#
# PCOD8037660 Si02
#       8
#     2   2   2   2   2   2   2   2
#     4   8  18  39  57  76 100 132 178 220 267 312
#     4  10  17  32  48  78 104 144 177 202 245 307
#     4  11  19  33  47  78 112 137 176 211 254 302
#     4   9  23  34  50  76 109 137 171 222 260 306
#     4  11  17  36  49  76 107 140 181 202 251 312
#     4   9  18  34  54  74 105 135 175 215 253 309
#     4  10  19  31  58  76 101 142 182 213 250 311
#     4  10  18  27  50  69 106 143 173 204 241 300
#
# _framework density 18.186736
#
# number of rings (size 3 to 8) (size 9 to 14) (size 15 to 20)
#    0.750    1.500    6.250    0.375    0.000    1.000 
#    2.250    3.125    0.000    0.000    0.000    8.750 
#    0.000    0.000    0.000    0.000    0.000    0.000 
#
# Total GULP energy -198218.278316 kJ/mol
# GULP energy per Si atom -12388.642395 kJ/mol
# Density = 1.814534 g / cm^3
# Si number density = 18.186736 Si / 1000 Ang^3
#
#
#
# Elastic Constant Matrix: (Units=GPa)
#
#
# Indices 1 2 3 4 5 6 
#
# 1 52.2174 34.4209 34.5205 -10.1044 -18.5794 -5.9622
# 2 34.4209 95.2900 50.0869 -2.6884 -7.6684 -26.5108
# 3 34.5205 50.0869 99.0563 -6.1683 -23.0565 -9.1908
# 4 -10.1044 -2.6884 -6.1683 30.3015 -6.8986 0.0023
# 5 -18.5794 -7.6684 -23.0565 -6.8986 28.3527 -7.3977
# 6 -5.9622 -26.5108 -9.1908 0.0023 -7.3977 25.5681
#
#
#
# Elastic Compliance Matrix: (Units=1/GPa)
#
#
# Indices 1 2 3 4 5 6 
#
# 1 0.041849 -0.009160 -0.000342 0.020376 0.032083 0.009419
# 2 -0.009160 0.022232 -0.006951 -0.002877 -0.001662 0.017936
# 3 -0.000342 -0.006951 0.017911 0.006307 0.014899 0.003461
# 4 0.020376 -0.002877 0.006307 0.048339 0.033008 0.013582
# 5 0.032083 -0.001662 0.014899 0.033008 0.085332 0.035800
# 6 0.009419 0.017936 0.003461 0.013582 0.035800 0.071506
#
#
# Mechanical properties :
#
#
# Convention : Reuss Voigt Hill
#
# Bulk Modulus (GPa) = 20.37241 53.84671 37.10956
# Shear Modulus (GPa) = 14.86167 25.34682 20.10425
#
# Velocity S-wave (km/s) = 2.86172 3.73728 3.32841
# Velocity P-wave (km/s) = 4.70589 6.94946 5.93466
#
# Compressibility (1/GPa) = 0.04908600
#
# Stress axis : x y z
#
# Youngs Moduli (GPa) = 23.89567 44.98075 55.83184
#
# Poissons Ratio (x) = 0.41201 0.01909
# Poissons Ratio (y) = 0.21888 0.38809
# Poissons Ratio (z) = 0.00817 0.31266
#
# Static dielectric constant tensor:
#      x y z
#    x 2.993090 -0.506810 -0.090210 
#    y -0.506810 3.395580 -0.172710 
#    z -0.090210 -0.172710 3.457390 
# 
# 
# High freq. dielectric constant tensor:
#      x y z
#    x 1.649330 -0.044820 -0.010510 
#    y -0.044820 1.689010 -0.012200 
#    z -0.010510 -0.012200 1.714290 
# 
# From -- ./inp_files/309602.got.cif
#   From: 2010.06.25/outbox.cif.g09.slc.cpg/sg2_155_cif.got.tgz:309602.got - 2010.06.27 13:26:56.
