data_PCOD8037682
_publ_section_title
;
Structure prediction by ZEFSAII (Michael W. Deem and Ramdas Pophale) SiO2 
 PCOD8037682
Probable space group: P -1
;
_chemical_formula_sum "Si O2"
_cell_formula_units_Z 16
_cell_length_a 8.040599
_cell_length_b 22.271629
_cell_length_c 22.918348
_cell_angle_alpha 167.611872
_cell_angle_beta 53.012492
_cell_angle_gamma 127.406437
_cell_volume 698.569244
_symmetry_space_group_name_H-M "P -1"
_symmetry_group_IT_number 2
_symmetry_cell_setting 'triclinic'
loop_
_space_group_symop_operation_xyz
x,y,z
-x,-y,-z
loop_
_atom_site_type_symbol
_atom_site_label
_atom_site_fract_x
_atom_site_fract_y
_atom_site_fract_z
Si Si1 0.904268 0.520038 0.308940
Si Si2 0.546836 0.002450 0.705111
Si Si3 0.773804 0.082114 0.614634
Si Si4 0.285436 0.416569 0.206137
Si Si5 0.714518 0.651273 0.121751
Si Si6 0.062108 0.899596 0.198602
Si Si7 0.467120 0.587764 0.524449
Si Si8 0.238856 0.119332 0.055794
O O1 0.680690 0.576434 0.433821
O O2 0.052309 0.439935 0.254121
O O3 0.010076 0.804881 0.526467
O O4 0.867837 0.270953 0.033429
O O5 0.402334 0.720346 0.486610
O O6 0.616670 0.978507 0.601172
O O7 0.746788 0.046281 0.745942
O O8 0.415291 0.268792 0.989494
O O9 0.682198 0.928224 0.428980
O O10 0.807219 0.419615 0.922595
O O11 0.000000 0.000000 0.500000
O O12 0.276301 0.216815 0.074321
O O13 0.864951 0.727823 0.108059
O O14 0.500000 0.500000 0.000000
O O15 0.500000 0.500000 0.500000
O O16 0.280497 0.379730 0.338233
O O17 0.399760 0.899480 0.830465
O O18 0.000000 0.000000 0.000000
#
# Coordination Sequence:
#
# PCOD8037682 Si02
#       8
#     2   2   2   2   2   2   2   2
#     4  12  27  46  71 104 144 184 236 284 352 415
#     4  12  26  45  73  99 141 184 237 292 354 416
#     4  12  26  48  70 102 134 187 237 293 354 427
#     4  12  27  46  71 107 140 186 235 290 344 414
#     4  12  28  46  71 100 142 181 237 294 362 418
#     4  12  26  46  71 101 140 189 232 293 355 419
#     4  12  26  48  76 108 146 188 229 284 346 413
#     4  12  26  48  77 108 146 186 234 283 341 412
#
# _framework density 22.903957999999999
#
# number of rings (size 3 to 8) (size 9 to 14) (size 15 to 20)
#    0.000    0.000    1.250    9.000    7.000    2.000 
#    0.000    0.000    0.000    0.000    0.000    0.000 
#    0.000    0.000    0.000    0.000    0.000    0.000 
#
# Total GULP energy -198547.233921 kJ/mol
# GULP energy per Si atom -12409.202120 kJ/mol
# Density = 2.285183 g / cm^3
# Si number density = 22.903958 Si / 1000 Ang^3
#
#
#
# Elastic Constant Matrix: (Units=GPa)
#
#
# Indices 1 2 3 4 5 6 
#
# 1 109.9539 47.0111 21.1314 2.8611 -2.9127 3.4082
# 2 47.0111 94.5783 13.7663 9.3999 7.9042 0.3918
# 3 21.1314 13.7663 104.0307 5.9166 1.1233 -4.6051
# 4 2.8611 9.3999 5.9166 38.9099 -5.1772 -4.0379
# 5 -2.9127 7.9042 1.1233 -5.1772 45.2651 9.1390
# 6 3.4082 0.3918 -4.6051 -4.0379 9.1390 36.6927
#
#
#
# Elastic Compliance Matrix: (Units=1/GPa)
#
#
# Indices 1 2 3 4 5 6 
#
# 1 0.012121 -0.006046 -0.001821 0.000975 0.002349 -0.001768
# 2 -0.006046 0.014246 -0.000395 -0.003304 -0.003416 0.000847
# 3 -0.001821 -0.000395 0.010181 -0.001263 -0.000748 0.001498
# 4 0.000975 -0.003304 -0.001263 0.027272 0.003398 0.001941
# 5 0.002349 -0.003416 -0.000748 0.003398 0.024457 -0.005993
# 6 -0.001768 0.000847 0.001498 0.001941 -0.005993 0.029303
#
#
# Mechanical properties :
#
#
# Convention : Reuss Voigt Hill
#
# Bulk Modulus (GPa) = 49.93860 52.48671 51.21265
# Shear Modulus (GPa) = 35.51656 39.28382 37.40019
#
# Velocity S-wave (km/s) = 3.94213 4.14593 4.04532
# Velocity P-wave (km/s) = 6.52467 6.77378 6.65039
#
# Compressibility (1/GPa) = 0.02002459
#
# Stress axis : x y z
#
# Youngs Moduli (GPa) = 82.49929 70.19417 98.22259
#
# Poissons Ratio (x) = 0.42439 0.17888
# Poissons Ratio (y) = 0.49878 0.03878
# Poissons Ratio (z) = 0.15025 0.02772
#
# Static dielectric constant tensor:
#      x y z
#    x 4.184560 0.207350 0.520280 
#    y 0.207350 3.521490 -1.499030 
#    z 0.520280 -1.499030 2.526030 
# 
# 
# High freq. dielectric constant tensor:
#      x y z
#    x 1.919940 0.000160 -0.000420 
#    y 0.000160 1.913200 0.002850 
#    z -0.000420 0.002850 1.925590 
# 
# From -- ./inp_files/608760.got.cif
#   From: 2010.06.25/outbox.cif.g09.slc.cpg/sg2_305_cif.got.tgz:608760.got - 2010.06.27 13:26:56.
