data_PCOD8037174
_publ_section_title
;
Structure prediction by ZEFSAII (Michael W. Deem and Ramdas Pophale) SiO2 
 PCOD8037174
Probable space group: P -1
;
_chemical_formula_sum "Si O2"
_cell_formula_units_Z 12
_cell_length_a 15.434285
_cell_length_b 11.849539
_cell_length_c 9.342439
_cell_angle_alpha 121.625052
_cell_angle_beta 43.629806
_cell_angle_gamma 152.428066
_cell_volume 507.584519
_symmetry_space_group_name_H-M "P -1"
_symmetry_group_IT_number 2
_symmetry_cell_setting 'triclinic'
loop_
_space_group_symop_operation_xyz
x,y,z
-x,-y,-z
loop_
_atom_site_type_symbol
_atom_site_label
_atom_site_fract_x
_atom_site_fract_y
_atom_site_fract_z
Si Si1 0.142223 0.843813 0.949168
Si Si2 0.973650 0.603867 0.700707
Si Si3 0.451216 0.574775 0.214444
Si Si4 0.569113 0.937237 0.972503
Si Si5 0.931399 0.123857 0.458716
Si Si6 0.735553 0.669944 0.419181
O O1 0.081431 0.684304 0.786955
O O2 0.316359 0.115656 0.855374
O O3 0.878283 0.666389 0.197301
O O4 0.282655 0.894147 0.944456
O O5 0.000000 0.500000 0.500000
O O6 0.128054 0.866809 0.619813
O O7 0.681365 0.371161 0.901229
O O8 0.384194 0.452443 0.365093
O O9 0.204665 0.430760 0.367636
O O10 0.500000 0.500000 0.000000
O O11 0.738024 0.991494 0.720159
O O12 0.500000 0.000000 0.000000
O O13 0.938664 0.971563 0.357267
O O14 0.500000 0.500000 0.500000
#
# Coordination Sequence:
#
# PCOD8037174 Si02
#       6
#     2   2   2   2   2   2
#     4  12  27  47  78 109 150 201 246 310 389 442
#     4  12  28  50  72 107 149 200 260 312 362 444
#     4  12  24  44  75 110 155 194 237 308 383 452
#     4  12  26  50  74 107 150 201 251 310 368 448
#     4  12  24  46  73 108 156 191 244 312 371 447
#     4  12  26  43  72 115 150 190 246 305 384 456
#
# _framework density 23.641382
#
# number of rings (size 3 to 8) (size 9 to 14) (size 15 to 20)
#    0.000    0.000    6.667    3.500    2.333    2.667 
#    0.000    0.000    0.000    0.000    0.000    0.000 
#    0.000    0.000    0.000    0.000    0.000    0.000 
#
# Total GULP energy -148719.665111 kJ/mol
# GULP energy per Si atom -12393.305426 kJ/mol
# Density = 2.358757 g / cm^3
# Si number density = 23.641382 Si / 1000 Ang^3
#
#
#
# Elastic Constant Matrix: (Units=GPa)
#
#
# Indices 1 2 3 4 5 6 
#
# 1 156.3213 47.7631 50.0324 11.9075 27.4355 19.4022
# 2 47.7631 87.0725 60.7634 10.8909 5.4253 21.6274
# 3 50.0324 60.7634 154.2961 2.0193 11.7978 13.0984
# 4 11.9075 10.8909 2.0193 43.6129 3.6242 3.2732
# 5 27.4355 5.4253 11.7978 3.6242 47.9140 -4.4651
# 6 19.4022 21.6274 13.0984 3.2732 -4.4651 50.2675
#
#
#
# Elastic Compliance Matrix: (Units=1/GPa)
#
#
# Indices 1 2 3 4 5 6 
#
# 1 0.008852 -0.003160 -0.001084 -0.001040 -0.004562 -0.002112
# 2 -0.003160 0.019093 -0.006088 -0.003316 0.000921 -0.005111
# 3 -0.001084 -0.006088 0.009253 0.001441 -0.001036 0.000441
# 4 -0.001040 -0.003316 0.001441 0.024093 -0.001227 -0.000225
# 5 -0.004562 0.000921 -0.001036 -0.001227 0.024086 0.003854
# 6 -0.002112 -0.005111 0.000441 -0.000225 0.003854 0.023150
#
#
# Mechanical properties :
#
#
# Convention : Reuss Voigt Hill
#
# Bulk Modulus (GPa) = 60.48056 79.42309 69.95183
# Shear Modulus (GPa) = 37.11920 44.30095 40.71007
#
# Velocity S-wave (km/s) = 3.96674 4.33352 4.15418
# Velocity P-wave (km/s) = 6.82774 7.66206 7.25690
#
# Compressibility (1/GPa) = 0.01653424
#
# Stress axis : x y z
#
# Youngs Moduli (GPa) = 112.97454 52.37455 108.07455
#
# Poissons Ratio (x) = 0.16551 0.11716
# Poissons Ratio (y) = 0.35701 0.65791
# Poissons Ratio (z) = 0.12247 0.31883
#
# Static dielectric constant tensor:
#      x y z
#    x 4.277140 0.527180 0.150060 
#    y 0.527180 4.354590 -0.809920 
#    z 0.150060 -0.809920 6.070740 
# 
# 
# High freq. dielectric constant tensor:
#      x y z
#    x 1.948290 0.011110 0.013070 
#    y 0.011110 1.921290 -0.018690 
#    z 0.013070 -0.018690 1.961470 
# 
# From -- ./inp_files/22065.got.cif
#   From: 2010.06.25/outbox.cif.g09.slc.cpg/sg2_12_cif.got.tgz:22065.got - 2010.06.27 13:26:56.
