data_PCOD8037190
_publ_section_title
;
Structure prediction by ZEFSAII (Michael W. Deem and Ramdas Pophale) SiO2 
 PCOD8037190
Probable space group: P -1
;
_chemical_formula_sum "Si O2"
_cell_formula_units_Z 16
_cell_length_a 19.286087
_cell_length_b 17.229926
_cell_length_c 11.547309
_cell_angle_alpha 32.148890
_cell_angle_beta 157.853983
_cell_angle_gamma 150.434816
_cell_volume 696.122758
_symmetry_space_group_name_H-M "P -1"
_symmetry_group_IT_number 2
_symmetry_cell_setting 'triclinic'
loop_
_space_group_symop_operation_xyz
x,y,z
-x,-y,-z
loop_
_atom_site_type_symbol
_atom_site_label
_atom_site_fract_x
_atom_site_fract_y
_atom_site_fract_z
Si Si1 0.200252 0.007230 0.243202
Si Si2 0.991452 0.166434 0.270638
Si Si3 0.216109 0.534589 0.736858
Si Si4 0.724560 0.140575 0.670240
Si Si5 0.609620 0.136372 0.090171
Si Si6 0.448651 0.355629 0.687841
Si Si7 0.709978 0.647476 0.116017
Si Si8 0.040413 0.661683 0.785922
O O1 0.149972 0.888835 0.204475
O O2 0.315242 0.948655 0.588246
O O3 0.325954 0.191422 0.160993
O O4 0.000000 0.000000 0.000000
O O5 0.219171 0.306533 0.436455
O O6 0.890224 0.194632 0.194876
O O7 0.000000 0.000000 0.500000
O O8 0.845102 0.156841 0.952560
O O9 0.292827 0.692571 0.577191
O O10 0.188275 0.382799 0.805361
O O11 0.000000 0.500000 0.500000
O O12 0.390351 0.570275 0.054896
O O13 0.500000 0.000000 0.500000
O O14 0.785312 0.290714 0.102918
O O15 0.461644 0.202054 0.840255
O O16 0.500000 0.000000 0.000000
O O17 0.500000 0.500000 0.500000
O O18 0.841679 0.655601 0.422491
O O19 0.500000 0.500000 0.000000
O O20 0.000000 0.500000 0.000000
#
# Coordination Sequence:
#
# PCOD8037190 Si02
#       8
#     2   2   2   2   2   2   2   2
#     4  12  26  49  73 106 146 184 248 299 356 434
#     4  12  26  45  72 103 145 185 236 295 357 428
#     4  12  24  45  70 101 139 184 238 290 351 420
#     4  12  26  47  74 104 141 188 241 297 356 426
#     4  12  28  46  75 106 145 192 237 300 365 425
#     4  12  26  47  70 107 144 187 240 293 360 430
#     4  12  26  44  72 103 139 187 236 294 360 421
#     4  12  26  48  70 105 145 186 240 294 362 432
#
# _framework density 22.984451
#
# number of rings (size 3 to 8) (size 9 to 14) (size 15 to 20)
#    0.000    0.000    2.500    7.500    7.000    0.000 
#    0.000    0.000    0.000    0.000    0.000    0.000 
#    0.000    0.000    0.000    0.000    0.000    0.000 
#
# Total GULP energy -198441.052693 kJ/mol
# GULP energy per Si atom -12402.565793 kJ/mol
# Density = 2.293214 g / cm^3
# Si number density = 22.984451 Si / 1000 Ang^3
#
#
#
# Elastic Constant Matrix: (Units=GPa)
#
#
# Indices 1 2 3 4 5 6 
#
# 1 105.2797 12.6736 41.2258 7.8036 -18.1508 -21.1735
# 2 12.6736 83.0068 43.4996 -7.4720 -26.7629 -2.9570
# 3 41.2258 43.4996 150.0572 2.8315 -40.0900 -5.5430
# 4 7.8036 -7.4720 2.8315 61.0482 1.2159 -0.5620
# 5 -18.1508 -26.7629 -40.0900 1.2159 49.3416 2.9214
# 6 -21.1735 -2.9570 -5.5430 -0.5620 2.9214 63.7215
#
#
#
# Elastic Compliance Matrix: (Units=1/GPa)
#
#
# Indices 1 2 3 4 5 6 
#
# 1 0.011652 0.000261 -0.002535 -0.001351 0.002191 0.003551
# 2 0.000261 0.015748 -0.003029 0.001916 0.006112 0.000291
# 3 -0.002535 -0.003029 0.009653 -0.000604 0.005306 -0.000392
# 4 -0.001351 0.001916 -0.000604 0.016820 -0.000348 -0.000248
# 5 0.002191 0.006112 0.005306 -0.000348 0.028698 0.000154
# 6 0.003551 0.000291 -0.000392 -0.000248 0.000154 0.016843
#
#
# Mechanical properties :
#
#
# Convention : Reuss Voigt Hill
#
# Bulk Modulus (GPa) = 37.81215 59.23797 48.52506
# Shear Modulus (GPa) = 42.07435 50.88523 46.47979
#
# Velocity S-wave (km/s) = 4.28314 4.71031 4.50180
# Velocity P-wave (km/s) = 6.39901 7.44391 6.94115
#
# Compressibility (1/GPa) = 0.02644653
#
# Stress axis : x y z
#
# Youngs Moduli (GPa) = 85.82444 63.49863 103.59430
#
# Poissons Ratio (x) = -0.01655 0.26257
# Poissons Ratio (y) = -0.02237 0.31382
# Poissons Ratio (z) = 0.21753 0.19236
#
# Static dielectric constant tensor:
#      x y z
#    x 4.669740 -0.013450 0.053410 
#    y -0.013450 4.347880 -0.221360 
#    z 0.053410 -0.221360 4.081150 
# 
# 
# High freq. dielectric constant tensor:
#      x y z
#    x 1.929510 -0.001480 -0.004350 
#    y -0.001480 1.924100 -0.006940 
#    z -0.004350 -0.006940 1.919990 
# 
# From -- ./inp_files/472374.got.cif
#   From: 2010.06.25/outbox.cif.g09.slc.cpg/sg2_237_cif.got.tgz:472374.got - 2010.06.27 13:26:56.
