data_PCOD8037860
_publ_section_title
;
Structure prediction by ZEFSAII (Michael W. Deem and Ramdas Pophale) SiO2 
 PCOD8037860
Probable space group: P -1
;
_chemical_formula_sum "Si O2"
_cell_formula_units_Z 12
_cell_length_a 8.568263
_cell_length_b 9.452173
_cell_length_c 11.571934
_cell_angle_alpha 126.235801
_cell_angle_beta 109.313612
_cell_angle_gamma 94.121606
_cell_volume 667.933716
_symmetry_space_group_name_H-M "P -1"
_symmetry_group_IT_number 2
_symmetry_cell_setting 'triclinic'
loop_
_space_group_symop_operation_xyz
x,y,z
-x,-y,-z
loop_
_atom_site_type_symbol
_atom_site_label
_atom_site_fract_x
_atom_site_fract_y
_atom_site_fract_z
Si Si1 0.206093 0.580822 0.121708
Si Si2 0.757916 0.384120 0.105177
Si Si3 0.121115 0.997984 0.696111
Si Si4 0.623152 0.721012 0.960705
Si Si5 0.867895 0.057867 0.074327
Si Si6 0.925721 0.227938 0.639580
O O1 0.224794 0.727018 0.301355
O O2 0.303917 0.668267 0.068517
O O3 0.282564 0.428039 0.115053
O O4 0.000000 0.500000 0.000000
O O5 0.840818 0.237497 0.101693
O O6 0.899887 0.591102 0.251778
O O7 0.587206 0.375055 0.133706
O O8 0.053946 0.894900 0.753074
O O9 0.156478 0.854473 0.544538
O O10 0.301439 0.176529 0.848557
O O11 0.970633 0.069325 0.644576
O O12 0.682545 0.879471 0.950615
O O13 0.000000 0.000000 0.000000
#
# Coordination Sequence:
#
# PCOD8037860 Si02
#       6
#     2   2   2   2   2   2
#     4  10  17  32  55  78  97 138 179 202 244 311
#     4  11  19  31  57  79 103 133 174 212 257 296
#     4   9  20  34  54  76 106 131 174 208 262 294
#     4  10  20  34  52  80 104 132 173 215 255 297
#     4  10  19  34  56  77 100 137 176 208 249 313
#     4  10  19  35  55  76 103 137 172 212 247 311
#
# _framework density 17.965855000000001
#
# number of rings (size 3 to 8) (size 9 to 14) (size 15 to 20)
#    1.000    1.000    3.333    4.000    0.000    0.667 
#    0.000    0.833    3.667    2.000    0.000    0.000 
#    0.000    0.000    0.000    0.000    0.000    0.000 
#
# Total GULP energy -148680.024146 kJ/mol
# GULP energy per Si atom -12390.002012 kJ/mol
# Density = 1.792496 g / cm^3
# Si number density = 17.965855 Si / 1000 Ang^3
#
#
#
# Elastic Constant Matrix: (Units=GPa)
#
#
# Indices 1 2 3 4 5 6 
#
# 1 68.0201 2.8568 18.0832 10.2900 -16.4304 1.7437
# 2 2.8568 78.1913 22.7307 3.2801 -10.1038 -1.7385
# 3 18.0832 22.7307 111.3494 -1.7309 -28.5088 -4.2514
# 4 10.2900 3.2801 -1.7309 21.3351 -1.4650 -5.8406
# 5 -16.4304 -10.1038 -28.5088 -1.4650 23.5866 1.5768
# 6 1.7437 -1.7385 -4.2514 -5.8406 1.5768 27.2274
#
#
#
# Elastic Compliance Matrix: (Units=1/GPa)
#
#
# Indices 1 2 3 4 5 6 
#
# 1 0.019602 0.001452 -0.000323 -0.009902 0.013548 -0.004122
# 2 0.001452 0.014004 -0.002022 -0.002817 0.004417 -0.000374
# 3 -0.000323 -0.002022 0.013469 0.003093 0.015263 0.001774
# 4 -0.009902 -0.002817 0.003093 0.055769 -0.001771 0.013003
# 5 0.013548 0.004417 0.015263 -0.001771 0.072249 -0.002766
# 6 -0.004122 -0.000374 0.001774 0.013003 -0.002766 0.040194
#
#
# Mechanical properties :
#
#
# Convention : Reuss Voigt Hill
#
# Bulk Modulus (GPa) = 22.07938 38.32248 30.20093
# Shear Modulus (GPa) = 21.53588 28.68916 25.11252
#
# Velocity S-wave (km/s) = 3.46600 4.00042 3.74276
# Velocity P-wave (km/s) = 5.32295 6.53566 5.96023
#
# Compressibility (1/GPa) = 0.04529113
#
# Stress axis : x y z
#
# Youngs Moduli (GPa) = 51.01441 71.40597 74.24183
#
# Poissons Ratio (x) = -0.10367 0.02395
# Poissons Ratio (y) = -0.07407 0.15011
# Poissons Ratio (z) = 0.01645 0.14438
#
# Static dielectric constant tensor:
#      x y z
#    x 3.178190 0.055710 -0.361580 
#    y 0.055710 3.424170 -0.070940 
#    z -0.361580 -0.070940 3.401000 
# 
# 
# High freq. dielectric constant tensor:
#      x y z
#    x 1.676800 -0.001270 -0.029440 
#    y -0.001270 1.702530 0.002390 
#    z -0.029440 0.002390 1.674930 
# 
# From -- ./inp_files/154749.got.cif
#   From: 2010.06.25/outbox.cif.g09.slc.cpg/sg2_78_cif.got.tgz:154749.got - 2010.06.27 13:26:56.
