data_PCOD8037387
_publ_section_title
;
Structure prediction by ZEFSAII (Michael W. Deem and Ramdas Pophale) SiO2 
 PCOD8037387
Probable space group: P -1
;
_chemical_formula_sum "Si O2"
_cell_formula_units_Z 14
_cell_length_a 8.826454
_cell_length_b 14.613345
_cell_length_c 9.454351
_cell_angle_alpha 96.417959
_cell_angle_beta 115.337235
_cell_angle_gamma 36.780511
_cell_volume 596.785736
_symmetry_space_group_name_H-M "P -1"
_symmetry_group_IT_number 2
_symmetry_cell_setting 'triclinic'
loop_
_space_group_symop_operation_xyz
x,y,z
-x,-y,-z
loop_
_atom_site_type_symbol
_atom_site_label
_atom_site_fract_x
_atom_site_fract_y
_atom_site_fract_z
Si Si1 0.337395 0.884294 0.608699
Si Si2 0.299234 0.392458 0.511617
Si Si3 0.567195 0.182892 0.062179
Si Si4 0.056054 0.303401 0.724296
Si Si5 0.268446 0.690385 0.917845
Si Si6 0.894633 0.201378 0.829707
Si Si7 0.194135 0.135033 0.486399
O O1 0.529313 0.772322 0.523892
O O2 0.534700 0.765425 0.805385
O O3 0.262524 0.025928 0.610172
O O4 0.000000 0.000000 0.500000
O O5 0.538289 0.335350 0.698417
O O6 0.000000 0.500000 0.500000
O O7 0.217724 0.496208 0.362909
O O8 0.561698 0.288677 0.016953
O O9 0.348803 0.216183 0.894756
O O10 0.904343 0.981072 0.156809
O O11 0.123617 0.255407 0.575820
O O12 0.958873 0.257992 0.763076
O O13 0.086216 0.758332 0.712030
O O14 0.500000 0.500000 0.000000
O O15 0.044774 0.795149 0.983489
O O16 0.500000 0.000000 0.500000
#
# Coordination Sequence:
#
# PCOD8037387 Si02
#       7
#     2   2   2   2   2   2   2
#     4  12  24  48  79 109 147 204 259 307 372 454
#     4  12  26  47  74 112 157 205 251 315 385 446
#     4  12  26  49  78 110 149 199 256 314 376 454
#     4  12  27  46  76 114 153 198 251 317 383 447
#     4  12  28  46  73 109 149 191 248 316 378 442
#     4  12  25  48  76 108 155 200 256 307 381 456
#     4  12  25  46  74 107 149 196 251 303 370 454
#
# _framework density 23.459005000000001
#
# number of rings (size 3 to 8) (size 9 to 14) (size 15 to 20)
#    0.000    0.000    4.286    4.714    4.000    1.714 
#    0.000    0.000    0.000    0.000    0.000    0.000 
#    0.000    0.000    0.000    0.000    0.000    0.000 
#
# Total GULP energy -173564.558744 kJ/mol
# GULP energy per Si atom -12397.468482 kJ/mol
# Density = 2.340561 g / cm^3
# Si number density = 23.459005 Si / 1000 Ang^3
#
#
#
# Elastic Constant Matrix: (Units=GPa)
#
#
# Indices 1 2 3 4 5 6 
#
# 1 129.3238 49.4498 57.2412 -5.1830 7.1468 9.5939
# 2 49.4498 101.6895 37.7658 2.1441 -2.0959 6.9330
# 3 57.2412 37.7658 143.2908 16.6739 3.0549 -6.0871
# 4 -5.1830 2.1441 16.6739 44.7350 -1.4870 -11.9298
# 5 7.1468 -2.0959 3.0549 -1.4870 47.0925 -7.2953
# 6 9.5939 6.9330 -6.0871 -11.9298 -7.2953 45.5829
#
#
#
# Elastic Compliance Matrix: (Units=1/GPa)
#
#
# Indices 1 2 3 4 5 6 
#
# 1 0.011283 -0.004047 -0.003753 0.002316 -0.001879 -0.001955
# 2 -0.004047 0.012554 -0.001682 -0.000758 0.001055 -0.001312
# 3 -0.003753 -0.001682 0.009386 -0.003483 -0.000009 0.001386
# 4 0.002316 -0.000758 -0.003483 0.025645 0.001600 0.006130
# 5 -0.001879 0.001055 -0.000009 0.001600 0.022271 0.004217
# 6 -0.001955 -0.001312 0.001386 0.006130 0.004217 0.025013
#
#
# Mechanical properties :
#
#
# Convention : Reuss Voigt Hill
#
# Bulk Modulus (GPa) = 70.13539 73.69084 71.91311
# Shear Modulus (GPa) = 38.50034 42.80522 40.65278
#
# Velocity S-wave (km/s) = 4.05554 4.27626 4.16736
# Velocity P-wave (km/s) = 7.20359 7.47414 7.34011
#
# Compressibility (1/GPa) = 0.01425814
#
# Stress axis : x y z
#
# Youngs Moduli (GPa) = 88.62967 79.65779 106.54421
#
# Poissons Ratio (x) = 0.32238 0.39987
# Poissons Ratio (y) = 0.35869 0.17920
# Poissons Ratio (z) = 0.33264 0.13398
#
# Static dielectric constant tensor:
#      x y z
#    x 3.845560 0.020510 -0.608900 
#    y 0.020510 4.298330 0.002620 
#    z -0.608900 0.002620 3.875550 
# 
# 
# High freq. dielectric constant tensor:
#      x y z
#    x 1.934670 0.012760 -0.011030 
#    y 0.012760 1.938710 0.006250 
#    z -0.011030 0.006250 1.943670 
# 
# From -- ./inp_files/156249.got.cif
#   From: 2010.06.25/outbox.cif.g09.slc.cpg/sg2_79_cif.got.tgz:156249.got - 2010.06.27 13:26:56.
