data_PCOD8037523
_publ_section_title
;
Structure prediction by ZEFSAII (Michael W. Deem and Ramdas Pophale) SiO2 
 PCOD8037523
Probable space group: P -1
;
_chemical_formula_sum "Si O2"
_cell_formula_units_Z 14
_cell_length_a 15.518616
_cell_length_b 9.141478
_cell_length_c 12.491261
_cell_angle_alpha 130.699110
_cell_angle_beta 152.366347
_cell_angle_gamma 62.002837
_cell_volume 592.847398
_symmetry_space_group_name_H-M "P -1"
_symmetry_group_IT_number 2
_symmetry_cell_setting 'triclinic'
loop_
_space_group_symop_operation_xyz
x,y,z
-x,-y,-z
loop_
_atom_site_type_symbol
_atom_site_label
_atom_site_fract_x
_atom_site_fract_y
_atom_site_fract_z
Si Si1 0.211716 0.794338 0.946584
Si Si2 0.156118 0.424163 0.845783
Si Si3 0.434966 0.489429 0.547302
Si Si4 0.442353 0.264909 0.797888
Si Si5 0.223758 0.110263 0.265313
Si Si6 0.903659 0.365998 0.730721
Si Si7 0.906318 0.923694 0.537831
O O1 0.371159 0.817701 0.039833
O O2 0.298728 0.930344 0.212534
O O3 0.148773 0.558699 0.798144
O O4 0.036034 0.867240 0.745267
O O5 0.080240 0.190169 0.612463
O O6 0.007556 0.476710 0.790505
O O7 0.374565 0.474536 0.154315
O O8 0.500000 0.500000 0.500000
O O9 0.267879 0.280403 0.299475
O O10 0.328575 0.662281 0.535681
O O11 0.340676 0.218249 0.548363
O O12 0.314387 0.144197 0.695620
O O13 0.500000 0.500000 0.000000
O O14 0.000000 0.000000 0.000000
O O15 0.965461 0.162325 0.700072
O O16 0.000000 0.500000 0.000000
#
# Coordination Sequence:
#
# PCOD8037523 Si02
#       7
#     2   2   2   2   2   2   2
#     4  12  26  45  79 107 153 190 253 312 375 450
#     4  12  27  48  75 112 152 197 251 313 392 451
#     4  12  27  48  77 108 154 200 256 315 381 455
#     4  12  26  45  73 112 151 192 253 308 381 450
#     4  12  25  46  76 113 149 199 257 316 379 447
#     4  12  28  48  77 106 150 202 256 311 375 464
#     4  12  28  48  73 114 151 201 246 315 388 452
#
# _framework density 23.614844999999999
#
# number of rings (size 3 to 8) (size 9 to 14) (size 15 to 20)
#    0.000    0.000    5.714    3.000    4.000    1.714 
#    0.000    0.000    0.000    0.000    0.000    0.000 
#    0.000    0.000    0.000    0.000    0.000    0.000 
#
# Total GULP energy -173568.018840 kJ/mol
# GULP energy per Si atom -12397.715631 kJ/mol
# Density = 2.356110 g / cm^3
# Si number density = 23.614845 Si / 1000 Ang^3
#
#
#
# Elastic Constant Matrix: (Units=GPa)
#
#
# Indices 1 2 3 4 5 6 
#
# 1 154.8009 27.6809 40.6368 0.3082 10.8748 -22.2494
# 2 27.6809 110.7310 39.6702 -3.6756 1.5014 -14.2792
# 3 40.6368 39.6702 85.3327 8.8403 1.6426 -10.1909
# 4 0.3082 -3.6756 8.8403 42.0519 -13.6357 -1.2879
# 5 10.8748 1.5014 1.6426 -13.6357 37.3341 3.8209
# 6 -22.2494 -14.2792 -10.1909 -1.2879 3.8209 49.5001
#
#
#
# Elastic Compliance Matrix: (Units=1/GPa)
#
#
# Indices 1 2 3 4 5 6 
#
# 1 0.007981 -0.000443 -0.003171 -0.000160 -0.002533 0.002998
# 2 -0.000443 0.011276 -0.005034 0.002278 0.000521 0.002036
# 3 -0.003171 -0.005034 0.016070 -0.004152 -0.001139 0.000411
# 4 -0.000160 0.002278 -0.004152 0.028244 0.010488 -0.000344
# 5 -0.002533 0.000521 -0.001139 0.010488 0.031731 -0.003399
# 6 0.002998 0.002036 0.000411 -0.000344 -0.003399 0.022475
#
#
# Mechanical properties :
#
#
# Convention : Reuss Voigt Hill
#
# Bulk Modulus (GPa) = 55.46153 62.98225 59.22189
# Shear Modulus (GPa) = 35.43996 41.96900 38.70448
#
# Velocity S-wave (km/s) = 3.87815 4.22029 4.05284
# Velocity P-wave (km/s) = 6.60229 7.10467 6.85808
#
# Compressibility (1/GPa) = 0.01803051
#
# Stress axis : x y z
#
# Youngs Moduli (GPa) = 125.30172 88.68127 62.22645
#
# Poissons Ratio (x) = 0.03932 0.19733
# Poissons Ratio (y) = 0.05556 0.31325
# Poissons Ratio (z) = 0.39734 0.44642
#
# Static dielectric constant tensor:
#      x y z
#    x 5.060340 0.038810 0.021880 
#    y 0.038810 4.703250 -0.100270 
#    z 0.021880 -0.100270 4.381290 
# 
# 
# High freq. dielectric constant tensor:
#      x y z
#    x 1.962150 -0.015500 0.003590 
#    y -0.015500 1.932680 0.006200 
#    z 0.003590 0.006200 1.931920 
# 
# From -- ./inp_files/448275.got.cif
#   From: 2010.06.25/outbox.cif.g09.slc.cpg/sg2_225_cif.got.tgz:448275.got - 2010.06.27 13:26:56.
