data_PCOD8037497
_publ_section_title
;
Structure prediction by ZEFSAII (Michael W. Deem and Ramdas Pophale) SiO2 
 PCOD8037497
Probable space group: P -1
;
_chemical_formula_sum "Si O2"
_cell_formula_units_Z 16
_cell_length_a 8.173299
_cell_length_b 9.787302
_cell_length_c 11.724547
_cell_angle_alpha 44.861489
_cell_angle_beta 100.740202
_cell_angle_gamma 101.475029
_cell_volume 646.969660
_symmetry_space_group_name_H-M "P -1"
_symmetry_group_IT_number 2
_symmetry_cell_setting 'triclinic'
loop_
_space_group_symop_operation_xyz
x,y,z
-x,-y,-z
loop_
_atom_site_type_symbol
_atom_site_label
_atom_site_fract_x
_atom_site_fract_y
_atom_site_fract_z
Si Si1 0.317400 0.626647 0.928402
Si Si2 0.426805 0.037866 0.215721
Si Si3 0.752360 0.475841 0.269803
Si Si4 0.537746 0.645305 0.521312
Si Si5 0.115230 0.938927 0.797900
Si Si6 0.904240 0.727560 0.575428
Si Si7 0.191008 0.070287 0.965809
Si Si8 0.200362 0.216391 0.231387
O O1 0.485126 0.745762 0.928197
O O2 0.337226 0.550589 0.848236
O O3 0.184899 0.783587 0.814815
O O4 0.266994 0.443752 0.111517
O O5 0.339755 0.069686 0.308932
O O6 0.552775 0.871265 0.345383
O O7 0.303647 0.977448 0.130261
O O8 0.618945 0.370903 0.402796
O O9 0.779193 0.699443 0.175076
O O10 0.937319 0.398379 0.338593
O O11 0.500000 0.500000 0.500000
O O12 0.718921 0.604012 0.619621
O O13 0.930065 0.827455 0.866353
O O14 0.081566 0.134719 0.613073
O O15 0.231382 0.981595 0.898931
O O16 0.895303 0.841693 0.627869
O O17 0.000000 0.000000 0.000000
#
# Coordination Sequence:
#
# PCOD8037497 Si02
#       8
#     2   2   2   2   2   2   2   2
#     4  12  26  47  75 117 152 203 260 324 386 460
#     4  12  27  49  78 109 160 202 260 329 384 463
#     4  12  28  50  83 113 158 204 268 321 388 469
#     4  12  30  52  75 118 160 209 261 318 397 470
#     4  12  25  47  72 112 152 198 260 311 391 459
#     4  12  28  48  80 114 156 206 259 325 390 459
#     4  12  28  49  76 112 153 209 259 322 391 462
#     4  12  25  45  80 112 150 202 260 320 385 456
#
# _framework density 24.730681000000001
#
# number of rings (size 3 to 8) (size 9 to 14) (size 15 to 20)
#    0.000    0.000    5.000    3.375    7.000    2.500 
#    0.000    0.000    0.000    0.000    0.000    0.000 
#    0.000    0.000    0.000    0.000    0.000    0.000 
#
# Total GULP energy -198277.511891 kJ/mol
# GULP energy per Si atom -12392.344493 kJ/mol
# Density = 2.467439 g / cm^3
# Si number density = 24.730681 Si / 1000 Ang^3
#
#
#
# Elastic Constant Matrix: (Units=GPa)
#
#
# Indices 1 2 3 4 5 6 
#
# 1 114.0694 21.3010 10.6564 -2.0290 -3.3441 8.5356
# 2 21.3010 129.7093 26.3092 0.4551 -10.0391 8.1472
# 3 10.6564 26.3092 74.0226 1.1626 -10.5748 -2.9144
# 4 -2.0290 0.4551 1.1626 38.8566 -1.9528 3.7510
# 5 -3.3441 -10.0391 -10.5748 -1.9528 33.1074 -0.4404
# 6 8.5356 8.1472 -2.9144 3.7510 -0.4404 46.4118
#
#
#
# Elastic Compliance Matrix: (Units=1/GPa)
#
#
# Indices 1 2 3 4 5 6 
#
# 1 0.009219 -0.001205 -0.000931 0.000692 0.000288 -0.001596
# 2 -0.001205 0.008681 -0.002740 0.000141 0.001624 -0.001470
# 3 -0.000931 -0.002740 0.015254 -0.000437 0.003944 0.001683
# 4 0.000692 0.000141 -0.000437 0.026077 0.001481 -0.002273
# 5 0.000288 0.001624 0.003944 0.001481 0.032075 0.000094
# 6 -0.001596 -0.001470 0.001683 -0.002273 0.000094 0.022388
#
#
# Mechanical properties :
#
#
# Convention : Reuss Voigt Hill
#
# Bulk Modulus (GPa) = 42.73368 48.25939 45.49654
# Shear Modulus (GPa) = 38.09642 40.97747 39.53695
#
# Velocity S-wave (km/s) = 3.92912 4.07498 4.00271
# Velocity P-wave (km/s) = 6.15639 6.45732 6.30865
#
# Compressibility (1/GPa) = 0.02340074
#
# Stress axis : x y z
#
# Youngs Moduli (GPa) = 108.47456 115.19783 65.55721
#
# Poissons Ratio (x) = 0.13880 0.06106
# Poissons Ratio (y) = 0.13070 0.17962
# Poissons Ratio (z) = 0.10104 0.31563
#
# Static dielectric constant tensor:
#      x y z
#    x 4.967240 0.141220 -0.111950 
#    y 0.141220 4.945060 0.142700 
#    z -0.111950 0.142700 4.281200 
# 
# 
# High freq. dielectric constant tensor:
#      x y z
#    x 2.011200 0.006600 -0.004590 
#    y 0.006600 1.999000 0.000610 
#    z -0.004590 0.000610 1.968830 
# 
# From -- ./inp_files/381087.got.cif
#   From: 2010.06.25/outbox.cif.g09.slc.cpg/sg2_191_cif.got.tgz:381087.got - 2010.06.27 13:26:56.
