data_PCOD8037874
_publ_section_title
;
Structure prediction by ZEFSAII (Michael W. Deem and Ramdas Pophale) SiO2 
 PCOD8037874
Probable space group: P -1
;
_chemical_formula_sum "Si O2"
_cell_formula_units_Z 16
_cell_length_a 11.506288
_cell_length_b 9.310192
_cell_length_c 13.982034
_cell_angle_alpha 91.119419
_cell_angle_beta 105.575136
_cell_angle_gamma 142.455688
_cell_volume 807.366323
_symmetry_space_group_name_H-M "P -1"
_symmetry_group_IT_number 2
_symmetry_cell_setting 'triclinic'
loop_
_space_group_symop_operation_xyz
x,y,z
-x,-y,-z
loop_
_atom_site_type_symbol
_atom_site_label
_atom_site_fract_x
_atom_site_fract_y
_atom_site_fract_z
Si Si1 0.003764 0.344165 0.456374
Si Si2 0.150472 0.468208 0.683513
Si Si3 0.168137 0.628743 0.315566
Si Si4 0.816254 0.902921 0.012922
Si Si5 0.605444 0.254816 0.939873
Si Si6 0.843621 0.246398 0.074477
Si Si7 0.432382 0.018250 0.707260
Si Si8 0.662296 0.545824 0.115998
O O1 0.112151 0.359586 0.567186
O O2 0.140628 0.479077 0.389955
O O3 0.000000 0.500000 0.500000
O O4 0.755189 0.059651 0.373668
O O5 0.219342 0.410526 0.769010
O O6 0.921771 0.306696 0.667013
O O7 0.328891 0.771156 0.727067
O O8 0.419569 0.885153 0.347767
O O9 0.042571 0.464561 0.190134
O O10 0.791180 0.816703 0.115374
O O11 0.882887 0.134944 0.028350
O O12 0.580945 0.655928 0.907658
O O13 0.000000 0.000000 0.000000
O O14 0.572651 0.246937 0.818721
O O15 0.376845 0.965522 0.917388
O O16 0.807255 0.342109 0.993223
O O17 0.659950 0.448258 0.016891
#
# Coordination Sequence:
#
# PCOD8037874 Si02
#       8
#     2   2   2   2   2   2   2   2
#     4   8  18  32  47  73 111 139 173 217 267 312
#     4  10  19  35  52  76 109 138 179 221 261 312
#     4  10  18  30  50  82 106 138 176 216 272 310
#     4  10  23  37  52  77 112 145 176 207 268 324
#     4  10  17  32  56  79 111 133 174 221 265 311
#     4  10  18  33  53  77 111 140 171 221 259 319
#     4  10  18  28  48  82 109 138 167 217 270 314
#     4  10  21  38  55  78 108 143 175 217 264 318
#
# _framework density 19.817523000000001
#
# number of rings (size 3 to 8) (size 9 to 14) (size 15 to 20)
#    0.000    2.500    3.750    1.500    1.750    7.000 
#    0.000    0.000    0.000    0.750    0.000    1.750 
#    0.000    0.000    0.000    0.000    0.000    0.000 
#
# Total GULP energy -198220.033558 kJ/mol
# GULP energy per Si atom -12388.752097 kJ/mol
# Density = 1.977242 g / cm^3
# Si number density = 19.817523 Si / 1000 Ang^3
#
#
#
# Elastic Constant Matrix: (Units=GPa)
#
#
# Indices 1 2 3 4 5 6 
#
# 1 91.8544 21.7164 27.6516 -8.5831 7.2348 14.0017
# 2 21.7164 28.6967 14.7715 -4.6779 4.6754 6.7537
# 3 27.6516 14.7715 139.5484 -16.4375 15.3820 -1.2859
# 4 -8.5831 -4.6779 -16.4375 16.3694 -7.8827 -2.7968
# 5 7.2348 4.6754 15.3820 -7.8827 21.9272 -6.2673
# 6 14.0017 6.7537 -1.2859 -2.7968 -6.2673 30.3452
#
#
#
# Elastic Compliance Matrix: (Units=1/GPa)
#
#
# Indices 1 2 3 4 5 6 
#
# 1 0.014477 -0.008166 -0.001568 0.001299 -0.003021 -0.005433
# 2 -0.008166 0.045441 -0.002291 0.001725 -0.006976 -0.007725
# 3 -0.001568 -0.002291 0.008755 0.006499 -0.002305 0.001727
# 4 0.001299 0.001725 0.006499 0.084959 0.028930 0.013097
# 5 -0.003021 -0.006976 -0.002305 0.028930 0.065553 0.019054
# 6 -0.005433 -0.007725 0.001727 0.013097 0.019054 0.042396
#
#
# Mechanical properties :
#
#
# Convention : Reuss Voigt Hill
#
# Bulk Modulus (GPa) = 22.40983 43.15316 32.78150
# Shear Modulus (GPa) = 16.63859 26.79236 21.71547
#
# Velocity S-wave (km/s) = 2.90071 3.68088 3.31383
# Velocity P-wave (km/s) = 4.74884 6.31567 5.58745
#
# Compressibility (1/GPa) = 0.04462328
#
# Stress axis : x y z
#
# Youngs Moduli (GPa) = 69.07497 22.00633 114.22264
#
# Poissons Ratio (x) = 0.17969 0.17913
# Poissons Ratio (y) = 0.56404 0.26171
# Poissons Ratio (z) = 0.10833 0.05042
#
# Static dielectric constant tensor:
#      x y z
#    x 3.461810 0.207730 0.208850 
#    y 0.207730 3.506190 -0.109200 
#    z 0.208850 -0.109200 4.255170 
# 
# 
# High freq. dielectric constant tensor:
#      x y z
#    x 1.746640 0.032230 0.009830 
#    y 0.032230 1.750930 -0.006630 
#    z 0.009830 -0.006630 1.775380 
# 
# From -- ./inp_files/495236.got.cif
#   From: 2010.06.25/outbox.cif.g09.slc.cpg/sg2_248_cif.got.tgz:495236.got - 2010.06.27 13:26:56.
