data_PCOD8037069
_publ_section_title
;
Structure prediction by ZEFSAII (Michael W. Deem and Ramdas Pophale) SiO2 
 PCOD8037069
Probable space group: P -1
;
_chemical_formula_sum "Si O2"
_cell_formula_units_Z 14
_cell_length_a 16.083146
_cell_length_b 16.747557
_cell_length_c 9.007214
_cell_angle_alpha 121.611810
_cell_angle_beta 38.804238
_cell_angle_gamma 149.904288
_cell_volume 669.816235
_symmetry_space_group_name_H-M "P -1"
_symmetry_group_IT_number 2
_symmetry_cell_setting 'triclinic'
loop_
_space_group_symop_operation_xyz
x,y,z
-x,-y,-z
loop_
_atom_site_type_symbol
_atom_site_label
_atom_site_fract_x
_atom_site_fract_y
_atom_site_fract_z
Si Si1 0.569065 0.723034 0.989612
Si Si2 0.006158 0.651590 0.481536
Si Si3 0.972161 0.122728 0.854072
Si Si4 0.614502 0.773326 0.631291
Si Si5 0.090731 0.525911 0.058564
Si Si6 0.207078 0.806322 0.677386
Si Si7 0.988233 0.830234 0.500797
O O1 0.536778 0.717256 0.855079
O O2 0.716319 0.714159 0.806523
O O3 0.730965 0.908216 0.009383
O O4 0.290454 0.553889 0.284204
O O5 0.835694 0.237163 0.479484
O O6 0.019241 0.749747 0.455666
O O7 0.146507 0.651169 0.202742
O O8 0.234986 0.228148 0.633153
O O9 0.980253 0.162321 0.712028
O O10 0.958891 0.203073 0.058733
O O11 0.351415 0.625290 0.763811
O O12 0.789634 0.969270 0.549867
O O13 0.000000 0.500000 0.000000
O O14 0.879505 0.335546 0.247495
O O15 0.500000 0.000000 0.500000
#
# Coordination Sequence:
#
# PCOD8037069 Si02
#       7
#     2   2   2   2   2   2   2
#     4   9  18  41  67  93 122 162 207 257 313 363
#     4  12  24  41  64  92 130 164 200 263 315 363
#     4   9  20  43  68  90 122 164 210 256 303 377
#     4   9  20  41  67  90 122 167 209 251 310 365
#     4  12  27  44  63  91 126 169 213 255 305 374
#     4  12  27  42  63  95 127 166 208 255 316 368
#     4   9  20  38  68  95 120 162 210 255 308 371
#
# _framework density 20.901254000000002
#
# number of rings (size 3 to 8) (size 9 to 14) (size 15 to 20)
#    0.000    1.714    1.429    4.286    6.000    1.143 
#    5.143    1.429    0.000    0.000    0.000    0.000 
#    0.000    0.000    0.000    0.000    0.000    0.000 
#
# Total GULP energy -173631.304025 kJ/mol
# GULP energy per Si atom -12402.236002 kJ/mol
# Density = 2.085368 g / cm^3
# Si number density = 20.901254 Si / 1000 Ang^3
#
#
#
# Elastic Constant Matrix: (Units=GPa)
#
#
# Indices 1 2 3 4 5 6 
#
# 1 130.8926 76.4267 62.0850 0.0923 -20.3508 -1.0710
# 2 76.4267 102.9647 44.8752 16.1560 -2.1091 -14.3837
# 3 62.0850 44.8752 101.5732 4.7888 -14.0897 0.5109
# 4 0.0923 16.1560 4.7888 43.4964 7.6471 2.0628
# 5 -20.3508 -2.1091 -14.0897 7.6471 29.9977 2.5142
# 6 -1.0710 -14.3837 0.5109 2.0628 2.5142 40.6949
#
#
#
# Elastic Compliance Matrix: (Units=1/GPa)
#
#
# Indices 1 2 3 4 5 6 
#
# 1 0.018847 -0.013074 -0.004647 0.003961 0.009079 -0.004829
# 2 -0.013074 0.022835 -0.002835 -0.007235 -0.007472 0.008591
# 3 -0.004647 -0.002835 0.014540 -0.001152 0.003896 -0.001489
# 4 0.003961 -0.007235 -0.001152 0.026825 -0.004908 -0.003495
# 5 0.009079 -0.007472 0.003896 -0.004908 0.042456 -0.004825
# 6 -0.004829 0.008591 -0.001489 -0.003495 -0.004825 0.027976
#
#
# Mechanical properties :
#
#
# Convention : Reuss Voigt Hill
#
# Bulk Modulus (GPa) = 66.18487 78.02272 72.10379
# Shear Modulus (GPa) = 25.04640 32.97404 29.01022
#
# Velocity S-wave (km/s) = 3.46543 3.97622 3.72958
# Velocity P-wave (km/s) = 6.90989 7.64792 7.28825
#
# Compressibility (1/GPa) = 0.01510919
#
# Stress axis : x y z
#
# Youngs Moduli (GPa) = 53.05815 43.79280 68.77390
#
# Poissons Ratio (x) = 0.57256 0.31958
# Poissons Ratio (y) = 0.69370 0.19501
# Poissons Ratio (z) = 0.24655 0.12417
#
# Static dielectric constant tensor:
#      x y z
#    x 2.636200 -1.483450 1.987700 
#    y -1.483450 1.962700 2.946090 
#    z 1.987700 2.946090 -0.570320 
# 
# 
# High freq. dielectric constant tensor:
#      x y z
#    x 1.810820 -0.010170 -0.013710 
#    y -0.010170 1.824880 0.000390 
#    z -0.013710 0.000390 1.827160 
# 
# From -- ./inp_files/466099.got.cif
#   From: 2010.06.25/outbox.cif.g09.slc.cpg/sg2_234_cif.got.tgz:466099.got - 2010.06.27 13:26:56.
