data_PCOD8037728
_publ_section_title
;
Structure prediction by ZEFSAII (Michael W. Deem and Ramdas Pophale) SiO2 
 PCOD8037728
Probable space group: P -1
;
_chemical_formula_sum "Si O2"
_cell_formula_units_Z 10
_cell_length_a 13.791950
_cell_length_b 9.520682
_cell_length_c 13.613933
_cell_angle_alpha 59.230791
_cell_angle_beta 151.452856
_cell_angle_gamma 140.848673
_cell_volume 446.063600
_symmetry_space_group_name_H-M "P -1"
_symmetry_group_IT_number 2
_symmetry_cell_setting 'triclinic'
loop_
_space_group_symop_operation_xyz
x,y,z
-x,-y,-z
loop_
_atom_site_type_symbol
_atom_site_label
_atom_site_fract_x
_atom_site_fract_y
_atom_site_fract_z
Si Si1 0.620459 0.772364 0.769116
Si Si2 0.315541 0.536278 0.373193
Si Si3 0.357053 0.488821 0.969872
Si Si4 0.621738 0.063573 0.394673
Si Si5 0.423218 0.020107 0.030669
O O1 0.404233 0.628973 0.530860
O O2 0.568121 0.904238 0.737442
O O3 0.531471 0.551385 0.826567
O O4 0.000000 0.000000 0.000000
O O5 0.500000 0.500000 0.500000
O O6 0.400523 0.756642 0.311395
O O7 0.922268 0.250637 0.127755
O O8 0.958951 0.256359 0.688162
O O9 0.500000 0.500000 0.000000
O O10 0.564738 0.785206 0.057080
O O11 0.691544 0.146314 0.310749
O O12 0.500000 0.000000 0.000000
#
# Coordination Sequence:
#
# PCOD8037728 Si02
#       5
#     2   2   2   2   2
#     4  12  26  47  78 103 138 195 247 284 351 438
#     4  12  27  48  73 107 146 190 237 298 360 426
#     4  12  26  48  74 104 142 188 244 292 354 430
#     4  12  26  51  74 101 147 194 242 287 353 442
#     4  12  28  44  72 110 145 184 232 307 365 403
#
# _framework density 22.418326
#
# number of rings (size 3 to 8) (size 9 to 14) (size 15 to 20)
#    0.000    0.000    4.000    5.400    8.400    0.800 
#    0.000    0.000    0.000    0.000    0.000    0.000 
#    0.000    0.000    0.000    0.000    0.000    0.000 
#
# Total GULP energy -123947.987985 kJ/mol
# GULP energy per Si atom -12394.798798 kJ/mol
# Density = 2.236730 g / cm^3
# Si number density = 22.418326 Si / 1000 Ang^3
#
#
#
# Elastic Constant Matrix: (Units=GPa)
#
#
# Indices 1 2 3 4 5 6 
#
# 1 147.1613 53.8945 24.4051 -15.9809 -17.7095 -17.8012
# 2 53.8945 191.7092 16.1998 -13.4443 -9.4787 -13.5602
# 3 24.4051 16.1998 57.2619 -4.6098 0.4142 -8.3266
# 4 -15.9809 -13.4443 -4.6098 39.9763 7.7212 -1.9690
# 5 -17.7095 -9.4787 0.4142 7.7212 47.3205 1.8628
# 6 -17.8012 -13.5602 -8.3266 -1.9690 1.8628 41.1429
#
#
#
# Elastic Compliance Matrix: (Units=1/GPa)
#
#
# Indices 1 2 3 4 5 6 
#
# 1 0.008749 -0.001765 -0.002680 0.002248 0.002473 0.002657
# 2 -0.001765 0.005947 -0.000674 0.001214 0.000295 0.001105
# 3 -0.002680 -0.000674 0.019307 0.001376 -0.001636 0.002666
# 4 0.002248 0.001214 0.001376 0.027311 -0.003507 0.003117
# 5 0.002473 0.000295 -0.001636 -0.003507 0.022718 -0.000360
# 6 0.002657 0.001105 0.002666 0.003117 -0.000360 0.026524
#
#
# Mechanical properties :
#
#
# Convention : Reuss Voigt Hill
#
# Bulk Modulus (GPa) = 42.07920 65.01457 53.54689
# Shear Modulus (GPa) = 38.84494 45.79679 42.32087
#
# Velocity S-wave (km/s) = 4.16713 4.52467 4.34957
# Velocity P-wave (km/s) = 6.47796 7.50736 7.01158
#
# Compressibility (1/GPa) = 0.02376471
#
# Stress axis : x y z
#
# Youngs Moduli (GPa) = 114.29405 168.14259 51.79545
#
# Poissons Ratio (x) = 0.29683 0.13882
# Poissons Ratio (y) = 0.20177 0.03490
# Poissons Ratio (z) = 0.30632 0.11331
#
# Static dielectric constant tensor:
#      x y z
#    x 4.121650 0.056400 0.101320 
#    y 0.056400 4.211930 -0.158000 
#    z 0.101320 -0.158000 3.866220 
# 
# 
# High freq. dielectric constant tensor:
#      x y z
#    x 1.899400 0.002000 -0.008230 
#    y 0.002000 1.910610 -0.004070 
#    z -0.008230 -0.004070 1.887880 
# 
# From -- ./inp_files/297036.got.cif
#   From: 2010.06.25/outbox.cif.g09.slc.cpg/sg2_149_cif.got.tgz:297036.got - 2010.06.27 13:26:56.
