data_PCOD8037920
_publ_section_title
;
Structure prediction by ZEFSAII (Michael W. Deem and Ramdas Pophale) SiO2 
 PCOD8037920
Probable space group: P -1
;
_chemical_formula_sum "Si O2"
_cell_formula_units_Z 16
_cell_length_a 10.005045
_cell_length_b 13.442651
_cell_length_c 16.113347
_cell_angle_alpha 41.869968
_cell_angle_beta 136.233248
_cell_angle_gamma 146.429800
_cell_volume 768.858636
_symmetry_space_group_name_H-M "P -1"
_symmetry_group_IT_number 2
_symmetry_cell_setting 'triclinic'
loop_
_space_group_symop_operation_xyz
x,y,z
-x,-y,-z
loop_
_atom_site_type_symbol
_atom_site_label
_atom_site_fract_x
_atom_site_fract_y
_atom_site_fract_z
Si Si1 0.120537 0.451766 0.650249
Si Si2 0.699598 0.199586 0.013157
Si Si3 0.429160 0.299928 0.405784
Si Si4 0.442257 0.633427 0.273761
Si Si5 0.651421 0.949945 0.910269
Si Si6 0.014945 0.942919 0.751938
Si Si7 0.725624 0.316257 0.674425
Si Si8 0.084540 0.981992 0.171337
O O1 0.418234 0.610483 0.669097
O O2 0.031604 0.238355 0.732842
O O3 0.000000 0.500000 0.500000
O O4 0.020635 0.461826 0.688486
O O5 0.603428 0.212591 0.052492
O O6 0.944775 0.216713 0.123311
O O7 0.741293 0.366613 0.871658
O O8 0.500000 0.000000 0.000000
O O9 0.443857 0.464036 0.355803
O O10 0.547351 0.239746 0.560332
O O11 0.148371 0.111648 0.371068
O O12 0.325652 0.579177 0.347642
O O13 0.725275 0.838583 0.273610
O O14 0.665050 0.134371 0.807354
O O15 0.882946 0.995090 0.035218
O O16 0.670192 0.903447 0.851261
O O17 0.849212 0.920863 0.768933
#
# Coordination Sequence:
#
# PCOD8037920 Si02
#       8
#     2   2   2   2   2   2   2   2
#     4   9  19  37  57  80 113 152 190 228 281 338
#     4  10  17  34  58  86 112 151 187 237 286 334
#     4  11  23  37  58  87 115 152 193 233 285 340
#     4  11  20  39  61  82 117 154 189 231 291 338
#     4  10  17  32  59  87 108 148 200 225 281 344
#     4  11  21  36  59  89 114 150 189 238 285 339
#     4  10  20  36  59  82 115 154 191 236 280 340
#     4  10  18  33  61  85 108 153 189 235 282 331
#
# _framework density 20.810067
#
# number of rings (size 3 to 8) (size 9 to 14) (size 15 to 20)
#    0.000    1.750    6.250    0.375    0.000    1.000 
#    0.000    6.875    0.000   14.250    0.000    0.000 
#    0.000    0.000    0.000    0.000    0.000    0.000 
#
# Total GULP energy -198216.873592 kJ/mol
# GULP energy per Si atom -12388.554600 kJ/mol
# Density = 2.076270 g / cm^3
# Si number density = 20.810067 Si / 1000 Ang^3
#
#
#
# Elastic Constant Matrix: (Units=GPa)
#
#
# Indices 1 2 3 4 5 6 
#
# 1 155.6201 27.6760 15.4744 8.3676 -18.1498 -6.0078
# 2 27.6760 49.7555 24.7234 1.6908 1.9447 -9.2992
# 3 15.4744 24.7234 91.0400 -8.1139 3.0786 -7.1470
# 4 8.3676 1.6908 -8.1139 9.8531 -0.7581 -0.2546
# 5 -18.1498 1.9447 3.0786 -0.7581 34.8030 -4.6544
# 6 -6.0078 -9.2992 -7.1470 -0.2546 -4.6544 7.0984
#
#
#
# Elastic Compliance Matrix: (Units=1/GPa)
#
#
# Indices 1 2 3 4 5 6 
#
# 1 0.008220 -0.003158 -0.000915 -0.006674 0.005065 0.004981
# 2 -0.003158 0.031117 -0.005981 -0.006631 0.001376 0.032734
# 3 -0.000915 -0.005981 0.014507 0.013891 -0.000279 0.006311
# 4 -0.006674 -0.006631 0.013891 0.119713 -0.001319 0.003079
# 5 0.005065 0.001376 -0.000279 -0.001319 0.035146 0.028807
# 6 0.004981 0.032734 0.006311 0.003079 0.028807 0.213329
#
#
# Mechanical properties :
#
#
# Convention : Reuss Voigt Hill
#
# Bulk Modulus (GPa) = 29.64237 48.01814 38.83026
# Shear Modulus (GPa) = 11.02814 25.58703 18.30758
#
# Velocity S-wave (km/s) = 2.30455 3.51030 2.96927
# Velocity P-wave (km/s) = 4.62130 6.28921 5.51863
#
# Compressibility (1/GPa) = 0.03373549
#
# Stress axis : x y z
#
# Youngs Moduli (GPa) = 121.64846 32.13724 68.93276
#
# Poissons Ratio (x) = 0.10150 0.06305
# Poissons Ratio (y) = 0.38421 0.41230
# Poissons Ratio (z) = 0.11126 0.19222
#
# Static dielectric constant tensor:
#      x y z
#    x 4.500790 0.035010 -0.046600 
#    y 0.035010 3.107570 -0.141260 
#    z -0.046600 -0.141260 4.092410 
# 
# 
# High freq. dielectric constant tensor:
#      x y z
#    x 1.846500 -0.005650 0.004480 
#    y -0.005650 1.741780 -0.013720 
#    z 0.004480 -0.013720 1.828590 
# 
# From -- ./inp_files/454979.got.cif
#   From: 2010.06.25/outbox.cif.g09.slc.cpg/sg2_228_cif.got.tgz:454979.got - 2010.06.27 13:26:56.
