data_PCOD8037824
_publ_section_title
;
Structure prediction by ZEFSAII (Michael W. Deem and Ramdas Pophale) SiO2 
 PCOD8037824
Probable space group: P -1
;
_chemical_formula_sum "Si O2"
_cell_formula_units_Z 16
_cell_length_a 9.198662
_cell_length_b 16.020841
_cell_length_c 21.631755
_cell_angle_alpha 148.858253
_cell_angle_beta 113.018030
_cell_angle_gamma 76.061182
_cell_volume 1487.626644
_symmetry_space_group_name_H-M "P -1"
_symmetry_group_IT_number 2
_symmetry_cell_setting 'triclinic'
loop_
_space_group_symop_operation_xyz
x,y,z
-x,-y,-z
loop_
_atom_site_type_symbol
_atom_site_label
_atom_site_fract_x
_atom_site_fract_y
_atom_site_fract_z
Si Si1 0.811999 0.114039 0.216075
Si Si2 0.804119 0.125693 0.022120
Si Si3 0.245639 0.628046 0.733209
Si Si4 0.956410 0.404884 0.495557
Si Si5 0.615230 0.404883 0.495557
Si Si6 0.575798 0.628028 0.733197
Si Si7 0.510304 0.885948 0.783916
Si Si8 0.131109 0.125730 0.022147
O O1 0.793030 0.247435 0.245835
O O2 0.926099 0.209242 0.350062
O O3 0.636608 0.036679 0.165299
O O4 0.884222 0.965715 0.104831
O O5 0.755199 0.286862 0.146005
O O6 0.963910 0.181974 0.043780
O O7 0.662663 0.034260 0.895146
O O8 0.831547 0.999952 0.999957
O O9 0.419002 0.581343 0.720910
O O10 0.107010 0.461213 0.602792
O O11 0.795801 0.451537 0.527696
O O12 0.000000 0.500000 0.500000
O O13 0.500000 0.500000 0.500000
O O14 0.614558 0.461194 0.602778
O O15 0.542130 0.209245 0.350065
O O16 0.548516 0.752546 0.754151
O O17 0.727382 0.713089 0.853965
#
# Coordination Sequence:
#
# PCOD8037824 Si02
#       8
#     2   2   2   2   2   2   2   2
#     4   8  14  21  26  31  38  45  49  54  62  68
#     4   9  15  20  26  33  38  43  50  57  61  66
#     4   9  15  21  27  32  38  45  50  55  61  67
#     4   9  15  21  27  33  39  44  49  55  61  67
#     4   9  15  21  27  33  39  44  49  55  61  67
#     4   9  15  21  27  32  38  45  50  55  61  67
#     4   8  14  21  26  31  38  45  49  54  62  68
#     4   9  15  20  26  33  38  43  50  57  61  66
#
# _framework density 10.755386
#
# number of rings (size 3 to 8) (size 9 to 14) (size 15 to 20)
#    0.000    3.250    0.000    3.750    0.000   10.000 
#    0.000    0.000    0.000    0.000    0.000    0.000 
#    0.000    0.000    0.000    0.000    0.000    0.000 
#
# Total GULP energy -198213.679549 kJ/mol
# GULP energy per Si atom -12388.354972 kJ/mol
# Density = 1.073091 g / cm^3
# Si number density = 10.755386 Si / 1000 Ang^3
#
#
#
# Elastic Constant Matrix: (Units=GPa)
#
#
# Indices 1 2 3 4 5 6 
#
# 1 104.4413 1.5812 63.1115 -8.6842 1.1403 6.1941
# 2 1.5812 0.0525 2.2555 -0.3396 -0.4244 0.1554
# 3 63.1115 2.2555 105.8213 -14.6309 0.7848 3.7298
# 4 -8.6842 -0.3396 -14.6309 2.1209 1.4911 -0.7349
# 5 1.1403 -0.4244 0.7848 1.4911 26.3051 -3.5791
# 6 6.1941 0.1554 3.7298 -0.7349 -3.5791 0.8737
#
#
#
# Elastic Compliance Matrix: (Units=1/GPa)
#
#
# Indices 1 2 3 4 5 6 
#
# 1 5.965893 -9.416567 1.181625 7.276396-14.092936-97.271088
# 2 -9.416567**********-34.265036********** 36.506120165.565599
# 3 1.181625-34.265036 22.380085156.478805-12.525265-17.516469
# 4 7.276396**********156.478805**********-85.230287**********
# 5 -14.092936 36.506120-12.525265-85.230287 37.668393229.497816
# 6 -97.271088165.565599-17.516469**********229.497816**********
#
#
# Mechanical properties :
#
#
# Convention : Reuss Voigt Hill
#
# Bulk Modulus (GPa) = -0.00431 38.24574 19.12072
# Shear Modulus (GPa) = 0.00194 15.41774 7.70984
#
# Velocity S-wave (km/s) = 0.04251 3.79025 2.68028
# Velocity P-wave (km/s) = 0.04003 7.40213 5.23402
#
# Compressibility (1/GPa) = -232.24045627
#
# Stress axis : x y z
#
# Youngs Moduli (GPa) = 0.16762 -0.00570 0.04468
#
# Poissons Ratio (x) = -0.05363 -0.05280
# Poissons Ratio (y) = 1.57840 1.53105
# Poissons Ratio (z) = -0.19806 -0.19515
#
# Static dielectric constant tensor:
#      x y z
#    x 2.532760 0.062370 0.016950 
#    y 0.062370 1.499270 -0.199820 
#    z 0.016950 -0.199820 2.878920 
# 
# 
# High freq. dielectric constant tensor:
#      x y z
#    x 1.426990 0.009260 0.001510 
#    y 0.009260 1.274830 -0.023170 
#    z 0.001510 -0.023170 1.432470 
# 
# From -- ./inp_files/215497.got.cif
#   From: 2010.06.25/outbox.cif.g09.slc.cpg/sg2_108_cif.got.tgz:215497.got - 2010.06.27 13:26:56.
