data_PCOD8037759
_publ_section_title
;
Structure prediction by ZEFSAII (Michael W. Deem and Ramdas Pophale) SiO2 
 PCOD8037759
Probable space group: P -1
;
_chemical_formula_sum "Si O2"
_cell_formula_units_Z 14
_cell_length_a 12.170535
_cell_length_b 11.185033
_cell_length_c 9.153935
_cell_angle_alpha 59.967792
_cell_angle_beta 48.335965
_cell_angle_gamma 41.158926
_cell_volume 612.678321
_symmetry_space_group_name_H-M "P -1"
_symmetry_group_IT_number 2
_symmetry_cell_setting 'triclinic'
loop_
_space_group_symop_operation_xyz
x,y,z
-x,-y,-z
loop_
_atom_site_type_symbol
_atom_site_label
_atom_site_fract_x
_atom_site_fract_y
_atom_site_fract_z
Si Si1 0.290943 0.578250 0.084892
Si Si2 0.624153 0.921765 0.084901
Si Si3 0.922593 0.860010 0.411559
Si Si4 0.665863 0.639976 0.411543
Si Si5 0.018502 0.755552 0.702180
Si Si6 0.720681 0.255527 0.297836
Si Si7 0.667000 0.749981 0.666034
O O1 0.272859 0.423671 0.191962
O O2 0.140115 0.731220 0.239918
O O3 0.500000 0.500000 0.000000
O O4 0.234028 0.669782 0.920929
O O5 0.619972 0.768787 0.239912
O O6 0.535142 0.076349 0.191991
O O7 0.845026 0.830252 0.920944
O O8 0.500000 0.000000 0.000000
O O9 0.830452 0.765790 0.528341
O O10 0.931454 0.889044 0.558364
O O11 0.797150 0.053400 0.322559
O O12 0.880295 0.446586 0.322524
O O13 0.510182 0.610961 0.558346
O O14 0.641255 0.734154 0.528340
O O15 0.177791 0.750031 0.644383
#
# Coordination Sequence:
#
# PCOD8037759 Si02
#       7
#     2   2   2   2   2   2   2
#     4  12  27  47  75 114 150 195 251 310 371 446
#     4  12  27  47  75 114 150 195 251 310 371 446
#     4  12  26  50  75 110 148 201 249 307 378 444
#     4  12  26  50  75 110 148 201 249 307 378 444
#     4  12  27  47  75 111 153 196 250 311 373 440
#     4  12  27  47  75 111 153 196 250 311 373 440
#     4  12  26  48  80 102 156 190 254 300 374 440
#
# _framework density 22.850489
#
# number of rings (size 3 to 8) (size 9 to 14) (size 15 to 20)
#    0.000    0.000    5.714    2.571    6.000    0.000 
#    2.571    0.000    0.000    0.000    0.000    0.000 
#    0.000    0.000    0.000    0.000    0.000    0.000 
#
# Total GULP energy -173687.732609 kJ/mol
# GULP energy per Si atom -12406.266615 kJ/mol
# Density = 2.279848 g / cm^3
# Si number density = 22.850489 Si / 1000 Ang^3
#
#
#
# Elastic Constant Matrix: (Units=GPa)
#
#
# Indices 1 2 3 4 5 6 
#
# 1 128.9293 15.7143 37.9140 0.1028 0.7226 -15.1340
# 2 15.7143 125.6857 55.4199 0.4918 -0.6920 -3.8576
# 3 37.9140 55.4199 138.3860 -0.7995 -0.5959 -10.4974
# 4 0.1028 0.4918 -0.7995 69.8958 -5.3549 -0.7803
# 5 0.7226 -0.6920 -0.5959 -5.3549 26.4992 0.0061
# 6 -15.1340 -3.8576 -10.4974 -0.7803 0.0061 27.3229
#
#
#
# Elastic Compliance Matrix: (Units=1/GPa)
#
#
# Indices 1 2 3 4 5 6 
#
# 1 0.008862 -0.000060 -0.002094 -0.000013 -0.000294 0.004095
# 2 -0.000060 0.009665 -0.003866 -0.000103 0.000146 -0.000157
# 3 -0.002094 -0.003866 0.009498 0.000176 0.000205 0.001948
# 4 -0.000013 -0.000103 0.000176 0.014540 0.002940 0.000460
# 5 -0.000294 0.000146 0.000205 0.002940 0.038347 0.000012
# 6 0.004095 -0.000157 0.001948 0.000460 0.000012 0.039607
#
#
# Mechanical properties :
#
#
# Convention : Reuss Voigt Hill
#
# Bulk Modulus (GPa) = 62.56558 67.89970 65.23264
# Shear Modulus (GPa) = 36.26127 43.67378 39.96752
#
# Velocity S-wave (km/s) = 3.98790 4.37657 4.18675
# Velocity P-wave (km/s) = 6.97455 7.43763 7.20981
#
# Compressibility (1/GPa) = 0.01598323
#
# Stress axis : x y z
#
# Youngs Moduli (GPa) = 112.84399 103.46712 105.28703
#
# Poissons Ratio (x) = 0.00624 0.22052
# Poissons Ratio (y) = 0.00681 0.40703
# Poissons Ratio (z) = 0.23635 0.39999
#
# Static dielectric constant tensor:
#      x y z
#    x 3.928750 -0.072520 -0.007040 
#    y -0.072520 4.389650 -0.001070 
#    z -0.007040 -0.001070 4.402350 
# 
# 
# High freq. dielectric constant tensor:
#      x y z
#    x 1.898600 -0.008530 -0.000260 
#    y -0.008530 1.916660 -0.000120 
#    z -0.000260 -0.000120 1.919050 
# 
# From -- ./inp_files/150775.got.cif
#   From: 2010.06.25/outbox.cif.g09.slc.cpg/sg2_76_cif.got.tgz:150775.got - 2010.06.27 13:26:56.
