data_PCOD8037555
_publ_section_title
;
Structure prediction by ZEFSAII (Michael W. Deem and Ramdas Pophale) SiO2 
 PCOD8037555
Probable space group: P -1
;
_chemical_formula_sum "Si O2"
_cell_formula_units_Z 16
_cell_length_a 14.134874
_cell_length_b 14.263686
_cell_length_c 9.760068
_cell_angle_alpha 93.770695
_cell_angle_beta 69.183857
_cell_angle_gamma 33.538799
_cell_volume 724.843209
_symmetry_space_group_name_H-M "P -1"
_symmetry_group_IT_number 2
_symmetry_cell_setting 'triclinic'
loop_
_space_group_symop_operation_xyz
x,y,z
-x,-y,-z
loop_
_atom_site_type_symbol
_atom_site_label
_atom_site_fract_x
_atom_site_fract_y
_atom_site_fract_z
Si Si1 0.237990 0.275828 0.951291
Si Si2 0.792138 0.027920 0.931799
Si Si3 0.993295 0.432318 0.375040
Si Si4 0.284133 0.007112 0.297758
Si Si5 0.624747 0.473225 0.340568
Si Si6 0.580707 0.078192 0.268651
Si Si7 0.702268 0.317002 0.998462
Si Si8 0.790492 0.016810 0.383712
O O1 0.430068 0.199952 0.839081
O O2 0.380624 0.063544 0.798270
O O3 0.000000 0.500000 0.000000
O O4 0.158268 0.329345 0.154006
O O5 0.714698 0.080070 0.818269
O O6 0.087926 0.751377 0.780113
O O7 0.727925 0.188355 0.024432
O O8 0.614226 0.109921 0.117456
O O9 0.702218 0.665882 0.500252
O O10 0.000000 0.500000 0.500000
O O11 0.106395 0.238354 0.348354
O O12 0.157461 0.077001 0.507833
O O13 0.500000 0.500000 0.500000
O O14 0.470972 0.701060 0.456010
O O15 0.613696 0.453822 0.185641
O O16 0.778630 0.944875 0.269146
O O17 0.500000 0.500000 0.000000
O O18 0.977246 0.112582 0.781214
#
# Coordination Sequence:
#
# PCOD8037555 Si02
#       8
#     2   2   2   2   2   2   2   2
#     4  12  28  49  73 106 147 184 240 299 351 426
#     4  12  25  47  75 103 143 191 237 293 356 424
#     4  12  25  47  74 102 143 187 235 296 357 419
#     4  12  27  46  73 107 143 188 237 295 358 424
#     4  12  25  49  75 103 144 190 241 296 356 419
#     4  12  26  47  73 104 141 190 238 287 361 423
#     4  12  28  47  71 108 149 186 237 298 352 425
#     4  12  28  46  72 107 144 188 240 291 360 425
#
# _framework density 22.073739
#
# number of rings (size 3 to 8) (size 9 to 14) (size 15 to 20)
#    0.000    0.000    5.000    4.500    7.000    3.000 
#    0.000    0.000    0.000    0.000    0.000    0.000 
#    0.000    0.000    0.000    0.000    0.000    0.000 
#
# Total GULP energy -198548.856840 kJ/mol
# GULP energy per Si atom -12409.303552 kJ/mol
# Density = 2.202350 g / cm^3
# Si number density = 22.073739 Si / 1000 Ang^3
#
#
#
# Elastic Constant Matrix: (Units=GPa)
#
#
# Indices 1 2 3 4 5 6 
#
# 1 102.7327 17.3043 27.7370 -1.0929 6.9336 -19.2676
# 2 17.3043 84.7176 28.8545 -5.5436 1.8876 -12.1611
# 3 27.7370 28.8545 95.4102 -5.3292 8.5044 -0.5217
# 4 -1.0929 -5.5436 -5.3292 47.5495 -9.0960 -4.2369
# 5 6.9336 1.8876 8.5044 -9.0960 37.2792 -7.6548
# 6 -19.2676 -12.1611 -0.5217 -4.2369 -7.6548 39.1857
#
#
#
# Elastic Compliance Matrix: (Units=1/GPa)
#
#
# Indices 1 2 3 4 5 6 
#
# 1 0.011742 -0.000483 -0.003201 0.000312 -0.000209 0.005574
# 2 -0.000483 0.014060 -0.004134 0.001908 0.001734 0.004616
# 3 -0.003201 -0.004134 0.012896 0.000071 -0.002781 -0.003221
# 4 0.000312 0.001908 0.000071 0.022875 0.006326 0.004455
# 5 -0.000209 0.001734 -0.002781 0.006326 0.030395 0.007020
# 6 0.005574 0.004616 -0.003221 0.004455 0.007020 0.031503
#
#
# Mechanical properties :
#
#
# Convention : Reuss Voigt Hill
#
# Bulk Modulus (GPa) = 43.36273 47.85024 45.60649
# Shear Modulus (GPa) = 34.06096 38.73387 36.39741
#
# Velocity S-wave (km/s) = 3.93243 4.19352 4.06507
# Velocity P-wave (km/s) = 6.34869 6.72101 6.53750
#
# Compressibility (1/GPa) = 0.02306128
#
# Stress axis : x y z
#
# Youngs Moduli (GPa) = 85.16090 71.12626 77.54182
#
# Poissons Ratio (x) = 0.03435 0.24822
# Poissons Ratio (y) = 0.04113 0.32058
# Poissons Ratio (z) = 0.27261 0.29406
#
# Static dielectric constant tensor:
#      x y z
#    x 4.289100 -0.288680 0.221080 
#    y -0.288680 3.863560 -0.125820 
#    z 0.221080 -0.125820 4.556760 
# 
# 
# High freq. dielectric constant tensor:
#      x y z
#    x 1.887440 -0.005470 0.001280 
#    y -0.005470 1.874860 -0.003310 
#    z 0.001280 -0.003310 1.882050 
# 
# From -- ./inp_files/39379.got.cif
#   From: 2010.06.25/outbox.cif.g09.slc.cpg/sg2_20_cif.got.tgz:39379.got - 2010.06.27 13:26:56.
