data_PCOD8037470
_publ_section_title
;
Structure prediction by ZEFSAII (Michael W. Deem and Ramdas Pophale) SiO2 
 PCOD8037470
Probable space group: P -1
;
_chemical_formula_sum "Si O2"
_cell_formula_units_Z 16
_cell_length_a 8.528039
_cell_length_b 14.822371
_cell_length_c 8.740920
_cell_angle_alpha 70.779006
_cell_angle_beta 129.729676
_cell_angle_gamma 79.934952
_cell_volume 680.204840
_symmetry_space_group_name_H-M "P -1"
_symmetry_group_IT_number 2
_symmetry_cell_setting 'triclinic'
loop_
_space_group_symop_operation_xyz
x,y,z
-x,-y,-z
loop_
_atom_site_type_symbol
_atom_site_label
_atom_site_fract_x
_atom_site_fract_y
_atom_site_fract_z
Si Si1 0.214877 0.926955 0.289637
Si Si2 0.672160 0.806786 0.436739
Si Si3 0.791047 0.987232 0.447998
Si Si4 0.334831 0.519510 0.528625
Si Si5 0.612515 0.800448 0.080447
Si Si6 0.144179 0.734132 0.469477
Si Si7 0.999236 0.543349 0.806248
Si Si8 0.550992 0.609380 0.024176
O O1 0.479823 0.864808 0.419010
O O2 0.182838 0.833549 0.399864
O O3 0.200267 0.011051 0.364248
O O4 0.000000 0.000000 0.000000
O O5 0.816710 0.871392 0.476198
O O6 0.509300 0.818061 0.179482
O O7 0.871309 0.677111 0.666975
O O8 0.000000 0.000000 0.500000
O O9 0.533277 0.089363 0.173835
O O10 0.500000 0.500000 0.500000
O O11 0.221685 0.650042 0.421860
O O12 0.138567 0.490104 0.379305
O O13 0.474056 0.445522 0.805746
O O14 0.636269 0.695055 0.066993
O O15 0.867886 0.780805 0.297956
O O16 0.290003 0.673617 0.748232
O O17 0.264637 0.485190 0.929272
O O18 0.000000 0.500000 0.000000
#
# Coordination Sequence:
#
# PCOD8037470 Si02
#       8
#     2   2   2   2   2   2   2   2
#     4  12  26  48  73 113 155 194 259 318 385 457
#     4  12  26  46  76 109 155 200 249 324 383 451
#     4  12  27  51  78 112 147 202 260 316 389 458
#     4  12  25  45  71 112 153 201 255 314 383 461
#     4  12  25  49  80 107 151 197 259 313 387 456
#     4  12  26  47  77 110 150 205 250 315 385 455
#     4  12  26  47  74 114 159 204 260 313 386 468
#     4  12  25  50  76 110 158 203 255 318 386 461
#
# _framework density 23.522324999999999
#
# number of rings (size 3 to 8) (size 9 to 14) (size 15 to 20)
#    0.000    0.000    3.750    6.750    0.000    2.000 
#    0.000    0.000    0.000    0.000    0.000    0.000 
#    0.000    0.000    0.000    0.000    0.000    0.000 
#
# Total GULP energy -198440.508151 kJ/mol
# GULP energy per Si atom -12402.531759 kJ/mol
# Density = 2.346879 g / cm^3
# Si number density = 23.522325 Si / 1000 Ang^3
#
#
#
# Elastic Constant Matrix: (Units=GPa)
#
#
# Indices 1 2 3 4 5 6 
#
# 1 97.4202 23.8901 54.5059 6.9635 -5.5484 -13.0477
# 2 23.8901 161.2744 54.3668 -0.1685 -5.1942 -0.5276
# 3 54.5059 54.3668 180.0279 2.6476 -8.5830 -7.5947
# 4 6.9635 -0.1685 2.6476 38.8479 3.0892 -4.5480
# 5 -5.5484 -5.1942 -8.5830 3.0892 46.3478 6.4588
# 6 -13.0477 -0.5276 -7.5947 -4.5480 6.4588 46.2698
#
#
#
# Elastic Compliance Matrix: (Units=1/GPa)
#
#
# Indices 1 2 3 4 5 6 
#
# 1 0.012953 -0.000701 -0.003539 -0.001798 0.000545 0.002811
# 2 -0.000701 0.006953 -0.001891 0.000199 0.000397 -0.000465
# 3 -0.003539 -0.001891 0.007232 0.000088 0.000687 0.000080
# 4 -0.001798 0.000199 0.000088 0.026525 -0.002284 0.002436
# 5 0.000545 0.000397 0.000687 -0.002284 0.022394 -0.003080
# 6 0.002811 -0.000465 0.000080 0.002436 -0.003080 0.023082
#
#
# Mechanical properties :
#
#
# Convention : Reuss Voigt Hill
#
# Bulk Modulus (GPa) = 67.22194 78.24976 72.73585
# Shear Modulus (GPa) = 42.96970 46.69041 44.83005
#
# Velocity S-wave (km/s) = 4.27870 4.46010 4.37034
# Velocity P-wave (km/s) = 7.28352 7.73704 7.51370
#
# Compressibility (1/GPa) = 0.01487609
#
# Stress axis : x y z
#
# Youngs Moduli (GPa) = 77.20390 143.81316 138.27145
#
# Poissons Ratio (x) = 0.10079 0.48934
# Poissons Ratio (y) = 0.05411 0.26151
# Poissons Ratio (z) = 0.27322 0.27199
#
# Static dielectric constant tensor:
#      x y z
#    x 4.270580 0.085980 -0.099820 
#    y 0.085980 4.361910 0.515000 
#    z -0.099820 0.515000 4.335240 
# 
# 
# High freq. dielectric constant tensor:
#      x y z
#    x 1.935730 -0.003240 -0.003330 
#    y -0.003240 1.961350 0.008490 
#    z -0.003330 0.008490 1.940260 
# 
# From -- ./inp_files/206528.got.cif
#   From: 2010.06.25/outbox.cif.g09.slc.cpg/sg2_104_cif.got.tgz:206528.got - 2010.06.27 13:26:56.
