data_PCOD8037766
_publ_section_title
;
Structure prediction by ZEFSAII (Michael W. Deem and Ramdas Pophale) SiO2 
 PCOD8037766
Probable space group: P -1
;
_chemical_formula_sum "Si O2"
_cell_formula_units_Z 16
_cell_length_a 9.314441
_cell_length_b 17.806626
_cell_length_c 17.806812
_cell_angle_alpha 150.792452
_cell_angle_beta 28.414057
_cell_angle_gamma 139.272243
_cell_volume 685.154782
_symmetry_space_group_name_H-M "P -1"
_symmetry_group_IT_number 2
_symmetry_cell_setting 'triclinic'
loop_
_space_group_symop_operation_xyz
x,y,z
-x,-y,-z
loop_
_atom_site_type_symbol
_atom_site_label
_atom_site_fract_x
_atom_site_fract_y
_atom_site_fract_z
Si Si1 0.676318 0.289148 0.921573
Si Si2 0.638029 0.787722 0.434084
Si Si3 0.319990 0.578944 0.718475
Si Si4 0.755734 0.375681 0.796528
Si Si5 0.654889 0.991495 0.131524
Si Si6 0.304768 0.874757 0.519261
Si Si7 0.351787 0.503855 0.359841
Si Si8 0.256243 0.921618 0.995347
O O1 0.656752 0.282790 0.834881
O O2 0.436302 0.185012 0.984205
O O3 0.008673 0.251202 0.766447
O O4 0.558186 0.455840 0.150844
O O5 0.515191 0.783537 0.402363
O O6 0.443973 0.678712 0.481821
O O7 0.575684 0.949642 0.645720
O O8 0.500000 0.500000 0.500000
O O9 0.547876 0.592373 0.696021
O O10 0.047094 0.469297 0.766676
O O11 0.193383 0.749461 0.902313
O O12 0.819392 0.249436 0.591356
O O13 0.500000 0.500000 0.000000
O O14 0.608229 0.082485 0.154504
O O15 0.000000 0.000000 0.000000
O O16 0.500000 0.000000 0.500000
O O17 0.040939 0.966962 0.766094
O O18 0.000000 0.500000 0.500000
O O19 0.500000 0.000000 0.000000
#
# Coordination Sequence:
#
# PCOD8037766 Si02
#       8
#     2   2   2   2   2   2   2   2
#     4  12  28  49  76 110 151 200 255 314 382 456
#     4  12  26  49  75 107 152 198 257 310 378 457
#     4  12  28  50  77 112 155 198 256 316 385 461
#     4  12  28  48  77 111 153 202 251 319 389 456
#     4  12  26  49  73 109 151 197 253 306 380 456
#     4  12  28  48  75 111 152 199 253 313 389 458
#     4  12  28  49  78 109 151 200 256 316 380 455
#     4  12  28  47  77 110 153 200 251 313 383 457
#
# _framework density 23.352388000000001
#
# number of rings (size 3 to 8) (size 9 to 14) (size 15 to 20)
#    0.000    0.000    2.500    6.000   14.000    0.000 
#    0.000    0.000    0.000    0.000    0.000    0.000 
#    0.000    0.000    0.000    0.000    0.000    0.000 
#
# Total GULP energy -198446.369108 kJ/mol
# GULP energy per Si atom -12402.898069 kJ/mol
# Density = 2.329924 g / cm^3
# Si number density = 23.352388 Si / 1000 Ang^3
#
#
#
# Elastic Constant Matrix: (Units=GPa)
#
#
# Indices 1 2 3 4 5 6 
#
# 1 174.7089 48.8582 53.5599 -6.1484 -7.9111 -7.8429
# 2 48.8582 133.8954 23.2017 -4.3556 -14.4202 -0.0389
# 3 53.5599 23.2017 132.0259 -10.7964 -6.8666 7.2373
# 4 -6.1484 -4.3556 -10.7964 41.6193 5.1798 -6.2139
# 5 -7.9111 -14.4202 -6.8666 5.1798 49.1198 -5.4786
# 6 -7.8429 -0.0389 7.2373 -6.2139 -5.4786 45.9400
#
#
#
# Elastic Compliance Matrix: (Units=1/GPa)
#
#
# Indices 1 2 3 4 5 6 
#
# 1 0.007225 -0.002138 -0.002602 0.000387 0.000325 0.001733
# 2 -0.002138 0.008568 -0.000515 0.000188 0.002079 -0.000003
# 3 -0.002602 -0.000515 0.008957 0.001605 0.000334 -0.001599
# 4 0.000387 0.000188 0.001605 0.025213 -0.001984 0.002987
# 5 0.000325 0.002079 0.000334 -0.001984 0.021534 0.002304
# 6 0.001733 -0.000003 -0.001599 0.002987 0.002304 0.022994
#
#
# Mechanical properties :
#
#
# Convention : Reuss Voigt Hill
#
# Bulk Modulus (GPa) = 70.22001 76.87443 73.54722
# Shear Modulus (GPa) = 45.55949 48.33653 46.94801
#
# Velocity S-wave (km/s) = 4.42176 4.55452 4.48863
# Velocity P-wave (km/s) = 7.49695 7.78775 7.64373
#
# Compressibility (1/GPa) = 0.01424096
#
# Stress axis : x y z
#
# Youngs Moduli (GPa) = 138.40113 116.71717 111.65006
#
# Poissons Ratio (x) = 0.24949 0.29051
# Poissons Ratio (y) = 0.29584 0.05748
# Poissons Ratio (z) = 0.36011 0.06009
#
# Static dielectric constant tensor:
#      x y z
#    x 5.150280 0.130160 -0.587330 
#    y 0.130160 4.451680 0.257090 
#    z -0.587330 0.257090 4.963260 
# 
# 
# High freq. dielectric constant tensor:
#      x y z
#    x 1.937590 0.000580 0.001440 
#    y 0.000580 1.936210 0.005130 
#    z 0.001440 0.005130 1.937480 
# 
# From -- ./inp_files/456920.got.cif
#   From: 2010.06.25/outbox.cif.g09.slc.cpg/sg2_229_cif.got.tgz:456920.got - 2010.06.27 13:26:56.
