data_PCOD8037422
_publ_section_title
;
Structure prediction by ZEFSAII (Michael W. Deem and Ramdas Pophale) SiO2 
 PCOD8037422
Probable space group: P -1
;
_chemical_formula_sum "Si O2"
_cell_formula_units_Z 14
_cell_length_a 7.224446
_cell_length_b 19.501326
_cell_length_c 15.116346
_cell_angle_alpha 19.958321
_cell_angle_beta 95.977632
_cell_angle_gamma 104.070420
_cell_volume 653.489715
_symmetry_space_group_name_H-M "P -1"
_symmetry_group_IT_number 2
_symmetry_cell_setting 'triclinic'
loop_
_space_group_symop_operation_xyz
x,y,z
-x,-y,-z
loop_
_atom_site_type_symbol
_atom_site_label
_atom_site_fract_x
_atom_site_fract_y
_atom_site_fract_z
Si Si1 0.749078 0.380440 0.404373
Si Si2 0.606663 0.511715 0.723220
Si Si3 0.219940 0.504511 0.924950
Si Si4 0.025834 0.891251 0.222242
Si Si5 0.488139 0.740239 0.803804
Si Si6 0.193228 0.192781 0.030949
Si Si7 0.116780 0.919596 0.533031
O O1 0.506144 0.326545 0.456295
O O2 0.828025 0.398392 0.285221
O O3 0.787562 0.181561 0.691691
O O4 0.876601 0.612309 0.182588
O O5 0.822758 0.663915 0.505217
O O6 0.644291 0.393476 0.955845
O O7 0.446151 0.312337 0.893305
O O8 0.344563 0.710708 0.746939
O O9 0.352425 0.368120 0.074894
O O10 0.004665 0.346412 0.153829
O O11 0.083144 0.076736 0.076216
O O12 0.000000 0.000000 0.000000
O O13 0.645848 0.001904 0.514921
O O14 0.115084 0.012265 0.323463
O O15 0.000000 0.000000 0.500000
#
# Coordination Sequence:
#
# PCOD8037422 Si02
#       7
#     2   2   2   2   2   2   2
#     4   9  21  42  58  89 123 152 199 245 296 350
#     4   8  19  42  58  86 125 150 191 250 292 349
#     4   9  14  27  52  83 113 153 187 221 276 346
#     4  12  25  41  65  87 110 158 208 249 307 352
#     4   8  14  25  52  81 112 153 185 219 280 344
#     4   9  20  41  59  87 128 151 191 251 289 349
#     4   9  13  27  56  84 112 160 187 216 289 347
#
# _framework density 21.423445000000001
#
# number of rings (size 3 to 8) (size 9 to 14) (size 15 to 20)
#    0.857    2.000    2.857    0.857    0.000    2.857 
#    2.571    2.857    0.000    3.429    0.000    0.000 
#    0.000    0.000    0.000    0.000    0.000    0.000 
#
# Total GULP energy -173479.376392 kJ/mol
# GULP energy per Si atom -12391.384028 kJ/mol
# Density = 2.137468 g / cm^3
# Si number density = 21.423445 Si / 1000 Ang^3
#
#
#
# Elastic Constant Matrix: (Units=GPa)
#
#
# Indices 1 2 3 4 5 6 
#
# 1 57.4366 24.2863 19.1077 0.0845 1.5912 5.8746
# 2 24.2863 150.8161 40.0686 -2.9302 -0.1609 10.6731
# 3 19.1077 40.0686 44.3917 -2.0724 -5.4317 0.2545
# 4 0.0845 -2.9302 -2.0724 35.1887 3.3019 5.8244
# 5 1.5912 -0.1609 -5.4317 3.3019 36.8904 -0.3912
# 6 5.8746 10.6731 0.2545 5.8244 -0.3912 19.2710
#
#
#
# Elastic Compliance Matrix: (Units=1/GPa)
#
#
# Indices 1 2 3 4 5 6 
#
# 1 0.021320 -0.000635 -0.008825 0.000634 -0.002345 -0.006270
# 2 -0.000635 0.009307 -0.008197 0.001289 -0.001310 -0.005269
# 3 -0.008825 -0.008197 0.034343 -0.000311 0.005503 0.006983
# 4 0.000634 0.001289 -0.000311 0.030461 -0.002902 -0.010168
# 5 -0.002345 -0.001310 0.005503 -0.002902 0.028303 0.002819
# 6 -0.006270 -0.005269 0.006983 -0.010168 0.002819 0.059759
#
#
# Mechanical properties :
#
#
# Convention : Reuss Voigt Hill
#
# Bulk Modulus (GPa) = 33.72048 46.61885 40.16967
# Shear Modulus (GPa) = 21.86320 29.54880 25.70600
#
# Velocity S-wave (km/s) = 3.19803 3.71789 3.46772
# Velocity P-wave (km/s) = 5.42317 6.34336 5.90122
#
# Compressibility (1/GPa) = 0.02965557
#
# Stress axis : x y z
#
# Youngs Moduli (GPa) = 46.90369 107.44281 29.11768
#
# Poissons Ratio (x) = 0.06823 0.25697
# Poissons Ratio (y) = 0.02979 0.23869
# Poissons Ratio (z) = 0.41393 0.88076
#
# Static dielectric constant tensor:
#      x y z
#    x 3.801350 0.055120 0.054920 
#    y 0.055120 3.898850 -0.302870 
#    z 0.054920 -0.302870 3.661690 
# 
# 
# High freq. dielectric constant tensor:
#      x y z
#    x 1.850960 0.002410 0.009310 
#    y 0.002410 1.834290 -0.026220 
#    z 0.009310 -0.026220 1.828260 
# 
# From -- ./inp_files/507624.got.cif
#   From: 2010.06.25/outbox.cif.g09.slc.cpg/sg2_254_cif.got.tgz:507624.got - 2010.06.27 13:26:56.
