data_PCOD8037957
_publ_section_title
;
Structure prediction by ZEFSAII (Michael W. Deem and Ramdas Pophale) SiO2 
 PCOD8037957
Probable space group: P -1
;
_chemical_formula_sum "Si O2"
_cell_formula_units_Z 16
_cell_length_a 14.005212
_cell_length_b 11.993573
_cell_length_c 9.288429
_cell_angle_alpha 140.089828
_cell_angle_beta 104.325386
_cell_angle_gamma 55.538538
_cell_volume 772.275198
_symmetry_space_group_name_H-M "P -1"
_symmetry_group_IT_number 2
_symmetry_cell_setting 'triclinic'
loop_
_space_group_symop_operation_xyz
x,y,z
-x,-y,-z
loop_
_atom_site_type_symbol
_atom_site_label
_atom_site_fract_x
_atom_site_fract_y
_atom_site_fract_z
Si Si1 0.990692 0.839427 0.241857
Si Si2 0.972049 0.828344 0.901562
Si Si3 0.274186 0.036806 0.699895
Si Si4 0.637303 0.351622 0.845272
Si Si5 0.752740 0.591863 0.110508
Si Si6 0.270713 0.088455 0.072290
Si Si7 0.250956 0.804446 0.972729
Si Si8 0.240199 0.438693 0.585807
O O1 0.994514 0.895658 0.131768
O O2 0.869286 0.861217 0.259434
O O3 0.106990 0.590339 0.068818
O O4 0.000000 0.000000 0.500000
O O5 0.898068 0.036072 0.966726
O O6 0.904734 0.383854 0.330475
O O7 0.878722 0.766445 0.836319
O O8 0.301299 0.184973 0.771422
O O9 0.354864 0.793139 0.425121
O O10 0.322759 0.016803 0.860276
O O11 0.500000 0.500000 0.000000
O O12 0.672678 0.506275 0.957176
O O13 0.732911 0.184965 0.840079
O O14 0.745040 0.645310 0.329488
O O15 0.306830 0.234933 0.300142
O O16 0.324426 0.872375 0.976630
O O17 0.305989 0.556086 0.708159
#
# Coordination Sequence:
#
# PCOD8037957 Si02
#       8
#     2   2   2   2   2   2   2   2
#     4  10  18  35  59  91 129 155 184 234 298 361
#     4   8  18  31  50  83 113 153 192 223 283 350
#     4  11  22  39  59  90 124 151 195 244 294 357
#     4  11  24  43  64  83 112 158 207 253 291 338
#     4  10  22  37  61  91 119 157 192 236 297 352
#     4   9  20  33  54  83 117 149 182 234 290 349
#     4   9  20  36  56  79 111 151 195 241 282 340
#     4  10  17  33  53  82 117 151 190 224 283 358
#
# _framework density 20.718003
#
# number of rings (size 3 to 8) (size 9 to 14) (size 15 to 20)
#    0.750    1.500    1.250    1.875    0.000    2.500 
#    2.250    0.625    0.000    3.750    0.000    0.000 
#    0.000    0.000    0.000    0.000    0.000    0.000 
#
# Total GULP energy -198325.378525 kJ/mol
# GULP energy per Si atom -12395.336158 kJ/mol
# Density = 2.067085 g / cm^3
# Si number density = 20.718003 Si / 1000 Ang^3
#
#
#
# Elastic Constant Matrix: (Units=GPa)
#
#
# Indices 1 2 3 4 5 6 
#
# 1 58.2463 25.6220 41.7248 11.6468 -0.5234 20.5662
# 2 25.6220 73.7935 40.6365 -8.6937 12.9595 28.2849
# 3 41.7248 40.6365 166.5215 -14.8162 18.1191 18.1686
# 4 11.6468 -8.6937 -14.8162 21.4700 0.6078 3.4014
# 5 -0.5234 12.9595 18.1191 0.6078 29.2693 10.6930
# 6 20.5662 28.2849 18.1686 3.4014 10.6930 28.8688
#
#
#
# Elastic Compliance Matrix: (Units=1/GPa)
#
#
# Indices 1 2 3 4 5 6 
#
# 1 0.041598 -0.008603 -0.011267 -0.031617 0.018481 -0.017234
# 2 -0.008603 0.028135 -0.000030 0.019646 -0.005008 -0.021878
# 3 -0.011267 -0.000030 0.010575 0.013177 -0.008041 0.002827
# 4 -0.031617 0.019646 0.013177 0.082631 -0.015899 -0.008865
# 5 0.018481 -0.005008 -0.008041 -0.015899 0.049157 -0.019533
# 6 -0.017234 -0.021878 0.002827 -0.008865 -0.019533 0.074853
#
#
# Mechanical properties :
#
#
# Convention : Reuss Voigt Hill
#
# Bulk Modulus (GPa) = 24.68781 57.16975 40.92878
# Shear Modulus (GPa) = 14.69501 28.62681 21.66091
#
# Velocity S-wave (km/s) = 2.66613 3.72120 3.23694
# Velocity P-wave (km/s) = 4.62814 6.79097 5.81107
#
# Compressibility (1/GPa) = 0.04050581
#
# Stress axis : x y z
#
# Youngs Moduli (GPa) = 24.03988 35.54313 94.56549
#
# Poissons Ratio (x) = 0.30579 1.06549
# Poissons Ratio (y) = 0.20682 0.00285
# Poissons Ratio (z) = 0.27086 0.00107
#
# Static dielectric constant tensor:
#      x y z
#    x 3.554260 0.083160 0.190380 
#    y 0.083160 3.647500 -0.170530 
#    z 0.190380 -0.170530 3.610540 
# 
# 
# High freq. dielectric constant tensor:
#      x y z
#    x 1.794470 0.013340 0.020280 
#    y 0.013340 1.798630 -0.008310 
#    z 0.020280 -0.008310 1.802480 
# 
# From -- ./inp_files/306006.got.cif
#   From: 2010.06.25/outbox.cif.g09.slc.cpg/sg2_154_cif.got.tgz:306006.got - 2010.06.27 13:26:56.
