data_PCOD8037053
_publ_section_title
;
Structure prediction by ZEFSAII (Michael W. Deem and Ramdas Pophale) SiO2 
 PCOD8037053
Probable space group: P -1
;
_chemical_formula_sum "Si O2"
_cell_formula_units_Z 14
_cell_length_a 5.473320
_cell_length_b 17.955182
_cell_length_c 9.248313
_cell_angle_alpha 127.922886
_cell_angle_beta 56.937821
_cell_angle_gamma 121.061226
_cell_volume 577.994252
_symmetry_space_group_name_H-M "P -1"
_symmetry_group_IT_number 2
_symmetry_cell_setting 'triclinic'
loop_
_space_group_symop_operation_xyz
x,y,z
-x,-y,-z
loop_
_atom_site_type_symbol
_atom_site_label
_atom_site_fract_x
_atom_site_fract_y
_atom_site_fract_z
Si Si1 0.285781 0.818605 0.685354
Si Si2 0.671233 0.007481 0.305057
Si Si3 0.253416 0.472965 0.291069
Si Si4 0.810837 0.093273 0.902825
Si Si5 0.664628 0.677081 0.715195
Si Si6 0.944730 0.292823 0.978551
Si Si7 0.324345 0.325774 0.628698
O O1 0.534410 0.764363 0.495015
O O2 0.984952 0.740277 0.749377
O O3 0.209866 0.877905 0.642981
O O4 0.391852 0.891372 0.875089
O O5 0.424069 0.956124 0.204306
O O6 0.963214 0.967471 0.183170
O O7 0.500000 0.000000 0.500000
O O8 0.442299 0.426371 0.289186
O O9 0.455262 0.570537 0.265113
O O10 0.000000 0.500000 0.500000
O O11 0.123058 0.393754 0.115723
O O12 0.029663 0.196049 0.892902
O O13 0.726478 0.661851 0.509097
O O14 0.411365 0.732363 0.897209
O O15 0.016800 0.304870 0.797478
#
# Coordination Sequence:
#
# PCOD8037053 Si02
#       7
#     2   2   2   2   2   2   2
#     4  12  26  48  75 108 149 201 251 310 388 457
#     4  12  29  47  78 115 153 197 260 319 384 461
#     4  12  23  49  70 106 151 196 249 315 379 451
#     4  12  25  50  75 111 154 203 250 320 383 457
#     4  12  24  46  73 102 153 190 254 305 384 441
#     4  12  27  45  75 109 150 194 257 310 378 452
#     4  12  27  45  75 107 148 199 252 311 380 455
#
# _framework density 24.221695
#
# number of rings (size 3 to 8) (size 9 to 14) (size 15 to 20)
#    0.000    0.000    5.714    3.857    4.000    1.714 
#    0.000    0.000    0.000    0.000    0.000    0.000 
#    0.000    0.000    0.000    0.000    0.000    0.000 
#
# Total GULP energy -173579.177872 kJ/mol
# GULP energy per Si atom -12398.512705 kJ/mol
# Density = 2.416657 g / cm^3
# Si number density = 24.221695 Si / 1000 Ang^3
#
#
#
# Elastic Constant Matrix: (Units=GPa)
#
#
# Indices 1 2 3 4 5 6 
#
# 1 109.1033 8.8241 46.6615 8.6880 11.3204 -15.4817
# 2 8.8241 73.9158 51.5093 -3.4933 -2.1218 -25.6571
# 3 46.6615 51.5093 131.7566 -18.8005 5.9551 -12.1660
# 4 8.6880 -3.4933 -18.8005 51.1576 -3.7109 -3.4723
# 5 11.3204 -2.1218 5.9551 -3.7109 19.8244 4.2352
# 6 -15.4817 -25.6571 -12.1660 -3.4723 4.2352 39.9811
#
#
#
# Elastic Compliance Matrix: (Units=1/GPa)
#
#
# Indices 1 2 3 4 5 6 
#
# 1 0.013587 0.004700 -0.006305 -0.004397 -0.007634 0.006786
# 2 0.004700 0.025247 -0.010436 -0.001936 -0.000353 0.014715
# 3 -0.006305 -0.010436 0.014253 0.005310 0.000126 -0.004354
# 4 -0.004397 -0.001936 0.005310 0.022475 0.004894 0.000104
# 5 -0.007634 -0.000353 0.000126 0.004894 0.057525 -0.008813
# 6 0.006786 0.014715 -0.004354 0.000104 -0.008813 0.036700
#
#
# Mechanical properties :
#
#
# Convention : Reuss Voigt Hill
#
# Bulk Modulus (GPa) = 34.47763 58.75173 46.61468
# Shear Modulus (GPa) = 24.56547 36.04469 30.30508
#
# Velocity S-wave (km/s) = 3.18809 3.86180 3.54100
# Velocity P-wave (km/s) = 5.27418 6.64779 6.00042
#
# Compressibility (1/GPa) = 0.02900431
#
# Stress axis : x y z
#
# Youngs Moduli (GPa) = 73.59806 39.60934 70.16250
#
# Poissons Ratio (x) = -0.18618 0.44239
# Poissons Ratio (y) = -0.34594 0.73223
# Poissons Ratio (z) = 0.46406 0.41337
#
# Static dielectric constant tensor:
#      x y z
#    x 4.200010 -0.454070 -0.162210 
#    y -0.454070 3.209840 -1.260450 
#    z -0.162210 -1.260450 3.312160 
# 
# 
# High freq. dielectric constant tensor:
#      x y z
#    x 1.947080 -0.013790 0.005390 
#    y -0.013790 1.986110 0.006180 
#    z 0.005390 0.006180 1.971520 
# 
# From -- ./inp_files/52815.got.cif
#   From: 2010.06.25/outbox.cif.g09.slc.cpg/sg2_27_cif.got.tgz:52815.got - 2010.06.27 13:26:56.
