data_PCOD8037023
_publ_section_title
;
Structure prediction by ZEFSAII (Michael W. Deem and Ramdas Pophale) SiO2 
 PCOD8037023
Probable space group: P -1
;
_chemical_formula_sum "Si O2"
_cell_formula_units_Z 16
_cell_length_a 18.171394
_cell_length_b 11.296951
_cell_length_c 8.644775
_cell_angle_alpha 121.147985
_cell_angle_beta 70.195991
_cell_angle_gamma 151.251524
_cell_volume 701.550059
_symmetry_space_group_name_H-M "P -1"
_symmetry_group_IT_number 2
_symmetry_cell_setting 'triclinic'
loop_
_space_group_symop_operation_xyz
x,y,z
-x,-y,-z
loop_
_atom_site_type_symbol
_atom_site_label
_atom_site_fract_x
_atom_site_fract_y
_atom_site_fract_z
Si Si1 0.351409 0.820523 0.588712
Si Si2 0.923832 0.490059 0.933415
Si Si3 0.376376 0.921661 0.979707
Si Si4 0.170855 0.766898 0.487836
Si Si5 0.917685 0.818847 0.593202
Si Si6 0.785900 0.874585 0.897459
Si Si7 0.782306 0.848618 0.229331
Si Si8 0.530300 0.640096 0.723597
O O1 0.402940 0.979806 0.815998
O O2 0.271662 0.805477 0.523325
O O3 0.229994 0.516235 0.535089
O O4 0.500000 0.000000 0.500000
O O5 0.832141 0.266409 0.714089
O O6 0.802223 0.400741 0.058163
O O7 0.000000 0.500000 0.000000
O O8 0.065093 0.794323 0.962421
O O9 0.500000 0.000000 0.000000
O O10 0.384302 0.080866 0.173714
O O11 0.000000 0.500000 0.500000
O O12 0.243768 0.029021 0.640482
O O13 0.838039 0.831083 0.724620
O O14 0.000000 0.000000 0.500000
O O15 0.049662 0.952734 0.699773
O O16 0.630781 0.707563 0.822480
O O17 0.749891 0.760530 0.015298
O O18 0.638085 0.560692 0.231629
O O19 0.500000 0.500000 0.500000
#
# Coordination Sequence:
#
# PCOD8037023 Si02
#       8
#     2   2   2   2   2   2   2   2
#     4  12  28  49  77 108 147 192 250 304 368 432
#     4  12  24  45  74 105 141 185 242 296 363 435
#     4  12  28  46  74 108 146 191 245 304 362 434
#     4  12  23  47  75 104 141 191 242 302 362 437
#     4  12  28  47  74 109 148 192 239 303 370 439
#     4  12  26  46  73 103 144 190 241 299 365 438
#     4  12  27  46  75 104 145 189 244 296 369 439
#     4  12  28  47  72 107 149 192 238 302 367 433
#
# _framework density 22.806640000000002
#
# number of rings (size 3 to 8) (size 9 to 14) (size 15 to 20)
#    0.000    0.000    3.750    5.250   10.500    0.000 
#    0.000    0.000    0.000    0.000    0.000    0.000 
#    0.000    0.000    0.000    0.000    0.000    0.000 
#
# Total GULP energy -198335.737136 kJ/mol
# GULP energy per Si atom -12395.983571 kJ/mol
# Density = 2.275473 g / cm^3
# Si number density = 22.806640 Si / 1000 Ang^3
#
#
#
# Elastic Constant Matrix: (Units=GPa)
#
#
# Indices 1 2 3 4 5 6 
#
# 1 146.6289 26.3455 39.0001 -6.1501 11.9263 19.9656
# 2 26.3455 97.3842 4.0263 -12.2078 12.1940 20.0490
# 3 39.0001 4.0263 112.5797 -11.8415 17.4450 3.4211
# 4 -6.1501 -12.2078 -11.8415 37.6957 -5.9491 -5.2176
# 5 11.9263 12.1940 17.4450 -5.9491 40.7483 -2.3247
# 6 19.9656 20.0490 3.4211 -5.2176 -2.3247 45.1220
#
#
#
# Elastic Compliance Matrix: (Units=1/GPa)
#
#
# Indices 1 2 3 4 5 6 
#
# 1 0.008236 -0.001445 -0.002595 -0.000519 -0.001110 -0.002923
# 2 -0.001445 0.012419 0.001065 0.002886 -0.003602 -0.004811
# 3 -0.002595 0.001065 0.010599 0.002664 -0.003708 -0.000011
# 4 -0.000519 0.002886 0.002664 0.028916 0.002496 0.002218
# 5 -0.001110 -0.003602 -0.003708 0.002496 0.028130 0.004111
# 6 -0.002923 -0.004811 -0.000011 0.002218 0.004111 0.026062
#
#
# Mechanical properties :
#
#
# Convention : Reuss Voigt Hill
#
# Bulk Modulus (GPa) = 39.52335 55.03741 47.28038
# Shear Modulus (GPa) = 38.83538 43.86125 41.34832
#
# Velocity S-wave (km/s) = 4.13099 4.39016 4.26255
# Velocity P-wave (km/s) = 6.33410 7.06276 6.70833
#
# Compressibility (1/GPa) = 0.02530150
#
# Stress axis : x y z
#
# Youngs Moduli (GPa) = 121.41240 80.52223 94.35038
#
# Poissons Ratio (x) = 0.11638 0.24488
# Poissons Ratio (y) = 0.17548 -0.10044
# Poissons Ratio (z) = 0.31512 -0.08572
#
# Static dielectric constant tensor:
#      x y z
#    x 3.811200 0.852600 1.085570 
#    y 0.852600 1.971390 -3.513690 
#    z 1.085570 -3.513690 -0.883560 
# 
# 
# High freq. dielectric constant tensor:
#      x y z
#    x 1.909090 0.008170 0.001290 
#    y 0.008170 1.923860 -0.009100 
#    z 0.001290 -0.009100 1.910630 
# 
# From -- ./inp_files/333732.got.cif
#   From: 2010.06.25/outbox.cif.g09.slc.cpg/sg2_167_cif.got.tgz:333732.got - 2010.06.27 13:26:56.
