data_PCOD8037219
_publ_section_title
;
Structure prediction by ZEFSAII (Michael W. Deem and Ramdas Pophale) SiO2 
 PCOD8037219
Probable space group: P -1
;
_chemical_formula_sum "Si O2"
_cell_formula_units_Z 16
_cell_length_a 10.619527
_cell_length_b 9.126335
_cell_length_c 9.284694
_cell_angle_alpha 51.653630
_cell_angle_beta 77.273546
_cell_angle_gamma 83.274277
_cell_volume 688.165210
_symmetry_space_group_name_H-M "P -1"
_symmetry_group_IT_number 2
_symmetry_cell_setting 'triclinic'
loop_
_space_group_symop_operation_xyz
x,y,z
-x,-y,-z
loop_
_atom_site_type_symbol
_atom_site_label
_atom_site_fract_x
_atom_site_fract_y
_atom_site_fract_z
Si Si1 0.705687 0.216455 0.980289
Si Si2 0.440540 0.386126 0.955645
Si Si3 0.786577 0.845974 0.694159
Si Si4 0.925346 0.481450 0.881956
Si Si5 0.896334 0.571413 0.374507
Si Si6 0.759235 0.192193 0.655593
Si Si7 0.286099 0.140446 0.610840
Si Si8 0.540830 0.357082 0.458176
O O1 0.563787 0.277771 0.929966
O O2 0.788710 0.365154 0.967976
O O3 0.772504 0.174714 0.835382
O O4 0.686270 0.032752 0.190437
O O5 0.387099 0.525138 0.760529
O O6 0.500000 0.500000 0.000000
O O7 0.326653 0.247938 0.122471
O O8 0.895512 0.696358 0.720933
O O9 0.747942 0.928259 0.499015
O O10 0.839377 0.022899 0.668050
O O11 0.026579 0.374545 0.821921
O O12 0.000000 0.500000 0.000000
O O13 0.801435 0.398812 0.467395
O O14 0.825753 0.746303 0.351917
O O15 0.000000 0.500000 0.500000
O O16 0.618374 0.187905 0.616668
O O17 0.412103 0.268172 0.476178
O O18 0.500000 0.500000 0.500000
#
# Coordination Sequence:
#
# PCOD8037219 Si02
#       8
#     2   2   2   2   2   2   2   2
#     4  12  27  49  71 107 144 187 234 293 357 423
#     4  12  24  45  78 101 147 186 229 295 357 418
#     4  12  28  47  72 110 142 182 238 295 355 420
#     4  12  29  49  73 103 141 189 244 289 350 418
#     4  12  25  51  73  95 144 193 233 293 349 412
#     4  12  28  45  75 108 143 183 239 293 355 422
#     4  12  27  47  74 105 144 187 235 291 356 423
#     4  12  24  45  76 106 139 189 234 284 361 424
#
# _framework density 23.250229999999998
#
# number of rings (size 3 to 8) (size 9 to 14) (size 15 to 20)
#    0.000    0.000    7.500    0.750    8.750    4.000 
#    0.000    0.000    0.000    0.000    0.000    0.000 
#    0.000    0.000    0.000    0.000    0.000    0.000 
#
# Total GULP energy -198296.754025 kJ/mol
# GULP energy per Si atom -12393.547127 kJ/mol
# Density = 2.319731 g / cm^3
# Si number density = 23.250230 Si / 1000 Ang^3
#
#
#
# Elastic Constant Matrix: (Units=GPa)
#
#
# Indices 1 2 3 4 5 6 
#
# 1 59.2540 7.4426 16.9886 11.3575 11.2996 -0.3562
# 2 7.4426 122.4764 26.4227 6.1553 6.4365 5.2889
# 3 16.9886 26.4227 134.7762 9.2466 13.2718 4.3403
# 4 11.3575 6.1553 9.2466 37.6693 0.7838 5.5608
# 5 11.2996 6.4365 13.2718 0.7838 35.4781 8.0901
# 6 -0.3562 5.2889 4.3403 5.5608 8.0901 29.6841
#
#
#
# Elastic Compliance Matrix: (Units=1/GPa)
#
#
# Indices 1 2 3 4 5 6 
#
# 1 0.019695 -0.000394 -0.001492 -0.005869 -0.006274 0.003334
# 2 -0.000394 0.008626 -0.001494 -0.000762 -0.000634 -0.001008
# 3 -0.001492 -0.001494 0.008215 -0.001261 -0.002277 -0.000096
# 4 -0.005869 -0.000762 -0.001261 0.029595 0.003234 -0.006176
# 5 -0.006274 -0.000634 -0.002277 0.003234 0.033197 -0.009283
# 6 0.003334 -0.001008 -0.000096 -0.006176 -0.009283 0.037608
#
#
# Mechanical properties :
#
#
# Convention : Reuss Voigt Hill
#
# Bulk Modulus (GPa) = 33.58574 46.46825 40.02700
# Shear Modulus (GPa) = 32.54736 38.27648 35.41192
#
# Velocity S-wave (km/s) = 3.74555 4.06184 3.90690
# Velocity P-wave (km/s) = 5.76040 6.48287 6.13228
#
# Compressibility (1/GPa) = 0.02977454
#
# Stress axis : x y z
#
# Youngs Moduli (GPa) = 50.77372 115.92459 121.73509
#
# Poissons Ratio (x) = 0.04570 0.18166
# Poissons Ratio (y) = 0.02002 0.18191
# Poissons Ratio (z) = 0.07577 0.17323
#
# Static dielectric constant tensor:
#      x y z
#    x 6.718730 -0.445130 0.098580 
#    y -0.445130 4.407340 -0.184480 
#    z 0.098580 -0.184480 4.098080 
# 
# 
# High freq. dielectric constant tensor:
#      x y z
#    x 1.916780 0.001240 0.008900 
#    y 0.001240 1.933320 0.010190 
#    z 0.008900 0.010190 1.922360 
# 
# From -- ./inp_files/226084.got.cif
#   From: 2010.06.25/outbox.cif.g09.slc.cpg/sg2_114_cif.got.tgz:226084.got - 2010.06.27 13:26:56.
