data_PCOD8037792
_publ_section_title
;
Structure prediction by ZEFSAII (Michael W. Deem and Ramdas Pophale) SiO2 
 PCOD8037792
Probable space group: P -1
;
_chemical_formula_sum "Si O2"
_cell_formula_units_Z 12
_cell_length_a 7.921181
_cell_length_b 9.876527
_cell_length_c 9.561860
_cell_angle_alpha 92.438750
_cell_angle_beta 111.706024
_cell_angle_gamma 134.749496
_cell_volume 438.504993
_symmetry_space_group_name_H-M "P -1"
_symmetry_group_IT_number 2
_symmetry_cell_setting 'triclinic'
loop_
_space_group_symop_operation_xyz
x,y,z
-x,-y,-z
loop_
_atom_site_type_symbol
_atom_site_label
_atom_site_fract_x
_atom_site_fract_y
_atom_site_fract_z
Si Si1 0.638957 0.919039 0.758430
Si Si2 0.973710 0.624877 0.204839
Si Si3 0.153301 0.836906 0.663220
Si Si4 0.612816 0.827033 0.053052
Si Si5 0.611840 0.371684 0.578323
Si Si6 0.813041 0.760376 0.341829
O O1 0.323123 0.806513 0.655284
O O2 0.629210 0.811034 0.618402
O O3 0.693723 0.869928 0.916741
O O4 0.883061 0.174018 0.833357
O O5 0.822356 0.605150 0.294876
O O6 0.223015 0.665248 0.320444
O O7 0.720766 0.403891 0.031937
O O8 0.829828 0.607488 0.591773
O O9 0.105886 0.935798 0.539254
O O10 0.334349 0.993644 0.858305
O O11 0.826018 0.847872 0.201597
O O12 0.471763 0.366050 0.667213
#
# Coordination Sequence:
#
# PCOD8037792 Si02
#       6
#     2   2   2   2   2   2
#     4  12  27  51  84 114 155 213 258 325 389 462
#     4  12  28  52  83 115 160 205 264 321 395 461
#     4  12  26  51  84 117 157 208 265 318 395 467
#     4  12  29  50  80 120 160 202 263 328 389 463
#     4  12  27  52  86 112 160 209 263 321 389 472
#     4  12  29  52  78 119 157 209 263 319 391 471
#
# _framework density 27.365708999999999
#
# number of rings (size 3 to 8) (size 9 to 14) (size 15 to 20)
#    0.000    0.000    3.333    5.000    7.000    2.000 
#    0.000    0.000    0.000    0.000    0.000    0.000 
#    0.000    0.000    0.000    0.000    0.000    0.000 
#
# Total GULP energy -148823.820977 kJ/mol
# GULP energy per Si atom -12401.985081 kJ/mol
# Density = 2.730342 g / cm^3
# Si number density = 27.365709 Si / 1000 Ang^3
#
#
#
# Elastic Constant Matrix: (Units=GPa)
#
#
# Indices 1 2 3 4 5 6 
#
# 1 161.1630 21.4105 50.9835 -22.1299 4.1148 12.8590
# 2 21.4105 131.9233 64.3923 7.2578 -1.4503 -4.3038
# 3 50.9835 64.3923 185.4341 -13.7945 5.7181 -7.7142
# 4 -22.1299 7.2578 -13.7945 58.2277 -4.8002 -0.9957
# 5 4.1148 -1.4503 5.7181 -4.8002 31.2399 -0.7795
# 6 12.8590 -4.3038 -7.7142 -0.9957 -0.7795 22.0528
#
#
#
# Elastic Compliance Matrix: (Units=1/GPa)
#
#
# Indices 1 2 3 4 5 6 
#
# 1 0.007643 -0.000613 -0.001910 0.002404 -0.000445 -0.005152
# 2 -0.000613 0.009418 -0.003241 -0.002091 0.000815 0.000996
# 3 -0.001910 -0.003241 0.007303 0.001382 -0.000947 0.003065
# 4 0.002404 -0.002091 0.001382 0.018852 0.002220 -0.000397
# 5 -0.000445 0.000815 -0.000947 0.002220 0.032655 0.001342
# 6 -0.005152 0.000996 0.003065 -0.000397 0.001342 0.049646
#
#
# Mechanical properties :
#
#
# Convention : Reuss Voigt Hill
#
# Bulk Modulus (GPa) = 77.91105 83.56588 80.73846
# Shear Modulus (GPa) = 35.37967 45.08637 40.23302
#
# Velocity S-wave (km/s) = 3.59952 4.06341 3.83848
# Velocity P-wave (km/s) = 6.76812 7.25383 7.01518
#
# Compressibility (1/GPa) = 0.01283515
#
# Stress axis : x y z
#
# Youngs Moduli (GPa) = 130.83553 106.17815 136.93088
#
# Poissons Ratio (x) = 0.06512 0.26157
# Poissons Ratio (y) = 0.08024 0.44380
# Poissons Ratio (z) = 0.24993 0.34413
#
# Static dielectric constant tensor:
#      x y z
#    x 5.166150 -0.154640 -0.085520 
#    y -0.154640 4.918190 -0.061140 
#    z -0.085520 -0.061140 5.106800 
# 
# 
# High freq. dielectric constant tensor:
#      x y z
#    x 2.119680 -0.003710 0.002560 
#    y -0.003710 2.103670 -0.000340 
#    z 0.002560 -0.000340 2.112120 
# 
# From -- ./inp_files/170813.got.cif
#   From: 2010.06.25/outbox.cif.g09.slc.cpg/sg2_86_cif.got.tgz:170813.got - 2010.06.27 13:26:56.
