data_PCOD8037095
_publ_section_title
;
Structure prediction by ZEFSAII (Michael W. Deem and Ramdas Pophale) SiO2 
 PCOD8037095
Probable space group: P -1
;
_chemical_formula_sum "Si O2"
_cell_formula_units_Z 16
_cell_length_a 9.200222
_cell_length_b 14.036345
_cell_length_c 11.757618
_cell_angle_alpha 150.468952
_cell_angle_beta 94.292581
_cell_angle_gamma 78.453393
_cell_volume 717.568926
_symmetry_space_group_name_H-M "P -1"
_symmetry_group_IT_number 2
_symmetry_cell_setting 'triclinic'
loop_
_space_group_symop_operation_xyz
x,y,z
-x,-y,-z
loop_
_atom_site_type_symbol
_atom_site_label
_atom_site_fract_x
_atom_site_fract_y
_atom_site_fract_z
Si Si1 0.848002 0.138392 0.684289
Si Si2 0.834920 0.346402 0.143876
Si Si3 0.345465 0.159630 0.642203
Si Si4 0.605050 0.019867 0.132385
Si Si5 0.433942 0.326973 0.605349
Si Si6 0.839121 0.601034 0.755676
Si Si7 0.716899 0.472486 0.830811
Si Si8 0.675358 0.357064 0.358077
O O1 0.775814 0.302972 0.754590
O O2 0.764341 0.971679 0.532926
O O3 0.860678 0.241408 0.912928
O O4 0.000000 0.000000 0.500000
O O5 0.709688 0.561106 0.361195
O O6 0.748432 0.243077 0.126016
O O7 0.994025 0.373663 0.223887
O O8 0.361201 0.315565 0.710195
O O9 0.500000 0.000000 0.500000
O O10 0.294814 0.301679 0.894719
O O11 0.504132 0.108472 0.328420
O O12 0.693281 0.181584 0.269334
O O13 0.500000 0.000000 0.000000
O O14 0.719424 0.819620 0.977769
O O15 0.555546 0.456765 0.758436
O O16 0.831651 0.462476 0.721971
O O17 0.791366 0.487770 0.528802
O O18 0.500000 0.500000 0.500000
#
# Coordination Sequence:
#
# PCOD8037095 Si02
#       8
#     2   2   2   2   2   2   2   2
#     4  12  29  47  70 109 152 197 246 299 372 433
#     4  12  27  47  73 108 149 191 241 304 367 430
#     4  12  24  42  71 102 138 190 250 299 353 429
#     4  12  26  46  76 107 141 191 245 296 371 440
#     4  12  24  45  72 104 145 192 245 300 360 431
#     4  12  27  46  75 107 146 191 242 302 369 435
#     4  12  25  48  73 102 151 194 247 303 363 434
#     4  12  24  50  77 105 145 190 239 305 367 433
#
# _framework density 22.297508000000001
#
# number of rings (size 3 to 8) (size 9 to 14) (size 15 to 20)
#    0.000    0.000    6.250    3.000    5.250    1.500 
#    0.000    0.000    0.000    0.000    0.000    0.000 
#    0.000    0.000    0.000    0.000    0.000    0.000 
#
# Total GULP energy -198228.115002 kJ/mol
# GULP energy per Si atom -12389.257188 kJ/mol
# Density = 2.224676 g / cm^3
# Si number density = 22.297508 Si / 1000 Ang^3
#
#
#
# Elastic Constant Matrix: (Units=GPa)
#
#
# Indices 1 2 3 4 5 6 
#
# 1 141.5587 26.5277 43.0559 -8.1414 -2.7148 -4.6458
# 2 26.5277 79.9064 25.6985 -7.5773 -8.5572 7.3273
# 3 43.0559 25.6985 111.6215 -4.5035 -3.8320 -7.7966
# 4 -8.1414 -7.5773 -4.5035 38.3274 5.4374 -3.1140
# 5 -2.7148 -8.5572 -3.8320 5.4374 39.3548 -4.1771
# 6 -4.6458 7.3273 -7.7966 -3.1140 -4.1771 41.7607
#
#
#
# Elastic Compliance Matrix: (Units=1/GPa)
#
#
# Indices 1 2 3 4 5 6 
#
# 1 0.008323 -0.001885 -0.002677 0.001172 -0.000171 0.000827
# 2 -0.001885 0.014680 -0.002715 0.001623 0.002261 -0.002945
# 3 -0.002677 -0.002715 0.010803 0.000280 0.000478 0.002264
# 4 0.001172 0.001623 0.000280 0.027270 -0.003135 0.001618
# 5 -0.000171 0.002261 0.000478 -0.003135 0.026592 0.002100
# 6 0.000827 -0.002945 0.002264 0.001618 0.002100 0.025308
#
#
# Mechanical properties :
#
#
# Convention : Reuss Voigt Hill
#
# Bulk Modulus (GPa) = 51.94736 58.18343 55.06539
# Shear Modulus (GPa) = 37.32809 39.74221 38.53515
#
# Velocity S-wave (km/s) = 4.09601 4.22638 4.16170
# Velocity P-wave (km/s) = 6.76148 7.06875 6.91682
#
# Compressibility (1/GPa) = 0.01925026
#
# Stress axis : x y z
#
# Youngs Moduli (GPa) = 120.14824 68.12110 92.57089
#
# Poissons Ratio (x) = 0.12841 0.24784
# Poissons Ratio (y) = 0.22649 0.25135
# Poissons Ratio (z) = 0.32167 0.18496
#
# Static dielectric constant tensor:
#      x y z
#    x 4.031180 0.068580 0.029040 
#    y 0.068580 4.160330 -0.082200 
#    z 0.029040 -0.082200 4.214440 
# 
# 
# High freq. dielectric constant tensor:
#      x y z
#    x 1.880660 0.009610 -0.000480 
#    y 0.009610 1.892850 -0.011460 
#    z -0.000480 -0.011460 1.888020 
# 
# From -- ./inp_files/400043.got.cif
#   From: 2010.06.25/outbox.cif.g09.slc.cpg/sg2_201_cif.got.tgz:400043.got - 2010.06.27 13:26:56.
