data_PCOD8037122
_publ_section_title
;
Structure prediction by ZEFSAII (Michael W. Deem and Ramdas Pophale) SiO2 
 PCOD8037122
Probable space group: P -1
;
_chemical_formula_sum "Si O2"
_cell_formula_units_Z 16
_cell_length_a 11.232999
_cell_length_b 10.492203
_cell_length_c 16.325982
_cell_angle_alpha 78.682912
_cell_angle_beta 158.816745
_cell_angle_gamma 98.724433
_cell_volume 679.116104
_symmetry_space_group_name_H-M "P -1"
_symmetry_group_IT_number 2
_symmetry_cell_setting 'triclinic'
loop_
_space_group_symop_operation_xyz
x,y,z
-x,-y,-z
loop_
_atom_site_type_symbol
_atom_site_label
_atom_site_fract_x
_atom_site_fract_y
_atom_site_fract_z
Si Si1 0.894366 0.963946 0.259192
Si Si2 0.426216 0.622246 0.996485
Si Si3 0.762546 0.777548 0.518749
Si Si4 0.778759 0.782560 0.084979
Si Si5 0.350066 0.414414 0.228408
Si Si6 0.284393 0.749992 0.642624
Si Si7 0.405701 0.649158 0.440990
Si Si8 0.293080 0.374560 0.647719
O O1 0.109984 0.082554 0.400886
O O2 0.966301 0.907757 0.219376
O O3 0.016255 0.853692 0.417365
O O4 0.500000 0.000000 0.000000
O O5 0.044957 0.663662 0.732481
O O6 0.500000 0.500000 0.000000
O O7 0.665222 0.729074 0.106753
O O8 0.468196 0.609250 0.123425
O O9 0.476079 0.752002 0.402698
O O10 0.637287 0.758939 0.346408
O O11 0.013885 0.674420 0.201884
O O12 0.448611 0.820280 0.815487
O O13 0.402375 0.305841 0.204472
O O14 0.401686 0.328091 0.354172
O O15 0.643505 0.509844 0.390117
O O16 0.000000 0.500000 0.000000
O O17 0.088393 0.626586 0.565180
O O18 0.500000 0.500000 0.500000
#
# Coordination Sequence:
#
# PCOD8037122 Si02
#       8
#     2   2   2   2   2   2   2   2
#     4  12  25  50  73 106 146 192 247 300 354 425
#     4  12  24  43  72 107 141 179 239 308 364 422
#     4  12  27  44  72 105 137 197 240 287 364 429
#     4  12  25  46  72 104 147 191 239 297 364 421
#     4  12  25  44  73 108 145 185 235 302 370 434
#     4  12  25  45  75 107 141 190 241 298 360 426
#     4  12  24  47  71 103 154 184 235 305 366 433
#     4  12  24  44  72 108 142 183 244 296 363 431
#
# _framework density 23.560036
#
# number of rings (size 3 to 8) (size 9 to 14) (size 15 to 20)
#    0.000    0.000    6.250    3.375    1.750    3.500 
#    0.000    0.625    0.000    0.000    0.000    0.000 
#    0.000    0.000    0.000    0.000    0.000    0.000 
#
# Total GULP energy -198237.546295 kJ/mol
# GULP energy per Si atom -12389.846643 kJ/mol
# Density = 2.350641 g / cm^3
# Si number density = 23.560036 Si / 1000 Ang^3
#
#
#
# Elastic Constant Matrix: (Units=GPa)
#
#
# Indices 1 2 3 4 5 6 
#
# 1 139.2721 35.4464 47.3969 5.8805 -14.3863 -5.6190
# 2 35.4464 91.8019 34.6069 7.6784 -18.9755 -18.3350
# 3 47.3969 34.6069 102.7225 -9.9027 -18.9344 -3.5621
# 4 5.8805 7.6784 -9.9027 40.8351 -13.5900 -3.6973
# 5 -14.3863 -18.9755 -18.9344 -13.5900 45.6613 9.5556
# 6 -5.6190 -18.3350 -3.5621 -3.6973 9.5556 29.7656
#
#
#
# Elastic Compliance Matrix: (Units=1/GPa)
#
#
# Indices 1 2 3 4 5 6 
#
# 1 0.009002 -0.001977 -0.003675 -0.001838 -0.000018 -0.000180
# 2 -0.001977 0.015188 -0.003807 -0.002183 0.001858 0.007659
# 3 -0.003675 -0.003807 0.014267 0.006341 0.005550 -0.002325
# 4 -0.001838 -0.002183 0.006341 0.030049 0.010185 -0.000470
# 5 -0.000018 0.001858 0.005550 0.010185 0.029327 -0.006345
# 6 -0.000180 0.007659 -0.002325 -0.000470 -0.006345 0.039980
#
#
# Mechanical properties :
#
#
# Convention : Reuss Voigt Hill
#
# Bulk Modulus (GPa) = 51.17712 63.18851 57.18282
# Shear Modulus (GPa) = 30.62930 37.67547 34.15239
#
# Velocity S-wave (km/s) = 3.60954 4.00325 3.81148
# Velocity P-wave (km/s) = 6.25626 6.94596 6.61012
#
# Compressibility (1/GPa) = 0.01953998
#
# Stress axis : x y z
#
# Youngs Moduli (GPa) = 111.08297 65.84298 70.09318
#
# Poissons Ratio (x) = 0.13016 0.25756
# Poissons Ratio (y) = 0.21959 0.26684
# Poissons Ratio (z) = 0.40818 0.25066
#
# Static dielectric constant tensor:
#      x y z
#    x 4.989100 -0.181790 -0.084630 
#    y -0.181790 4.326130 0.100140 
#    z -0.084630 0.100140 4.190920 
# 
# 
# High freq. dielectric constant tensor:
#      x y z
#    x 1.951950 -0.021770 -0.012820 
#    y -0.021770 1.914470 0.010100 
#    z -0.012820 0.010100 1.930650 
# 
# From -- ./inp_files/569175.got.cif
#   From: 2010.06.25/outbox.cif.g09.slc.cpg/sg2_285_cif.got.tgz:569175.got - 2010.06.27 13:26:56.
