data_PCOD8037721
_publ_section_title
;
Structure prediction by ZEFSAII (Michael W. Deem and Ramdas Pophale) SiO2 
 PCOD8037721
Probable space group: P -1
;
_chemical_formula_sum "Si O2"
_cell_formula_units_Z 16
_cell_length_a 8.430936
_cell_length_b 15.697124
_cell_length_c 8.292712
_cell_angle_alpha 65.339925
_cell_angle_beta 127.723097
_cell_angle_gamma 84.115086
_cell_volume 684.225595
_symmetry_space_group_name_H-M "P -1"
_symmetry_group_IT_number 2
_symmetry_cell_setting 'triclinic'
loop_
_space_group_symop_operation_xyz
x,y,z
-x,-y,-z
loop_
_atom_site_type_symbol
_atom_site_label
_atom_site_fract_x
_atom_site_fract_y
_atom_site_fract_z
Si Si1 0.226231 0.930613 0.296598
Si Si2 0.688242 0.807038 0.501269
Si Si3 0.784017 0.990070 0.430611
Si Si4 0.318735 0.545585 0.494744
Si Si5 0.634066 0.796694 0.118612
Si Si6 0.154915 0.734591 0.460631
Si Si7 0.891761 0.591043 0.995641
Si Si8 0.534569 0.629545 0.002150
O O1 0.448020 0.898345 0.352221
O O2 0.222150 0.826480 0.438140
O O3 0.239552 0.998089 0.401162
O O4 0.000000 0.000000 0.000000
O O5 0.832128 0.869816 0.510848
O O6 0.639073 0.766580 0.333385
O O7 0.822302 0.706625 0.783357
O O8 0.000000 0.000000 0.500000
O O9 0.552406 0.078796 0.127095
O O10 0.500000 0.500000 0.500000
O O11 0.281009 0.660388 0.441215
O O12 0.396778 0.467383 0.757600
O O13 0.076704 0.561823 0.273654
O O14 0.884673 0.777831 0.242327
O O15 0.568602 0.722272 0.031919
O O16 0.268619 0.670665 0.749995
O O17 0.677672 0.591890 0.952435
O O18 0.000000 0.500000 0.000000
#
# Coordination Sequence:
#
# PCOD8037721 Si02
#       8
#     2   2   2   2   2   2   2   2
#     4  12  26  47  76 109 154 192 252 322 378 456
#     4  12  27  45  78 111 151 202 255 313 381 458
#     4  12  26  50  76 112 153 202 255 312 386 454
#     4  12  29  45  77 111 151 200 260 314 382 459
#     4  12  26  47  76 111 151 201 252 312 385 453
#     4  12  26  48  75 111 152 199 255 309 386 453
#     4  12  26  48  75 113 153 200 256 314 382 454
#     4  12  26  52  74 108 155 201 249 322 381 451
#
# _framework density 23.3841
#
# number of rings (size 3 to 8) (size 9 to 14) (size 15 to 20)
#    0.000    0.000    3.750    5.250    7.000    0.000 
#    0.000    0.000    0.000    0.000    0.000    0.000 
#    0.000    0.000    0.000    0.000    0.000    0.000 
#
# Total GULP energy -198476.060495 kJ/mol
# GULP energy per Si atom -12404.753781 kJ/mol
# Density = 2.333088 g / cm^3
# Si number density = 23.384100 Si / 1000 Ang^3
#
#
#
# Elastic Constant Matrix: (Units=GPa)
#
#
# Indices 1 2 3 4 5 6 
#
# 1 112.8006 27.2351 39.3244 -7.7285 0.7159 -10.2182
# 2 27.2351 109.5342 29.6270 1.5490 2.4163 -10.5392
# 3 39.3244 29.6270 158.9797 -2.9745 1.1946 2.7452
# 4 -7.7285 1.5490 -2.9745 41.5219 4.4603 -4.1424
# 5 0.7159 2.4163 1.1946 4.4603 42.5124 5.1569
# 6 -10.2182 -10.5392 2.7452 -4.1424 5.1569 40.7417
#
#
#
# Elastic Compliance Matrix: (Units=1/GPa)
#
#
# Indices 1 2 3 4 5 6 
#
# 1 0.010467 -0.001758 -0.002262 0.002173 -0.000558 0.002614
# 2 -0.001758 0.010226 -0.001515 -0.000503 -0.000741 0.002349
# 3 -0.002262 -0.001515 0.007156 -0.000008 0.000100 -0.001455
# 4 0.002173 -0.000503 -0.000008 0.025170 -0.003056 0.003361
# 5 -0.000558 -0.000741 0.000100 -0.003056 0.024344 -0.003731
# 6 0.002614 0.002349 -0.001455 0.003361 -0.003731 0.026720
#
#
# Mechanical properties :
#
#
# Convention : Reuss Voigt Hill
#
# Bulk Modulus (GPa) = 59.59577 63.74306 61.66941
# Shear Modulus (GPa) = 41.40882 43.96376 42.68629
#
# Velocity S-wave (km/s) = 4.21267 4.34068 4.27715
# Velocity P-wave (km/s) = 7.01448 7.24157 7.12893
#
# Compressibility (1/GPa) = 0.01677972
#
# Stress axis : x y z
#
# Youngs Moduli (GPa) = 95.53506 97.79013 139.73871
#
# Poissons Ratio (x) = 0.17189 0.31607
# Poissons Ratio (y) = 0.16792 0.21175
# Poissons Ratio (z) = 0.21609 0.14818
#
# Static dielectric constant tensor:
#      x y z
#    x 3.500070 -1.916170 2.833750 
#    y -1.916170 0.097370 6.915730 
#    z 2.833750 6.915730 -5.922380 
# 
# 
# High freq. dielectric constant tensor:
#      x y z
#    x 1.922280 -0.007150 0.004980 
#    y -0.007150 1.943700 0.007540 
#    z 0.004980 0.007540 1.948520 
# 
# From -- ./inp_files/206529.got.cif
#   From: 2010.06.25/outbox.cif.g09.slc.cpg/sg2_104_cif.got.tgz:206529.got - 2010.06.27 13:26:56.
