data_PCOD8037547
_publ_section_title
;
Structure prediction by ZEFSAII (Michael W. Deem and Ramdas Pophale) SiO2 
 PCOD8037547
Probable space group: P -1
;
_chemical_formula_sum "Si O2"
_cell_formula_units_Z 12
_cell_length_a 14.749113
_cell_length_b 18.223920
_cell_length_c 9.034395
_cell_angle_alpha 41.185048
_cell_angle_beta 41.047885
_cell_angle_gamma 21.161164
_cell_volume 563.083221
_symmetry_space_group_name_H-M "P -1"
_symmetry_group_IT_number 2
_symmetry_cell_setting 'triclinic'
loop_
_space_group_symop_operation_xyz
x,y,z
-x,-y,-z
loop_
_atom_site_type_symbol
_atom_site_label
_atom_site_fract_x
_atom_site_fract_y
_atom_site_fract_z
Si Si1 0.795082 0.825694 0.912431
Si Si2 0.994966 0.732692 0.486427
Si Si3 0.520094 0.459005 0.866632
Si Si4 0.080032 0.439970 0.323731
Si Si5 0.650017 0.124057 0.123271
Si Si6 0.972319 0.903267 0.763265
O O1 0.813109 0.931920 0.808672
O O2 0.908327 0.750107 0.724995
O O3 0.943386 0.631946 0.115330
O O4 0.500000 0.000000 0.000000
O O5 0.270578 0.602026 0.369972
O O6 0.020401 0.609704 0.534961
O O7 0.793991 0.956212 0.326278
O O8 0.251312 0.660301 0.811371
O O9 0.500000 0.500000 0.000000
O O10 0.599411 0.277748 0.023685
O O11 0.387038 0.240319 0.228075
O O12 0.000000 0.500000 0.500000
O O13 0.826691 0.017247 0.924144
O O14 0.000000 0.000000 0.500000
#
# Coordination Sequence:
#
# PCOD8037547 Si02
#       6
#     2   2   2   2   2   2
#     4  12  27  47  69 106 144 183 239 293 348 416
#     4  12  26  43  75 102 141 189 232 291 353 417
#     4  12  26  47  73 107 143 183 237 287 352 420
#     4  12  25  47  73 102 142 187 239 292 348 415
#     4  12  25  49  72 103 141 186 239 286 353 415
#     4  12  28  46  74 106 143 187 232 293 350 417
#
# _framework density 21.311237999999999
#
# number of rings (size 3 to 8) (size 9 to 14) (size 15 to 20)
#    0.000    0.000    3.333    6.500    7.000    1.333 
#    0.000    0.000    0.000    0.000    0.000    0.000 
#    0.000    0.000    0.000    0.000    0.000    0.000 
#
# Total GULP energy -148908.769969 kJ/mol
# GULP energy per Si atom -12409.064164 kJ/mol
# Density = 2.126273 g / cm^3
# Si number density = 21.311238 Si / 1000 Ang^3
#
#
#
# Elastic Constant Matrix: (Units=GPa)
#
#
# Indices 1 2 3 4 5 6 
#
# 1 133.8078 46.1500 53.6204 -13.4753 -8.5584 6.5620
# 2 46.1500 119.3255 66.9256 0.1119 4.8289 -6.3160
# 3 53.6204 66.9256 156.8559 -9.7116 13.8722 0.5554
# 4 -13.4753 0.1119 -9.7116 37.7229 2.3141 -15.4456
# 5 -8.5584 4.8289 13.8722 2.3141 53.8541 1.8435
# 6 6.5620 -6.3160 0.5554 -15.4456 1.8435 48.3273
#
#
#
# Elastic Compliance Matrix: (Units=1/GPa)
#
#
# Indices 1 2 3 4 5 6 
#
# 1 0.009718 -0.002645 -0.002247 0.002362 0.002292 -0.000972
# 2 -0.002645 0.011867 -0.004218 -0.001420 -0.000389 0.001520
# 3 -0.002247 -0.004218 0.009276 0.001891 -0.002461 0.000345
# 4 0.002362 -0.001420 0.001891 0.031937 -0.001690 0.009744
# 5 0.002292 -0.000389 -0.002461 -0.001690 0.019730 -0.001627
# 6 -0.000972 0.001520 0.000345 0.009744 -0.001627 0.024195
#
#
# Mechanical properties :
#
#
# Convention : Reuss Voigt Hill
#
# Bulk Modulus (GPa) = 79.09918 82.59792 80.84855
# Shear Modulus (GPa) = 38.71291 44.20040 41.45665
#
# Velocity S-wave (km/s) = 4.26672 4.55911 4.41534
# Velocity P-wave (km/s) = 7.84028 8.15818 8.00081
#
# Compressibility (1/GPa) = 0.01264236
#
# Stress axis : x y z
#
# Youngs Moduli (GPa) = 102.90125 84.27079 107.80064
#
# Poissons Ratio (x) = 0.22289 0.24218
# Poissons Ratio (y) = 0.27216 0.45468
# Poissons Ratio (z) = 0.23117 0.35544
#
# Static dielectric constant tensor:
#      x y z
#    x 4.145630 -0.132020 -0.099980 
#    y -0.132020 3.985710 -0.031230 
#    z -0.099980 -0.031230 4.012730 
# 
# 
# High freq. dielectric constant tensor:
#      x y z
#    x 1.857980 -0.001260 -0.004850 
#    y -0.001260 1.854000 0.002150 
#    z -0.004850 0.002150 1.857400 
# 
# From -- ./inp_files/16956.got.cif
#   From: 2010.06.25/outbox.cif.g09.slc.cpg/sg2_9_cif.got.tgz:16956.got - 2010.06.27 13:26:56.
