data_PCOD8037572
_publ_section_title
;
Structure prediction by ZEFSAII (Michael W. Deem and Ramdas Pophale) SiO2 
 PCOD8037572
Probable space group: P -1
;
_chemical_formula_sum "Si O2"
_cell_formula_units_Z 12
_cell_length_a 19.213892
_cell_length_b 9.094280
_cell_length_c 8.022483
_cell_angle_alpha 134.889074
_cell_angle_beta 31.240950
_cell_angle_gamma 134.299872
_cell_volume 497.569386
_symmetry_space_group_name_H-M "P -1"
_symmetry_group_IT_number 2
_symmetry_cell_setting 'triclinic'
loop_
_space_group_symop_operation_xyz
x,y,z
-x,-y,-z
loop_
_atom_site_type_symbol
_atom_site_label
_atom_site_fract_x
_atom_site_fract_y
_atom_site_fract_z
Si Si1 0.991828 0.957536 0.682886
Si Si2 0.792534 0.293220 0.883907
Si Si3 0.575706 0.894669 0.888678
Si Si4 0.392260 0.509629 0.085648
Si Si5 0.721412 0.672434 0.151157
Si Si6 0.125347 0.422459 0.758370
O O1 0.063311 0.776740 0.461991
O O2 0.066788 0.194483 0.791315
O O3 0.000000 0.000000 0.500000
O O4 0.836957 0.878465 0.008485
O O5 0.673455 0.072201 0.946823
O O6 0.781700 0.462037 0.894421
O O7 0.780987 0.407274 0.172962
O O8 0.660435 0.742470 0.502954
O O9 0.442943 0.763925 0.159340
O O10 0.500000 0.000000 0.000000
O O11 0.231685 0.409895 0.382758
O O12 0.500000 0.500000 0.000000
O O13 0.399098 0.393351 0.798274
O O14 0.000000 0.500000 0.000000
#
# Coordination Sequence:
#
# PCOD8037572 Si02
#       6
#     2   2   2   2   2   2
#     4  12  25  47  76 112 143 194 249 302 379 441
#     4  12  26  49  75 108 153 195 246 308 375 442
#     4  12  29  47  74 109 147 199 249 299 376 446
#     4  12  26  48  76 108 150 195 251 308 371 442
#     4  12  27  49  75 108 153 193 249 310 370 446
#     4  12  27  48  77 114 151 193 252 314 370 441
#
# _framework density 24.117242000000001
#
# number of rings (size 3 to 8) (size 9 to 14) (size 15 to 20)
#    0.000    0.000    5.000    4.000    4.667    4.667 
#    0.000    0.000    0.000    0.000    0.000    0.000 
#    0.000    0.000    0.000    0.000    0.000    0.000 
#
# Total GULP energy -148663.314612 kJ/mol
# GULP energy per Si atom -12388.609551 kJ/mol
# Density = 2.406235 g / cm^3
# Si number density = 24.117242 Si / 1000 Ang^3
#
#
#
# Elastic Constant Matrix: (Units=GPa)
#
#
# Indices 1 2 3 4 5 6 
#
# 1 134.1198 42.4244 20.3806 17.6108 -7.5832 9.5765
# 2 42.4244 186.0838 38.0019 -6.8260 1.3988 8.9412
# 3 20.3806 38.0019 63.2880 9.1278 -15.0447 -1.7261
# 4 17.6108 -6.8260 9.1278 44.2426 2.5727 0.6122
# 5 -7.5832 1.3988 -15.0447 2.5727 38.2276 15.8045
# 6 9.5765 8.9412 -1.7261 0.6122 15.8045 54.3482
#
#
#
# Elastic Compliance Matrix: (Units=1/GPa)
#
#
# Indices 1 2 3 4 5 6 
#
# 1 0.008984 -0.002008 -0.000526 -0.003909 0.002749 -0.002025
# 2 -0.002008 0.006894 -0.004528 0.002948 -0.002541 -0.000219
# 3 -0.000526 -0.004528 0.021697 -0.005499 0.009450 -0.001159
# 4 -0.003909 0.002948 -0.005499 0.026040 -0.005332 0.001286
# 5 0.002749 -0.002541 0.009450 -0.005332 0.034957 -0.009872
# 6 -0.002025 -0.000219 -0.001159 0.001286 -0.009872 0.021612
#
#
# Mechanical properties :
#
#
# Convention : Reuss Voigt Hill
#
# Bulk Modulus (GPa) = 42.63939 65.01172 53.82555
# Shear Modulus (GPa) = 35.18037 46.20933 40.69485
#
# Velocity S-wave (km/s) = 3.82347 4.38200 4.11222
# Velocity P-wave (km/s) = 6.10002 7.25380 6.70179
#
# Compressibility (1/GPa) = 0.02345250
#
# Stress axis : x y z
#
# Youngs Moduli (GPa) = 111.30518 145.05077 46.08947
#
# Poissons Ratio (x) = 0.29123 0.02422
# Poissons Ratio (y) = 0.22347 0.20870
# Poissons Ratio (z) = 0.05849 0.65681
#
# Static dielectric constant tensor:
#      x y z
#    x 4.347740 0.144490 -0.287580 
#    y 0.144490 4.708260 0.241610 
#    z -0.287580 0.241610 3.962080 
# 
# 
# High freq. dielectric constant tensor:
#      x y z
#    x 1.980320 0.009870 -0.006670 
#    y 0.009870 1.983960 -0.001070 
#    z -0.006670 -0.001070 1.929360 
# 
# From -- ./inp_files/33207.got.cif
#   From: 2010.06.25/outbox.cif.g09.slc.cpg/sg2_17_cif.got.tgz:33207.got - 2010.06.27 13:26:56.
