data_PCOD8037281
_publ_section_title
;
Structure prediction by ZEFSAII (Michael W. Deem and Ramdas Pophale) SiO2 
 PCOD8037281
Probable space group: P -1
;
_chemical_formula_sum "Si O2"
_cell_formula_units_Z 16
_cell_length_a 11.309685
_cell_length_b 14.649192
_cell_length_c 8.368642
_cell_angle_alpha 61.129147
_cell_angle_beta 33.903782
_cell_angle_gamma 71.650954
_cell_volume 666.700309
_symmetry_space_group_name_H-M "P -1"
_symmetry_group_IT_number 2
_symmetry_cell_setting 'triclinic'
loop_
_space_group_symop_operation_xyz
x,y,z
-x,-y,-z
loop_
_atom_site_type_symbol
_atom_site_label
_atom_site_fract_x
_atom_site_fract_y
_atom_site_fract_z
Si Si1 0.377595 0.675136 0.307587
Si Si2 0.920002 0.104699 0.063460
Si Si3 0.775873 0.804914 0.883874
Si Si4 0.178182 0.293446 0.780078
Si Si5 0.869307 0.433348 0.057198
Si Si6 0.513727 0.959168 0.196467
Si Si7 0.180625 0.843276 0.203482
Si Si8 0.481869 0.523069 0.815259
O O1 0.297837 0.661890 0.591174
O O2 0.230205 0.733423 0.309716
O O3 0.374539 0.555985 0.353977
O O4 0.612545 0.748670 0.980330
O O5 0.720510 0.082009 0.430075
O O6 0.863075 0.173501 0.920160
O O7 0.121780 0.178842 0.857479
O O8 0.000000 0.000000 0.000000
O O9 0.975314 0.872721 0.506293
O O10 0.856975 0.717939 0.978796
O O11 0.660856 0.869844 0.088985
O O12 0.420258 0.352423 0.421737
O O13 0.025053 0.374739 0.825163
O O14 0.746460 0.496897 0.010412
O O15 0.000000 0.500000 0.000000
O O16 0.500000 0.000000 0.000000
O O17 0.626551 0.057395 0.091284
O O18 0.500000 0.500000 0.000000
#
# Coordination Sequence:
#
# PCOD8037281 Si02
#       8
#     2   2   2   2   2   2   2   2
#     4  12  25  45  73 108 143 195 251 304 377 456
#     4  12  29  49  74 112 153 199 244 315 389 449
#     4  12  24  46  77 108 143 196 255 307 373 450
#     4  12  26  47  76 103 147 197 251 308 375 456
#     4  12  24  49  75 106 147 198 260 310 372 446
#     4  12  24  48  75 107 147 196 253 307 379 456
#     4  12  27  45  76 110 152 190 250 318 378 450
#     4  12  30  44  73 110 153 199 248 316 381 452
#
# _framework density 23.998788999999999
#
# number of rings (size 3 to 8) (size 9 to 14) (size 15 to 20)
#    0.000    0.000    5.000    4.875    3.500    0.500 
#    0.000    0.000    0.000    0.000    0.000    0.000 
#    0.000    0.000    0.000    0.000    0.000    0.000 
#
# Total GULP energy -198295.636951 kJ/mol
# GULP energy per Si atom -12393.477309 kJ/mol
# Density = 2.394417 g / cm^3
# Si number density = 23.998789 Si / 1000 Ang^3
#
#
#
# Elastic Constant Matrix: (Units=GPa)
#
#
# Indices 1 2 3 4 5 6 
#
# 1 174.0036 27.8863 46.5807 -2.3639 11.2116 -2.4687
# 2 27.8863 108.7878 34.6593 -0.9652 -12.7906 2.0895
# 3 46.5807 34.6593 100.0323 -7.1654 1.9987 6.8617
# 4 -2.3639 -0.9652 -7.1654 39.4559 3.0750 -8.6187
# 5 11.2116 -12.7906 1.9987 3.0750 38.2674 -6.9124
# 6 -2.4687 2.0895 6.8617 -8.6187 -6.9124 36.4558
#
#
#
# Elastic Compliance Matrix: (Units=1/GPa)
#
#
# Indices 1 2 3 4 5 6 
#
# 1 0.006820 -0.001124 -0.002778 0.000193 -0.002119 0.000693
# 2 -0.001124 0.011092 -0.003496 -0.000636 0.004384 0.000627
# 3 -0.002778 -0.003496 0.012812 0.001696 -0.001575 -0.002297
# 4 0.000193 -0.000636 0.001696 0.027040 -0.001475 0.005843
# 5 -0.002119 0.004384 -0.001575 -0.001475 0.029343 0.005117
# 6 0.000693 0.000627 -0.002297 0.005843 0.005117 0.030225
#
#
# Mechanical properties :
#
#
# Convention : Reuss Voigt Hill
#
# Bulk Modulus (GPa) = 62.77989 66.78626 64.78307
# Shear Modulus (GPa) = 36.38056 41.08231 38.73144
#
# Velocity S-wave (km/s) = 3.89772 4.14194 4.02168
# Velocity P-wave (km/s) = 6.81709 7.12486 6.97267
#
# Compressibility (1/GPa) = 0.01592867
#
# Stress axis : x y z
#
# Youngs Moduli (GPa) = 146.63462 90.15681 78.05252
#
# Poissons Ratio (x) = 0.10133 0.21679
# Poissons Ratio (y) = 0.16481 0.27286
# Poissons Ratio (z) = 0.40728 0.31517
#
# Static dielectric constant tensor:
#      x y z
#    x 4.467730 -0.342040 -0.134930 
#    y -0.342040 4.157910 0.088660 
#    z -0.134930 0.088660 4.445120 
# 
# 
# High freq. dielectric constant tensor:
#      x y z
#    x 1.965160 -0.009120 -0.006800 
#    y -0.009120 1.950160 -0.008900 
#    z -0.006800 -0.008900 1.950910 
# 
# From -- ./inp_files/272297.got.cif
#   From: 2010.06.25/outbox.cif.g09.slc.cpg/sg2_137_cif.got.tgz:272297.got - 2010.06.27 13:26:56.
