data_PCOD8037401
_publ_section_title
;
Structure prediction by ZEFSAII (Michael W. Deem and Ramdas Pophale) SiO2 
 PCOD8037401
Probable space group: P -1
;
_chemical_formula_sum "Si O2"
_cell_formula_units_Z 12
_cell_length_a 9.248634
_cell_length_b 9.458145
_cell_length_c 8.763457
_cell_angle_alpha 70.640179
_cell_angle_beta 113.688193
_cell_angle_gamma 133.230530
_cell_volume 509.650442
_symmetry_space_group_name_H-M "P -1"
_symmetry_group_IT_number 2
_symmetry_cell_setting 'triclinic'
loop_
_space_group_symop_operation_xyz
x,y,z
-x,-y,-z
loop_
_atom_site_type_symbol
_atom_site_label
_atom_site_fract_x
_atom_site_fract_y
_atom_site_fract_z
Si Si1 0.555176 0.238072 0.260281
Si Si2 0.964397 0.832493 0.641768
Si Si3 0.929346 0.529761 0.119373
Si Si4 0.428082 0.027274 0.799846
Si Si5 0.826237 0.803348 0.915661
Si Si6 0.708463 0.387671 0.610336
O O1 0.739592 0.330545 0.184326
O O2 0.394446 0.259750 0.115659
O O3 0.618849 0.319893 0.427551
O O4 0.483445 0.021740 0.287333
O O5 0.849512 0.832106 0.736171
O O6 0.810956 0.614827 0.584517
O O7 0.182435 0.892800 0.754950
O O8 0.000000 0.000000 0.500000
O O9 0.117026 0.632049 0.280844
O O10 0.847816 0.647210 0.031669
O O11 0.000000 0.500000 0.000000
O O12 0.533477 0.251944 0.716699
O O13 0.500000 0.000000 0.000000
O O14 0.000000 0.000000 0.000000
#
# Coordination Sequence:
#
# PCOD8037401 Si02
#       6
#     2   2   2   2   2   2
#     4  12  26  46  75 113 149 197 250 316 380 449
#     4  12  28  49  72 108 153 201 250 311 379 450
#     4  12  24  49  76 107 148 199 250 305 381 452
#     4  12  26  48  78 108 149 204 253 306 383 452
#     4  12  27  47  73 110 152 193 259 312 370 451
#     4  12  26  48  78 108 154 195 258 309 381 447
#
# _framework density 23.545549999999999
#
# number of rings (size 3 to 8) (size 9 to 14) (size 15 to 20)
#    0.000    0.000    3.333    6.500    2.333    2.667 
#    0.000    0.000    0.000    0.000    0.000    0.000 
#    0.000    0.000    0.000    0.000    0.000    0.000 
#
# Total GULP energy -148706.558733 kJ/mol
# GULP energy per Si atom -12392.213228 kJ/mol
# Density = 2.349196 g / cm^3
# Si number density = 23.545550 Si / 1000 Ang^3
#
#
#
# Elastic Constant Matrix: (Units=GPa)
#
#
# Indices 1 2 3 4 5 6 
#
# 1 109.7957 23.3808 25.0186 10.0943 8.6953 14.8674
# 2 23.3808 129.4890 52.0597 0.8270 -7.2732 5.8452
# 3 25.0186 52.0597 128.1060 11.8574 1.6046 1.3499
# 4 10.0943 0.8270 11.8574 45.8143 4.4480 2.2872
# 5 8.6953 -7.2732 1.6046 4.4480 39.1928 -1.8402
# 6 14.8674 5.8452 1.3499 2.2872 -1.8402 33.5464
#
#
#
# Elastic Compliance Matrix: (Units=1/GPa)
#
#
# Indices 1 2 3 4 5 6 
#
# 1 0.010640 -0.001324 -0.001321 -0.001504 -0.002591 -0.004471
# 2 -0.001324 0.009623 -0.003755 0.000932 0.002086 -0.000888
# 3 -0.001321 -0.003755 0.009787 -0.002173 -0.000512 0.000966
# 4 -0.001504 0.000932 -0.002173 0.022958 -0.002061 -0.001087
# 5 -0.002591 0.002086 -0.000512 -0.002061 0.026845 0.002419
# 6 -0.004471 -0.000888 0.000966 -0.001087 0.002419 0.032114
#
#
# Mechanical properties :
#
#
# Convention : Reuss Voigt Hill
#
# Bulk Modulus (GPa) = 57.97248 63.14543 60.55896
# Shear Modulus (GPa) = 38.30916 41.50613 39.90764
#
# Velocity S-wave (km/s) = 4.03801 4.20313 4.12140
# Velocity P-wave (km/s) = 6.81290 7.10153 6.95871
#
# Compressibility (1/GPa) = 0.01724956
#
# Stress axis : x y z
#
# Youngs Moduli (GPa) = 93.98733 103.92158 102.17350
#
# Poissons Ratio (x) = 0.13761 0.13498
# Poissons Ratio (y) = 0.12445 0.38365
# Poissons Ratio (z) = 0.12416 0.39021
#
# Static dielectric constant tensor:
#      x y z
#    x 4.913070 -0.201270 0.221360 
#    y -0.201270 5.565580 -0.219280 
#    z 0.221360 -0.219280 4.304520 
# 
# 
# High freq. dielectric constant tensor:
#      x y z
#    x 1.940360 0.003280 0.009970 
#    y 0.003280 1.958310 -0.002170 
#    z 0.009970 -0.002170 1.936780 
# 
# From -- ./inp_files/157742.got.cif
#   From: 2010.06.25/outbox.cif.g09.slc.cpg/sg2_79_cif.got.tgz:157742.got - 2010.06.27 13:26:56.
