data_PCOD8037143
_publ_section_title
;
Structure prediction by ZEFSAII (Michael W. Deem and Ramdas Pophale) SiO2 
 PCOD8037143
Probable space group: P -1
;
_chemical_formula_sum "Si O2"
_cell_formula_units_Z 16
_cell_length_a 11.571906
_cell_length_b 26.351234
_cell_length_c 25.777025
_cell_angle_alpha 10.712461
_cell_angle_beta 151.547025
_cell_angle_gamma 151.750615
_cell_volume 683.149053
_symmetry_space_group_name_H-M "P -1"
_symmetry_group_IT_number 2
_symmetry_cell_setting 'triclinic'
loop_
_space_group_symop_operation_xyz
x,y,z
-x,-y,-z
loop_
_atom_site_type_symbol
_atom_site_label
_atom_site_fract_x
_atom_site_fract_y
_atom_site_fract_z
Si Si1 0.692158 0.905762 0.208905
Si Si2 0.253684 0.985717 0.714618
Si Si3 0.988945 0.508667 0.241429
Si Si4 0.492158 0.007425 0.295909
Si Si5 0.023891 0.135153 0.817094
Si Si6 0.962982 0.420104 0.202873
Si Si7 0.504227 0.492149 0.132690
Si Si8 0.653960 0.263362 0.668187
O O1 0.856894 0.693595 0.463098
O O2 0.551877 0.719164 0.387555
O O3 0.500000 0.000000 0.000000
O O4 0.860908 0.182516 0.019653
O O5 0.516730 0.142502 0.682913
O O6 0.035834 0.150812 0.475495
O O7 0.288408 0.954004 0.698513
O O8 0.185027 0.679841 0.019544
O O9 0.915954 0.368747 0.297235
O O10 0.755597 0.537365 0.154473
O O11 0.561891 0.819557 0.558614
O O12 0.469541 0.304234 0.012191
O O13 0.234179 0.859744 0.317135
O O14 0.177535 0.444359 0.571940
O O15 0.176295 0.947913 0.031192
O O16 0.000000 0.000000 0.000000
O O17 0.709661 0.465382 0.032901
#
# Coordination Sequence:
#
# PCOD8037143 Si02
#       8
#     2   2   2   2   2   2   2   2
#     4  12  27  44  73 109 145 185 231 293 364 416
#     4  12  25  45  77 102 145 181 243 294 350 426
#     4  12  25  50  72 105 143 187 240 293 353 434
#     4  12  28  46  67 109 144 188 231 295 358 429
#     4  12  26  42  72 101 143 189 231 275 351 434
#     4  12  25  49  76 103 131 192 245 300 354 414
#     4  12  29  47  72 102 146 186 238 301 361 410
#     4  12  24  44  70 106 141 188 232 290 347 429
#
# _framework density 23.420950999999999
#
# number of rings (size 3 to 8) (size 9 to 14) (size 15 to 20)
#    0.000    0.000    3.750    5.625    7.000    3.000 
#    0.000    3.750    0.000    0.000    0.000    0.000 
#    0.000    0.000    0.000    0.000    0.000    0.000 
#
# Total GULP energy -198505.325100 kJ/mol
# GULP energy per Si atom -12406.582819 kJ/mol
# Density = 2.336764 g / cm^3
# Si number density = 23.420951 Si / 1000 Ang^3
#
#
#
# Elastic Constant Matrix: (Units=GPa)
#
#
# Indices 1 2 3 4 5 6 
#
# 1 129.0416 25.4068 30.9598 0.5475 16.1347 -1.0908
# 2 25.4068 70.6198 24.9850 0.9295 3.6433 1.0044
# 3 30.9598 24.9850 112.6264 2.2940 6.5618 2.9305
# 4 0.5475 0.9295 2.2940 43.7820 3.7621 -0.6521
# 5 16.1347 3.6433 6.5618 3.7621 42.8810 4.5514
# 6 -1.0908 1.0044 2.9305 -0.6521 4.5514 19.3023
#
#
#
# Elastic Compliance Matrix: (Units=1/GPa)
#
#
# Indices 1 2 3 4 5 6 
#
# 1 0.009079 -0.002492 -0.001810 0.000328 -0.003133 0.001667
# 2 -0.002492 0.016078 -0.002868 -0.000176 0.000086 -0.000568
# 3 -0.001810 -0.002868 0.010083 -0.000428 -0.000432 -0.001396
# 4 0.000328 -0.000176 -0.000428 0.023074 -0.002215 0.001395
# 5 -0.003133 0.000086 -0.000432 -0.002215 0.025409 -0.006182
# 6 0.001667 -0.000568 -0.001396 0.001395 -0.006182 0.053648
#
#
# Mechanical properties :
#
#
# Convention : Reuss Voigt Hill
#
# Bulk Modulus (GPa) = 47.85138 52.77680 50.31409
# Shear Modulus (GPa) = 31.51043 36.58880 34.04962
#
# Velocity S-wave (km/s) = 3.67194 3.95679 3.81702
# Velocity P-wave (km/s) = 6.20104 6.59225 6.39964
#
# Compressibility (1/GPa) = 0.02089804
#
# Stress axis : x y z
#
# Youngs Moduli (GPa) = 110.14526 62.19810 99.17588
#
# Poissons Ratio (x) = 0.15501 0.17954
# Poissons Ratio (y) = 0.27450 0.28446
# Poissons Ratio (z) = 0.19940 0.17840
#
# Static dielectric constant tensor:
#      x y z
#    x 4.374890 0.064410 0.127170 
#    y 0.064410 4.179540 0.146600 
#    z 0.127170 0.146600 4.547180 
# 
# 
# High freq. dielectric constant tensor:
#      x y z
#    x 1.935070 0.006400 0.007050 
#    y 0.006400 1.927140 0.005790 
#    z 0.007050 0.005790 1.945590 
# 
# From -- ./inp_files/485923.got.cif
#   From: 2010.06.25/outbox.cif.g09.slc.cpg/sg2_243_cif.got.tgz:485923.got - 2010.06.27 13:26:56.
