data_PCOD8037071
_publ_section_title
;
Structure prediction by ZEFSAII (Michael W. Deem and Ramdas Pophale) SiO2 
 PCOD8037071
Probable space group: P -1
;
_chemical_formula_sum "Si O2"
_cell_formula_units_Z 16
_cell_length_a 12.137544
_cell_length_b 8.546015
_cell_length_c 9.162928
_cell_angle_alpha 130.838714
_cell_angle_beta 107.613517
_cell_angle_gamma 84.581177
_cell_volume 678.266581
_symmetry_space_group_name_H-M "P -1"
_symmetry_group_IT_number 2
_symmetry_cell_setting 'triclinic'
loop_
_space_group_symop_operation_xyz
x,y,z
-x,-y,-z
loop_
_atom_site_type_symbol
_atom_site_label
_atom_site_fract_x
_atom_site_fract_y
_atom_site_fract_z
Si Si1 0.033163 0.034046 0.864846
Si Si2 0.201622 0.911128 0.329764
Si Si3 0.352472 0.666205 0.748192
Si Si4 0.887788 0.374062 0.446451
Si Si5 0.395609 0.333129 0.186383
Si Si6 0.392260 0.974456 0.200570
Si Si7 0.645312 0.975870 0.269623
Si Si8 0.831321 0.506897 0.807630
O O1 0.913733 0.991578 0.699311
O O2 0.117588 0.869764 0.748238
O O3 0.104030 0.261071 0.993619
O O4 0.000000 0.000000 0.000000
O O5 0.303817 0.984403 0.302188
O O6 0.167118 0.657008 0.158632
O O7 0.245904 0.996898 0.558937
O O8 0.225269 0.525574 0.600084
O O9 0.467471 0.555426 0.690648
O O10 0.340313 0.843001 0.732584
O O11 0.364870 0.756312 0.970659
O O12 0.895985 0.405553 0.641323
O O13 0.000000 0.500000 0.500000
O O14 0.306947 0.495939 0.287070
O O15 0.377647 0.157295 0.194088
O O16 0.362958 0.241095 0.955360
O O17 0.525470 0.988284 0.319141
#
# Coordination Sequence:
#
# PCOD8037071 Si02
#       8
#     2   2   2   2   2   2   2   2
#     4  12  26  49  70  93 138 184 231 281 339 404
#     4  12  24  41  65 104 142 180 224 288 341 404
#     4   9  18  41  68  98 134 181 225 275 333 405
#     4  12  25  44  72 103 133 176 243 280 325 413
#     4   9  20  42  73  96 136 183 222 275 342 401
#     4   9  19  37  71  98 138 186 222 274 343 403
#     4   9  18  40  66 102 136 177 228 285 335 396
#     4  12  26  44  69 105 137 177 230 284 342 402
#
# _framework density 23.589545999999999
#
# number of rings (size 3 to 8) (size 9 to 14) (size 15 to 20)
#    0.000    1.500    2.500    5.250    0.000    1.000 
#    2.250    3.750    0.000    0.000    0.000    0.000 
#    0.000    0.000    0.000    0.000    0.000    0.000 
#
# Total GULP energy -198311.030092 kJ/mol
# GULP energy per Si atom -12394.439381 kJ/mol
# Density = 2.353585 g / cm^3
# Si number density = 23.589546 Si / 1000 Ang^3
#
#
#
# Elastic Constant Matrix: (Units=GPa)
#
#
# Indices 1 2 3 4 5 6 
#
# 1 169.2050 34.1837 40.9549 -6.0231 9.6931 -0.4513
# 2 34.1837 53.7292 26.4074 -6.2621 6.4965 -3.6207
# 3 40.9549 26.4074 83.1561 -6.2731 3.3083 0.1883
# 4 -6.0231 -6.2621 -6.2731 31.1418 -5.4859 6.8472
# 5 9.6931 6.4965 3.3083 -5.4859 47.9265 0.6703
# 6 -0.4513 -3.6207 0.1883 6.8472 0.6703 31.4469
#
#
#
# Elastic Compliance Matrix: (Units=1/GPa)
#
#
# Indices 1 2 3 4 5 6 
#
# 1 0.007223 -0.003282 -0.002470 0.000155 -0.000824 -0.000276
# 2 -0.003282 0.024224 -0.005836 0.002194 -0.001999 0.002342
# 3 -0.002470 -0.005836 0.015212 0.001756 0.000458 -0.001191
# 4 0.000155 0.002194 0.001756 0.035236 0.003688 -0.007507
# 5 -0.000824 -0.001999 0.000458 0.003688 0.021714 -0.001511
# 6 -0.000276 0.002342 -0.001191 -0.007507 -0.001511 0.033739
#
#
# Mechanical properties :
#
#
# Convention : Reuss Voigt Hill
#
# Bulk Modulus (GPa) = 42.58610 56.57582 49.58096
# Shear Modulus (GPa) = 29.69948 35.73933 32.71940
#
# Velocity S-wave (km/s) = 3.55210 3.89659 3.72833
# Velocity P-wave (km/s) = 5.90892 6.65432 6.29267
#
# Compressibility (1/GPa) = 0.02348184
#
# Stress axis : x y z
#
# Youngs Moduli (GPa) = 138.44847 41.28171 65.73620
#
# Poissons Ratio (x) = 0.13550 0.16236
# Poissons Ratio (y) = 0.45444 0.38366
# Poissons Ratio (z) = 0.34195 0.24093
#
# Static dielectric constant tensor:
#      x y z
#    x 5.016260 -0.055600 0.178450 
#    y -0.055600 4.013960 -0.028500 
#    z 0.178450 -0.028500 4.374170 
# 
# 
# High freq. dielectric constant tensor:
#      x y z
#    x 1.964170 0.004860 0.004280 
#    y 0.004860 1.898720 -0.006380 
#    z 0.004280 -0.006380 1.928070 
# 
# From -- ./inp_files/246100.got.cif
#   From: 2010.06.25/outbox.cif.g09.slc.cpg/sg2_124_cif.got.tgz:246100.got - 2010.06.27 13:26:56.
