data_PCOD8037407
_publ_section_title
;
Structure prediction by ZEFSAII (Michael W. Deem and Ramdas Pophale) SiO2 
 PCOD8037407
Probable space group: P -1
;
_chemical_formula_sum "Si O2"
_cell_formula_units_Z 12
_cell_length_a 7.538863
_cell_length_b 9.469594
_cell_length_c 10.607674
_cell_angle_alpha 139.166848
_cell_angle_beta 69.852341
_cell_angle_gamma 92.306540
_cell_volume 433.869269
_symmetry_space_group_name_H-M "P -1"
_symmetry_group_IT_number 2
_symmetry_cell_setting 'triclinic'
loop_
_space_group_symop_operation_xyz
x,y,z
-x,-y,-z
loop_
_atom_site_type_symbol
_atom_site_label
_atom_site_fract_x
_atom_site_fract_y
_atom_site_fract_z
Si Si1 0.997222 0.002869 0.847071
Si Si2 0.957841 0.820974 0.479394
Si Si3 0.776818 0.515358 0.180953
Si Si4 0.685367 0.567621 0.961157
Si Si5 0.380732 0.574275 0.449953
Si Si6 0.688163 0.830180 0.912994
O O1 0.884111 0.938341 0.711252
O O2 0.876964 0.928095 0.941983
O O3 0.234776 0.843770 0.676131
O O4 0.946974 0.278895 0.034396
O O5 0.789925 0.730385 0.402259
O O6 0.173581 0.612631 0.296675
O O7 0.000000 0.000000 0.500000
O O8 0.548073 0.522953 0.262228
O O9 0.812377 0.556736 0.051818
O O10 0.626486 0.808402 0.060390
O O11 0.500000 0.500000 0.000000
O O12 0.500000 0.500000 0.500000
O O13 0.250381 0.411305 0.343017
O O14 0.500000 0.000000 0.000000
#
# Coordination Sequence:
#
# PCOD8037407 Si02
#       6
#     2   2   2   2   2   2
#     4  12  26  52  82 113 163 209 263 336 401 466
#     4  12  27  50  81 113 156 205 268 330 395 476
#     4  12  27  53  81 117 158 209 271 327 405 476
#     4  12  24  49  79 112 161 204 264 327 399 474
#     4  12  27  49  78 117 159 205 272 326 397 482
#     4  12  25  48  79 114 160 212 256 328 399 470
#
# _framework density 27.658100000000001
#
# number of rings (size 3 to 8) (size 9 to 14) (size 15 to 20)
#    0.000    0.000    6.667    2.000    2.333    2.000 
#    3.000    1.667    0.000    0.000    0.000    0.000 
#    0.000    0.000    0.000    0.000    0.000    0.000 
#
# Total GULP energy -148834.820937 kJ/mol
# GULP energy per Si atom -12402.901745 kJ/mol
# Density = 2.759515 g / cm^3
# Si number density = 27.658100 Si / 1000 Ang^3
#
#
#
# Elastic Constant Matrix: (Units=GPa)
#
#
# Indices 1 2 3 4 5 6 
#
# 1 104.1078 46.3740 19.5574 30.8244 -11.7198 -1.0862
# 2 46.3740 212.8677 43.2288 11.3133 -4.8568 -24.0021
# 3 19.5574 43.2288 112.8334 10.9366 -0.1471 -6.4193
# 4 30.8244 11.3133 10.9366 41.8628 -0.5252 3.0771
# 5 -11.7198 -4.8568 -0.1471 -0.5252 56.9910 5.9267
# 6 -1.0862 -24.0021 -6.4193 3.0771 5.9267 54.9391
#
#
#
# Elastic Compliance Matrix: (Units=1/GPa)
#
#
# Indices 1 2 3 4 5 6 
#
# 1 0.013832 -0.002405 -0.000606 -0.009299 0.002616 -0.000609
# 2 -0.002405 0.005798 -0.001722 0.000483 -0.000238 0.002283
# 3 -0.000606 -0.001722 0.009820 -0.001696 -0.000315 0.000512
# 4 -0.009299 0.000483 -0.001696 0.031159 -0.001405 -0.001765
# 5 0.002616 -0.000238 -0.000315 -0.001405 0.018256 -0.001980
# 6 -0.000609 0.002283 0.000512 -0.001765 -0.001980 0.019560
#
#
# Mechanical properties :
#
#
# Convention : Reuss Voigt Hill
#
# Bulk Modulus (GPa) = 50.03880 72.01437 61.02658
# Shear Modulus (GPa) = 43.64849 52.13516 47.89182
#
# Velocity S-wave (km/s) = 3.97690 4.34635 4.16572
# Velocity P-wave (km/s) = 6.26249 7.16112 6.72683
#
# Compressibility (1/GPa) = 0.01998449
#
# Stress axis : x y z
#
# Youngs Moduli (GPa) = 72.29672 172.48446 101.82964
#
# Poissons Ratio (x) = 0.41484 0.06171
# Poissons Ratio (y) = 0.17388 0.17531
# Poissons Ratio (z) = 0.04381 0.29695
#
# Static dielectric constant tensor:
#      x y z
#    x 5.265910 -0.276610 0.497170 
#    y -0.276610 5.668340 -0.429180 
#    z 0.497170 -0.429180 4.967630 
# 
# 
# High freq. dielectric constant tensor:
#      x y z
#    x 2.144000 -0.017580 0.019280 
#    y -0.017580 2.143370 -0.005360 
#    z 0.019280 -0.005360 2.107480 
# 
# From -- ./inp_files/383652.got.cif
#   From: 2010.06.25/outbox.cif.g09.slc.cpg/sg2_192_cif.got.tgz:383652.got - 2010.06.27 13:26:56.
