data_PCOD8037510
_publ_section_title
;
Structure prediction by ZEFSAII (Michael W. Deem and Ramdas Pophale) SiO2 
 PCOD8037510
Probable space group: P -1
;
_chemical_formula_sum "Si O2"
_cell_formula_units_Z 16
_cell_length_a 11.763091
_cell_length_b 10.270832
_cell_length_c 9.389768
_cell_angle_alpha 114.725568
_cell_angle_beta 51.596684
_cell_angle_gamma 128.158475
_cell_volume 697.940526
_symmetry_space_group_name_H-M "P -1"
_symmetry_group_IT_number 2
_symmetry_cell_setting 'triclinic'
loop_
_space_group_symop_operation_xyz
x,y,z
-x,-y,-z
loop_
_atom_site_type_symbol
_atom_site_label
_atom_site_fract_x
_atom_site_fract_y
_atom_site_fract_z
Si Si1 0.333198 0.740065 0.826186
Si Si2 0.483602 0.328725 0.962724
Si Si3 0.688974 0.110729 0.367731
Si Si4 0.808056 0.651980 0.274783
Si Si5 0.336631 0.200042 0.322180
Si Si6 0.825456 0.347541 0.612890
Si Si7 0.156206 0.833232 0.224755
Si Si8 0.192966 0.123594 0.868660
O O1 0.270747 0.820137 0.792539
O O2 0.254992 0.541640 0.784739
O O3 0.533656 0.822892 0.689698
O O4 0.301532 0.806861 0.030308
O O5 0.671480 0.361143 0.805962
O O6 0.328130 0.189837 0.924962
O O7 0.500000 0.500000 0.000000
O O8 0.440149 0.296939 0.147667
O O9 0.760371 0.272363 0.477369
O O10 0.500000 0.000000 0.500000
O O11 0.772167 0.003743 0.302081
O O12 0.725451 0.691080 0.493268
O O13 0.778262 0.723779 0.183819
O O14 0.003961 0.739755 0.191782
O O15 0.190743 0.019533 0.303397
O O16 0.878488 0.244899 0.627835
O O17 0.000000 0.500000 0.500000
O O18 0.000000 0.000000 0.000000
#
# Coordination Sequence:
#
# PCOD8037510 Si02
#       8
#     2   2   2   2   2   2   2   2
#     4  12  25  46  74 105 144 189 244 296 360 433
#     4  12  28  47  73 107 150 189 239 301 370 432
#     4  12  25  46  75 105 144 190 245 299 359 432
#     4  12  27  47  72 109 147 191 240 301 365 437
#     4  12  26  46  75 105 145 190 242 299 366 435
#     4  12  28  47  74 107 145 192 242 300 363 433
#     4  12  26  48  74 106 144 191 246 298 360 434
#     4  12  27  48  75 109 149 192 241 300 370 434
#
# _framework density 22.924589999999998
#
# number of rings (size 3 to 8) (size 9 to 14) (size 15 to 20)
#    0.000    0.000    2.500    7.500    5.250    0.000 
#    0.000    0.000    0.000    0.000    0.000    0.000 
#    0.000    0.000    0.000    0.000    0.000    0.000 
#
# Total GULP energy -198249.695004 kJ/mol
# GULP energy per Si atom -12390.605938 kJ/mol
# Density = 2.287241 g / cm^3
# Si number density = 22.924590 Si / 1000 Ang^3
#
#
#
# Elastic Constant Matrix: (Units=GPa)
#
#
# Indices 1 2 3 4 5 6 
#
# 1 89.2391 22.5725 14.3566 -13.4600 -2.3839 -3.3426
# 2 22.5725 123.3493 36.8749 -4.7098 -1.0724 -1.4042
# 3 14.3566 36.8749 107.4730 -6.4499 -3.6439 1.8057
# 4 -13.4600 -4.7098 -6.4499 40.7735 -0.5683 -1.8275
# 5 -2.3839 -1.0724 -3.6439 -0.5683 43.5780 -5.5375
# 6 -3.3426 -1.4042 1.8057 -1.8275 -5.5375 47.3132
#
#
#
# Elastic Compliance Matrix: (Units=1/GPa)
#
#
# Indices 1 2 3 4 5 6 
#
# 1 0.012445 -0.001879 -0.000781 0.003827 0.000758 0.001090
# 2 -0.001879 0.009338 -0.002960 0.000000 -0.000089 0.000247
# 3 -0.000781 -0.002960 0.010520 0.001056 0.000725 -0.000419
# 4 0.003827 0.000000 0.001056 0.026027 0.000806 0.001330
# 5 0.000758 -0.000089 0.000725 0.000806 0.023413 0.002795
# 6 0.001090 0.000247 -0.000419 0.001330 0.002795 0.021614
#
#
# Mechanical properties :
#
#
# Convention : Reuss Voigt Hill
#
# Bulk Modulus (GPa) = 47.47654 51.96326 49.71990
# Shear Modulus (GPa) = 41.11267 42.75012 41.93140
#
# Velocity S-wave (km/s) = 4.23943 4.32304 4.28144
# Velocity P-wave (km/s) = 6.68720 6.90177 6.79533
#
# Compressibility (1/GPa) = 0.02106304
#
# Stress axis : x y z
#
# Youngs Moduli (GPa) = 80.35344 107.09126 95.06113
#
# Poissons Ratio (x) = 0.20121 0.07422
# Poissons Ratio (y) = 0.15097 0.28139
# Poissons Ratio (z) = 0.06273 0.31700
#
# Static dielectric constant tensor:
#      x y z
#    x 4.162820 -0.008560 0.016850 
#    y -0.008560 4.000890 0.024770 
#    z 0.016850 0.024770 4.182420 
# 
# 
# High freq. dielectric constant tensor:
#      x y z
#    x 1.923770 0.000910 -0.000390 
#    y 0.000910 1.918360 -0.000280 
#    z -0.000390 -0.000280 1.916410 
# 
# From -- ./inp_files/262982.got.cif
#   From: 2010.06.25/outbox.cif.g09.slc.cpg/sg2_132_cif.got.tgz:262982.got - 2010.06.27 13:26:56.
