data_PCOD8037452
_publ_section_title
;
Structure prediction by ZEFSAII (Michael W. Deem and Ramdas Pophale) SiO2 
 PCOD8037452
Probable space group: P -1
;
_chemical_formula_sum "Si O2"
_cell_formula_units_Z 12
_cell_length_a 11.754129
_cell_length_b 4.774256
_cell_length_c 10.173867
_cell_angle_alpha 75.887931
_cell_angle_beta 67.886597
_cell_angle_gamma 67.268990
_cell_volume 484.606392
_symmetry_space_group_name_H-M "P -1"
_symmetry_group_IT_number 2
_symmetry_cell_setting 'triclinic'
loop_
_space_group_symop_operation_xyz
x,y,z
-x,-y,-z
loop_
_atom_site_type_symbol
_atom_site_label
_atom_site_fract_x
_atom_site_fract_y
_atom_site_fract_z
Si Si1 0.103894 0.718464 0.556704
Si Si2 0.940042 0.846896 0.251877
Si Si3 0.345781 0.392002 0.310833
Si Si4 0.504712 0.290221 0.647345
Si Si5 0.744412 0.806576 0.122243
Si Si6 0.225405 0.644859 0.069781
O O1 0.234376 0.599223 0.430444
O O2 0.386236 0.041632 0.380220
O O3 0.134534 0.840591 0.671832
O O4 0.000000 0.000000 0.500000
O O5 0.862061 0.824998 0.158589
O O6 0.957006 0.551359 0.369500
O O7 0.083270 0.852189 0.156441
O O8 0.463128 0.532211 0.261440
O O9 0.303214 0.413845 0.175258
O O10 0.500000 0.500000 0.500000
O O11 0.367960 0.238100 0.733333
O O12 0.795461 0.536133 0.027319
O O13 0.694476 0.127296 0.027908
#
# Coordination Sequence:
#
# PCOD8037452 Si02
#       6
#     2   2   2   2   2   2
#     4  12  25  44  74 111 149 187 245 307 371 429
#     4  12  25  46  74 109 152 194 247 305 364 437
#     4  12  27  46  78 111 147 194 247 308 367 438
#     4  12  28  51  75 107 149 194 251 306 368 441
#     4  12  27  48  72 106 150 202 244 299 367 442
#     4  12  26  46  75 109 151 192 250 300 371 439
#
# _framework density 24.762363000000001
#
# number of rings (size 3 to 8) (size 9 to 14) (size 15 to 20)
#    0.000    0.000    1.667    8.000    2.333    6.667 
#    0.000    0.000    0.000    0.000    0.000    0.000 
#    0.000    0.000    0.000    0.000    0.000    0.000 
#
# Total GULP energy -148880.113288 kJ/mol
# GULP energy per Si atom -12406.676107 kJ/mol
# Density = 2.470600 g / cm^3
# Si number density = 24.762363 Si / 1000 Ang^3
#
#
#
# Elastic Constant Matrix: (Units=GPa)
#
#
# Indices 1 2 3 4 5 6 
#
# 1 98.4656 18.0495 39.6066 -11.7114 -0.8075 3.8988
# 2 18.0495 141.5989 51.3798 -13.9861 -13.3480 2.8987
# 3 39.6066 51.3798 110.5852 -10.9938 8.2020 0.1677
# 4 -11.7114 -13.9861 -10.9938 43.0019 13.1444 3.5928
# 5 -0.8075 -13.3480 8.2020 13.1444 29.1801 -0.9215
# 6 3.8988 2.8987 0.1677 3.5928 -0.9215 47.8969
#
#
#
# Elastic Compliance Matrix: (Units=1/GPa)
#
#
# Indices 1 2 3 4 5 6 
#
# 1 0.012151 0.000328 -0.004335 0.002196 0.000680 -0.001145
# 2 0.000328 0.009328 -0.004836 0.000244 0.005510 -0.000487
# 3 -0.004335 -0.004836 0.013703 0.003037 -0.007545 0.000225
# 4 0.002196 0.000244 0.003037 0.029183 -0.013911 -0.002661
# 5 0.000680 0.005510 -0.007545 -0.013911 0.045246 0.001552
# 6 -0.001145 -0.000487 0.000225 -0.002661 0.001552 0.021230
#
#
# Mechanical properties :
#
#
# Convention : Reuss Voigt Hill
#
# Bulk Modulus (GPa) = 57.14644 63.19126 60.16885
# Shear Modulus (GPa) = 32.39210 40.12339 36.25774
#
# Velocity S-wave (km/s) = 3.62072 4.02971 3.83067
# Velocity P-wave (km/s) = 6.37240 6.87211 6.62697
#
# Compressibility (1/GPa) = 0.01749890
#
# Stress axis : x y z
#
# Youngs Moduli (GPa) = 82.29468 107.19985 72.97509
#
# Poissons Ratio (x) = -0.03521 0.31635
# Poissons Ratio (y) = -0.02703 0.35287
# Poissons Ratio (z) = 0.35675 0.51837
#
# Static dielectric constant tensor:
#      x y z
#    x 4.549200 0.198660 0.106050 
#    y 0.198660 4.843890 -0.069470 
#    z 0.106050 -0.069470 4.618190 
# 
# 
# High freq. dielectric constant tensor:
#      x y z
#    x 1.990150 0.010570 0.007660 
#    y 0.010570 2.005870 -0.005030 
#    z 0.007660 -0.005030 1.991410 
# 
# From -- ./inp_files/408439.got.cif
#   From: 2010.06.25/outbox.cif.g09.slc.cpg/sg2_205_cif.got.tgz:408439.got - 2010.06.27 13:26:56.
