data_PCOD8037613
_publ_section_title
;
Structure prediction by ZEFSAII (Michael W. Deem and Ramdas Pophale) SiO2 
 PCOD8037613
Probable space group: P -1
;
_chemical_formula_sum "Si O2"
_cell_formula_units_Z 14
_cell_length_a 8.196859
_cell_length_b 9.369994
_cell_length_c 16.755418
_cell_angle_alpha 114.293715
_cell_angle_beta 113.129453
_cell_angle_gamma 31.697391
_cell_volume 613.836906
_symmetry_space_group_name_H-M "P -1"
_symmetry_group_IT_number 2
_symmetry_cell_setting 'triclinic'
loop_
_space_group_symop_operation_xyz
x,y,z
-x,-y,-z
loop_
_atom_site_type_symbol
_atom_site_label
_atom_site_fract_x
_atom_site_fract_y
_atom_site_fract_z
Si Si1 0.444002 0.929743 0.546548
Si Si2 0.160642 0.671982 0.176518
Si Si3 0.145471 0.740447 0.005376
Si Si4 0.349629 0.045508 0.256475
Si Si5 0.770549 0.381337 0.474912
Si Si6 0.052201 0.500168 0.837607
Si Si7 0.828729 0.208257 0.271628
O O1 0.104964 0.094923 0.511042
O O2 0.500000 0.000000 0.500000
O O3 0.452665 0.021677 0.650233
O O4 0.720835 0.603183 0.522294
O O5 0.080861 0.774901 0.094477
O O6 0.525346 0.427652 0.208079
O O7 0.052959 0.574733 0.150703
O O8 0.954968 0.941386 0.252034
O O9 0.500000 0.500000 0.000000
O O10 0.007477 0.684529 0.926241
O O11 0.000000 0.000000 0.000000
O O12 0.178527 0.310450 0.238097
O O13 0.095660 0.108587 0.253932
O O14 0.590037 0.776419 0.185030
O O15 0.500000 0.500000 0.500000
O O16 0.745472 0.347850 0.371061
#
# Coordination Sequence:
#
# PCOD8037613 Si02
#       7
#     2   2   2   2   2   2   2
#     4  12  26  48  70 103 138 190 241 295 346 411
#     4  12  27  46  73 106 145 181 231 292 349 416
#     4  12  25  48  76 106 140 184 231 279 351 423
#     4  12  26  45  73 102 142 187 241 286 350 418
#     4  12  28  46  71 102 145 186 238 295 356 410
#     4  12  27  46  73 108 142 183 230 294 348 414
#     4  12  26  46  71 104 142 190 237 285 352 420
#
# _framework density 22.807359999999999
#
# number of rings (size 3 to 8) (size 9 to 14) (size 15 to 20)
#    0.000    0.000    1.429    9.000    8.000    0.000 
#    0.000    4.286    0.000    0.000    0.000    0.000 
#    0.000    0.000    0.000    0.000    0.000    0.000 
#
# Total GULP energy -173707.153324 kJ/mol
# GULP energy per Si atom -12407.653809 kJ/mol
# Density = 2.275545 g / cm^3
# Si number density = 22.807360 Si / 1000 Ang^3
#
#
#
# Elastic Constant Matrix: (Units=GPa)
#
#
# Indices 1 2 3 4 5 6 
#
# 1 134.0368 52.8264 62.8466 -7.0510 0.8382 0.9022
# 2 52.8264 151.9203 47.7776 -0.4649 3.4063 4.4010
# 3 62.8466 47.7776 123.3235 -1.5384 11.2488 1.2606
# 4 -7.0510 -0.4649 -1.5384 45.6728 2.7269 4.5449
# 5 0.8382 3.4063 11.2488 2.7269 31.3092 6.7117
# 6 0.9022 4.4010 1.2606 4.5449 6.7117 47.7436
#
#
#
# Elastic Compliance Matrix: (Units=1/GPa)
#
#
# Indices 1 2 3 4 5 6 
#
# 1 0.010590 -0.002244 -0.004650 0.001384 0.001558 -0.000221
# 2 -0.002244 0.007994 -0.001955 -0.000272 0.000050 -0.000624
# 3 -0.004650 -0.001955 0.011586 -0.000166 -0.003925 0.000530
# 4 0.001384 -0.000272 -0.000166 0.022380 -0.001486 -0.001918
# 5 0.001558 0.000050 -0.003925 -0.001486 0.034424 -0.004628
# 6 -0.000221 -0.000624 0.000530 -0.001918 -0.004628 0.021826
#
#
# Mechanical properties :
#
#
# Convention : Reuss Voigt Hill
#
# Bulk Modulus (GPa) = 80.17984 81.79799 80.98891
# Shear Modulus (GPa) = 38.26879 41.33378 39.80128
#
# Velocity S-wave (km/s) = 4.10068 4.26173 4.18198
# Velocity P-wave (km/s) = 7.59291 7.75623 7.67500
#
# Compressibility (1/GPa) = 0.01247196
#
# Stress axis : x y z
#
# Youngs Moduli (GPa) = 94.42934 125.09880 86.31015
#
# Poissons Ratio (x) = 0.28076 0.40132
# Poissons Ratio (y) = 0.21193 0.16871
# Poissons Ratio (z) = 0.43908 0.24454
#
# Static dielectric constant tensor:
#      x y z
#    x 4.160510 -0.424290 0.075170 
#    y -0.424290 8.461870 -0.797290 
#    z 0.075170 -0.797290 4.556370 
# 
# 
# High freq. dielectric constant tensor:
#      x y z
#    x 1.909760 0.000970 0.002370 
#    y 0.000970 1.923650 0.001750 
#    z 0.002370 0.001750 1.911700 
# 
# From -- ./inp_files/557101.got.cif
#   From: 2010.06.25/outbox.cif.g09.slc.cpg/sg2_279_cif.got.tgz:557101.got - 2010.06.27 13:26:56.
