data_PCOD8037091
_publ_section_title
;
Structure prediction by ZEFSAII (Michael W. Deem and Ramdas Pophale) SiO2 
 PCOD8037091
Probable space group: P -1
;
_chemical_formula_sum "Si O2"
_cell_formula_units_Z 16
_cell_length_a 8.188314
_cell_length_b 10.659886
_cell_length_c 13.196998
_cell_angle_alpha 118.293176
_cell_angle_beta 60.405649
_cell_angle_gamma 70.655315
_cell_volume 594.820377
_symmetry_space_group_name_H-M "P -1"
_symmetry_group_IT_number 2
_symmetry_cell_setting 'triclinic'
loop_
_space_group_symop_operation_xyz
x,y,z
-x,-y,-z
loop_
_atom_site_type_symbol
_atom_site_label
_atom_site_fract_x
_atom_site_fract_y
_atom_site_fract_z
Si Si1 0.243095 0.578011 0.495516
Si Si2 0.847798 0.242795 0.117172
Si Si3 0.964323 0.013674 0.220437
Si Si4 0.692294 0.271311 0.813445
Si Si5 0.265533 0.435733 0.850168
Si Si6 0.071220 0.622367 0.341636
Si Si7 0.211567 0.238053 0.144466
Si Si8 0.463693 0.150034 0.497640
O O1 0.574989 0.355909 0.312162
O O2 0.215777 0.744809 0.621039
O O3 0.164506 0.625335 0.421544
O O4 0.017862 0.607180 0.635512
O O5 0.054232 0.959204 0.051168
O O6 0.779757 0.369620 0.081229
O O7 0.080333 0.209257 0.088721
O O8 0.759996 0.997914 0.295881
O O9 0.200395 0.885070 0.185979
O O10 0.521162 0.268279 0.785888
O O11 0.928796 0.234526 0.672680
O O12 0.500000 0.500000 0.000000
O O13 0.353438 0.340958 0.673677
O O14 0.000000 0.500000 0.000000
O O15 0.258527 0.378991 0.151329
O O16 0.751431 0.753023 0.490354
O O17 0.500000 0.000000 0.000000
O O18 0.500000 0.000000 0.500000
#
# Coordination Sequence:
#
# PCOD8037091 Si02
#       8
#     2   2   2   2   2   2   2   2
#     4  12  28  52  78 108 152 204 258 323 380 444
#     4  12  26  52  76 105 153 202 250 323 384 447
#     4  12  26  46  78 117 150 200 255 302 389 474
#     4  12  24  42  74 112 154 194 241 305 382 467
#     4  12  24  43  71 106 155 202 242 307 385 455
#     4  12  25  50  75 108 162 193 252 318 382 450
#     4  12  31  51  79 111 143 206 269 323 380 443
#     4  12  24  42  69 116 152 200 247 301 383 469
#
# _framework density 26.898873999999999
#
# number of rings (size 3 to 8) (size 9 to 14) (size 15 to 20)
#    0.000    0.000    6.250    2.250    7.000    1.500 
#    2.250    0.000    0.000    0.000    0.000    0.000 
#    0.000    0.000    0.000    0.000    0.000    0.000 
#
# Total GULP energy -198253.871287 kJ/mol
# GULP energy per Si atom -12390.866955 kJ/mol
# Density = 2.683765 g / cm^3
# Si number density = 26.898874 Si / 1000 Ang^3
#
#
#
# Elastic Constant Matrix: (Units=GPa)
#
#
# Indices 1 2 3 4 5 6 
#
# 1 129.8001 35.8682 51.0508 -2.4768 -0.8194 -34.0744
# 2 35.8682 74.6179 23.8311 -3.7758 -2.9532 -20.4273
# 3 51.0508 23.8311 147.7461 1.6416 -4.7693 -9.5578
# 4 -2.4768 -3.7758 1.6416 36.9273 -1.3642 -1.9630
# 5 -0.8194 -2.9532 -4.7693 -1.3642 53.6952 4.0533
# 6 -34.0744 -20.4273 -9.5578 -1.9630 4.0533 55.9799
#
#
#
# Elastic Compliance Matrix: (Units=1/GPa)
#
#
# Indices 1 2 3 4 5 6 
#
# 1 0.011099 -0.002905 -0.003057 0.000839 -0.000637 0.005250
# 2 -0.002905 0.016454 -0.001394 0.001781 0.000478 0.004026
# 3 -0.003057 -0.001394 0.008009 -0.000737 0.000650 -0.001075
# 4 0.000839 0.001781 -0.000737 0.027477 0.000596 0.001955
# 5 -0.000637 0.000478 0.000650 0.000596 0.018822 -0.001444
# 6 0.005250 0.004026 -0.001075 0.001955 -0.001444 0.022518
#
#
# Mechanical properties :
#
#
# Convention : Reuss Voigt Hill
#
# Bulk Modulus (GPa) = 47.95916 63.74049 55.84982
# Shear Modulus (GPa) = 39.66936 45.41474 42.54205
#
# Velocity S-wave (km/s) = 3.84443 4.11341 3.98119
# Velocity P-wave (km/s) = 6.12979 6.80500 6.47620
#
# Compressibility (1/GPa) = 0.02085108
#
# Stress axis : x y z
#
# Youngs Moduli (GPa) = 90.09686 60.77408 124.85704
#
# Poissons Ratio (x) = 0.17652 0.38167
# Poissons Ratio (y) = 0.26170 0.17409
# Poissons Ratio (z) = 0.27541 0.08474
#
# Static dielectric constant tensor:
#      x y z
#    x 4.046170 0.745040 1.062460 
#    y 0.745040 4.407500 -1.396970 
#    z 1.062460 -1.396970 1.488230 
# 
# 
# High freq. dielectric constant tensor:
#      x y z
#    x 2.095750 -0.005030 -0.002570 
#    y -0.005030 2.108790 0.005240 
#    z -0.002570 0.005240 2.079910 
# 
# From -- ./inp_files/500547.got.cif
#   From: 2010.06.25/outbox.cif.g09.slc.cpg/sg2_251_cif.got.tgz:500547.got - 2010.06.27 13:26:56.
