data_PCOD8037304
_publ_section_title
;
Structure prediction by ZEFSAII (Michael W. Deem and Ramdas Pophale) SiO2 
 PCOD8037304
Probable space group: P -1
;
_chemical_formula_sum "Si O2"
_cell_formula_units_Z 16
_cell_length_a 9.404841
_cell_length_b 10.397851
_cell_length_c 9.594784
_cell_angle_alpha 97.192974
_cell_angle_beta 131.463617
_cell_angle_gamma 82.106225
_cell_volume 695.715876
_symmetry_space_group_name_H-M "P -1"
_symmetry_group_IT_number 2
_symmetry_cell_setting 'triclinic'
loop_
_space_group_symop_operation_xyz
x,y,z
-x,-y,-z
loop_
_atom_site_type_symbol
_atom_site_label
_atom_site_fract_x
_atom_site_fract_y
_atom_site_fract_z
Si Si1 0.964242 0.496978 0.311849
Si Si2 0.804790 0.275243 0.864232
Si Si3 0.776683 0.800263 0.895737
Si Si4 0.948939 0.887020 0.550518
Si Si5 0.289597 0.728608 0.899262
Si Si6 0.270019 0.247830 0.841476
Si Si7 0.696613 0.541612 0.686763
Si Si8 0.716455 0.012727 0.667552
O O1 0.787882 0.411997 0.160161
O O2 0.884479 0.633168 0.215967
O O3 0.000000 0.500000 0.500000
O O4 0.155324 0.449409 0.345267
O O5 0.754598 0.425882 0.816549
O O6 0.755780 0.165152 0.705448
O O7 0.710743 0.221335 0.935677
O O8 0.026564 0.272444 0.030644
O O9 0.646812 0.684011 0.745983
O O10 0.755040 0.940743 0.829488
O O11 0.756799 0.840457 0.051184
O O12 0.791831 0.810473 0.354039
O O13 0.847738 0.936664 0.630543
O O14 0.148695 0.808693 0.709947
O O15 0.000000 0.000000 0.500000
O O16 0.510354 0.720429 0.999771
O O17 0.500000 0.500000 0.500000
O O18 0.500000 0.000000 0.500000
#
# Coordination Sequence:
#
# PCOD8037304 Si02
#       8
#     2   2   2   2   2   2   2   2
#     4  12  25  46  73 105 149 187 238 301 366 434
#     4  12  24  47  74 101 145 191 241 301 365 428
#     4  12  25  48  73 105 145 190 244 300 360 432
#     4  12  28  48  71 106 151 192 245 304 359 437
#     4  12  27  47  76 106 148 194 240 301 369 438
#     4  12  28  46  76 108 149 193 243 298 372 436
#     4  12  27  45  77 108 145 192 246 305 367 437
#     4  12  27  47  75 106 143 190 247 300 364 436
#
# _framework density 22.997895
#
# number of rings (size 3 to 8) (size 9 to 14) (size 15 to 20)
#    0.000    0.000    5.000    4.125    7.000    0.500 
#    0.000    0.000    0.000    0.000    0.000    0.000 
#    0.000    0.000    0.000    0.000    0.000    0.000 
#
# Total GULP energy -198244.543703 kJ/mol
# GULP energy per Si atom -12390.283981 kJ/mol
# Density = 2.294555 g / cm^3
# Si number density = 22.997895 Si / 1000 Ang^3
#
#
#
# Elastic Constant Matrix: (Units=GPa)
#
#
# Indices 1 2 3 4 5 6 
#
# 1 95.3342 1.0724 32.4831 -14.1484 -5.2472 3.7294
# 2 1.0724 86.3247 16.4583 11.9204 -10.1401 17.6304
# 3 32.4831 16.4583 95.2906 -8.2253 -1.5854 0.0708
# 4 -14.1484 11.9204 -8.2253 36.3699 7.7904 -13.3040
# 5 -5.2472 -10.1401 -1.5854 7.7904 48.4389 0.2110
# 6 3.7294 17.6304 0.0708 -13.3040 0.2110 24.9552
#
#
#
# Elastic Compliance Matrix: (Units=1/GPa)
#
#
# Indices 1 2 3 4 5 6 
#
# 1 0.012418 0.000123 -0.003915 0.003803 0.000631 0.000091
# 2 0.000123 0.021143 -0.005174 -0.018790 0.007401 -0.025020
# 3 -0.003915 -0.005174 0.013235 0.006420 -0.002140 0.007643
# 4 0.003803 -0.018790 0.006420 0.054524 -0.012263 0.041859
# 5 0.000631 0.007401 -0.002140 -0.012263 0.024217 -0.012059
# 6 0.000091 -0.025020 0.007643 0.041859 -0.012059 0.080131
#
#
# Mechanical properties :
#
#
# Convention : Reuss Voigt Hill
#
# Bulk Modulus (GPa) = 34.64651 41.88637 38.26644
# Shear Modulus (GPa) = 21.43884 37.08186 29.26035
#
# Velocity S-wave (km/s) = 3.05652 4.01983 3.57081
# Velocity P-wave (km/s) = 5.24921 6.30857 5.80311
#
# Compressibility (1/GPa) = 0.02886294
#
# Stress axis : x y z
#
# Youngs Moduli (GPa) = 80.53003 47.29688 75.55486
#
# Poissons Ratio (x) = -0.00580 0.29583
# Poissons Ratio (y) = -0.00987 0.39090
# Poissons Ratio (z) = 0.31531 0.24470
#
# Static dielectric constant tensor:
#      x y z
#    x 4.417780 0.236220 -0.465120 
#    y 0.236220 4.824690 -0.228850 
#    z -0.465120 -0.228850 5.083900 
# 
# 
# High freq. dielectric constant tensor:
#      x y z
#    x 1.912480 0.008270 -0.002000 
#    y 0.008270 1.916490 0.001510 
#    z -0.002000 0.001510 1.925910 
# 
# From -- ./inp_files/188029.got.cif
#   From: 2010.06.25/outbox.cif.g09.slc.cpg/sg2_95_cif.got.tgz:188029.got - 2010.06.27 13:26:56.
