data_PCOD8037655
_publ_section_title
;
Structure prediction by ZEFSAII (Michael W. Deem and Ramdas Pophale) SiO2 
 PCOD8037655
Probable space group: P -1
;
_chemical_formula_sum "Si O2"
_cell_formula_units_Z 12
_cell_length_a 5.097612
_cell_length_b 9.405660
_cell_length_c 11.870652
_cell_angle_alpha 119.295959
_cell_angle_beta 75.944533
_cell_angle_gamma 109.500987
_cell_volume 465.695038
_symmetry_space_group_name_H-M "P -1"
_symmetry_group_IT_number 2
_symmetry_cell_setting 'triclinic'
loop_
_space_group_symop_operation_xyz
x,y,z
-x,-y,-z
loop_
_atom_site_type_symbol
_atom_site_label
_atom_site_fract_x
_atom_site_fract_y
_atom_site_fract_z
Si Si1 0.593823 0.342134 0.193003
Si Si2 0.443623 0.148989 0.341863
Si Si3 0.267438 0.577890 0.427561
Si Si4 0.834985 0.932541 0.282553
Si Si5 0.040290 0.677211 0.276905
Si Si6 0.489385 0.305435 0.939402
O O1 0.615783 0.199213 0.226006
O O2 0.357355 0.429074 0.296218
O O3 0.885920 0.480860 0.203248
O O4 0.508043 0.256109 0.048089
O O5 0.480275 0.318352 0.479010
O O6 0.577750 0.020006 0.347728
O O7 0.122438 0.076141 0.313715
O O8 0.192631 0.704947 0.392064
O O9 0.000000 0.500000 0.500000
O O10 0.796901 0.815455 0.127977
O O11 0.828934 0.800874 0.336647
O O12 0.257566 0.733582 0.173712
O O13 0.500000 0.500000 0.000000
#
# Coordination Sequence:
#
# PCOD8037655 Si02
#       6
#     2   2   2   2   2   2
#     4  12  27  48  85 113 153 211 265 322 380 470
#     4  12  29  50  76 119 164 199 256 329 395 460
#     4  12  26  50  81 117 153 209 266 317 386 471
#     4  12  28  52  75 120 158 204 257 327 403 446
#     4  12  25  49  81 116 151 206 268 311 389 468
#     4  12  25  50  81 116 152 205 269 319 384 471
#
# _framework density 25.767935999999999
#
# number of rings (size 3 to 8) (size 9 to 14) (size 15 to 20)
#    0.000    0.000    6.667    2.000    2.333    2.667 
#    0.000    0.000    0.000    0.000    0.000    0.000 
#    0.000    0.000    0.000    0.000    0.000    0.000 
#
# Total GULP energy -148810.220742 kJ/mol
# GULP energy per Si atom -12400.851729 kJ/mol
# Density = 2.570929 g / cm^3
# Si number density = 25.767936 Si / 1000 Ang^3
#
#
#
# Elastic Constant Matrix: (Units=GPa)
#
#
# Indices 1 2 3 4 5 6 
#
# 1 119.9010 14.5040 38.9276 3.1235 17.8861 14.2908
# 2 14.5040 50.6444 16.7338 -0.9250 7.3648 0.5911
# 3 38.9276 16.7338 118.5509 -16.6149 19.9256 18.0060
# 4 3.1235 -0.9250 -16.6149 51.9291 1.9020 13.6861
# 5 17.8861 7.3648 19.9256 1.9020 45.3871 12.4540
# 6 14.2908 0.5911 18.0060 13.6861 12.4540 54.5418
#
#
#
# Elastic Compliance Matrix: (Units=1/GPa)
#
#
# Indices 1 2 3 4 5 6 
#
# 1 0.009865 -0.001640 -0.002672 -0.001161 -0.002152 -0.000902
# 2 -0.001640 0.021309 -0.002453 -0.000667 -0.002165 0.001670
# 3 -0.002672 -0.002453 0.011336 0.004791 -0.002741 -0.003592
# 4 -0.001161 -0.000667 0.004791 0.022667 -0.000617 -0.006817
# 5 -0.002152 -0.002165 -0.002741 -0.000617 0.025614 -0.004202
# 6 -0.000902 0.001670 -0.003592 -0.006817 -0.004202 0.022409
#
#
# Mechanical properties :
#
#
# Convention : Reuss Voigt Hill
#
# Bulk Modulus (GPa) = 34.50482 47.71413 41.10948
# Shear Modulus (GPa) = 36.65964 44.96698 40.81331
#
# Velocity S-wave (km/s) = 3.77594 4.18194 3.98412
# Velocity P-wave (km/s) = 5.69473 6.47111 6.09529
#
# Compressibility (1/GPa) = 0.02898146
#
# Stress axis : x y z
#
# Youngs Moduli (GPa) = 101.37012 46.92904 88.21069
#
# Poissons Ratio (x) = 0.07697 0.23567
# Poissons Ratio (y) = 0.16626 0.21634
# Poissons Ratio (z) = 0.27082 0.11510
#
# Static dielectric constant tensor:
#      x y z
#    x 4.709140 -0.085980 0.399170 
#    y -0.085980 4.905440 -0.014590 
#    z 0.399170 -0.014590 4.857370 
# 
# 
# High freq. dielectric constant tensor:
#      x y z
#    x 2.036760 -0.002620 0.024450 
#    y -0.002620 2.037590 -0.000720 
#    z 0.024450 -0.000720 2.024030 
# 
# From -- ./inp_files/479983.got.cif
#   From: 2010.06.25/outbox.cif.g09.slc.cpg/sg2_240_cif.got.tgz:479983.got - 2010.06.27 13:26:56.
