data_PCOD8037814
_publ_section_title
;
Structure prediction by ZEFSAII (Michael W. Deem and Ramdas Pophale) SiO2 
 PCOD8037814
Probable space group: P -1
;
_chemical_formula_sum "Si O2"
_cell_formula_units_Z 10
_cell_length_a 11.910221
_cell_length_b 15.341377
_cell_length_c 5.351110
_cell_angle_alpha 117.835379
_cell_angle_beta 126.290902
_cell_angle_gamma 28.743499
_cell_volume 375.554664
_symmetry_space_group_name_H-M "P -1"
_symmetry_group_IT_number 2
_symmetry_cell_setting 'triclinic'
loop_
_space_group_symop_operation_xyz
x,y,z
-x,-y,-z
loop_
_atom_site_type_symbol
_atom_site_label
_atom_site_fract_x
_atom_site_fract_y
_atom_site_fract_z
Si Si1 0.826065 0.790902 0.751363
Si Si2 0.906393 0.108644 0.274641
Si Si3 0.371975 0.480224 0.921135
Si Si4 0.769189 0.629233 0.676169
Si Si5 0.295634 0.036278 0.679892
O O1 0.831655 0.667524 0.576699
O O2 0.671605 0.929845 0.501578
O O3 0.117754 0.661305 0.986987
O O4 0.682267 0.899494 0.973751
O O5 0.010539 0.158420 0.474413
O O6 0.594137 0.295189 0.129127
O O7 0.000000 0.000000 0.500000
O O8 0.000000 0.000000 0.000000
O O9 0.258703 0.468938 0.558747
O O10 0.500000 0.500000 0.000000
O O11 0.496210 0.826879 0.698663
O O12 0.000000 0.500000 0.000000
#
# Coordination Sequence:
#
# PCOD8037814 Si02
#       5
#     2   2   2   2   2
#     4  12  28  51  82 119 161 208 264 331 403 477
#     4  12  27  50  83 115 160 213 268 333 399 474
#     4  12  28  53  81 120 163 211 273 331 402 479
#     4  12  29  52  82 120 164 213 269 335 402 480
#     4  12  27  52  83 116 158 214 268 325 402 481
#
# _framework density 26.627285000000001
#
# number of rings (size 3 to 8) (size 9 to 14) (size 15 to 20)
#    0.000    0.000    4.000    4.200    2.800    4.000 
#    0.000    0.000    0.000    0.000    0.000    0.000 
#    0.000    0.000    0.000    0.000    0.000    0.000 
#
# Total GULP energy -124037.534933 kJ/mol
# GULP energy per Si atom -12403.753493 kJ/mol
# Density = 2.656668 g / cm^3
# Si number density = 26.627285 Si / 1000 Ang^3
#
#
#
# Elastic Constant Matrix: (Units=GPa)
#
#
# Indices 1 2 3 4 5 6 
#
# 1 174.8583 50.3198 85.9612 12.8302 -2.0505 6.6257
# 2 50.3198 130.2377 63.5483 -21.7431 -17.9200 -6.0444
# 3 85.9612 63.5483 179.4971 -18.3757 -4.6261 13.6251
# 4 12.8302 -21.7431 -18.3757 53.4514 5.1541 10.6804
# 5 -2.0505 -17.9200 -4.6261 5.1541 59.3752 1.2561
# 6 6.6257 -6.0444 13.6251 10.6804 1.2561 53.5201
#
#
#
# Elastic Compliance Matrix: (Units=1/GPa)
#
#
# Indices 1 2 3 4 5 6 
#
# 1 0.008499 -0.002168 -0.003791 -0.004303 -0.000294 0.000534
# 2 -0.002168 0.010713 -0.002427 0.003524 0.002635 0.001331
# 3 -0.003791 -0.002427 0.008805 0.003539 -0.000427 -0.002743
# 4 -0.004303 0.003524 0.003539 0.023386 -0.000742 -0.004620
# 5 -0.000294 0.002635 -0.000427 -0.000742 0.017655 0.000176
# 6 0.000534 0.001331 -0.002743 -0.004620 0.000176 0.020385
#
#
# Mechanical properties :
#
#
# Convention : Reuss Voigt Hill
#
# Bulk Modulus (GPa) = 88.92887 98.25017 93.58952
# Shear Modulus (GPa) = 45.47010 52.25360 48.86185
#
# Velocity S-wave (km/s) = 4.13686 4.43471 4.28837
# Velocity P-wave (km/s) = 7.50255 7.94988 7.72945
#
# Compressibility (1/GPa) = 0.01124494
#
# Stress axis : x y z
#
# Youngs Moduli (GPa) = 117.66637 93.34745 113.56677
#
# Poissons Ratio (x) = 0.20236 0.43055
# Poissons Ratio (y) = 0.25508 0.27561
# Poissons Ratio (z) = 0.44609 0.22654
#
# Static dielectric constant tensor:
#      x y z
#    x 5.124780 -0.279550 0.430700 
#    y -0.279550 5.300150 -0.310170 
#    z 0.430700 -0.310170 4.881810 
# 
# 
# High freq. dielectric constant tensor:
#      x y z
#    x 2.086600 -0.014280 0.027410 
#    y -0.014280 2.093870 -0.024800 
#    z 0.027410 -0.024800 2.077220 
# 
# From -- ./inp_files/62897.got.cif
#   From: 2010.06.25/outbox.cif.g09.slc.cpg/sg2_32_cif.got.tgz:62897.got - 2010.06.27 13:26:56.
