data_PCOD8037331
_publ_section_title
;
Structure prediction by ZEFSAII (Michael W. Deem and Ramdas Pophale) SiO2 
 PCOD8037331
Probable space group: P -1
;
_chemical_formula_sum "Si O2"
_cell_formula_units_Z 16
_cell_length_a 8.901652
_cell_length_b 8.686574
_cell_length_c 15.818293
_cell_angle_alpha 66.577942
_cell_angle_beta 45.047458
_cell_angle_gamma 90.181572
_cell_volume 714.291899
_symmetry_space_group_name_H-M "P -1"
_symmetry_group_IT_number 2
_symmetry_cell_setting 'triclinic'
loop_
_space_group_symop_operation_xyz
x,y,z
-x,-y,-z
loop_
_atom_site_type_symbol
_atom_site_label
_atom_site_fract_x
_atom_site_fract_y
_atom_site_fract_z
Si Si1 0.095854 0.508377 0.867016
Si Si2 0.603200 0.180510 0.861545
Si Si3 0.114640 0.810253 0.557132
Si Si4 0.503207 0.698512 0.437595
Si Si5 0.594626 0.797395 0.558881
Si Si6 0.242565 0.180951 0.863032
Si Si7 0.008120 0.303769 0.549873
Si Si8 0.260824 0.491793 0.131658
O O1 0.322547 0.703547 0.716864
O O2 0.189264 0.355080 0.856339
O O3 0.887167 0.471615 0.891926
O O4 0.000000 0.500000 0.000000
O O5 0.410021 0.173383 0.872425
O O6 0.832960 0.188255 0.719951
O O7 0.682998 0.360827 0.848274
O O8 0.500000 0.000000 0.000000
O O9 0.233491 0.666394 0.545318
O O10 0.064778 0.827627 0.475092
O O11 0.878448 0.714210 0.727821
O O12 0.277206 0.013733 0.482136
O O13 0.500000 0.500000 0.500000
O O14 0.613121 0.839021 0.442263
O O15 0.638368 0.805939 0.277740
O O16 0.722129 0.659573 0.548914
O O17 0.000000 0.000000 0.000000
O O18 0.000000 0.500000 0.500000
O O19 0.500000 0.500000 0.000000
#
# Coordination Sequence:
#
# PCOD8037331 Si02
#       8
#     2   2   2   2   2   2   2   2
#     4  12  28  48  73 107 154 201 249 310 384 456
#     4  12  28  48  75 111 150 197 256 316 382 452
#     4  12  26  48  74 112 150 196 256 312 378 451
#     4  12  24  47  78 108 146 195 260 311 372 444
#     4  12  28  44  78 111 149 199 255 316 375 447
#     4  12  27  48  77 109 149 201 255 315 377 454
#     4  12  25  48  78 106 147 198 255 315 373 452
#     4  12  28  47  74 108 156 198 247 312 386 455
#
# _framework density 22.399806000000002
#
# number of rings (size 3 to 8) (size 9 to 14) (size 15 to 20)
#    0.000    0.000    5.000    3.750    8.750    1.000 
#    0.000    0.000    0.000    0.000    0.000    0.000 
#    0.000    0.000    0.000    0.000    0.000    0.000 
#
# Total GULP energy -198435.547756 kJ/mol
# GULP energy per Si atom -12402.221735 kJ/mol
# Density = 2.234882 g / cm^3
# Si number density = 22.399806 Si / 1000 Ang^3
#
#
#
# Elastic Constant Matrix: (Units=GPa)
#
#
# Indices 1 2 3 4 5 6 
#
# 1 151.0205 35.2130 76.7945 19.9377 -0.0311 17.5630
# 2 35.2130 77.2387 67.9850 11.4582 2.0721 23.5121
# 3 76.7945 67.9850 179.3689 14.0950 2.1765 13.5840
# 4 19.9377 11.4582 14.0950 44.4338 2.3667 2.5362
# 5 -0.0311 2.0721 2.1765 2.3667 45.5581 9.1772
# 6 17.5630 23.5121 13.5840 2.5362 9.1772 51.6294
#
#
#
# Elastic Compliance Matrix: (Units=1/GPa)
#
#
# Indices 1 2 3 4 5 6 
#
# 1 0.009020 0.000020 -0.003491 -0.002863 0.000754 -0.002153
# 2 0.000020 0.022744 -0.007773 -0.002992 0.001181 -0.008382
# 3 -0.003491 -0.007773 0.009826 0.000358 -0.000586 0.002229
# 4 -0.002863 -0.002992 0.000358 0.024450 -0.001413 0.001293
# 5 0.000754 0.001181 -0.000586 -0.001413 0.022934 -0.004647
# 6 -0.002153 -0.008382 0.002229 0.001293 -0.004647 0.024094
#
#
# Mechanical properties :
#
#
# Convention : Reuss Voigt Hill
#
# Bulk Modulus (GPa) = 52.35114 85.29035 68.82075
# Shear Modulus (GPa) = 35.23018 43.49997 39.36508
#
# Velocity S-wave (km/s) = 3.97014 4.41157 4.19667
# Velocity P-wave (km/s) = 6.66619 8.00677 7.36703
#
# Compressibility (1/GPa) = 0.01910178
#
# Stress axis : x y z
#
# Youngs Moduli (GPa) = 110.85935 43.96855 101.77062
#
# Poissons Ratio (x) = -0.00087 0.35525
# Poissons Ratio (y) = -0.00219 0.79108
# Poissons Ratio (z) = 0.38697 0.34178
#
# Static dielectric constant tensor:
#      x y z
#    x 4.733760 0.095190 0.036000 
#    y 0.095190 4.080160 0.247830 
#    z 0.036000 0.247830 4.352590 
# 
# 
# High freq. dielectric constant tensor:
#      x y z
#    x 1.908150 0.008770 -0.000780 
#    y 0.008770 1.891290 0.011780 
#    z -0.000780 0.011780 1.893540 
# 
# From -- ./inp_files/494615.got.cif
#   From: 2010.06.25/outbox.cif.g09.slc.cpg/sg2_248_cif.got.tgz:494615.got - 2010.06.27 13:26:56.
