data_PCOD8037061
_publ_section_title
;
Structure prediction by ZEFSAII (Michael W. Deem and Ramdas Pophale) SiO2 
 PCOD8037061
Probable space group: P -1
;
_chemical_formula_sum "Si O2"
_cell_formula_units_Z 14
_cell_length_a 11.270816
_cell_length_b 8.656456
_cell_length_c 9.452607
_cell_angle_alpha 107.291324
_cell_angle_beta 114.388157
_cell_angle_gamma 116.895151
_cell_volume 601.576563
_symmetry_space_group_name_H-M "P -1"
_symmetry_group_IT_number 2
_symmetry_cell_setting 'triclinic'
loop_
_space_group_symop_operation_xyz
x,y,z
-x,-y,-z
loop_
_atom_site_type_symbol
_atom_site_label
_atom_site_fract_x
_atom_site_fract_y
_atom_site_fract_z
Si Si1 0.181945 0.005935 0.189923
Si Si2 0.410015 0.901359 0.280537
Si Si3 0.320981 0.082835 0.745700
Si Si4 0.313803 0.347238 0.591163
Si Si5 0.857122 0.575886 0.048236
Si Si6 0.043235 0.375523 0.574930
Si Si7 0.679471 0.742684 0.931539
O O1 0.343758 0.022596 0.235143
O O2 0.024538 0.760282 0.088393
O O3 0.226722 0.166199 0.379907
O O4 0.161525 0.086965 0.053576
O O5 0.546435 0.947543 0.245425
O O6 0.500000 0.000000 0.500000
O O7 0.249284 0.645706 0.151225
O O8 0.347676 0.271214 0.727353
O O9 0.353391 0.138151 0.942959
O O10 0.124723 0.872587 0.562745
O O11 0.192069 0.400689 0.573091
O O12 0.506304 0.568077 0.705270
O O13 0.899388 0.537277 0.212866
O O14 0.738491 0.637192 0.024375
O O15 0.000000 0.500000 0.500000
#
# Coordination Sequence:
#
# PCOD8037061 Si02
#       7
#     2   2   2   2   2   2   2
#     4  12  27  45  72 109 150 195 237 299 357 441
#     4  12  25  46  74 105 147 193 242 298 368 427
#     4  12  24  48  74 102 147 193 244 297 363 431
#     4  12  23  51  75 103 148 194 244 299 364 429
#     4  12  24  50  73 106 149 191 241 301 369 427
#     4  12  28  46  78 110 141 190 248 307 362 431
#     4  12  26  45  77 109 141 197 247 294 363 436
#
# _framework density 23.272182999999998
#
# number of rings (size 3 to 8) (size 9 to 14) (size 15 to 20)
#    0.000    0.000    5.714    3.857    4.000    0.571 
#    2.571    0.000    0.000    0.000    0.000    0.000 
#    0.000    0.000    0.000    0.000    0.000    0.000 
#
# Total GULP energy -173648.640195 kJ/mol
# GULP energy per Si atom -12403.474300 kJ/mol
# Density = 2.321921 g / cm^3
# Si number density = 23.272183 Si / 1000 Ang^3
#
#
#
# Elastic Constant Matrix: (Units=GPa)
#
#
# Indices 1 2 3 4 5 6 
#
# 1 113.0442 34.8077 20.3888 -7.0920 -3.8370 -5.0211
# 2 34.8077 107.6875 50.6161 -11.0946 -5.1472 9.3757
# 3 20.3888 50.6161 145.7146 7.1584 -14.0635 15.2043
# 4 -7.0920 -11.0946 7.1584 33.7674 3.2809 6.3118
# 5 -3.8370 -5.1472 -14.0635 3.2809 38.2999 -1.2703
# 6 -5.0211 9.3757 15.2043 6.3118 -1.2703 38.5775
#
#
#
# Elastic Compliance Matrix: (Units=1/GPa)
#
#
# Indices 1 2 3 4 5 6 
#
# 1 0.010053 -0.003073 -0.000565 0.000779 0.000392 0.002163
# 2 -0.003073 0.012928 -0.004076 0.005044 -0.000591 -0.002780
# 3 -0.000565 -0.004076 0.009009 -0.003277 0.002918 -0.002001
# 4 0.000779 0.005044 -0.003277 0.033484 -0.003496 -0.005426
# 5 0.000392 -0.000591 0.002918 -0.003496 0.027458 0.000521
# 6 0.002163 -0.002780 -0.002001 -0.005426 0.000521 0.028573
#
#
# Mechanical properties :
#
#
# Convention : Reuss Voigt Hill
#
# Bulk Modulus (GPa) = 60.37857 64.23017 62.30437
# Shear Modulus (GPa) = 35.09929 39.50454 37.30192
#
# Velocity S-wave (km/s) = 3.88778 4.12454 4.00791
# Velocity P-wave (km/s) = 6.79367 7.09521 6.94607
#
# Compressibility (1/GPa) = 0.01656217
#
# Stress axis : x y z
#
# Youngs Moduli (GPa) = 99.47757 77.34870 110.99970
#
# Poissons Ratio (x) = 0.23768 0.06276
# Poissons Ratio (y) = 0.30568 0.45239
# Poissons Ratio (z) = 0.05624 0.31524
#
# Static dielectric constant tensor:
#      x y z
#    x 4.709000 -0.196250 0.154340 
#    y -0.196250 4.397280 0.141750 
#    z 0.154340 0.141750 4.170840 
# 
# 
# High freq. dielectric constant tensor:
#      x y z
#    x 1.937140 0.000960 0.004090 
#    y 0.000960 1.919990 0.008710 
#    z 0.004090 0.008710 1.927540 
# 
# From -- ./inp_files/159979.got.cif
#   From: 2010.06.25/outbox.cif.g09.slc.cpg/sg2_80_cif.got.tgz:159979.got - 2010.06.27 13:26:56.
