data_PCOD8037879
_publ_section_title
;
Structure prediction by ZEFSAII (Michael W. Deem and Ramdas Pophale) SiO2 
 PCOD8037879
Probable space group: P -1
;
_chemical_formula_sum "Si O2"
_cell_formula_units_Z 16
_cell_length_a 16.947951
_cell_length_b 10.480385
_cell_length_c 12.672318
_cell_angle_alpha 114.204220
_cell_angle_beta 37.671175
_cell_angle_gamma 140.758466
_cell_volume 740.499706
_symmetry_space_group_name_H-M "P -1"
_symmetry_group_IT_number 2
_symmetry_cell_setting 'triclinic'
loop_
_space_group_symop_operation_xyz
x,y,z
-x,-y,-z
loop_
_atom_site_type_symbol
_atom_site_label
_atom_site_fract_x
_atom_site_fract_y
_atom_site_fract_z
Si Si1 0.835196 0.787310 0.239217
Si Si2 0.710390 0.783275 0.159778
Si Si3 0.741247 0.262502 0.301965
Si Si4 0.265191 0.492223 0.463065
Si Si5 0.856481 0.907313 0.475907
Si Si6 0.685790 0.542310 0.827068
Si Si7 0.424949 0.643871 0.900414
Si Si8 0.806327 0.465134 0.087391
O O1 0.784647 0.859298 0.228726
O O2 0.738432 0.759304 0.441154
O O3 0.728120 0.545357 0.243605
O O4 0.095987 0.992534 0.044218
O O5 0.501708 0.695502 0.335457
O O6 0.665339 0.586216 0.109446
O O7 0.836905 0.469830 0.348624
O O8 0.732920 0.290579 0.195226
O O9 0.500000 0.000000 0.500000
O O10 0.929865 0.309777 0.133735
O O11 0.125606 0.224354 0.523812
O O12 0.301012 0.548000 0.319380
O O13 0.690524 0.873656 0.693072
O O14 0.087350 0.178456 0.303387
O O15 0.500000 0.500000 0.000000
O O16 0.643977 0.396243 0.917687
O O17 0.319161 0.664161 0.937269
#
# Coordination Sequence:
#
# PCOD8037879 Si02
#       8
#     2   2   2   2   2   2   2   2
#     4  10  17  32  56  87 125 149 187 238 300 361
#     4   9  18  30  54  89 120 157 180 235 303 357
#     4  11  24  42  63  85 115 159 204 256 295 338
#     4  11  22  37  57  88 119 157 199 237 292 356
#     4  11  21  34  60  92 122 159 188 234 301 365
#     4  12  22  39  58  92 130 156 190 233 295 366
#     4  10  22  36  57  88 124 157 192 243 290 355
#     4  10  23  40  58  87 120 152 204 251 294 342
#
# _framework density 21.607029000000001
#
# number of rings (size 3 to 8) (size 9 to 14) (size 15 to 20)
#    0.000    1.500    5.000    1.125    1.750    2.500 
#    0.000    0.625    0.000    1.500    0.000    0.000 
#    0.000    0.000    0.000    0.000    0.000    0.000 
#
# Total GULP energy -198265.442950 kJ/mol
# GULP energy per Si atom -12391.590184 kJ/mol
# Density = 2.155785 g / cm^3
# Si number density = 21.607029 Si / 1000 Ang^3
#
#
#
# Elastic Constant Matrix: (Units=GPa)
#
#
# Indices 1 2 3 4 5 6 
#
# 1 120.9603 17.9168 55.0457 4.7351 20.5934 14.5634
# 2 17.9168 33.0993 25.5058 -0.0812 -3.4955 4.1996
# 3 55.0457 25.5058 112.6985 -10.4500 16.4050 10.2563
# 4 4.7351 -0.0812 -10.4500 39.4867 12.0790 4.9965
# 5 20.5934 -3.4955 16.4050 12.0790 35.5836 2.2634
# 6 14.5634 4.1996 10.2563 4.9965 2.2634 18.4312
#
#
#
# Elastic Compliance Matrix: (Units=1/GPa)
#
#
# Indices 1 2 3 4 5 6 
#
# 1 0.012134 -0.003348 -0.003895 -0.000171 -0.005117 -0.005982
# 2 -0.003348 0.041167 -0.009961 -0.005871 0.012640 -0.001152
# 3 -0.003895 -0.009961 0.015275 0.007479 -0.008038 -0.004193
# 4 -0.000171 -0.005871 0.007479 0.032995 -0.014499 -0.009853
# 5 -0.005117 0.012640 -0.008038 -0.014499 0.040643 0.004576
# 6 -0.005982 -0.001152 -0.004193 -0.009853 0.004576 0.063688
#
#
# Mechanical properties :
#
#
# Convention : Reuss Voigt Hill
#
# Bulk Modulus (GPa) = 29.26786 51.52164 40.39475
# Shear Modulus (GPa) = 19.86499 29.91963 24.89231
#
# Velocity S-wave (km/s) = 3.03541 3.72522 3.39786
# Velocity P-wave (km/s) = 5.08526 6.51150 5.84207
#
# Compressibility (1/GPa) = 0.03416718
#
# Stress axis : x y z
#
# Youngs Moduli (GPa) = 82.41380 24.29135 65.46469
#
# Poissons Ratio (x) = 0.08133 0.25501
# Poissons Ratio (y) = 0.27593 0.65209
# Poissons Ratio (z) = 0.32103 0.24197
#
# Static dielectric constant tensor:
#      x y z
#    x 4.385810 0.256800 0.188250 
#    y 0.256800 3.483280 0.011060 
#    z 0.188250 0.011060 4.223420 
# 
# 
# High freq. dielectric constant tensor:
#      x y z
#    x 1.840790 0.024250 0.015780 
#    y 0.024250 1.806030 -0.010710 
#    z 0.015780 -0.010710 1.864870 
# 
# From -- ./inp_files/464664.got.cif
#   From: 2010.06.25/outbox.cif.g09.slc.cpg/sg2_233_cif.got.tgz:464664.got - 2010.06.27 13:26:56.
