data_PCOD8037308
_publ_section_title
;
Structure prediction by ZEFSAII (Michael W. Deem and Ramdas Pophale) SiO2 
 PCOD8037308
Probable space group: P -1
;
_chemical_formula_sum "Si O2"
_cell_formula_units_Z 14
_cell_length_a 14.880707
_cell_length_b 14.887771
_cell_length_c 8.548396
_cell_angle_alpha 49.372145
_cell_angle_beta 111.465054
_cell_angle_gamma 150.650481
_cell_volume 592.015587
_symmetry_space_group_name_H-M "P -1"
_symmetry_group_IT_number 2
_symmetry_cell_setting 'triclinic'
loop_
_space_group_symop_operation_xyz
x,y,z
-x,-y,-z
loop_
_atom_site_type_symbol
_atom_site_label
_atom_site_fract_x
_atom_site_fract_y
_atom_site_fract_z
Si Si1 0.113920 0.279517 0.437993
Si Si2 0.129672 0.793975 0.141068
Si Si3 0.545686 0.045640 0.793764
Si Si4 0.097898 0.488075 0.009697
Si Si5 0.545283 0.653130 0.236168
Si Si6 0.762963 0.515010 0.383883
Si Si7 0.280257 0.281108 0.020333
O O1 0.006893 0.274075 0.288586
O O2 0.301723 0.426548 0.279840
O O3 0.253140 0.469172 0.463395
O O4 0.924213 0.980733 0.705899
O O5 0.230488 0.781878 0.282691
O O6 0.994572 0.704956 0.294853
O O7 0.967581 0.596411 0.115978
O O8 0.329371 0.101386 0.876432
O O9 0.574632 0.212742 0.564396
O O10 0.500000 0.000000 0.000000
O O11 0.358623 0.779490 0.871486
O O12 0.000000 0.500000 0.000000
O O13 0.500000 0.500000 0.500000
O O14 0.704931 0.780044 0.058193
O O15 0.742685 0.605467 0.156885
O O16 0.500000 0.500000 0.000000
#
# Coordination Sequence:
#
# PCOD8037308 Si02
#       7
#     2   2   2   2   2   2   2
#     4  12  25  48  74 105 151 197 247 300 371 444
#     4  12  26  47  75 112 146 195 251 305 379 437
#     4  12  24  47  74 107 145 195 246 303 378 435
#     4  12  27  44  77 112 145 196 250 306 372 447
#     4  12  25  47  78 103 151 204 241 304 376 435
#     4  12  25  49  73 103 152 196 244 311 372 440
#     4  12  30  47  73 116 150 194 254 306 366 447
#
# _framework density 23.648025000000001
#
# number of rings (size 3 to 8) (size 9 to 14) (size 15 to 20)
#    0.000    0.000    7.143    1.714    6.000    1.143 
#    0.000    0.000    0.000    0.000    0.000    0.000 
#    0.000    0.000    0.000    0.000    0.000    0.000 
#
# Total GULP energy -173614.008495 kJ/mol
# GULP energy per Si atom -12401.000607 kJ/mol
# Density = 2.359420 g / cm^3
# Si number density = 23.648025 Si / 1000 Ang^3
#
#
#
# Elastic Constant Matrix: (Units=GPa)
#
#
# Indices 1 2 3 4 5 6 
#
# 1 119.0534 14.7982 38.3123 -8.4138 18.8036 25.2938
# 2 14.7982 118.4535 21.2035 -17.9702 15.3167 7.0187
# 3 38.3123 21.2035 106.2601 -19.9699 29.9381 4.9160
# 4 -8.4138 -17.9702 -19.9699 33.3364 8.9217 6.8793
# 5 18.8036 15.3167 29.9381 8.9217 51.2720 -2.7962
# 6 25.2938 7.0187 4.9160 6.8793 -2.7962 37.7555
#
#
#
# Elastic Compliance Matrix: (Units=1/GPa)
#
#
# Indices 1 2 3 4 5 6 
#
# 1 0.012081 0.000963 -0.001382 0.006204 -0.005516 -0.009631
# 2 0.000963 0.010611 0.001268 0.009396 -0.006169 -0.004952
# 3 -0.001382 0.001268 0.015828 0.013964 -0.011805 -0.004789
# 4 0.006204 0.009396 0.013964 0.055447 -0.023953 -0.019598
# 5 -0.005516 -0.006169 -0.011805 -0.023953 0.035158 0.013347
# 6 -0.009631 -0.004952 -0.004789 -0.019598 0.013347 0.039042
#
#
# Mechanical properties :
#
#
# Convention : Reuss Voigt Hill
#
# Bulk Modulus (GPa) = 24.86445 54.71056 39.78750
# Shear Modulus (GPa) = 27.79697 42.43632 35.11664
#
# Velocity S-wave (km/s) = 3.43220 4.24075 3.85771
# Velocity P-wave (km/s) = 5.12287 6.86762 6.05838
#
# Compressibility (1/GPa) = 0.04021806
#
# Stress axis : x y z
#
# Youngs Moduli (GPa) = 82.77752 94.23989 63.17876
#
# Poissons Ratio (x) = -0.09078 0.08733
# Poissons Ratio (y) = -0.07974 -0.08012
# Poissons Ratio (z) = 0.11443 -0.11950
#
# Static dielectric constant tensor:
#      x y z
#    x 4.404070 0.088770 0.058110 
#    y 0.088770 4.274120 -0.140720 
#    z 0.058110 -0.140720 4.465910 
# 
# 
# High freq. dielectric constant tensor:
#      x y z
#    x 1.957080 0.007800 0.010220 
#    y 0.007800 1.923500 -0.016870 
#    z 0.010220 -0.016870 1.946050 
# 
# From -- ./inp_files/188177.got.cif
#   From: 2010.06.25/outbox.cif.g09.slc.cpg/sg2_95_cif.got.tgz:188177.got - 2010.06.27 13:26:56.
