data_PCOD8037013
_publ_section_title
;
Structure prediction by ZEFSAII (Michael W. Deem and Ramdas Pophale) SiO2 
 PCOD8037013
Probable space group: P -1
;
_chemical_formula_sum "Si O2"
_cell_formula_units_Z 16
_cell_length_a 9.020381
_cell_length_b 16.169361
_cell_length_c 9.726530
_cell_angle_alpha 145.087845
_cell_angle_beta 62.366201
_cell_angle_gamma 109.524112
_cell_volume 716.321734
_symmetry_space_group_name_H-M "P -1"
_symmetry_group_IT_number 2
_symmetry_cell_setting 'triclinic'
loop_
_space_group_symop_operation_xyz
x,y,z
-x,-y,-z
loop_
_atom_site_type_symbol
_atom_site_label
_atom_site_fract_x
_atom_site_fract_y
_atom_site_fract_z
Si Si1 0.388605 0.104219 0.993837
Si Si2 0.300859 0.113463 0.505025
Si Si3 0.913133 0.393506 0.293243
Si Si4 0.988317 0.436829 0.770268
Si Si5 0.157081 0.109977 0.847202
Si Si6 0.471965 0.616717 0.553480
Si Si7 0.636246 0.562053 0.116464
Si Si8 0.101307 0.107857 0.315885
O O1 0.476837 0.233887 0.202520
O O2 0.259227 0.040461 0.068032
O O3 0.290716 0.154632 0.963964
O O4 0.526298 0.971923 0.730270
O O5 0.253205 0.053048 0.591038
O O6 0.328498 0.280798 0.737093
O O7 0.149441 0.095954 0.439565
O O8 0.723822 0.368900 0.387127
O O9 0.000000 0.500000 0.500000
O O10 0.911249 0.464206 0.239453
O O11 0.021664 0.240491 0.042617
O O12 0.066271 0.272312 0.502070
O O13 0.789886 0.448118 0.848350
O O14 0.000000 0.500000 0.000000
O O15 0.059802 0.977071 0.763989
O O16 0.500000 0.500000 0.500000
O O17 0.590511 0.568225 0.306534
O O18 0.500000 0.500000 0.000000
#
# Coordination Sequence:
#
# PCOD8037013 Si02
#       8
#     2   2   2   2   2   2   2   2
#     4  12  27  47  71 105 146 182 239 293 356 421
#     4  12  26  48  70 104 146 186 235 297 353 422
#     4  12  25  45  72 102 142 183 236 291 346 422
#     4  12  23  47  70 103 140 181 233 290 348 424
#     4  12  27  46  71 107 140 191 240 290 353 422
#     4  12  26  45  73 105 141 189 232 292 357 420
#     4  12  27  44  73 103 144 184 234 290 361 416
#     4  12  25  47  74 103 140 190 239 289 356 418
#
# _framework density 22.336331000000001
#
# number of rings (size 3 to 8) (size 9 to 14) (size 15 to 20)
#    0.000    0.000    3.750    6.000    5.250    2.000 
#    0.000    0.000    0.000    0.000    0.000    0.000 
#    0.000    0.000    0.000    0.000    0.000    0.000 
#
# Total GULP energy -198454.501085 kJ/mol
# GULP energy per Si atom -12403.406318 kJ/mol
# Density = 2.228549 g / cm^3
# Si number density = 22.336331 Si / 1000 Ang^3
#
#
#
# Elastic Constant Matrix: (Units=GPa)
#
#
# Indices 1 2 3 4 5 6 
#
# 1 121.7850 23.4155 33.3883 2.0330 5.2663 12.8506
# 2 23.4155 95.2695 19.5637 -7.0010 3.3093 3.3724
# 3 33.3883 19.5637 88.3989 -6.1305 -6.0340 5.6921
# 4 2.0330 -7.0010 -6.1305 33.0079 -2.3964 -6.4504
# 5 5.2663 3.3093 -6.0340 -2.3964 44.3575 -5.0431
# 6 12.8506 3.3724 5.6921 -6.4504 -5.0431 35.4700
#
#
#
# Elastic Compliance Matrix: (Units=1/GPa)
#
#
# Indices 1 2 3 4 5 6 
#
# 1 0.010015 -0.001728 -0.003480 -0.002496 -0.002084 -0.003656
# 2 -0.001728 0.011472 -0.001795 0.002172 -0.000765 0.000110
# 3 -0.003480 -0.001795 0.013364 0.002518 0.002513 0.000102
# 4 -0.002496 0.002172 0.002518 0.032908 0.003017 0.006707
# 5 -0.002084 -0.000765 0.002513 0.003017 0.023850 0.004364
# 6 -0.003656 0.000110 0.000102 0.006707 0.004364 0.031331
#
#
# Mechanical properties :
#
#
# Convention : Reuss Voigt Hill
#
# Bulk Modulus (GPa) = 47.97474 50.90983 49.44228
# Shear Modulus (GPa) = 34.74793 37.83947 36.29370
#
# Velocity S-wave (km/s) = 3.94848 4.12038 4.03534
# Velocity P-wave (km/s) = 6.50479 6.74378 6.62536
#
# Compressibility (1/GPa) = 0.02084430
#
# Stress axis : x y z
#
# Youngs Moduli (GPa) = 99.84877 87.16691 74.83037
#
# Poissons Ratio (x) = 0.15067 0.26042
# Poissons Ratio (y) = 0.17259 0.13430
# Poissons Ratio (z) = 0.34748 0.15644
#
# Static dielectric constant tensor:
#      x y z
#    x 4.198030 -0.008450 0.086690 
#    y -0.008450 4.393240 -0.020400 
#    z 0.086690 -0.020400 4.154520 
# 
# 
# High freq. dielectric constant tensor:
#      x y z
#    x 1.899700 -0.000210 -0.004430 
#    y -0.000210 1.886350 -0.009510 
#    z -0.004430 -0.009510 1.890930 
# 
# From -- ./inp_files/206804.got.cif
#   From: 2010.06.25/outbox.cif.g09.slc.cpg/sg2_104_cif.got.tgz:206804.got - 2010.06.27 13:26:56.
