data_PCOD8037980
_publ_section_title
;
Structure prediction by ZEFSAII (Michael W. Deem and Ramdas Pophale) SiO2 
 PCOD8037980
Probable space group: P -1
;
_chemical_formula_sum "Si O2"
_cell_formula_units_Z 16
_cell_length_a 13.277898
_cell_length_b 12.658018
_cell_length_c 13.161422
_cell_angle_alpha 146.054710
_cell_angle_beta 139.177712
_cell_angle_gamma 60.783369
_cell_volume 746.048119
_symmetry_space_group_name_H-M "P -1"
_symmetry_group_IT_number 2
_symmetry_cell_setting 'triclinic'
loop_
_space_group_symop_operation_xyz
x,y,z
-x,-y,-z
loop_
_atom_site_type_symbol
_atom_site_label
_atom_site_fract_x
_atom_site_fract_y
_atom_site_fract_z
Si Si1 0.591778 0.072961 0.523576
Si Si2 0.663365 0.999911 0.205732
Si Si3 0.667635 0.603545 0.647430
Si Si4 0.140468 0.245810 0.907813
Si Si5 0.366180 0.981751 0.082658
Si Si6 0.175808 0.645363 0.535582
Si Si7 0.801387 0.919172 0.445319
Si Si8 0.833488 0.531740 0.096662
O O1 0.453492 0.983099 0.257522
O O2 0.735388 0.977726 0.547365
O O3 0.500000 0.000000 0.500000
O O4 0.682357 0.318456 0.788226
O O5 0.472461 0.989647 0.063558
O O6 0.785042 0.203011 0.408465
O O7 0.708229 0.009068 0.365861
O O8 0.692647 0.802394 0.025786
O O9 0.500000 0.500000 0.500000
O O10 0.690570 0.828458 0.806919
O O11 0.702755 0.482707 0.481656
O O12 0.815708 0.613022 0.846332
O O13 0.095832 0.361660 0.873098
O O14 0.995961 0.031240 0.656812
O O15 0.209603 0.766427 0.767514
O O16 0.978426 0.506996 0.258387
O O17 0.756877 0.676533 0.213377
#
# Coordination Sequence:
#
# PCOD8037980 Si02
#       8
#     2   2   2   2   2   2   2   2
#     4  11  27  46  64  85 114 161 220 261 295 347
#     4  10  17  33  55  87 132 163 180 227 301 373
#     4  12  22  29  52  89 129 168 195 220 297 378
#     4  11  19  34  59  97 133 157 189 242 308 375
#     4  11  23  40  55  85 131 163 192 252 300 354
#     4  12  21  35  59  90 130 161 193 235 302 373
#     4  10  20  37  63  91 123 156 195 250 308 356
#     4  11  22  39  65  93 124 161 203 247 301 365
#
# _framework density 21.446338000000001
#
# number of rings (size 3 to 8) (size 9 to 14) (size 15 to 20)
#    0.000    1.000    5.000    3.375    1.750    3.500 
#    0.000    0.625    0.000    5.250    0.000    0.000 
#    0.000    0.000    0.000    0.000    0.000    0.000 
#
# Total GULP energy -198224.475504 kJ/mol
# GULP energy per Si atom -12389.029719 kJ/mol
# Density = 2.139753 g / cm^3
# Si number density = 21.446338 Si / 1000 Ang^3
#
#
#
# Elastic Constant Matrix: (Units=GPa)
#
#
# Indices 1 2 3 4 5 6 
#
# 1 102.1818 42.2016 37.1558 9.3491 -15.7355 -5.4816
# 2 42.2016 72.4575 41.3102 3.1533 -13.0946 -20.4308
# 3 37.1558 41.3102 114.5756 -0.5918 -21.8544 -7.3835
# 4 9.3491 3.1533 -0.5918 24.2587 -9.1595 -9.3196
# 5 -15.7355 -13.0946 -21.8544 -9.1595 24.4548 0.6593
# 6 -5.4816 -20.4308 -7.3835 -9.3196 0.6593 24.5622
#
#
#
# Elastic Compliance Matrix: (Units=1/GPa)
#
#
# Indices 1 2 3 4 5 6 
#
# 1 0.014591 -0.009278 -0.001902 -0.007423 0.000152 -0.007853
# 2 -0.009278 0.030663 -0.004017 0.014343 0.011493 0.027361
# 3 -0.001902 -0.004017 0.012996 0.006460 0.010597 0.002307
# 4 -0.007423 0.014343 0.006460 0.069603 0.033729 0.037719
# 5 0.000152 0.011493 0.010597 0.033729 0.068607 0.023736
# 6 -0.007853 0.027361 0.002307 0.037719 0.023736 0.076087
#
#
# Mechanical properties :
#
#
# Convention : Reuss Voigt Hill
#
# Bulk Modulus (GPa) = 35.89839 58.95001 47.42420
# Shear Modulus (GPa) = 16.01395 25.89162 20.95279
#
# Velocity S-wave (km/s) = 2.73554 3.47836 3.12907
# Velocity P-wave (km/s) = 5.17230 6.60900 5.93428
#
# Compressibility (1/GPa) = 0.02785640
#
# Stress axis : x y z
#
# Youngs Moduli (GPa) = 68.53412 32.61245 76.94424
#
# Poissons Ratio (x) = 0.30257 0.14635
# Poissons Ratio (y) = 0.63585 0.30911
# Poissons Ratio (z) = 0.13036 0.13102
#
# Static dielectric constant tensor:
#      x y z
#    x 3.731410 -0.458060 -0.261200 
#    y -0.458060 3.848780 -0.214980 
#    z -0.261200 -0.214980 4.227390 
# 
# 
# High freq. dielectric constant tensor:
#      x y z
#    x 1.804690 -0.040140 -0.025940 
#    y -0.040140 1.823880 -0.014420 
#    z -0.025940 -0.014420 1.856440 
# 
# From -- ./inp_files/533495.got.cif
#   From: 2010.06.25/outbox.cif.g09.slc.cpg/sg2_267_cif.got.tgz:533495.got - 2010.06.27 13:26:56.
