data_PCOD8037024
_publ_section_title
;
Structure prediction by ZEFSAII (Michael W. Deem and Ramdas Pophale) SiO2 
 PCOD8037024
Probable space group: P -1
;
_chemical_formula_sum "Si O2"
_cell_formula_units_Z 16
_cell_length_a 9.412232
_cell_length_b 9.287649
_cell_length_c 25.956080
_cell_angle_alpha 132.828665
_cell_angle_beta 152.993625
_cell_angle_gamma 56.418738
_cell_volume 746.167836
_symmetry_space_group_name_H-M "P -1"
_symmetry_group_IT_number 2
_symmetry_cell_setting 'triclinic'
loop_
_space_group_symop_operation_xyz
x,y,z
-x,-y,-z
loop_
_atom_site_type_symbol
_atom_site_label
_atom_site_fract_x
_atom_site_fract_y
_atom_site_fract_z
Si Si1 0.788158 0.596656 0.740389
Si Si2 0.134202 0.933210 0.868336
Si Si3 0.834180 0.134548 0.631093
Si Si4 0.901001 0.826424 0.384930
Si Si5 0.135464 0.866261 0.735890
Si Si6 0.814326 0.792998 0.904210
Si Si7 0.166071 0.717204 0.093788
Si Si8 0.271842 0.524338 0.479362
O O1 0.840112 0.368374 0.699633
O O2 0.735041 0.649897 0.795109
O O3 0.479490 0.641886 0.620398
O O4 0.075533 0.741674 0.840909
O O5 0.018821 0.888258 0.762031
O O6 0.974709 0.112802 0.880750
O O7 0.500000 0.000000 0.000000
O O8 0.911553 0.103392 0.589128
O O9 0.500000 0.000000 0.500000
O O10 0.092294 0.055860 0.732742
O O11 0.536164 0.762335 0.236712
O O12 0.995854 0.632518 0.394722
O O13 0.000000 0.000000 0.500000
O O14 0.493870 0.821362 0.837635
O O15 0.887781 0.675812 0.591890
O O16 0.077704 0.713327 0.004397
O O17 0.000000 0.000000 0.000000
O O18 0.000000 0.500000 0.000000
O O19 0.500000 0.500000 0.500000
#
# Coordination Sequence:
#
# PCOD8037024 Si02
#       8
#     2   2   2   2   2   2   2   2
#     4  12  26  47  77 103 152 193 242 306 369 439
#     4  12  25  48  76 102 139 204 245 292 373 445
#     4  12  27  46  69 115 149 189 250 305 369 441
#     4  12  28  47  78 108 149 196 246 311 374 442
#     4  12  25  45  73 105 145 188 247 299 368 443
#     4  12  26  50  69 105 148 196 242 305 367 439
#     4  12  28  47  74 111 151 186 257 311 368 441
#     4  12  23  47  75 104 144 190 242 296 369 441
#
# _framework density 21.442898
#
# number of rings (size 3 to 8) (size 9 to 14) (size 15 to 20)
#    0.000    0.000    6.250    2.250    7.000    1.500 
#    0.000    1.875    0.000    0.000    0.000    0.000 
#    0.000    0.000    0.000    0.000    0.000    0.000 
#
# Total GULP energy -198331.082818 kJ/mol
# GULP energy per Si atom -12395.692676 kJ/mol
# Density = 2.139409 g / cm^3
# Si number density = 21.442898 Si / 1000 Ang^3
#
#
#
# Elastic Constant Matrix: (Units=GPa)
#
#
# Indices 1 2 3 4 5 6 
#
# 1 135.3152 63.6933 66.4806 6.1846 -15.0679 1.4487
# 2 63.6933 161.8001 65.4150 0.9568 1.9220 13.1420
# 3 66.4806 65.4150 156.9731 -9.2325 4.5154 -1.1647
# 4 6.1846 0.9568 -9.2325 51.1457 8.4864 -0.0521
# 5 -15.0679 1.9220 4.5154 8.4864 52.8123 1.7262
# 6 1.4487 13.1420 -1.1647 -0.0521 1.7262 36.8057
#
#
#
# Elastic Compliance Matrix: (Units=1/GPa)
#
#
# Indices 1 2 3 4 5 6 
#
# 1 0.011202 -0.002933 -0.003793 -0.002655 0.004044 0.000293
# 2 -0.002933 0.008520 -0.002312 -0.000086 -0.000839 -0.002961
# 3 -0.003793 -0.002312 0.009163 0.002528 -0.002232 0.001373
# 4 -0.002655 -0.000086 0.002528 0.021056 -0.004369 0.000450
# 5 0.004044 -0.000839 -0.002232 -0.004369 0.021042 -0.000923
# 6 0.000293 -0.002961 0.001373 0.000450 -0.000923 0.028303
#
#
# Mechanical properties :
#
#
# Convention : Reuss Voigt Hill
#
# Bulk Modulus (GPa) = 92.48726 93.91844 93.20285
# Shear Modulus (GPa) = 41.33414 45.38604 43.36009
#
# Velocity S-wave (km/s) = 4.39525 4.60564 4.50168
# Velocity P-wave (km/s) = 8.30561 8.49571 8.40120
#
# Compressibility (1/GPa) = 0.01081230
#
# Stress axis : x y z
#
# Youngs Moduli (GPa) = 89.26612 117.36480 109.13312
#
# Poissons Ratio (x) = 0.34419 0.41390
# Poissons Ratio (y) = 0.26179 0.25227
# Poissons Ratio (z) = 0.33855 0.27130
#
# Static dielectric constant tensor:
#      x y z
#    x 3.636410 0.348010 -0.448010 
#    y 0.348010 3.531610 0.245470 
#    z -0.448010 0.245470 4.015400 
# 
# 
# High freq. dielectric constant tensor:
#      x y z
#    x 1.849000 0.011520 -0.001240 
#    y 0.011520 1.853170 0.001040 
#    z -0.001240 0.001040 1.864110 
# 
# From -- ./inp_files/185362.got.cif
#   From: 2010.06.25/outbox.cif.g09.slc.cpg/sg2_93_cif.got.tgz:185362.got - 2010.06.27 13:26:56.
