data_PCOD8037378
_publ_section_title
;
Structure prediction by ZEFSAII (Michael W. Deem and Ramdas Pophale) SiO2 
 PCOD8037378
Probable space group: P -1
;
_chemical_formula_sum "Si O2"
_cell_formula_units_Z 16
_cell_length_a 11.691147
_cell_length_b 9.570843
_cell_length_c 17.878578
_cell_angle_alpha 85.451251
_cell_angle_beta 137.579137
_cell_angle_gamma 128.164580
_cell_volume 746.598520
_symmetry_space_group_name_H-M "P -1"
_symmetry_group_IT_number 2
_symmetry_cell_setting 'triclinic'
loop_
_space_group_symop_operation_xyz
x,y,z
-x,-y,-z
loop_
_atom_site_type_symbol
_atom_site_label
_atom_site_fract_x
_atom_site_fract_y
_atom_site_fract_z
Si Si1 0.351273 0.749588 0.952544
Si Si2 0.240965 0.203953 0.897470
Si Si3 0.086050 0.940359 0.105210
Si Si4 0.260313 0.757795 0.574059
Si Si5 0.724030 0.898046 0.405619
Si Si6 0.656397 0.753457 0.545753
Si Si7 0.229923 0.561598 0.063428
Si Si8 0.737942 0.284607 0.588415
O O1 0.003839 0.484513 0.769697
O O2 0.563444 0.800986 0.000503
O O3 0.366016 0.732382 0.049063
O O4 0.500000 0.000000 0.000000
O O5 0.019449 0.070426 0.866237
O O6 0.500000 0.500000 0.000000
O O7 0.015766 0.024857 0.725475
O O8 0.434408 0.123900 0.268026
O O9 0.899631 0.673204 0.015144
O O10 0.000000 0.000000 0.000000
O O11 0.134498 0.661034 0.433429
O O12 0.000000 0.500000 0.500000
O O13 0.262391 0.922446 0.592758
O O14 0.618600 0.766230 0.440178
O O15 0.479616 0.687331 0.236498
O O16 0.000000 0.000000 0.500000
O O17 0.500000 0.500000 0.500000
O O18 0.458266 0.711374 0.506753
O O19 0.000000 0.500000 0.000000
O O20 0.500000 0.000000 0.500000
#
# Coordination Sequence:
#
# PCOD8037378 Si02
#       8
#     2   2   2   2   2   2   2   2
#     4  12  28  45  74 111 148 196 247 313 375 444
#     4  12  26  48  75 106 149 192 260 305 364 449
#     4  12  29  49  77 109 148 201 250 312 377 445
#     4  12  29  49  75 110 150 195 254 312 373 448
#     4  12  29  45  75 108 154 198 241 309 379 448
#     4  12  27  47  73 108 150 199 251 305 371 447
#     4  12  26  48  72 105 157 196 247 300 382 448
#     4  12  24  48  77 102 145 198 252 303 375 437
#
# _framework density 21.430527000000001
#
# number of rings (size 3 to 8) (size 9 to 14) (size 15 to 20)
#    0.000    0.000    5.000    3.750   10.500    0.000 
#    0.000    0.000    0.000    0.000    0.000    0.000 
#    0.000    0.000    0.000    0.000    0.000    0.000 
#
# Total GULP energy -198212.434032 kJ/mol
# GULP energy per Si atom -12388.277127 kJ/mol
# Density = 2.138175 g / cm^3
# Si number density = 21.430527 Si / 1000 Ang^3
#
#
#
# Elastic Constant Matrix: (Units=GPa)
#
#
# Indices 1 2 3 4 5 6 
#
# 1 127.8775 72.9168 24.6593 8.2220 19.3676 -8.0681
# 2 72.9168 167.2169 64.7209 0.1746 -1.3844 4.6040
# 3 24.6593 64.7209 146.1984 16.8127 3.0221 1.6749
# 4 8.2220 0.1746 16.8127 30.3248 -3.2648 1.9940
# 5 19.3676 -1.3844 3.0221 -3.2648 46.9531 -11.0126
# 6 -8.0681 4.6040 1.6749 1.9940 -11.0126 47.4222
#
#
#
# Elastic Compliance Matrix: (Units=1/GPa)
#
#
# Indices 1 2 3 4 5 6 
#
# 1 0.012073 -0.005785 0.001134 -0.004529 -0.005171 0.001565
# 2 -0.005785 0.010117 -0.004025 0.004143 0.002922 -0.001320
# 3 0.001134 -0.004025 0.009092 -0.005498 -0.001521 0.000141
# 4 -0.004529 0.004143 -0.005498 0.037825 0.004623 -0.001495
# 5 -0.005171 0.002922 -0.001521 0.004623 0.024992 0.004500
# 6 0.001565 -0.001320 0.000141 -0.001495 0.004500 0.022584
#
#
# Mechanical properties :
#
#
# Convention : Reuss Voigt Hill
#
# Bulk Modulus (GPa) = 71.77720 85.09853 78.43787
# Shear Modulus (GPa) = 36.05503 43.53974 39.79738
#
# Velocity S-wave (km/s) = 4.10617 4.51229 4.31402
# Velocity P-wave (km/s) = 7.48643 8.18187 7.84186
#
# Compressibility (1/GPa) = 0.01393200
#
# Stress axis : x y z
#
# Youngs Moduli (GPa) = 82.83043 98.84716 109.98089
#
# Poissons Ratio (x) = 0.57180 -0.12474
# Poissons Ratio (y) = 0.47915 0.44262
# Poissons Ratio (z) = -0.09395 0.39781
#
# Static dielectric constant tensor:
#      x y z
#    x 3.981670 -0.361460 0.253750 
#    y -0.361460 4.152000 -0.037760 
#    z 0.253750 -0.037760 3.936180 
# 
# 
# High freq. dielectric constant tensor:
#      x y z
#    x 1.869410 -0.007960 0.000730 
#    y -0.007960 1.849430 0.000900 
#    z 0.000730 0.000900 1.860440 
# 
# From -- ./inp_files/566749.got.cif
#   From: 2010.06.25/outbox.cif.g09.slc.cpg/sg2_284_cif.got.tgz:566749.got - 2010.06.27 13:26:56.
