data_PCOD8037065
_publ_section_title
;
Structure prediction by ZEFSAII (Michael W. Deem and Ramdas Pophale) SiO2 
 PCOD8037065
Probable space group: P -1
;
_chemical_formula_sum "Si O2"
_cell_formula_units_Z 14
_cell_length_a 21.094109
_cell_length_b 15.389008
_cell_length_c 9.166359
_cell_angle_alpha 131.607908
_cell_angle_beta 30.224676
_cell_angle_gamma 152.755540
_cell_volume 611.650136
_symmetry_space_group_name_H-M "P -1"
_symmetry_group_IT_number 2
_symmetry_cell_setting 'triclinic'
loop_
_space_group_symop_operation_xyz
x,y,z
-x,-y,-z
loop_
_atom_site_type_symbol
_atom_site_label
_atom_site_fract_x
_atom_site_fract_y
_atom_site_fract_z
Si Si1 0.026241 0.763362 0.469000
Si Si2 0.603459 0.387440 0.705865
Si Si3 0.859782 0.513105 0.794295
Si Si4 0.638936 0.022617 0.350945
Si Si5 0.150092 0.096053 0.450609
Si Si6 0.484545 0.923778 0.096225
Si Si7 0.866912 0.666735 0.235467
O O1 0.836656 0.546967 0.512385
O O2 0.971844 0.699769 0.678035
O O3 0.041588 0.911924 0.563668
O O4 0.276108 0.900399 0.094900
O O5 0.528082 0.216136 0.575929
O O6 0.664926 0.520184 0.596573
O O7 0.411896 0.278211 0.080919
O O8 0.612154 0.281768 0.963181
O O9 0.000000 0.500000 0.500000
O O10 0.821499 0.535230 0.056078
O O11 0.500000 0.000000 0.500000
O O12 0.679699 0.118386 0.530806
O O13 0.897242 0.180082 0.970008
O O14 0.130111 0.202599 0.698192
O O15 0.000000 0.000000 0.500000
O O16 0.500000 0.000000 0.000000
#
# Coordination Sequence:
#
# PCOD8037065 Si02
#       7
#     2   2   2   2   2   2   2
#     4  12  26  46  75 103 150 191 233 300 355 420
#     4  12  25  44  74 104 141 189 240 298 357 412
#     4  12  25  47  72 104 145 187 235 289 364 424
#     4  12  24  39  66 107 143 179 236 289 357 423
#     4  12  25  49  72 104 146 185 246 296 350 420
#     4  12  24  45  69 102 149 186 231 291 350 430
#     4  12  26  45  72 107 140 191 238 293 356 426
#
# _framework density 22.888902000000002
#
# number of rings (size 3 to 8) (size 9 to 14) (size 15 to 20)
#    0.000    0.000    5.714    4.714    0.000    1.714 
#    0.000    2.857    0.000    0.000    0.000    0.000 
#    0.000    0.000    0.000    0.000    0.000    0.000 
#
# Total GULP energy -173491.167368 kJ/mol
# GULP energy per Si atom -12392.226241 kJ/mol
# Density = 2.283681 g / cm^3
# Si number density = 22.888902 Si / 1000 Ang^3
#
#
#
# Elastic Constant Matrix: (Units=GPa)
#
#
# Indices 1 2 3 4 5 6 
#
# 1 101.5539 49.6722 40.4200 -3.2738 -0.3646 -20.6722
# 2 49.6722 146.4129 52.7840 1.0738 -7.7363 -0.7579
# 3 40.4200 52.7840 92.9692 -6.9616 1.1451 -0.1304
# 4 -3.2738 1.0738 -6.9616 42.8221 3.5801 -0.7234
# 5 -0.3646 -7.7363 1.1451 3.5801 32.1027 -6.3832
# 6 -20.6722 -0.7579 -0.1304 -0.7234 -6.3832 51.1162
#
#
#
# Elastic Compliance Matrix: (Units=1/GPa)
#
#
# Indices 1 2 3 4 5 6 
#
# 1 0.014382 -0.003242 -0.004373 0.000515 0.000643 0.005845
# 2 -0.003242 0.009558 -0.004151 -0.001377 0.002389 -0.000901
# 3 -0.004373 -0.004151 0.015219 0.002399 -0.002266 -0.002040
# 4 0.000515 -0.001377 0.002399 0.024075 -0.003066 0.000152
# 5 0.000643 0.002389 -0.002266 -0.003066 0.033025 0.004370
# 6 0.005845 -0.000901 -0.002040 0.000152 0.004370 0.022456
#
#
# Mechanical properties :
#
#
# Convention : Reuss Voigt Hill
#
# Bulk Modulus (GPa) = 63.99404 69.63204 66.81304
# Shear Modulus (GPa) = 33.90821 38.41218 36.16019
#
# Velocity S-wave (km/s) = 3.85310 4.10103 3.97900
# Velocity P-wave (km/s) = 6.91480 7.27409 7.09672
#
# Compressibility (1/GPa) = 0.01562646
#
# Stress axis : x y z
#
# Youngs Moduli (GPa) = 69.53099 104.62346 65.70748
#
# Poissons Ratio (x) = 0.33921 0.28735
# Poissons Ratio (y) = 0.22544 0.27274
# Poissons Ratio (z) = 0.30407 0.43428
#
# Static dielectric constant tensor:
#      x y z
#    x 4.267360 0.008970 -0.199660 
#    y 0.008970 4.459920 -0.567910 
#    z -0.199660 -0.567910 4.024090 
# 
# 
# High freq. dielectric constant tensor:
#      x y z
#    x 1.903780 0.002120 -0.002390 
#    y 0.002120 1.921000 -0.013380 
#    z -0.002390 -0.013380 1.896300 
# 
# From -- ./inp_files/90424.got.cif
#   From: 2010.06.25/outbox.cif.g09.slc.cpg/sg2_46_cif.got.tgz:90424.got - 2010.06.27 13:26:56.
