data_PCOD8037989
_publ_section_title
;
Structure prediction by ZEFSAII (Michael W. Deem and Ramdas Pophale) SiO2 
 PCOD8037989
Probable space group: P -1
;
_chemical_formula_sum "Si O2"
_cell_formula_units_Z 16
_cell_length_a 10.891542
_cell_length_b 17.889850
_cell_length_c 11.582260
_cell_angle_alpha 149.071211
_cell_angle_beta 51.441840
_cell_angle_gamma 109.414958
_cell_volume 783.792793
_symmetry_space_group_name_H-M "P -1"
_symmetry_group_IT_number 2
_symmetry_cell_setting 'triclinic'
loop_
_space_group_symop_operation_xyz
x,y,z
-x,-y,-z
loop_
_atom_site_type_symbol
_atom_site_label
_atom_site_fract_x
_atom_site_fract_y
_atom_site_fract_z
Si Si1 0.839267 0.502611 0.028708
Si Si2 0.776818 0.360883 0.088537
Si Si3 0.493685 0.235722 0.548030
Si Si4 0.528580 0.034411 0.660154
Si Si5 0.425018 0.381483 0.272045
Si Si6 0.767707 0.324304 0.397316
Si Si7 0.065329 0.200876 0.882873
Si Si8 0.822647 0.523435 0.817586
O O1 0.785540 0.388015 0.983189
O O2 0.662367 0.691726 0.365468
O O3 0.909463 0.424140 0.756042
O O4 0.000000 0.500000 0.000000
O O5 0.621994 0.310113 0.121957
O O6 0.721194 0.529843 0.421622
O O7 0.970614 0.219653 0.838316
O O8 0.676115 0.231357 0.394042
O O9 0.540204 0.051899 0.320214
O O10 0.397545 0.360165 0.879708
O O11 0.500000 0.000000 0.500000
O O12 0.742701 0.970091 0.462810
O O13 0.410859 0.231717 0.020807
O O14 0.384617 0.523251 0.387156
O O15 0.861855 0.390504 0.519399
O O16 0.933873 0.191202 0.043915
O O17 0.093706 0.358066 0.104708
#
# Coordination Sequence:
#
# PCOD8037989 Si02
#       8
#     2   2   2   2   2   2   2   2
#     4  10  17  33  56  83 122 149 196 249 289 348
#     4  10  19  37  61  92 113 151 209 244 291 346
#     4   9  20  34  59  83 118 156 191 248 297 350
#     4  11  23  42  59  85 124 164 195 239 311 366
#     4  10  21  35  65  87 118 155 197 251 291 359
#     4  11  19  36  61  93 114 151 210 252 290 341
#     4  10  21  36  59  85 125 154 193 254 295 361
#     4   9  18  29  55  84 114 153 197 241 295 336
#
# _framework density 20.413558999999999
#
# number of rings (size 3 to 8) (size 9 to 14) (size 15 to 20)
#    0.750    1.250    2.500    2.250    0.000    2.500 
#    0.000    1.250    2.750    0.000    0.000    0.000 
#    0.000    0.000    0.000    0.000    0.000    0.000 
#
# Total GULP energy -198220.674414 kJ/mol
# GULP energy per Si atom -12388.792151 kJ/mol
# Density = 2.036710 g / cm^3
# Si number density = 20.413559 Si / 1000 Ang^3
#
#
#
# Elastic Constant Matrix: (Units=GPa)
#
#
# Indices 1 2 3 4 5 6 
#
# 1 76.4873 7.9366 2.9872 -2.4386 -5.3638 -10.0164
# 2 7.9366 96.1009 11.9931 -11.7852 -5.7876 4.6890
# 3 2.9872 11.9931 41.0958 1.7066 4.5658 -1.7923
# 4 -2.4386 -11.7852 1.7066 22.0747 1.1357 -2.1302
# 5 -5.3638 -5.7876 4.5658 1.1357 28.6108 -5.0098
# 6 -10.0164 4.6890 -1.7923 -2.1302 -5.0098 32.8508
#
#
#
# Elastic Compliance Matrix: (Units=1/GPa)
#
#
# Indices 1 2 3 4 5 6 
#
# 1 0.014151 -0.000902 -0.000991 0.001464 0.003448 0.005010
# 2 -0.000902 0.011974 -0.004020 0.006343 0.002393 -0.001427
# 3 -0.000991 -0.004020 0.026321 -0.003970 -0.004919 0.000700
# 4 0.001464 0.006343 -0.003970 0.049374 0.000692 0.002632
# 5 0.003448 0.002393 -0.004919 0.000692 0.037938 0.006272
# 6 0.005010 -0.001427 0.000700 0.002632 0.006272 0.033337
#
#
# Mechanical properties :
#
#
# Convention : Reuss Voigt Hill
#
# Bulk Modulus (GPa) = 24.61917 28.83533 26.72725
# Shear Modulus (GPa) = 25.19398 29.42506 27.30952
#
# Velocity S-wave (km/s) = 3.51690 3.80076 3.66158
# Velocity P-wave (km/s) = 5.34582 5.78077 5.56754
#
# Compressibility (1/GPa) = 0.04061875
#
# Stress axis : x y z
#
# Youngs Moduli (GPa) = 70.66666 83.51753 37.99317
#
# Poissons Ratio (x) = 0.07536 0.03764
# Poissons Ratio (y) = 0.06376 0.15274
# Poissons Ratio (z) = 0.07001 0.33575
#
# Static dielectric constant tensor:
#      x y z
#    x 3.672900 -0.160860 -0.144400 
#    y -0.160860 4.071440 -0.323150 
#    z -0.144400 -0.323150 3.338110 
# 
# 
# High freq. dielectric constant tensor:
#      x y z
#    x 1.804130 -0.007510 -0.013840 
#    y -0.007510 1.796840 -0.021670 
#    z -0.013840 -0.021670 1.750400 
# 
# From -- ./inp_files/437055.got.cif
#   From: 2010.06.25/outbox.cif.g09.slc.cpg/sg2_219_cif.got.tgz:437055.got - 2010.06.27 13:26:56.
