data_PCOD8037036
_publ_section_title
;
Structure prediction by ZEFSAII (Michael W. Deem and Ramdas Pophale) SiO2 
 PCOD8037036
Probable space group: P -1
;
_chemical_formula_sum "Si O2"
_cell_formula_units_Z 12
_cell_length_a 14.320144
_cell_length_b 8.429486
_cell_length_c 11.963006
_cell_angle_alpha 126.265495
_cell_angle_beta 41.174728
_cell_angle_gamma 144.357991
_cell_volume 553.233313
_symmetry_space_group_name_H-M "P -1"
_symmetry_group_IT_number 2
_symmetry_cell_setting 'triclinic'
loop_
_space_group_symop_operation_xyz
x,y,z
-x,-y,-z
loop_
_atom_site_type_symbol
_atom_site_label
_atom_site_fract_x
_atom_site_fract_y
_atom_site_fract_z
Si Si1 0.447220 0.481335 0.164093
Si Si2 0.031259 0.979848 0.336563
Si Si3 0.821928 0.471293 0.167681
Si Si4 0.829011 0.678333 0.010212
Si Si5 0.956952 0.274718 0.369084
Si Si6 0.445932 0.932641 0.394205
O O1 0.382741 0.647028 0.307785
O O2 0.500000 0.500000 0.000000
O O3 0.626274 0.591908 0.127621
O O4 0.263325 0.155836 0.205924
O O5 0.888450 0.669121 0.295180
O O6 0.991037 0.112899 0.340764
O O7 0.000000 0.000000 0.500000
O O8 0.625473 0.166090 0.249459
O O9 0.786511 0.546303 0.114082
O O10 0.000000 0.500000 0.000000
O O11 0.902342 0.593325 0.813732
O O12 0.000000 0.000000 0.000000
O O13 0.727870 0.075392 0.463823
O O14 0.000000 0.500000 0.500000
O O15 0.500000 0.000000 0.500000
#
# Coordination Sequence:
#
# PCOD8037036 Si02
#       6
#     2   2   2   2   2   2
#     4  12  23  48  70 100 137 188 227 283 351 413
#     4  12  27  45  70 101 145 181 231 288 350 413
#     4  12  27  46  72 106 138 184 238 287 346 414
#     4  12  24  46  74 101 142 182 235 290 346 412
#     4  12  25  47  70 102 141 186 227 286 355 412
#     4  12  26  45  72 102 140 182 235 285 348 415
#
# _framework density 21.690669
#
# number of rings (size 3 to 8) (size 9 to 14) (size 15 to 20)
#    0.000    0.000    5.000    5.000    4.667    0.667 
#    0.000    2.500    0.000    0.000    0.000    0.000 
#    0.000    0.000    0.000    0.000    0.000    0.000 
#
# Total GULP energy -148729.478947 kJ/mol
# GULP energy per Si atom -12394.123246 kJ/mol
# Density = 2.164130 g / cm^3
# Si number density = 21.690669 Si / 1000 Ang^3
#
#
#
# Elastic Constant Matrix: (Units=GPa)
#
#
# Indices 1 2 3 4 5 6 
#
# 1 140.9929 20.8804 36.5050 -16.4979 2.0841 19.8837
# 2 20.8804 69.5424 11.1324 -5.2753 -0.6900 13.4287
# 3 36.5050 11.1324 113.9889 -3.8861 13.9795 7.6996
# 4 -16.4979 -5.2753 -3.8861 56.0930 9.4880 -0.0536
# 5 2.0841 -0.6900 13.9795 9.4880 55.8504 -7.0944
# 6 19.8837 13.4287 7.6996 -0.0536 -7.0944 31.7363
#
#
#
# Elastic Compliance Matrix: (Units=1/GPa)
#
#
# Indices 1 2 3 4 5 6 
#
# 1 0.008795 -0.001215 -0.002204 0.002450 -0.000797 -0.004636
# 2 -0.001215 0.016097 -0.000668 0.001199 -0.000556 -0.006010
# 3 -0.002204 -0.000668 0.009977 0.000430 -0.002668 -0.001353
# 4 0.002450 0.001199 0.000430 0.019339 -0.003847 -0.002974
# 5 -0.000797 -0.000556 -0.002668 -0.003847 0.019992 0.005844
# 6 -0.004636 -0.006010 -0.001353 -0.002974 0.005844 0.038587
#
#
# Mechanical properties :
#
#
# Convention : Reuss Voigt Hill
#
# Bulk Modulus (GPa) = 37.45811 51.28442 44.37127
# Shear Modulus (GPa) = 38.50328 45.80304 42.15316
#
# Velocity S-wave (km/s) = 4.21777 4.60025 4.41316
# Velocity P-wave (km/s) = 6.40517 7.20495 6.81680
#
# Compressibility (1/GPa) = 0.02669649
#
# Stress axis : x y z
#
# Youngs Moduli (GPa) = 113.69712 62.12168 100.23009
#
# Poissons Ratio (x) = 0.07547 0.22087
# Poissons Ratio (y) = 0.13813 0.06696
# Poissons Ratio (z) = 0.25055 0.04150
#
# Static dielectric constant tensor:
#      x y z
#    x 4.728190 0.677610 -0.493330 
#    y 0.677610 5.817030 -1.564880 
#    z -0.493330 -1.564880 5.263970 
# 
# 
# High freq. dielectric constant tensor:
#      x y z
#    x 1.869930 0.018350 0.006010 
#    y 0.018350 1.856330 -0.000630 
#    z 0.006010 -0.000630 1.873870 
# 
# From -- ./inp_files/147556.got.cif
#   From: 2010.06.25/outbox.cif.g09.slc.cpg/sg2_74_cif.got.tgz:147556.got - 2010.06.27 13:26:56.
