data_PCOD8037367
_publ_section_title
;
Structure prediction by ZEFSAII (Michael W. Deem and Ramdas Pophale) SiO2 
 PCOD8037367
Probable space group: P -1
;
_chemical_formula_sum "Si O2"
_cell_formula_units_Z 14
_cell_length_a 9.597922
_cell_length_b 12.222954
_cell_length_c 15.508714
_cell_angle_alpha 27.268370
_cell_angle_beta 132.182973
_cell_angle_gamma 122.074227
_cell_volume 605.949618
_symmetry_space_group_name_H-M "P -1"
_symmetry_group_IT_number 2
_symmetry_cell_setting 'triclinic'
loop_
_space_group_symop_operation_xyz
x,y,z
-x,-y,-z
loop_
_atom_site_type_symbol
_atom_site_label
_atom_site_fract_x
_atom_site_fract_y
_atom_site_fract_z
Si Si1 0.285793 0.337202 0.171253
Si Si2 0.939580 0.273635 0.310628
Si Si3 0.336399 0.012338 0.157111
Si Si4 0.099154 0.953980 0.257440
Si Si5 0.678551 0.648410 0.626854
Si Si6 0.297928 0.584098 0.720393
Si Si7 0.658318 0.131682 0.932649
O O1 0.243539 0.332900 0.257551
O O2 0.511554 0.305227 0.271950
O O3 0.202411 0.129304 0.234142
O O4 0.187293 0.595908 0.911171
O O5 0.825997 0.299565 0.333150
O O6 0.132260 0.379446 0.334275
O O7 0.000000 0.000000 0.500000
O O8 0.151151 0.983246 0.157725
O O9 0.525694 0.892472 0.372400
O O10 0.339247 0.293127 0.943011
O O11 0.340187 0.870969 0.168149
O O12 0.183793 0.679018 0.518302
O O13 0.871304 0.012779 0.136894
O O14 0.591586 0.408132 0.744012
O O15 0.500000 0.000000 0.000000
#
# Coordination Sequence:
#
# PCOD8037367 Si02
#       7
#     2   2   2   2   2   2   2
#     4  12  24  48  74 113 155 191 245 302 389 450
#     4  12  26  40  74 115 157 191 235 306 382 450
#     4  12  27  52  77 105 153 204 252 300 371 442
#     4  12  27  49  77 110 149 196 248 312 373 447
#     4  12  26  49  76 112 151 197 245 321 369 440
#     4  12  26  46  76 115 150 195 248 299 377 462
#     4  12  29  52  77 106 148 203 260 310 363 432
#
# _framework density 23.104230999999999
#
# number of rings (size 3 to 8) (size 9 to 14) (size 15 to 20)
#    0.000    0.000    4.286    4.714    6.000    0.571 
#    2.571    0.000    0.000    0.000    0.000    0.000 
#    0.000    0.000    0.000    0.000    0.000    0.000 
#
# Total GULP energy -173674.427680 kJ/mol
# GULP energy per Si atom -12405.316263 kJ/mol
# Density = 2.305164 g / cm^3
# Si number density = 23.104231 Si / 1000 Ang^3
#
#
#
# Elastic Constant Matrix: (Units=GPa)
#
#
# Indices 1 2 3 4 5 6 
#
# 1 135.8436 43.9359 64.0543 1.2652 12.0399 17.0368
# 2 43.9359 78.3630 41.9012 -3.5035 -10.1121 -5.1571
# 3 64.0543 41.9012 97.7175 17.6393 -22.9899 -3.8644
# 4 1.2652 -3.5035 17.6393 25.6037 2.6509 5.7639
# 5 12.0399 -10.1121 -22.9899 2.6509 32.5516 5.7935
# 6 17.0368 -5.1571 -3.8644 5.7639 5.7935 47.8419
#
#
#
# Elastic Compliance Matrix: (Units=1/GPa)
#
#
# Indices 1 2 3 4 5 6 
#
# 1 0.022946 -0.003335 -0.023676 0.019596 -0.026125 -0.009640
# 2 -0.003335 0.018820 -0.006698 0.006823 0.001497 0.001672
# 3 -0.023676 -0.006698 0.045150 -0.037448 0.039644 0.011067
# 4 0.019596 0.006823 -0.037448 0.071515 -0.034971 -0.013649
# 5 -0.026125 0.001497 0.039644 -0.034971 0.070204 0.008378
# 6 -0.009640 0.001672 0.011067 -0.013649 0.008378 0.026039
#
#
# Mechanical properties :
#
#
# Convention : Reuss Voigt Hill
#
# Bulk Modulus (GPa) = 51.28466 67.96742 59.62604
# Shear Modulus (GPa) = 15.21653 32.00160 23.60906
#
# Velocity S-wave (km/s) = 2.56911 3.72573 3.20011
# Velocity P-wave (km/s) = 5.57187 6.92746 6.28631
#
# Compressibility (1/GPa) = 0.01949901
#
# Stress axis : x y z
#
# Youngs Moduli (GPa) = 43.58062 53.13411 22.14852
#
# Poissons Ratio (x) = 0.17719 0.52439
# Poissons Ratio (y) = 0.14534 0.14834
# Poissons Ratio (z) = 1.03182 0.35587
#
# Static dielectric constant tensor:
#      x y z
#    x 4.749780 0.021970 -0.138230 
#    y 0.021970 4.259240 0.085690 
#    z -0.138230 0.085690 4.623280 
# 
# 
# High freq. dielectric constant tensor:
#      x y z
#    x 1.933950 0.002200 0.002430 
#    y 0.002200 1.903640 -0.000530 
#    z 0.002430 -0.000530 1.935180 
# 
# From -- ./inp_files/343829.got.cif
#   From: 2010.06.25/outbox.cif.g09.slc.cpg/sg2_172_cif.got.tgz:343829.got - 2010.06.27 13:26:56.
