data_PCOD8037697
_publ_section_title
;
Structure prediction by ZEFSAII (Michael W. Deem and Ramdas Pophale) SiO2 
 PCOD8037697
Probable space group: P -1
;
_chemical_formula_sum "Si O2"
_cell_formula_units_Z 14
_cell_length_a 8.196359
_cell_length_b 16.614577
_cell_length_c 9.666708
_cell_angle_alpha 57.759668
_cell_angle_beta 120.744748
_cell_angle_gamma 148.593566
_cell_volume 575.532862
_symmetry_space_group_name_H-M "P -1"
_symmetry_group_IT_number 2
_symmetry_cell_setting 'triclinic'
loop_
_space_group_symop_operation_xyz
x,y,z
-x,-y,-z
loop_
_atom_site_type_symbol
_atom_site_label
_atom_site_fract_x
_atom_site_fract_y
_atom_site_fract_z
Si Si1 0.693902 0.933534 0.484235
Si Si2 0.596669 0.139821 0.851452
Si Si3 0.801253 0.325001 0.278448
Si Si4 0.274048 0.181343 0.002574
Si Si5 0.800095 0.683267 0.940136
Si Si6 0.439595 0.666244 0.277337
Si Si7 0.878248 0.737734 0.597049
O O1 0.471820 0.891251 0.311304
O O2 0.457621 0.776810 0.618096
O O3 0.000000 0.000000 0.500000
O O4 0.839114 0.079705 0.498542
O O5 0.439686 0.175397 0.804091
O O6 0.958970 0.293328 0.907366
O O7 0.500000 0.000000 0.000000
O O8 0.056673 0.510872 0.244393
O O9 0.033232 0.328033 0.366358
O O10 0.596413 0.253158 0.115515
O O11 0.381243 0.295595 0.820258
O O12 0.178133 0.207146 0.069169
O O13 0.000000 0.000000 0.000000
O O14 0.855866 0.729331 0.761349
O O15 0.500000 0.500000 0.000000
O O16 0.552311 0.646501 0.473348
#
# Coordination Sequence:
#
# PCOD8037697 Si02
#       7
#     2   2   2   2   2   2   2
#     4  12  26  48  74 110 151 198 263 320 378 459
#     4  12  26  46  76 105 151 203 253 314 386 455
#     4  12  28  48  78 111 155 205 254 321 396 452
#     4  12  27  47  76 112 154 207 257 312 381 462
#     4  12  27  47  77 112 156 202 258 316 387 460
#     4  12  27  49  77 113 160 198 258 322 384 462
#     4  12  26  49  76 112 156 200 257 319 382 468
#
# _framework density 24.325285000000001
#
# number of rings (size 3 to 8) (size 9 to 14) (size 15 to 20)
#    0.000    0.000    2.857    6.429    6.000    0.571 
#    0.000    0.000    0.000    0.000    0.000    0.000 
#    0.000    0.000    0.000    0.000    0.000    0.000 
#
# Total GULP energy -173471.832694 kJ/mol
# GULP energy per Si atom -12390.845192 kJ/mol
# Density = 2.426992 g / cm^3
# Si number density = 24.325285 Si / 1000 Ang^3
#
#
#
# Elastic Constant Matrix: (Units=GPa)
#
#
# Indices 1 2 3 4 5 6 
#
# 1 118.5829 36.9694 39.9396 -2.7016 5.9126 -5.5576
# 2 36.9694 147.0008 64.1816 12.3180 -5.9817 9.6754
# 3 39.9396 64.1816 137.3589 20.1565 5.8036 14.7191
# 4 -2.7016 12.3180 20.1565 49.3748 12.7678 4.9050
# 5 5.9126 -5.9817 5.8036 12.7678 45.9300 -3.2465
# 6 -5.5576 9.6754 14.7191 4.9050 -3.2465 42.0600
#
#
#
# Elastic Compliance Matrix: (Units=1/GPa)
#
#
# Indices 1 2 3 4 5 6 
#
# 1 0.010117 -0.001819 -0.002598 0.002278 -0.001684 0.002269
# 2 -0.001819 0.009047 -0.003501 -0.001419 0.002196 -0.000761
# 3 -0.002598 -0.003501 0.010464 -0.003044 -0.000803 -0.002907
# 4 0.002278 -0.001419 -0.003044 0.023908 -0.006854 -0.001625
# 5 -0.001684 0.002196 -0.000803 -0.006854 0.024440 0.002239
# 6 0.002269 -0.000761 -0.002907 -0.001625 0.002239 0.025630
#
#
# Mechanical properties :
#
#
# Convention : Reuss Voigt Hill
#
# Bulk Modulus (GPa) = 72.50863 76.12486 74.31675
# Shear Modulus (GPa) = 40.30933 44.92976 42.61955
#
# Velocity S-wave (km/s) = 4.07516 4.30238 4.19031
# Velocity P-wave (km/s) = 7.21216 7.48620 7.35045
#
# Compressibility (1/GPa) = 0.01379146
#
# Stress axis : x y z
#
# Youngs Moduli (GPa) = 98.84142 110.53133 95.56741
#
# Poissons Ratio (x) = 0.20103 0.24831
# Poissons Ratio (y) = 0.17977 0.33462
# Poissons Ratio (z) = 0.25681 0.38702
#
# Static dielectric constant tensor:
#      x y z
#    x 4.707920 -0.991380 -1.311370 
#    y -0.991380 5.025600 -0.079270 
#    z -1.311370 -0.079270 3.440610 
# 
# 
# High freq. dielectric constant tensor:
#      x y z
#    x 1.956070 -0.002210 0.011130 
#    y -0.002210 1.989100 0.011080 
#    z 0.011130 0.011080 1.980180 
# 
# From -- ./inp_files/217146.got.cif
#   From: 2010.06.25/outbox.cif.g09.slc.cpg/sg2_109_cif.got.tgz:217146.got - 2010.06.27 13:26:56.
