data_PCOD8037419
_publ_section_title
;
Structure prediction by ZEFSAII (Michael W. Deem and Ramdas Pophale) SiO2 
 PCOD8037419
Probable space group: P -1
;
_chemical_formula_sum "Si O2"
_cell_formula_units_Z 12
_cell_length_a 9.278079
_cell_length_b 21.685376
_cell_length_c 24.215112
_cell_angle_alpha 10.437482
_cell_angle_beta 32.038853
_cell_angle_gamma 32.652362
_cell_volume 466.482971
_symmetry_space_group_name_H-M "P -1"
_symmetry_group_IT_number 2
_symmetry_cell_setting 'triclinic'
loop_
_space_group_symop_operation_xyz
x,y,z
-x,-y,-z
loop_
_atom_site_type_symbol
_atom_site_label
_atom_site_fract_x
_atom_site_fract_y
_atom_site_fract_z
Si Si1 0.873244 0.524433 0.579361
Si Si2 0.563069 0.697785 0.694613
Si Si3 0.874292 0.295503 0.041699
Si Si4 0.567435 0.172885 0.069387
Si Si5 0.005637 0.010446 0.555953
Si Si6 0.302135 0.793173 0.280633
O O1 0.000000 0.500000 0.500000
O O2 0.112285 0.580628 0.493139
O O3 0.652145 0.845230 0.367372
O O4 0.711945 0.196293 0.941172
O O5 0.709061 0.044216 0.355302
O O6 0.247553 0.780654 0.709508
O O7 0.639678 0.437411 0.949396
O O8 0.677479 0.502403 0.774358
O O9 0.993040 0.593000 0.776296
O O10 0.129695 0.060271 0.141354
O O11 0.242761 0.167419 0.178097
O O12 0.000000 0.000000 0.500000
O O13 0.500000 0.500000 0.500000
O O14 0.500000 0.000000 0.000000
#
# Coordination Sequence:
#
# PCOD8037419 Si02
#       6
#     2   2   2   2   2   2
#     4  12  27  51  80 115 156 205 258 330 400 464
#     4  12  24  51  80 109 158 212 260 317 389 470
#     4  12  27  51  80 112 159 210 261 327 392 464
#     4  12  25  50  77 115 163 201 256 325 395 465
#     4  12  29  50  80 123 161 209 267 324 390 475
#     4  12  26  51  81 111 153 203 269 325 390 472
#
# _framework density 25.724412000000001
#
# number of rings (size 3 to 8) (size 9 to 14) (size 15 to 20)
#    0.000    0.000    3.333    6.000    2.333    5.333 
#    3.000    0.000    0.000    0.000    0.000    0.000 
#    0.000    0.000    0.000    0.000    0.000    0.000 
#
# Total GULP energy -148719.427584 kJ/mol
# GULP energy per Si atom -12393.285632 kJ/mol
# Density = 2.566586 g / cm^3
# Si number density = 25.724412 Si / 1000 Ang^3
#
#
#
# Elastic Constant Matrix: (Units=GPa)
#
#
# Indices 1 2 3 4 5 6 
#
# 1 140.8547 84.1371 64.6989 -3.9382 5.4550 -3.1860
# 2 84.1371 133.2600 47.1232 13.9236 11.1423 -24.8104
# 3 64.6989 47.1232 149.5287 18.8966 12.0570 -10.4109
# 4 -3.9382 13.9236 18.8966 70.5496 4.7303 10.7380
# 5 5.4550 11.1423 12.0570 4.7303 58.1636 -11.1937
# 6 -3.1860 -24.8104 -10.4109 10.7380 -11.1937 30.2201
#
#
#
# Elastic Compliance Matrix: (Units=1/GPa)
#
#
# Indices 1 2 3 4 5 6 
#
# 1 0.015910 -0.011047 -0.004917 0.006244 -0.001120 -0.011720
# 2 -0.011047 0.017858 0.001124 -0.007087 0.001201 0.016847
# 3 -0.004917 0.001124 0.009293 -0.003675 -0.000470 0.004737
# 4 0.006244 -0.007087 -0.003675 0.019270 -0.002786 -0.014305
# 5 -0.001120 0.001201 -0.000470 -0.002786 0.019078 0.008763
# 6 -0.011720 0.016847 0.004737 -0.014305 0.008763 0.055647
#
#
# Mechanical properties :
#
#
# Convention : Reuss Voigt Hill
#
# Bulk Modulus (GPa) = 74.73819 90.61800 82.67809
# Shear Modulus (GPa) = 29.20597 46.96559 38.08578
#
# Velocity S-wave (km/s) = 3.37314 4.27748 3.85194
# Velocity P-wave (km/s) = 6.65486 7.72649 7.21062
#
# Compressibility (1/GPa) = 0.01338004
#
# Stress axis : x y z
#
# Youngs Moduli (GPa) = 62.85439 55.99682 107.60341
#
# Poissons Ratio (x) = 0.61860 0.52912
# Poissons Ratio (y) = 0.69435 -0.12091
# Poissons Ratio (z) = 0.30908 -0.06292
#
# Static dielectric constant tensor:
#      x y z
#    x 4.537410 -0.116580 -0.251310 
#    y -0.116580 4.997760 -0.384750 
#    z -0.251310 -0.384750 4.705950 
# 
# 
# High freq. dielectric constant tensor:
#      x y z
#    x 2.035930 -0.001400 0.007890 
#    y -0.001400 2.051440 -0.005180 
#    z 0.007890 -0.005180 2.049680 
# 
# From -- ./inp_files/617606.got.cif
#   From: 2010.06.25/outbox.cif.g09.slc.cpg/sg2_309_cif.got.tgz:617606.got - 2010.06.27 13:26:56.
