data_PCOD8037395
_publ_section_title
;
Structure prediction by ZEFSAII (Michael W. Deem and Ramdas Pophale) SiO2 
 PCOD8037395
Probable space group: P -1
;
_chemical_formula_sum "Si O2"
_cell_formula_units_Z 16
_cell_length_a 17.702819
_cell_length_b 11.681959
_cell_length_c 8.198171
_cell_angle_alpha 127.866890
_cell_angle_beta 31.896584
_cell_angle_gamma 129.934280
_cell_volume 676.919294
_symmetry_space_group_name_H-M "P -1"
_symmetry_group_IT_number 2
_symmetry_cell_setting 'triclinic'
loop_
_space_group_symop_operation_xyz
x,y,z
-x,-y,-z
loop_
_atom_site_type_symbol
_atom_site_label
_atom_site_fract_x
_atom_site_fract_y
_atom_site_fract_z
Si Si1 0.463530 0.656931 0.382523
Si Si2 0.846085 0.517654 0.358267
Si Si3 0.450847 0.062779 0.314614
Si Si4 0.859357 0.393206 0.581208
Si Si5 0.085944 0.144460 0.568227
Si Si6 0.107274 0.918321 0.821331
Si Si7 0.411756 0.163114 0.009319
Si Si8 0.435700 0.571949 0.824221
O O1 0.289930 0.568719 0.586887
O O2 0.474986 0.760338 0.617429
O O3 0.558860 0.536557 0.126024
O O4 0.546931 0.751569 0.160980
O O5 0.820797 0.437091 0.508821
O O6 0.866202 0.698361 0.483597
O O7 0.000000 0.500000 0.000000
O O8 0.272322 0.033637 0.639590
O O9 0.500000 0.000000 0.000000
O O10 0.513863 0.972858 0.258129
O O11 0.869475 0.224573 0.442544
O O12 0.000000 0.500000 0.500000
O O13 0.720470 0.419057 0.954050
O O14 0.235426 0.105946 0.316816
O O15 0.000000 0.000000 0.500000
O O16 0.975193 0.154845 0.926355
O O17 0.000000 0.000000 0.000000
O O18 0.472040 0.259345 0.146323
O O19 0.500000 0.500000 0.500000
#
# Coordination Sequence:
#
# PCOD8037395 Si02
#       8
#     2   2   2   2   2   2   2   2
#     4  12  26  47  81 108 149 199 257 321 374 451
#     4  12  26  48  76 112 152 199 261 311 384 458
#     4  12  27  48  77 111 152 200 254 313 379 456
#     4  12  29  48  77 111 155 202 252 319 384 455
#     4  12  28  47  76 110 152 197 249 315 383 450
#     4  12  28  51  71 111 158 200 251 306 386 463
#     4  12  24  49  74 109 147 197 259 311 377 455
#     4  12  26  46  75 108 148 194 258 313 378 442
#
# _framework density 23.636493000000002
#
# number of rings (size 3 to 8) (size 9 to 14) (size 15 to 20)
#    0.000    0.000    5.000    3.750    8.750    0.000 
#    0.000    0.000    0.000    0.000    0.000    0.000 
#    0.000    0.000    0.000    0.000    0.000    0.000 
#
# Total GULP energy -198318.841797 kJ/mol
# GULP energy per Si atom -12394.927612 kJ/mol
# Density = 2.358270 g / cm^3
# Si number density = 23.636493 Si / 1000 Ang^3
#
#
#
# Elastic Constant Matrix: (Units=GPa)
#
#
# Indices 1 2 3 4 5 6 
#
# 1 93.3090 47.3590 48.9804 6.8845 -33.8161 25.3983
# 2 47.3590 147.9554 50.3319 15.7762 -30.5596 23.5595
# 3 48.9804 50.3319 159.6137 2.6528 -41.4360 14.6970
# 4 6.8845 15.7762 2.6528 47.4444 -2.8189 -6.7226
# 5 -33.8161 -30.5596 -41.4360 -2.8189 56.3476 -0.0736
# 6 25.3983 23.5595 14.6970 -6.7226 -0.0736 54.6235
#
#
#
# Elastic Compliance Matrix: (Units=1/GPa)
#
#
# Indices 1 2 3 4 5 6 
#
# 1 0.017815 -0.001956 -0.002082 -0.002359 0.007972 -0.007159
# 2 -0.001956 0.009182 -0.001254 -0.002973 0.002732 -0.003076
# 3 -0.002082 -0.001254 0.008482 0.000400 0.004327 -0.000718
# 4 -0.002359 -0.002973 0.000400 0.023015 -0.001576 0.005102
# 5 0.007972 0.002732 0.004327 -0.001576 0.027108 -0.006207
# 6 -0.007159 -0.003076 -0.000718 0.005102 -0.006207 0.023775
#
#
# Mechanical properties :
#
#
# Convention : Reuss Voigt Hill
#
# Bulk Modulus (GPa) = 40.16711 77.13565 58.65138
# Shear Modulus (GPa) = 38.98369 48.63022 43.80696
#
# Velocity S-wave (km/s) = 4.06556 4.54080 4.30974
# Velocity P-wave (km/s) = 6.25052 7.75866 7.04506
#
# Compressibility (1/GPa) = 0.02489599
#
# Stress axis : x y z
#
# Youngs Moduli (GPa) = 56.13395 108.90556 117.89430
#
# Poissons Ratio (x) = 0.21301 0.24546
# Poissons Ratio (y) = 0.10979 0.14779
# Poissons Ratio (z) = 0.11687 0.13652
#
# Static dielectric constant tensor:
#      x y z
#    x 4.560150 -0.294160 0.002210 
#    y -0.294160 4.496440 -0.186890 
#    z 0.002210 -0.186890 3.821780 
# 
# 
# High freq. dielectric constant tensor:
#      x y z
#    x 1.942900 -0.007850 -0.012630 
#    y -0.007850 1.950980 0.006520 
#    z -0.012630 0.006520 1.957720 
# 
# From -- ./inp_files/333670.got.cif
#   From: 2010.06.25/outbox.cif.g09.slc.cpg/sg2_167_cif.got.tgz:333670.got - 2010.06.27 13:26:56.
