data_PCOD8037691
_publ_section_title
;
Structure prediction by ZEFSAII (Michael W. Deem and Ramdas Pophale) SiO2 
 PCOD8037691
Probable space group: P -1
;
_chemical_formula_sum "Si O2"
_cell_formula_units_Z 14
_cell_length_a 20.392247
_cell_length_b 11.905933
_cell_length_c 13.777721
_cell_angle_alpha 141.227019
_cell_angle_beta 157.313840
_cell_angle_gamma 26.639595
_cell_volume 558.490072
_symmetry_space_group_name_H-M "P -1"
_symmetry_group_IT_number 2
_symmetry_cell_setting 'triclinic'
loop_
_space_group_symop_operation_xyz
x,y,z
-x,-y,-z
loop_
_atom_site_type_symbol
_atom_site_label
_atom_site_fract_x
_atom_site_fract_y
_atom_site_fract_z
Si Si1 0.151341 0.211243 0.122359
Si Si2 0.154238 0.577301 0.676554
Si Si3 0.368514 0.991264 0.731205
Si Si4 0.090230 0.644705 0.415389
Si Si5 0.589028 0.316398 0.786943
Si Si6 0.615061 0.968112 0.884744
Si Si7 0.637888 0.405751 0.524928
O O1 0.103223 0.420573 0.263194
O O2 0.322404 0.950007 0.243198
O O3 0.891678 0.322028 0.813847
O O4 0.297722 0.158958 0.188792
O O5 0.092676 0.695706 0.564911
O O6 0.889652 0.707238 0.442399
O O7 0.218572 0.690818 0.911943
O O8 0.374232 0.272105 0.759286
O O9 0.306322 0.844428 0.591241
O O10 0.539789 0.856443 0.776409
O O11 0.500000 0.000000 0.000000
O O12 0.321495 0.567335 0.632405
O O13 0.838819 0.907290 0.199397
O O14 0.562560 0.356251 0.662125
O O15 0.500000 0.500000 0.500000
#
# Coordination Sequence:
#
# PCOD8037691 Si02
#       7
#     2   2   2   2   2   2   2
#     4  12  27  50  77 116 150 205 259 317 376 457
#     4  12  27  48  77 116 154 203 254 315 383 456
#     4  12  26  51  74 114 157 203 254 313 387 454
#     4  12  26  45  80 113 157 198 258 314 382 450
#     4  12  27  49  76 116 153 196 258 315 383 453
#     4  12  26  46  82 108 155 203 255 312 381 452
#     4  12  29  50  79 110 158 201 252 317 385 455
#
# _framework density 25.067591
#
# number of rings (size 3 to 8) (size 9 to 14) (size 15 to 20)
#    0.000    0.000    5.714    3.429    2.000    1.143 
#    0.000    0.000    0.000    0.000    0.000    0.000 
#    0.000    0.000    0.000    0.000    0.000    0.000 
#
# Total GULP energy -173585.151438 kJ/mol
# GULP energy per Si atom -12398.939388 kJ/mol
# Density = 2.501054 g / cm^3
# Si number density = 25.067591 Si / 1000 Ang^3
#
#
#
# Elastic Constant Matrix: (Units=GPa)
#
#
# Indices 1 2 3 4 5 6 
#
# 1 170.9561 33.0476 53.1701 -13.0237 -10.8282 -2.8757
# 2 33.0476 70.9065 32.7190 -21.3694 0.9569 1.8422
# 3 53.1701 32.7190 162.4660 -25.6891 -1.3749 -4.2296
# 4 -13.0237 -21.3694 -25.6891 48.8121 1.9263 -1.1293
# 5 -10.8282 0.9569 -1.3749 1.9263 46.4251 -10.8469
# 6 -2.8757 1.8422 -4.2296 -1.1293 -10.8469 35.3227
#
#
#
# Elastic Compliance Matrix: (Units=1/GPa)
#
#
# Indices 1 2 3 4 5 6 
#
# 1 0.007019 -0.002579 -0.001772 -0.000239 0.001897 0.001069
# 2 -0.002579 0.018132 -0.001871 0.006292 -0.001688 -0.001697
# 3 -0.001772 -0.001871 0.007565 0.002713 -0.000045 0.000932
# 4 -0.000239 0.006292 0.002713 0.024656 -0.001023 0.000451
# 5 0.001897 -0.001688 -0.000045 -0.001023 0.023815 0.007518
# 6 0.001069 -0.001697 0.000932 0.000451 0.007518 0.030920
#
#
# Mechanical properties :
#
#
# Convention : Reuss Voigt Hill
#
# Bulk Modulus (GPa) = 49.32984 71.35579 60.34282
# Shear Modulus (GPa) = 38.07855 45.13813 41.60834
#
# Velocity S-wave (km/s) = 3.90171 4.24802 4.07854
# Velocity P-wave (km/s) = 6.32607 7.25176 6.80468
#
# Compressibility (1/GPa) = 0.02027171
#
# Stress axis : x y z
#
# Youngs Moduli (GPa) = 142.47042 55.15180 132.19642
#
# Poissons Ratio (x) = 0.14225 0.23419
# Poissons Ratio (y) = 0.36747 0.24733
# Poissons Ratio (z) = 0.25239 0.10319
#
# Static dielectric constant tensor:
#      x y z
#    x 4.956420 0.232180 0.205190 
#    y 0.232180 4.724570 -0.195050 
#    z 0.205190 -0.195050 4.915980 
# 
# 
# High freq. dielectric constant tensor:
#      x y z
#    x 2.006480 -0.002500 -0.000780 
#    y -0.002500 2.001160 -0.018400 
#    z -0.000780 -0.018400 2.020610 
# 
# From -- ./inp_files/285113.got.cif
#   From: 2010.06.25/outbox.cif.g09.slc.cpg/sg2_143_cif.got.tgz:285113.got - 2010.06.27 13:26:56.
