data_PCOD8037893
_publ_section_title
;
Structure prediction by ZEFSAII (Michael W. Deem and Ramdas Pophale) SiO2 
 PCOD8037893
Probable space group: P -1
;
_chemical_formula_sum "Si O2"
_cell_formula_units_Z 14
_cell_length_a 12.558287
_cell_length_b 14.870264
_cell_length_c 11.294665
_cell_angle_alpha 147.264625
_cell_angle_beta 53.353346
_cell_angle_gamma 137.570101
_cell_volume 767.870726
_symmetry_space_group_name_H-M "P -1"
_symmetry_group_IT_number 2
_symmetry_cell_setting 'triclinic'
loop_
_space_group_symop_operation_xyz
x,y,z
-x,-y,-z
loop_
_atom_site_type_symbol
_atom_site_label
_atom_site_fract_x
_atom_site_fract_y
_atom_site_fract_z
Si Si1 0.551283 0.041635 0.817522
Si Si2 0.045078 0.693701 0.757477
Si Si3 0.727400 0.669249 0.987429
Si Si4 0.688780 0.895378 0.060242
Si Si5 0.402430 0.468852 0.415368
Si Si6 0.559395 0.694470 0.334138
Si Si7 0.277679 0.733279 0.828094
O O1 0.484044 0.136507 0.878060
O O2 0.600529 0.916715 0.568418
O O3 0.413450 0.907883 0.852980
O O4 0.700304 0.206085 0.980158
O O5 0.112267 0.687915 0.835810
O O6 0.000000 0.500000 0.500000
O O7 0.171463 0.877686 0.797352
O O8 0.900077 0.716529 0.902922
O O9 0.697556 0.818013 0.097684
O O10 0.702871 0.702986 0.178463
O O11 0.603337 0.440074 0.780742
O O12 0.705987 0.761928 0.802481
O O13 0.500000 0.500000 0.500000
O O14 0.535269 0.594000 0.366207
O O15 0.282483 0.538597 0.591729
#
# Coordination Sequence:
#
# PCOD8037893 Si02
#       7
#     2   2   2   2   2   2   2
#     4   9  16  31  50  78 100 134 177 219 263 301
#     4  11  21  35  54  78 110 144 177 216 269 322
#     4  10  20  36  51  79 110 144 176 217 267 320
#     4  10  19  31  57  82 102 136 182 226 259 310
#     4  10  17  32  57  84 104 131 179 229 260 303
#     4   9  20  34  54  77 108 143 179 218 270 314
#     4   9  18  30  51  76 106 133 173 223 261 307
#
# _framework density 18.232236
#
# number of rings (size 3 to 8) (size 9 to 14) (size 15 to 20)
#    0.000    2.286    1.429    3.857    2.000    0.571 
#    0.000    2.143    0.000    0.857    0.000    0.000 
#    0.000    0.000    0.000    0.000    0.000    0.000 
#
# Total GULP energy -173550.871956 kJ/mol
# GULP energy per Si atom -12396.490854 kJ/mol
# Density = 1.819074 g / cm^3
# Si number density = 18.232236 Si / 1000 Ang^3
#
#
#
# Elastic Constant Matrix: (Units=GPa)
#
#
# Indices 1 2 3 4 5 6 
#
# 1 115.2441 29.1270 46.9062 -9.2682 -2.2314 -3.7031
# 2 29.1270 43.2850 37.6892 -5.4768 4.5232 -2.6946
# 3 46.9062 37.6892 133.6206 2.9190 4.5053 -9.9522
# 4 -9.2682 -5.4768 2.9190 30.8996 -2.8740 1.3308
# 5 -2.2314 4.5232 4.5053 -2.8740 26.0681 2.6235
# 6 -3.7031 -2.6946 -9.9522 1.3308 2.6235 17.2320
#
#
#
# Elastic Compliance Matrix: (Units=1/GPa)
#
#
# Indices 1 2 3 4 5 6 
#
# 1 0.011386 -0.005230 -0.002725 0.003027 0.002747 -0.000597
# 2 -0.005230 0.034564 -0.007862 0.004874 -0.004555 0.000057
# 3 -0.002725 -0.007862 0.011182 -0.003651 -0.001726 0.005188
# 4 0.003027 0.004874 -0.003651 0.035056 0.004318 -0.004061
# 5 0.002747 -0.004555 -0.001726 0.004318 0.040934 -0.007685
# 6 -0.000597 0.000057 0.005188 -0.004061 -0.007685 0.062392
#
#
# Mechanical properties :
#
#
# Convention : Reuss Voigt Hill
#
# Bulk Modulus (GPa) = 39.21840 57.73273 48.47556
# Shear Modulus (GPa) = 21.21822 26.73511 23.97666
#
# Velocity S-wave (km/s) = 3.41512 3.83347 3.63032
# Velocity P-wave (km/s) = 6.09162 7.16435 6.64965
#
# Compressibility (1/GPa) = 0.02549823
#
# Stress axis : x y z
#
# Youngs Moduli (GPa) = 87.83068 28.93206 89.42772
#
# Poissons Ratio (x) = 0.15132 0.24366
# Poissons Ratio (y) = 0.45937 0.70305
# Poissons Ratio (z) = 0.23931 0.22746
#
# Static dielectric constant tensor:
#      x y z
#    x 3.598060 -0.121280 -0.019460 
#    y -0.121280 2.885530 0.001380 
#    z -0.019460 0.001380 3.590530 
# 
# 
# High freq. dielectric constant tensor:
#      x y z
#    x 1.709760 -0.012940 -0.001650 
#    y -0.012940 1.656490 0.008170 
#    z -0.001650 0.008170 1.723590 
# 
# From -- ./inp_files/172834.got.cif
#   From: 2010.06.25/outbox.cif.g09.slc.cpg/sg2_87_cif.got.tgz:172834.got - 2010.06.27 13:26:56.
