data_PCOD8037345
_publ_section_title
;
Structure prediction by ZEFSAII (Michael W. Deem and Ramdas Pophale) SiO2 
 PCOD8037345
Probable space group: P -1
;
_chemical_formula_sum "Si O2"
_cell_formula_units_Z 14
_cell_length_a 23.486888
_cell_length_b 8.873301
_cell_length_c 8.794699
_cell_angle_alpha 128.582098
_cell_angle_beta 44.025501
_cell_angle_gamma 149.624560
_cell_volume 644.088932
_symmetry_space_group_name_H-M "P -1"
_symmetry_group_IT_number 2
_symmetry_cell_setting 'triclinic'
loop_
_space_group_symop_operation_xyz
x,y,z
-x,-y,-z
loop_
_atom_site_type_symbol
_atom_site_label
_atom_site_fract_x
_atom_site_fract_y
_atom_site_fract_z
Si Si1 0.246227 0.684820 0.890293
Si Si2 0.652358 0.238098 0.574771
Si Si3 0.483789 0.267222 0.958567
Si Si4 0.902829 0.686553 0.572006
Si Si5 0.005503 0.557064 0.847156
Si Si6 0.462639 0.631741 0.728453
Si Si7 0.183684 0.239835 0.933996
O O1 0.313317 0.805265 0.674023
O O2 0.201790 0.388867 0.835045
O O3 0.344943 0.934231 0.982755
O O4 0.131554 0.629130 0.067687
O O5 0.598910 0.354201 0.716912
O O6 0.771323 0.457284 0.593271
O O7 0.534800 0.927450 0.687431
O O8 0.500000 0.500000 0.000000
O O9 0.495033 0.294986 0.134074
O O10 0.952661 0.556599 0.398554
O O11 0.886775 0.736765 0.804381
O O12 0.000000 0.000000 0.500000
O O13 0.101210 0.903077 0.847965
O O14 0.000000 0.500000 0.000000
O O15 0.500000 0.500000 0.500000
O O16 0.313581 0.400851 0.859755
#
# Coordination Sequence:
#
# PCOD8037345 Si02
#       7
#     2   2   2   2   2   2   2
#     4  12  27  47  73 108 149 189 242 306 363 433
#     4  12  24  48  71 105 147 190 239 293 374 430
#     4  12  27  43  71 112 146 184 243 301 362 434
#     4  12  25  45  77 103 141 199 243 299 364 435
#     4  12  26  48  76 106 142 196 249 300 365 438
#     4  12  26  46  76 105 146 195 239 299 367 441
#     4  12  26  49  73 107 149 190 250 302 366 435
#
# _framework density 21.736128999999998
#
# number of rings (size 3 to 8) (size 9 to 14) (size 15 to 20)
#    0.000    0.000    5.714    3.857    6.000    0.571 
#    0.000    0.000    0.000    0.000    0.000    0.000 
#    0.000    0.000    0.000    0.000    0.000    0.000 
#
# Total GULP energy -173690.172306 kJ/mol
# GULP energy per Si atom -12406.440879 kJ/mol
# Density = 2.168666 g / cm^3
# Si number density = 21.736129 Si / 1000 Ang^3
#
#
#
# Elastic Constant Matrix: (Units=GPa)
#
#
# Indices 1 2 3 4 5 6 
#
# 1 118.4509 41.9496 52.2697 -1.0575 -25.5782 1.9854
# 2 41.9496 98.8301 70.9727 3.8474 -14.5069 -3.6251
# 3 52.2697 70.9727 139.2685 5.5154 -29.6690 2.6333
# 4 -1.0575 3.8474 5.5154 35.1219 -7.1885 -3.3930
# 5 -25.5782 -14.5069 -29.6690 -7.1885 44.0849 -0.9460
# 6 1.9854 -3.6251 2.6333 -3.3930 -0.9460 44.7158
#
#
#
# Elastic Compliance Matrix: (Units=1/GPa)
#
#
# Indices 1 2 3 4 5 6 
#
# 1 0.011307 -0.002870 -0.001854 0.001863 0.004664 -0.000385
# 2 -0.002870 0.016836 -0.007821 -0.000827 -0.001484 0.001859
# 3 -0.001854 -0.007821 0.012962 -0.000332 0.004994 -0.001235
# 4 0.001863 -0.000827 -0.000332 0.030022 0.005530 0.002265
# 5 0.004664 -0.001484 0.004994 0.005530 0.029172 0.000415
# 6 -0.000385 0.001859 -0.001235 0.002265 0.000415 0.022785
#
#
# Mechanical properties :
#
#
# Convention : Reuss Voigt Hill
#
# Bulk Modulus (GPa) = 62.44230 76.32596 69.38413
# Shear Modulus (GPa) = 32.57079 37.54169 35.05624
#
# Velocity S-wave (km/s) = 3.87520 4.16042 4.02034
# Velocity P-wave (km/s) = 6.98661 7.63346 7.31719
#
# Compressibility (1/GPa) = 0.01601478
#
# Stress axis : x y z
#
# Youngs Moduli (GPa) = 88.43995 59.39795 77.14783
#
# Poissons Ratio (x) = 0.17048 0.14304
# Poissons Ratio (y) = 0.25383 0.60336
# Poissons Ratio (z) = 0.16398 0.46454
#
# Static dielectric constant tensor:
#      x y z
#    x 4.098350 -0.147810 -0.115390 
#    y -0.147810 4.504220 -0.126420 
#    z -0.115390 -0.126420 4.229200 
# 
# 
# High freq. dielectric constant tensor:
#      x y z
#    x 1.868850 -0.000520 -0.011220 
#    y -0.000520 1.869000 -0.003590 
#    z -0.011220 -0.003590 1.866280 
# 
# From -- ./inp_files/181080.got.cif
#   From: 2010.06.25/outbox.cif.g09.slc.cpg/sg2_91_cif.got.tgz:181080.got - 2010.06.27 13:26:56.
