data_PCOD8037709
_publ_section_title
;
Structure prediction by ZEFSAII (Michael W. Deem and Ramdas Pophale) SiO2 
 PCOD8037709
Probable space group: P -1
;
_chemical_formula_sum "Si O2"
_cell_formula_units_Z 14
_cell_length_a 5.122410
_cell_length_b 22.327718
_cell_length_c 8.780612
_cell_angle_alpha 140.745228
_cell_angle_beta 97.921421
_cell_angle_gamma 98.255018
_cell_volume 577.026949
_symmetry_space_group_name_H-M "P -1"
_symmetry_group_IT_number 2
_symmetry_cell_setting 'triclinic'
loop_
_space_group_symop_operation_xyz
x,y,z
-x,-y,-z
loop_
_atom_site_type_symbol
_atom_site_label
_atom_site_fract_x
_atom_site_fract_y
_atom_site_fract_z
Si Si1 0.614422 0.107373 0.810268
Si Si2 0.007041 0.170878 0.491303
Si Si3 0.423927 0.450809 0.731284
Si Si4 0.619818 0.236375 0.788532
Si Si5 0.314116 0.046415 0.977689
Si Si6 0.016672 0.471148 0.271700
Si Si7 0.125693 0.215196 0.275237
O O1 0.582515 0.197239 0.882942
O O2 0.417255 0.088219 0.901204
O O3 0.500000 0.000000 0.500000
O O4 0.944129 0.154248 0.993677
O O5 0.320816 0.240135 0.718376
O O6 0.938831 0.216088 0.412998
O O7 0.741123 0.163722 0.563316
O O8 0.989972 0.052630 0.253712
O O9 0.134120 0.465827 0.705090
O O10 0.351699 0.328991 0.478355
O O11 0.668108 0.500920 0.721079
O O12 0.500000 0.500000 0.000000
O O13 0.858187 0.349568 0.006362
O O14 0.281367 0.147528 0.239742
O O15 0.500000 0.000000 0.000000
O O16 0.000000 0.500000 0.500000
#
# Coordination Sequence:
#
# PCOD8037709 Si02
#       7
#     2   2   2   2   2   2   2
#     4  12  27  46  72 112 153 195 246 307 367 460
#     4  12  26  48  74 109 148 198 246 304 373 456
#     4  12  28  51  80 114 150 198 267 321 372 448
#     4  12  27  47  77 108 152 196 249 305 383 442
#     4  12  26  47  74 108 152 193 251 300 376 450
#     4  12  27  50  76 110 155 200 252 321 388 449
#     4  12  28  45  79 106 150 200 252 309 377 438
#
# _framework density 24.2623
#
# number of rings (size 3 to 8) (size 9 to 14) (size 15 to 20)
#    0.000    0.000    2.857    6.429    6.000    1.143 
#    0.000    0.000    0.000    0.000    0.000    0.000 
#    0.000    0.000    0.000    0.000    0.000    0.000 
#
# Total GULP energy -173477.004263 kJ/mol
# GULP energy per Si atom -12391.214590 kJ/mol
# Density = 2.420708 g / cm^3
# Si number density = 24.262300 Si / 1000 Ang^3
#
#
#
# Elastic Constant Matrix: (Units=GPa)
#
#
# Indices 1 2 3 4 5 6 
#
# 1 84.5567 31.8218 25.7212 -1.1500 10.8007 -0.4787
# 2 31.8218 147.7186 52.2693 3.1467 2.4922 10.2674
# 3 25.7212 52.2693 133.1992 13.8125 16.8833 -2.1273
# 4 -1.1500 3.1467 13.8125 60.8905 0.8889 4.8445
# 5 10.8007 2.4922 16.8833 0.8889 28.0756 3.2625
# 6 -0.4787 10.2674 -2.1273 4.8445 3.2625 48.9768
#
#
#
# Elastic Compliance Matrix: (Units=1/GPa)
#
#
# Indices 1 2 3 4 5 6 
#
# 1 0.013718 -0.002552 -0.001132 0.000645 -0.004490 0.000855
# 2 -0.002552 0.008571 -0.003251 0.000383 0.002415 -0.002162
# 3 -0.001132 -0.003251 0.009934 -0.002162 -0.005376 0.001674
# 4 0.000645 0.000383 -0.002162 0.017047 0.000699 -0.001901
# 5 -0.004490 0.002415 -0.005376 0.000699 0.040757 -0.003568
# 6 0.000855 -0.002162 0.001674 -0.001901 -0.003568 0.021378
#
#
# Mechanical properties :
#
#
# Convention : Reuss Voigt Hill
#
# Bulk Modulus (GPa) = 54.48433 65.01102 59.74768
# Shear Modulus (GPa) = 38.05408 44.63272 41.34340
#
# Velocity S-wave (km/s) = 3.96466 4.29370 4.13245
# Velocity P-wave (km/s) = 6.59266 7.17178 6.88831
#
# Compressibility (1/GPa) = 0.01835390
#
# Stress axis : x y z
#
# Youngs Moduli (GPa) = 72.89547 116.67094 100.66339
#
# Poissons Ratio (x) = 0.29777 0.11391
# Poissons Ratio (y) = 0.18605 0.32725
# Poissons Ratio (z) = 0.08249 0.37929
#
# Static dielectric constant tensor:
#      x y z
#    x 4.555660 0.340450 -0.308110 
#    y 0.340450 5.219220 -0.966830 
#    z -0.308110 -0.966830 6.346300 
# 
# 
# High freq. dielectric constant tensor:
#      x y z
#    x 1.960570 0.015040 0.002300 
#    y 0.015040 1.988550 0.000740 
#    z 0.002300 0.000740 1.975100 
# 
# From -- ./inp_files/96807.got.cif
#   From: 2010.06.25/outbox.cif.g09.slc.cpg/sg2_49_cif.got.tgz:96807.got - 2010.06.27 13:26:56.
