data_PCOD8037751
_publ_section_title
;
Structure prediction by ZEFSAII (Michael W. Deem and Ramdas Pophale) SiO2 
 PCOD8037751
Probable space group: P -1
;
_chemical_formula_sum "Si O2"
_cell_formula_units_Z 10
_cell_length_a 12.749021
_cell_length_b 5.387943
_cell_length_c 13.108284
_cell_angle_alpha 130.241825
_cell_angle_beta 38.822079
_cell_angle_gamma 128.201009
_cell_volume 418.226920
_symmetry_space_group_name_H-M "P -1"
_symmetry_group_IT_number 2
_symmetry_cell_setting 'triclinic'
loop_
_space_group_symop_operation_xyz
x,y,z
-x,-y,-z
loop_
_atom_site_type_symbol
_atom_site_label
_atom_site_fract_x
_atom_site_fract_y
_atom_site_fract_z
Si Si1 0.903222 0.582473 0.794158
Si Si2 0.363549 0.601687 0.201821
Si Si3 0.825439 0.709346 0.555964
Si Si4 0.490892 0.294635 0.349494
Si Si5 0.849363 0.313264 0.992003
O O1 0.771030 0.294238 0.749154
O O2 0.891787 0.460012 0.886266
O O3 0.097522 0.618228 0.614837
O O4 0.839518 0.919478 0.909255
O O5 0.257165 0.299431 0.271354
O O6 0.456124 0.894394 0.287341
O O7 0.500000 0.500000 0.000000
O O8 0.675977 0.675104 0.577785
O O9 0.000000 0.000000 0.500000
O O10 0.500000 0.500000 0.500000
O O11 0.670291 0.406176 0.182181
O O12 0.000000 0.500000 0.000000
#
# Coordination Sequence:
#
# PCOD8037751 Si02
#       5
#     2   2   2   2   2
#     4  12  26  48  82 112 155 208 269 324 393 474
#     4  12  26  48  78 112 155 208 266 325 394 475
#     4  12  27  47  80 116 158 203 269 330 396 472
#     4  12  29  48  77 113 160 207 263 330 396 469
#     4  12  28  51  79 114 163 212 263 326 404 473
#
# _framework density 23.910464999999999
#
# number of rings (size 3 to 8) (size 9 to 14) (size 15 to 20)
#    0.000    0.000    4.000    4.800    5.600    2.400 
#    0.000    0.000    0.000    0.000    0.000    0.000 
#    0.000    0.000    0.000    0.000    0.000    0.000 
#
# Total GULP energy -123892.699891 kJ/mol
# GULP energy per Si atom -12389.269989 kJ/mol
# Density = 2.385604 g / cm^3
# Si number density = 23.910465 Si / 1000 Ang^3
#
#
#
# Elastic Constant Matrix: (Units=GPa)
#
#
# Indices 1 2 3 4 5 6 
#
# 1 189.1615 68.3544 82.2312 -9.9152 7.7253 21.8280
# 2 68.3544 108.9106 71.6741 -8.9393 17.1434 11.0693
# 3 82.2312 71.6741 210.2756 -21.1454 -4.4503 4.6130
# 4 -9.9152 -8.9393 -21.1454 47.3777 2.1520 5.8599
# 5 7.7253 17.1434 -4.4503 2.1520 60.2539 -6.3465
# 6 21.8280 11.0693 4.6130 5.8599 -6.3465 52.0466
#
#
#
# Elastic Compliance Matrix: (Units=1/GPa)
#
#
# Indices 1 2 3 4 5 6 
#
# 1 0.007538 -0.003213 -0.001758 0.000509 -0.000457 -0.002435
# 2 -0.003213 0.014557 -0.003661 0.000885 -0.004247 -0.002041
# 3 -0.001758 -0.003661 0.006892 0.001821 0.001808 0.000920
# 4 0.000509 0.000885 0.001821 0.022660 -0.001337 -0.003277
# 5 -0.000457 -0.004247 0.001808 -0.001337 0.018395 0.003328
# 6 -0.002435 -0.002041 0.000920 -0.003277 0.003328 0.021362
#
#
# Mechanical properties :
#
#
# Convention : Reuss Voigt Hill
#
# Bulk Modulus (GPa) = 85.30464 105.87414 95.58939
# Shear Modulus (GPa) = 44.41470 51.00817 47.71144
#
# Velocity S-wave (km/s) = 4.31460 4.62378 4.47186
# Velocity P-wave (km/s) = 7.78300 8.53705 8.16873
#
# Compressibility (1/GPa) = 0.01172269
#
# Stress axis : x y z
#
# Youngs Moduli (GPa) = 132.66157 68.69775 145.09040
#
# Poissons Ratio (x) = 0.22073 0.25503
# Poissons Ratio (y) = 0.42625 0.53121
# Poissons Ratio (z) = 0.23318 0.25152
#
# Static dielectric constant tensor:
#      x y z
#    x 4.630500 0.878750 -0.147410 
#    y 0.878750 3.664250 0.243090 
#    z -0.147410 0.243090 5.175370 
# 
# 
# High freq. dielectric constant tensor:
#      x y z
#    x 1.968530 0.013310 -0.016240 
#    y 0.013310 1.945690 0.002570 
#    z -0.016240 0.002570 1.978010 
# 
# From -- ./inp_files/16433.got.cif
#   From: 2010.06.25/outbox.cif.g09.slc.cpg/sg2_9_cif.got.tgz:16433.got - 2010.06.27 13:26:56.
