data_PCOD8037080
_publ_section_title
;
Structure prediction by ZEFSAII (Michael W. Deem and Ramdas Pophale) SiO2 
 PCOD8037080
Probable space group: P -1
;
_chemical_formula_sum "Si O2"
_cell_formula_units_Z 12
_cell_length_a 25.506510
_cell_length_b 25.506513
_cell_length_c 25.506512
_cell_angle_alpha 168.364141
_cell_angle_beta 168.364137
_cell_angle_gamma 11.635870
_cell_volume 586.606792
_symmetry_space_group_name_H-M "P -1"
_symmetry_group_IT_number 2
_symmetry_cell_setting 'triclinic'
loop_
_space_group_symop_operation_xyz
x,y,z
-x,-y,-z
loop_
_atom_site_type_symbol
_atom_site_label
_atom_site_fract_x
_atom_site_fract_y
_atom_site_fract_z
Si Si1 0.479166 0.479165 0.520833
Si Si2 0.979166 0.979166 0.020835
Si Si3 0.368056 0.368056 0.631943
Si Si4 0.756940 0.756938 0.243061
Si Si5 0.201382 0.201384 0.798619
Si Si6 0.590274 0.590276 0.409724
O O1 0.500000 0.500000 0.500000
O O2 0.138837 0.638929 0.361067
O O3 0.638931 0.138835 0.361067
O O4 0.638931 0.638929 0.861162
O O5 0.305554 0.805555 0.194445
O O6 0.805555 0.305554 0.194446
O O7 0.805555 0.805556 0.694446
O O8 0.000000 0.000000 0.000000
O O9 0.388891 0.388890 0.611110
O O10 0.777779 0.777778 0.222221
O O11 0.083264 0.583354 0.416645
O O12 0.583357 0.083261 0.416645
O O13 0.583357 0.583354 0.916739
#
# Coordination Sequence:
#
# PCOD8037080 Si02
#       6
#     2   2   2   2   2   2
#     4  12  25  44  67  96 129 168 211 260 316 378
#     4  12  24  42  66  96 130 170 214 264 318 378
#     4  12  24  43  65  94 129 169 214 264 318 378
#     4  12  24  42  64  94 126 166 212 262 318 378
#     4  12  24  42  66  94 128 166 210 262 316 378
#     4  12  25  43  66  94 128 169 213 264 318 378
#
# _framework density 20.456634000000001
#
# number of rings (size 3 to 8) (size 9 to 14) (size 15 to 20)
#    0.000    0.000    0.000   12.000    0.000    0.000 
#    0.000    0.000    0.000    0.000    0.000    0.000 
#    0.000    0.000    0.000    0.000    0.000    0.000 
#
# Total GULP energy -148885.537655 kJ/mol
# GULP energy per Si atom -12407.128138 kJ/mol
# Density = 2.041007 g / cm^3
# Si number density = 20.456634 Si / 1000 Ang^3
#
#
#
# Elastic Constant Matrix: (Units=GPa)
#
#
# Indices 1 2 3 4 5 6 
#
# 1 267.4204 106.6291 107.7467 0.9777 -3.3923 5.8459
# 2 106.6291 241.6783 133.7087 -1.8118 -6.1385 -3.5762
# 3 107.7467 133.7087 240.5613 0.8347 9.5421 -2.2889
# 4 0.9777 -1.8118 0.8347 55.2645 -0.5444 -7.1508
# 5 -3.3923 -6.1385 9.5421 -0.5444 49.0894 0.8892
# 6 5.8459 -3.5762 -2.2889 -7.1508 0.8892 48.0732
#
#
#
# Elastic Compliance Matrix: (Units=1/GPa)
#
#
# Indices 1 2 3 4 5 6 
#
# 1 0.004893 -0.001348 -0.001467 -0.000208 0.000467 -0.000805
# 2 -0.001348 0.006453 -0.003030 0.000362 0.001297 0.000530
# 3 -0.001467 -0.003030 0.006572 -0.000154 -0.001764 0.000276
# 4 -0.000208 0.000362 -0.000154 0.018476 0.000215 0.002789
# 5 0.000467 0.001297 -0.001764 0.000215 0.020918 -0.000399
# 6 -0.000805 0.000530 0.000276 0.002789 -0.000399 0.021374
#
#
# Mechanical properties :
#
#
# Convention : Reuss Voigt Hill
#
# Bulk Modulus (GPa) = 160.64765 160.64767 160.64766
# Shear Modulus (GPa) = 54.08228 57.25712 55.66970
#
# Velocity S-wave (km/s) = 5.14732 5.29625 5.22232
# Velocity P-wave (km/s) = 10.67838 10.77505 10.72683
#
# Compressibility (1/GPa) = 0.00622480
#
# Stress axis : x y z
#
# Youngs Moduli (GPa) = 204.39135 154.97566 152.17067
#
# Poissons Ratio (x) = 0.20897 0.22329
# Poissons Ratio (y) = 0.27560 0.46111
# Poissons Ratio (z) = 0.29991 0.46961
#
# Static dielectric constant tensor:
#      x y z
#    x 4.190130 0.002800 -0.001630 
#    y 0.002800 4.158370 -0.000150 
#    z -0.001630 -0.000150 4.158180 
# 
# 
# High freq. dielectric constant tensor:
#      x y z
#    x 1.831680 0.000120 -0.000070 
#    y 0.000120 1.830340 -0.000010 
#    z -0.000070 -0.000010 1.830320 
# 
# From -- ./inp_files/11960.got.cif
#   From: 2010.06.25/outbox.cif.g09.slc.cpg/sg2_6_cif.got.tgz:11960.got - 2010.06.27 13:26:56.
