data_PCOD8037319
_publ_section_title
;
Structure prediction by ZEFSAII (Michael W. Deem and Ramdas Pophale) SiO2 
 PCOD8037319
Probable space group: P -1
;
_chemical_formula_sum "Si O2"
_cell_formula_units_Z 14
_cell_length_a 8.924700
_cell_length_b 11.368873
_cell_length_c 5.637549
_cell_angle_alpha 82.694810
_cell_angle_beta 76.827738
_cell_angle_gamma 92.088195
_cell_volume 551.167685
_symmetry_space_group_name_H-M "P -1"
_symmetry_group_IT_number 2
_symmetry_cell_setting 'triclinic'
loop_
_space_group_symop_operation_xyz
x,y,z
-x,-y,-z
loop_
_atom_site_type_symbol
_atom_site_label
_atom_site_fract_x
_atom_site_fract_y
_atom_site_fract_z
Si Si1 0.684049 0.541612 0.809906
Si Si2 0.004553 0.353817 0.263159
Si Si3 0.648759 0.969640 0.812790
Si Si4 0.410019 0.239630 0.421951
Si Si5 0.938357 0.111528 0.626207
Si Si6 0.843021 0.803116 0.098294
Si Si7 0.664881 0.423118 0.347475
O O1 0.643584 0.680144 0.800937
O O2 0.617116 0.491294 0.590003
O O3 0.870759 0.541690 0.718969
O O4 0.615005 0.478861 0.093361
O O5 0.985058 0.239251 0.466475
O O6 0.846384 0.413762 0.265670
O O7 0.076396 0.310075 0.003594
O O8 0.588664 0.899017 0.616149
O O9 0.750962 0.092837 0.698870
O O10 0.765506 0.886990 0.919126
O O11 0.500000 0.000000 0.000000
O O12 0.287991 0.253843 0.668772
O O13 0.580041 0.290851 0.428823
O O14 0.019999 0.114311 0.850875
O O15 0.000000 0.000000 0.500000
#
# Coordination Sequence:
#
# PCOD8037319 Si02
#       7
#     2   2   2   2   2   2   2
#     4  12  25  53  76 115 150 207 255 317 386 452
#     4  12  27  46  77 110 150 196 257 319 373 461
#     4  12  29  46  76 111 151 196 253 316 383 461
#     4  12  27  49  73 112 152 199 251 319 382 460
#     4  12  24  48  72 110 143 204 253 304 390 457
#     4  12  24  47  75  99 158 196 250 304 389 444
#     4  12  31  45  82 114 155 200 262 318 382 446
#
# _framework density 25.400618999999999
#
# number of rings (size 3 to 8) (size 9 to 14) (size 15 to 20)
#    0.000    0.000    5.714    3.000    8.000    0.571 
#    0.000    0.000    0.000    0.000    0.000    0.000 
#    0.000    0.000    0.000    0.000    0.000    0.000 
#
# Total GULP energy -173548.171197 kJ/mol
# GULP energy per Si atom -12396.297943 kJ/mol
# Density = 2.534281 g / cm^3
# Si number density = 25.400619 Si / 1000 Ang^3
#
#
#
# Elastic Constant Matrix: (Units=GPa)
#
#
# Indices 1 2 3 4 5 6 
#
# 1 72.8563 19.0258 44.8688 11.8816 -11.2236 35.4846
# 2 19.0258 75.6973 45.1415 -3.6953 5.2844 30.7420
# 3 44.8688 45.1415 141.2256 5.9753 -15.3429 14.0173
# 4 11.8816 -3.6953 5.9753 36.0502 7.9219 -1.5866
# 5 -11.2236 5.2844 -15.3429 7.9219 49.4199 -4.6917
# 6 35.4846 30.7420 14.0173 -1.5866 -4.6917 61.5669
#
#
#
# Elastic Compliance Matrix: (Units=1/GPa)
#
#
# Indices 1 2 3 4 5 6 
#
# 1 0.026788 0.003149 -0.007253 -0.008734 0.003441 -0.015323
# 2 0.003149 0.022263 -0.007729 0.003267 -0.005682 -0.011520
# 3 -0.007253 -0.007729 0.011714 -0.000862 0.003487 0.005616
# 4 -0.008734 0.003267 -0.000862 0.032916 -0.007509 0.003875
# 5 0.003441 -0.005682 0.003487 -0.007509 0.024072 0.001701
# 6 -0.015323 -0.011520 0.005616 0.003875 0.001701 0.029778
#
#
# Mechanical properties :
#
#
# Convention : Reuss Voigt Hill
#
# Bulk Modulus (GPa) = 26.95519 56.42794 41.69156
# Shear Modulus (GPa) = 27.23890 41.45695 34.34792
#
# Velocity S-wave (km/s) = 3.27826 4.04434 3.68128
# Velocity P-wave (km/s) = 4.99644 6.63870 5.87523
#
# Compressibility (1/GPa) = 0.03709861
#
# Stress axis : x y z
#
# Youngs Moduli (GPa) = 37.33047 44.91804 85.37138
#
# Poissons Ratio (x) = -0.14144 0.61920
# Poissons Ratio (y) = -0.11755 0.65980
# Poissons Ratio (z) = 0.27076 0.34715
#
# Static dielectric constant tensor:
#      x y z
#    x 5.589250 1.127080 -0.379160 
#    y 1.127080 5.236330 -0.334880 
#    z -0.379160 -0.334880 4.791990 
# 
# 
# High freq. dielectric constant tensor:
#      x y z
#    x 2.041310 0.026850 -0.007240 
#    y 0.026850 2.013240 -0.002610 
#    z -0.007240 -0.002610 2.016110 
# 
# From -- ./inp_files/27598.got.cif
#   From: 2010.06.25/outbox.cif.g09.slc.cpg/sg2_14_cif.got.tgz:27598.got - 2010.06.27 13:26:56.
