data_PCOD8037159
_publ_section_title
;
Structure prediction by ZEFSAII (Michael W. Deem and Ramdas Pophale) SiO2 
 PCOD8037159
Probable space group: P -1
;
_chemical_formula_sum "Si O2"
_cell_formula_units_Z 14
_cell_length_a 11.206099
_cell_length_b 9.053572
_cell_length_c 8.681166
_cell_angle_alpha 74.175699
_cell_angle_beta 48.691781
_cell_angle_gamma 74.271917
_cell_volume 631.445716
_symmetry_space_group_name_H-M "P -1"
_symmetry_group_IT_number 2
_symmetry_cell_setting 'triclinic'
loop_
_space_group_symop_operation_xyz
x,y,z
-x,-y,-z
loop_
_atom_site_type_symbol
_atom_site_label
_atom_site_fract_x
_atom_site_fract_y
_atom_site_fract_z
Si Si1 0.628870 0.880937 0.848674
Si Si2 0.117348 0.527836 0.527266
Si Si3 0.070881 0.229602 0.165810
Si Si4 0.479834 0.677967 0.418046
Si Si5 0.792531 0.054323 0.397656
Si Si6 0.782384 0.771069 0.278711
Si Si7 0.565805 0.362025 0.878441
O O1 0.763683 0.811950 0.874137
O O2 0.714283 0.955752 0.617580
O O3 0.507007 0.766324 0.919535
O O4 0.500000 0.000000 0.000000
O O5 0.192265 0.359724 0.572564
O O6 0.246343 0.632226 0.315243
O O7 0.000000 0.500000 0.500000
O O8 0.026818 0.620198 0.717001
O O9 0.968904 0.083704 0.294690
O O10 0.096870 0.272330 0.953223
O O11 0.500000 0.500000 0.500000
O O12 0.308998 0.774483 0.583407
O O13 0.603491 0.774860 0.368027
O O14 0.514296 0.664504 0.210703
O O15 0.804624 0.944278 0.267982
O O16 0.500000 0.500000 0.000000
#
# Coordination Sequence:
#
# PCOD8037159 Si02
#       7
#     2   2   2   2   2   2   2
#     4  12  24  44  73 100 141 189 236 290 351 422
#     4  12  26  47  71 106 143 190 238 295 354 423
#     4  12  24  46  68 102 145 186 239 293 357 418
#     4  12  24  47  72  99 143 186 237 296 352 421
#     4  12  25  46  67 106 143 186 237 296 356 417
#     4  12  25  44  71 103 142 189 236 296 354 422
#     4  12  24  46  70 105 136 184 239 282 355 421
#
# _framework density 22.171344999999999
#
# number of rings (size 3 to 8) (size 9 to 14) (size 15 to 20)
#    0.000    0.000    5.714    4.286    0.000    1.143 
#    0.000    0.000    0.000    0.000    0.000    0.000 
#    0.000    0.000    0.000    0.000    0.000    0.000 
#
# Total GULP energy -173433.510438 kJ/mol
# GULP energy per Si atom -12388.107888 kJ/mol
# Density = 2.212088 g / cm^3
# Si number density = 22.171345 Si / 1000 Ang^3
#
#
#
# Elastic Constant Matrix: (Units=GPa)
#
#
# Indices 1 2 3 4 5 6 
#
# 1 110.0842 45.6860 40.1759 3.3726 -15.3429 15.7230
# 2 45.6860 138.2595 35.8591 6.6146 -15.9457 22.4237
# 3 40.1759 35.8591 124.9167 -7.3284 -17.8327 11.9174
# 4 3.3726 6.6146 -7.3284 51.0875 9.5807 3.7626
# 5 -15.3429 -15.9457 -17.8327 9.5807 36.8854 -0.1183
# 6 15.7230 22.4237 11.9174 3.7626 -0.1183 37.6568
#
#
#
# Elastic Compliance Matrix: (Units=1/GPa)
#
#
# Indices 1 2 3 4 5 6 
#
# 1 0.011827 -0.002446 -0.002506 -0.001188 0.002951 -0.002561
# 2 -0.002446 0.009407 -0.001210 -0.001463 0.002832 -0.004042
# 3 -0.002506 -0.001210 0.009775 0.001303 0.002818 -0.001448
# 4 -0.001188 -0.001463 0.001303 0.021245 -0.006019 -0.001186
# 5 0.002951 0.002832 0.002818 -0.006019 0.032479 -0.003107
# 6 -0.002561 -0.004042 -0.001448 -0.001186 -0.003107 0.030599
#
#
# Mechanical properties :
#
#
# Convention : Reuss Voigt Hill
#
# Bulk Modulus (GPa) = 53.51384 68.52250 61.01817
# Shear Modulus (GPa) = 37.34594 41.89524 39.62059
#
# Velocity S-wave (km/s) = 4.10863 4.35168 4.23190
# Velocity P-wave (km/s) = 6.83349 7.49817 7.17353
#
# Compressibility (1/GPa) = 0.01868676
#
# Stress axis : x y z
#
# Youngs Moduli (GPa) = 84.55300 106.30541 102.29774
#
# Poissons Ratio (x) = 0.25998 0.25634
# Poissons Ratio (y) = 0.20678 0.12376
# Poissons Ratio (z) = 0.21188 0.12861
#
# Static dielectric constant tensor:
#      x y z
#    x 4.106820 0.193690 -0.023530 
#    y 0.193690 4.527610 -0.091820 
#    z -0.023530 -0.091820 4.137570 
# 
# 
# High freq. dielectric constant tensor:
#      x y z
#    x 1.871140 0.025340 -0.008730 
#    y 0.025340 1.887780 0.000520 
#    z -0.008730 0.000520 1.892100 
# 
# From -- ./inp_files/222864.got.cif
#   From: 2010.06.25/outbox.cif.g09.slc.cpg/sg2_112_cif.got.tgz:222864.got - 2010.06.27 13:26:56.
