data_PCOD8037408
_publ_section_title
;
Structure prediction by ZEFSAII (Michael W. Deem and Ramdas Pophale) SiO2 
 PCOD8037408
Probable space group: P -1
;
_chemical_formula_sum "Si O2"
_cell_formula_units_Z 14
_cell_length_a 9.290899
_cell_length_b 12.194721
_cell_length_c 8.843113
_cell_angle_alpha 62.161211
_cell_angle_beta 64.577413
_cell_angle_gamma 113.054937
_cell_volume 536.994674
_symmetry_space_group_name_H-M "P -1"
_symmetry_group_IT_number 2
_symmetry_cell_setting 'triclinic'
loop_
_space_group_symop_operation_xyz
x,y,z
-x,-y,-z
loop_
_atom_site_type_symbol
_atom_site_label
_atom_site_fract_x
_atom_site_fract_y
_atom_site_fract_z
Si Si1 0.727387 0.579098 0.730049
Si Si2 0.499689 0.216226 0.961159
Si Si3 0.146945 0.892018 0.543518
Si Si4 0.601302 0.776442 0.617298
Si Si5 0.832265 0.311132 0.111267
Si Si6 0.740385 0.905411 0.148148
Si Si7 0.103455 0.737200 0.206816
O O1 0.552195 0.359213 0.965899
O O2 0.566944 0.609978 0.769379
O O3 0.894053 0.696665 0.724998
O O4 0.873274 0.637188 0.473316
O O5 0.390171 0.222939 0.859539
O O6 0.742105 0.281868 0.768895
O O7 0.313750 0.009208 0.246555
O O8 0.246168 0.847331 0.644009
O O9 0.148932 0.025000 0.552115
O O10 0.400322 0.748469 0.800897
O O11 0.581298 0.782611 0.443026
O O12 0.970535 0.347562 0.874345
O O13 0.000000 0.500000 0.000000
O O14 0.738612 0.050362 0.024532
O O15 0.000000 0.000000 0.000000
#
# Coordination Sequence:
#
# PCOD8037408 Si02
#       7
#     2   2   2   2   2   2   2
#     4  12  29  48  77 112 148 197 256 306 373 444
#     4  12  27  47  77 109 151 197 250 309 371 448
#     4  12  25  51  77 108 152 198 248 309 373 447
#     4  12  26  49  73 111 153 200 243 315 380 431
#     4  12  28  48  78 113 151 196 255 307 371 453
#     4  12  25  47  77 111 149 197 250 311 378 439
#     4  12  24  50  72 111 147 200 249 306 373 448
#
# _framework density 26.071021999999999
#
# number of rings (size 3 to 8) (size 9 to 14) (size 15 to 20)
#    0.000    0.000    5.714    3.429    4.000    2.286 
#    2.571    0.000    0.000    0.000    0.000    0.000 
#    0.000    0.000    0.000    0.000    0.000    0.000 
#
# Total GULP energy -173609.324401 kJ/mol
# GULP energy per Si atom -12400.666029 kJ/mol
# Density = 2.601168 g / cm^3
# Si number density = 26.071022 Si / 1000 Ang^3
#
#
#
# Elastic Constant Matrix: (Units=GPa)
#
#
# Indices 1 2 3 4 5 6 
#
# 1 136.1800 61.8842 26.5804 -1.3493 17.4304 -5.0858
# 2 61.8842 149.4870 24.7719 -13.8400 9.1836 9.4912
# 3 26.5804 24.7719 59.7469 3.6777 13.7853 2.6450
# 4 -1.3493 -13.8400 3.6777 56.4267 -4.7815 3.1757
# 5 17.4304 9.1836 13.7853 -4.7815 44.6942 4.4607
# 6 -5.0858 9.4912 2.6450 3.1757 4.4607 53.2303
#
#
#
# Elastic Compliance Matrix: (Units=1/GPa)
#
#
# Indices 1 2 3 4 5 6 
#
# 1 0.009908 -0.003772 -0.002259 -0.000882 -0.002687 0.002009
# 2 -0.003772 0.008933 -0.002269 0.002432 0.000800 -0.002053
# 3 -0.002259 -0.002269 0.020002 -0.002328 -0.005047 -0.000243
# 4 -0.000882 0.002432 -0.002328 0.018781 0.002746 -0.001753
# 5 -0.002687 0.000800 -0.005047 0.002746 0.025351 -0.002437
# 6 0.002009 -0.002053 -0.000243 -0.001753 -0.002437 0.019665
#
#
# Mechanical properties :
#
#
# Convention : Reuss Voigt Hill
#
# Bulk Modulus (GPa) = 44.95725 63.54299 54.25012
# Shear Modulus (GPa) = 39.47730 46.34873 42.91301
#
# Velocity S-wave (km/s) = 3.89552 4.22096 4.06150
# Velocity P-wave (km/s) = 6.12495 6.94127 6.54585
#
# Compressibility (1/GPa) = 0.02224335
#
# Stress axis : x y z
#
# Youngs Moduli (GPa) = 100.92527 111.94060 49.99575
#
# Poissons Ratio (x) = 0.42219 0.11294
# Poissons Ratio (y) = 0.38065 0.11346
# Poissons Ratio (z) = 0.22798 0.25405
#
# Static dielectric constant tensor:
#      x y z
#    x 5.010490 0.101200 0.291820 
#    y 0.101200 5.092310 0.040740 
#    z 0.291820 0.040740 4.918500 
# 
# 
# High freq. dielectric constant tensor:
#      x y z
#    x 2.041310 0.001760 0.024690 
#    y 0.001760 2.066600 0.008700 
#    z 0.024690 0.008700 2.049360 
# 
# From -- ./inp_files/184963.got.cif
#   From: 2010.06.25/outbox.cif.g09.slc.cpg/sg2_93_cif.got.tgz:184963.got - 2010.06.27 13:26:56.
