data_PCOD8037629
_publ_section_title
;
Structure prediction by ZEFSAII (Michael W. Deem and Ramdas Pophale) SiO2 
 PCOD8037629
Probable space group: P -1
;
_chemical_formula_sum "Si O2"
_cell_formula_units_Z 14
_cell_length_a 9.153008
_cell_length_b 16.147962
_cell_length_c 8.090812
_cell_angle_alpha 109.563543
_cell_angle_beta 31.579150
_cell_angle_gamma 111.960367
_cell_volume 580.469940
_symmetry_space_group_name_H-M "P -1"
_symmetry_group_IT_number 2
_symmetry_cell_setting 'triclinic'
loop_
_space_group_symop_operation_xyz
x,y,z
-x,-y,-z
loop_
_atom_site_type_symbol
_atom_site_label
_atom_site_fract_x
_atom_site_fract_y
_atom_site_fract_z
Si Si1 0.148951 0.186976 0.681531
Si Si2 0.932326 0.164239 0.511270
Si Si3 0.318768 0.718227 0.648020
Si Si4 0.763108 0.990148 0.352232
Si Si5 0.344718 0.519197 0.496372
Si Si6 0.509631 0.735656 0.107842
Si Si7 0.806827 0.457745 0.809508
O O1 0.026147 0.157178 0.603266
O O2 0.431442 0.262036 0.442605
O O3 0.932121 0.228762 0.033428
O O4 0.266657 0.105107 0.596222
O O5 0.853023 0.064652 0.453767
O O6 0.642828 0.201933 0.818401
O O7 0.156464 0.232909 0.230376
O O8 0.223985 0.611633 0.670259
O O9 0.449187 0.752648 0.368457
O O10 0.500000 0.000000 0.500000
O O11 0.000000 0.000000 0.000000
O O12 0.500000 0.500000 0.500000
O O13 0.048682 0.447689 0.708660
O O14 0.580793 0.519808 0.124732
O O15 0.393135 0.634643 0.101010
O O16 0.000000 0.500000 0.500000
#
# Coordination Sequence:
#
# PCOD8037629 Si02
#       7
#     2   2   2   2   2   2   2
#     4  12  27  46  73 107 148 185 237 296 360 429
#     4  12  27  46  73 110 145 185 236 301 358 426
#     4  12  26  46  71 104 144 194 241 293 359 430
#     4  12  25  48  79 108 143 190 237 289 360 436
#     4  12  28  46  72 104 148 189 245 305 366 421
#     4  12  26  45  73 103 145 190 243 294 363 426
#     4  12  26  48  72 105 141 194 248 304 357 425
#
# _framework density 24.118390999999999
#
# number of rings (size 3 to 8) (size 9 to 14) (size 15 to 20)
#    0.000    0.000    1.429    9.000    8.000    0.000 
#    0.000    4.286    0.000    0.000    0.000    0.000 
#    0.000    0.000    0.000    0.000    0.000    0.000 
#
# Total GULP energy -173576.182328 kJ/mol
# GULP energy per Si atom -12398.298738 kJ/mol
# Density = 2.406350 g / cm^3
# Si number density = 24.118391 Si / 1000 Ang^3
#
#
#
# Elastic Constant Matrix: (Units=GPa)
#
#
# Indices 1 2 3 4 5 6 
#
# 1 113.1888 38.5931 18.1862 23.9085 -7.5186 12.5476
# 2 38.5931 115.6044 47.4273 18.7407 5.2000 20.5482
# 3 18.1862 47.4273 115.5691 13.7747 -8.1832 10.5739
# 4 23.9085 18.7407 13.7747 38.3404 2.6718 -6.3187
# 5 -7.5186 5.2000 -8.1832 2.6718 39.8142 -6.2867
# 6 12.5476 20.5482 10.5739 -6.3187 -6.2867 43.6309
#
#
#
# Elastic Compliance Matrix: (Units=1/GPa)
#
#
# Indices 1 2 3 4 5 6 
#
# 1 0.011552 -0.002575 0.000491 -0.006771 0.002626 -0.002831
# 2 -0.002575 0.013006 -0.004231 -0.003874 -0.003655 -0.005447
# 3 0.000491 -0.004231 0.010880 -0.002470 0.002933 -0.000720
# 4 -0.006771 -0.003874 -0.002470 0.034735 -0.002176 0.009087
# 5 0.002626 -0.003655 0.002933 -0.002176 0.027454 0.003896
# 6 -0.002831 -0.005447 -0.000720 0.009087 0.003896 0.028351
#
#
# Mechanical properties :
#
#
# Convention : Reuss Voigt Hill
#
# Bulk Modulus (GPa) = 43.84417 61.41948 52.63182
# Shear Modulus (GPa) = 34.19686 40.36748 37.28217
#
# Velocity S-wave (km/s) = 3.76955 4.09555 3.93593
# Velocity P-wave (km/s) = 6.09625 6.91996 6.52112
#
# Compressibility (1/GPa) = 0.02280805
#
# Stress axis : x y z
#
# Youngs Moduli (GPa) = 86.56145 76.88507 91.91268
#
# Poissons Ratio (x) = 0.19801 -0.04513
# Poissons Ratio (y) = 0.22293 0.38887
# Poissons Ratio (z) = -0.04250 0.32529
#
# Static dielectric constant tensor:
#      x y z
#    x 4.648610 0.414000 -0.204540 
#    y 0.414000 4.380390 -0.002270 
#    z -0.204540 -0.002270 4.634620 
# 
# 
# High freq. dielectric constant tensor:
#      x y z
#    x 1.976630 0.020580 -0.012520 
#    y 0.020580 1.961460 0.005140 
#    z -0.012520 0.005140 1.972540 
# 
# From -- ./inp_files/218147.got.cif
#   From: 2010.06.25/outbox.cif.g09.slc.cpg/sg2_110_cif.got.tgz:218147.got - 2010.06.27 13:26:56.
