data_PCOD8037272
_publ_section_title
;
Structure prediction by ZEFSAII (Michael W. Deem and Ramdas Pophale) SiO2 
 PCOD8037272
Probable space group: P -1
;
_chemical_formula_sum "Si O2"
_cell_formula_units_Z 16
_cell_length_a 9.270511
_cell_length_b 6.600013
_cell_length_c 20.452612
_cell_angle_alpha 108.619680
_cell_angle_beta 48.255053
_cell_angle_gamma 128.920227
_cell_volume 715.788902
_symmetry_space_group_name_H-M "P -1"
_symmetry_group_IT_number 2
_symmetry_cell_setting 'triclinic'
loop_
_space_group_symop_operation_xyz
x,y,z
-x,-y,-z
loop_
_atom_site_type_symbol
_atom_site_label
_atom_site_fract_x
_atom_site_fract_y
_atom_site_fract_z
Si Si1 0.270916 0.198010 0.535401
Si Si2 0.255147 0.975881 0.651938
Si Si3 0.770353 0.237249 0.574420
Si Si4 0.998485 0.879939 0.159648
Si Si5 0.616955 0.060455 0.865178
Si Si6 0.221022 0.484413 0.922031
Si Si7 0.935603 0.358817 0.676488
Si Si8 0.295873 0.246504 0.998757
O O1 0.500000 0.500000 0.500000
O O2 0.044019 0.199850 0.611035
O O3 0.275396 0.030401 0.574898
O O4 0.241284 0.028326 0.462595
O O5 0.139384 0.666255 0.663721
O O6 0.520907 0.171687 0.619200
O O7 0.092909 0.050649 0.742765
O O8 0.779089 0.309632 0.655151
O O9 0.000000 0.500000 0.500000
O O10 0.792180 0.614630 0.158101
O O11 0.201907 0.842502 0.118145
O O12 0.083327 0.098500 0.100161
O O13 0.759648 0.226546 0.776194
O O14 0.394600 0.073603 0.940929
O O15 0.488553 0.748562 0.868417
O O16 0.204575 0.294204 0.964281
O O17 0.000000 0.500000 0.000000
O O18 0.500000 0.500000 0.000000
#
# Coordination Sequence:
#
# PCOD8037272 Si02
#       8
#     2   2   2   2   2   2   2   2
#     4  12  24  49  76 104 147 193 244 302 376 445
#     4  12  27  48  71 112 152 185 244 312 371 439
#     4  12  26  47  80 106 147 197 244 302 377 452
#     4  12  26  47  73 105 149 196 242 306 372 434
#     4  12  27  47  71 108 145 194 250 300 363 440
#     4  12  27  46  73 107 146 194 252 299 360 445
#     4  12  27  46  75 109 147 192 247 311 365 438
#     4  12  24  46  76 100 147 197 237 297 371 433
#
# _framework density 22.352958000000001
#
# number of rings (size 3 to 8) (size 9 to 14) (size 15 to 20)
#    0.000    0.000    6.250    3.750    1.750    3.000 
#    0.000    0.000    0.000    0.000    0.000    0.000 
#    0.000    0.000    0.000    0.000    0.000    0.000 
#
# Total GULP energy -198350.295021 kJ/mol
# GULP energy per Si atom -12396.893439 kJ/mol
# Density = 2.230208 g / cm^3
# Si number density = 22.352958 Si / 1000 Ang^3
#
#
#
# Elastic Constant Matrix: (Units=GPa)
#
#
# Indices 1 2 3 4 5 6 
#
# 1 135.2621 24.2530 25.8264 0.6150 11.4046 0.6392
# 2 24.2530 105.7279 37.5460 -9.0317 6.9740 8.2447
# 3 25.8264 37.5460 75.3316 -19.2898 12.0857 6.7916
# 4 0.6150 -9.0317 -19.2898 42.2664 -5.1715 2.7635
# 5 11.4046 6.9740 12.0857 -5.1715 43.5126 3.6209
# 6 0.6392 8.2447 6.7916 2.7635 3.6209 37.6912
#
#
#
# Elastic Compliance Matrix: (Units=1/GPa)
#
#
# Indices 1 2 3 4 5 6 
#
# 1 0.008210 -0.001092 -0.002548 -0.001760 -0.001548 0.000836
# 2 -0.001092 0.011724 -0.005271 0.000225 0.000032 -0.001616
# 3 -0.002548 -0.005271 0.019396 0.007595 -0.002756 -0.002591
# 4 -0.001760 0.000225 0.007595 0.027668 0.001903 -0.003599
# 5 -0.001548 0.000032 -0.002756 0.001903 0.024539 -0.001981
# 6 0.000836 -0.001616 -0.002591 -0.003599 -0.001981 0.027792
#
#
# Mechanical properties :
#
#
# Convention : Reuss Voigt Hill
#
# Bulk Modulus (GPa) = 46.49458 54.61914 50.55686
# Shear Modulus (GPa) = 34.64566 39.94046 37.29306
#
# Velocity S-wave (km/s) = 3.94119 4.23165 4.08900
# Velocity P-wave (km/s) = 6.44640 6.95440 6.70521
#
# Compressibility (1/GPa) = 0.02150788
#
# Stress axis : x y z
#
# Youngs Moduli (GPa) = 121.80395 85.29876 51.55758
#
# Poissons Ratio (x) = 0.09313 0.13138
# Poissons Ratio (y) = 0.13299 0.27174
# Poissons Ratio (z) = 0.31038 0.44958
#
# Static dielectric constant tensor:
#      x y z
#    x 7.717370 -5.997930 -2.335480 
#    y -5.997930 15.081580 4.536020 
#    z -2.335480 4.536020 5.975650 
# 
# 
# High freq. dielectric constant tensor:
#      x y z
#    x 1.895540 0.008830 0.002780 
#    y 0.008830 1.894170 -0.002560 
#    z 0.002780 -0.002560 1.880620 
# 
# From -- ./inp_files/340117.got.cif
#   From: 2010.06.25/outbox.cif.g09.slc.cpg/sg2_171_cif.got.tgz:340117.got - 2010.06.27 13:26:56.
