data_PCOD8037930
_publ_section_title
;
Structure prediction by ZEFSAII (Michael W. Deem and Ramdas Pophale) SiO2 
 PCOD8037930
Probable space group: P -1
;
_chemical_formula_sum "Si O2"
_cell_formula_units_Z 16
_cell_length_a 8.360766
_cell_length_b 24.724587
_cell_length_c 19.072740
_cell_angle_alpha 12.390857
_cell_angle_beta 124.010153
_cell_angle_gamma 123.986364
_cell_volume 699.506133
_symmetry_space_group_name_H-M "P -1"
_symmetry_group_IT_number 2
_symmetry_cell_setting 'triclinic'
loop_
_space_group_symop_operation_xyz
x,y,z
-x,-y,-z
loop_
_atom_site_type_symbol
_atom_site_label
_atom_site_fract_x
_atom_site_fract_y
_atom_site_fract_z
Si Si1 0.205177 0.939874 0.754663
Si Si2 0.859216 0.083371 0.420812
Si Si3 0.179933 0.472151 0.241778
Si Si4 0.148609 0.960035 0.282212
Si Si5 0.460123 0.202798 0.369615
Si Si6 0.880084 0.365507 0.702390
Si Si7 0.193567 0.110023 0.942739
Si Si8 0.591344 0.979435 0.151940
O O1 0.288809 0.924336 0.871772
O O2 0.342743 0.139006 0.492490
O O3 0.206318 0.662338 0.072434
O O4 0.984467 0.038796 0.578248
O O5 0.659642 0.904587 0.592353
O O6 0.820609 0.375565 0.025552
O O7 0.000000 0.000000 0.500000
O O8 0.981239 0.303244 0.416447
O O9 0.366219 0.305163 0.497310
O O10 0.338692 0.930318 0.412413
O O11 0.209626 0.029136 0.129762
O O12 0.031594 0.182340 0.007124
O O13 0.500000 0.500000 0.000000
O O14 0.803068 0.586698 0.451497
O O15 0.000000 0.500000 0.500000
O O16 0.691378 0.181116 0.864366
O O17 0.365501 0.002517 0.075987
O O18 0.000000 0.000000 0.000000
#
# Coordination Sequence:
#
# PCOD8037930 Si02
#       8
#     2   2   2   2   2   2   2   2
#     4  10  20  36  61  90 121 165 207 246 308 365
#     4   8  17  33  53  90 119 160 201 245 291 367
#     4   9  20  37  61  88 122 163 204 248 305 369
#     4  10  19  38  60  88 118 163 203 248 311 364
#     4  10  17  32  61  89 124 162 201 242 307 369
#     4   9  22  43  63  85 120 160 208 257 313 371
#     4  11  24  40  58  92 122 154 209 263 312 363
#     4  11  22  41  64  90 121 164 202 262 315 364
#
# _framework density 22.873282
#
# number of rings (size 3 to 8) (size 9 to 14) (size 15 to 20)
#    0.000    2.500    1.250    2.625    1.750    2.500 
#    2.250    3.125    0.000    6.000    0.000    0.000 
#    0.000    0.000    0.000    0.000    0.000    0.000 
#
# Total GULP energy -198250.907780 kJ/mol
# GULP energy per Si atom -12390.681736 kJ/mol
# Density = 2.282122 g / cm^3
# Si number density = 22.873282 Si / 1000 Ang^3
#
#
#
# Elastic Constant Matrix: (Units=GPa)
#
#
# Indices 1 2 3 4 5 6 
#
# 1 96.2306 25.1125 50.4931 6.5922 3.1972 39.6027
# 2 25.1125 78.9277 28.7748 10.9354 0.9772 26.9271
# 3 50.4931 28.7748 175.0133 -5.1662 -0.8360 24.2183
# 4 6.5922 10.9354 -5.1662 24.1142 11.9845 5.3065
# 5 3.1972 0.9772 -0.8360 11.9845 35.6403 0.5460
# 6 39.6027 26.9271 24.2183 5.3065 0.5460 40.5161
#
#
#
# Elastic Compliance Matrix: (Units=1/GPa)
#
#
# Indices 1 2 3 4 5 6 
#
# 1 0.019110 0.001394 -0.003434 -0.002427 -0.000753 -0.017224
# 2 0.001394 0.017709 -0.002002 -0.007419 0.002005 -0.010990
# 3 -0.003434 -0.002002 0.007151 0.003758 -0.000732 -0.000069
# 4 -0.002427 -0.007419 0.003758 0.055801 -0.018224 -0.002006
# 5 -0.000753 0.002005 -0.000732 -0.018224 0.034154 0.001767
# 6 -0.017224 -0.010990 -0.000069 -0.002006 0.001767 0.049102
#
#
# Mechanical properties :
#
#
# Convention : Reuss Voigt Hill
#
# Bulk Modulus (GPa) = 27.86762 62.10359 44.98560
# Shear Modulus (GPa) = 24.62161 36.44018 30.53090
#
# Velocity S-wave (km/s) = 3.28447 3.99574 3.65743
# Velocity P-wave (km/s) = 5.15689 6.96405 6.12746
#
# Compressibility (1/GPa) = 0.03588395
#
# Stress axis : x y z
#
# Youngs Moduli (GPa) = 52.32914 56.46901 139.84299
#
# Poissons Ratio (x) = -0.07871 0.48026
# Poissons Ratio (y) = -0.07294 0.28001
# Poissons Ratio (z) = 0.17971 0.11307
#
# Static dielectric constant tensor:
#      x y z
#    x 4.293230 0.222840 -0.145110 
#    y 0.222840 4.399120 0.490110 
#    z -0.145110 0.490110 4.993770 
# 
# 
# High freq. dielectric constant tensor:
#      x y z
#    x 1.898970 0.024000 -0.004730 
#    y 0.024000 1.883630 0.008070 
#    z -0.004730 0.008070 1.922300 
# 
# From -- ./inp_files/608864.got.cif
#   From: 2010.06.25/outbox.cif.g09.slc.cpg/sg2_305_cif.got.tgz:608864.got - 2010.06.27 13:26:56.
