data_PCOD8037034
_publ_section_title
;
Structure prediction by ZEFSAII (Michael W. Deem and Ramdas Pophale) SiO2 
 PCOD8037034
Probable space group: P -1
;
_chemical_formula_sum "Si O2"
_cell_formula_units_Z 16
_cell_length_a 10.651628
_cell_length_b 13.046638
_cell_length_c 13.875464
_cell_angle_alpha 42.590835
_cell_angle_beta 61.915156
_cell_angle_gamma 34.005541
_cell_volume 678.429396
_symmetry_space_group_name_H-M "P -1"
_symmetry_group_IT_number 2
_symmetry_cell_setting 'triclinic'
loop_
_space_group_symop_operation_xyz
x,y,z
-x,-y,-z
loop_
_atom_site_type_symbol
_atom_site_label
_atom_site_fract_x
_atom_site_fract_y
_atom_site_fract_z
Si Si1 0.113428 0.391868 0.655135
Si Si2 0.601212 0.127607 0.170957
Si Si3 0.766842 0.099728 0.693608
Si Si4 0.590478 0.303046 0.401710
Si Si5 0.404339 0.247628 0.360028
Si Si6 0.629321 0.738145 0.163349
Si Si7 0.234192 0.560677 0.852540
Si Si8 0.910436 0.249268 0.659128
O O1 0.171696 0.394285 0.738985
O O2 0.075427 0.579912 0.479376
O O3 0.867138 0.506044 0.670669
O O4 0.325984 0.104635 0.731445
O O5 0.417682 0.287155 0.216645
O O6 0.465191 0.338478 0.991339
O O7 0.842275 0.011370 0.196524
O O8 0.663332 0.184014 0.564212
O O9 0.554572 0.233067 0.751304
O O10 0.866337 0.182979 0.625538
O O11 0.979929 0.790871 0.841664
O O12 0.599819 0.164771 0.413556
O O13 0.761310 0.288155 0.314141
O O14 0.313186 0.598011 0.297231
O O15 0.500000 0.000000 0.500000
O O16 0.774030 0.563373 0.137430
O O17 0.500000 0.000000 0.000000
#
# Coordination Sequence:
#
# PCOD8037034 Si02
#       8
#     2   2   2   2   2   2   2   2
#     4  12  25  47  74 105 147 191 242 302 358 430
#     4  12  27  48  70 109 151 190 243 297 361 438
#     4  12  28  49  77 106 145 188 244 307 356 430
#     4  12  25  49  75 108 144 191 247 298 361 433
#     4  12  27  43  75 109 143 192 240 299 363 421
#     4  12  27  48  74 106 147 190 239 295 370 429
#     4  12  29  47  74 110 145 194 242 296 370 429
#     4  12  23  47  78 103 144 193 240 301 360 426
#
# _framework density 23.583884000000001
#
# number of rings (size 3 to 8) (size 9 to 14) (size 15 to 20)
#    0.000    0.000    6.250    3.375    3.500    3.000 
#    0.000    0.000    0.000    0.000    0.000    0.000 
#    0.000    0.000    0.000    0.000    0.000    0.000 
#
# Total GULP energy -198377.157819 kJ/mol
# GULP energy per Si atom -12398.572364 kJ/mol
# Density = 2.353021 g / cm^3
# Si number density = 23.583884 Si / 1000 Ang^3
#
#
#
# Elastic Constant Matrix: (Units=GPa)
#
#
# Indices 1 2 3 4 5 6 
#
# 1 107.0861 15.3038 12.2043 -1.1733 7.3763 14.2575
# 2 15.3038 81.8631 12.6214 -9.1496 4.9309 15.2106
# 3 12.2043 12.6214 90.2708 -2.9396 16.1130 3.3957
# 4 -1.1733 -9.1496 -2.9396 34.5950 3.3486 3.2702
# 5 7.3763 4.9309 16.1130 3.3486 42.2760 -3.4715
# 6 14.2575 15.2106 3.3957 3.2702 -3.4715 39.1196
#
#
#
# Elastic Compliance Matrix: (Units=1/GPa)
#
#
# Indices 1 2 3 4 5 6 
#
# 1 0.010147 -0.000978 -0.000790 0.000506 -0.001678 -0.003441
# 2 -0.000978 0.014214 -0.001175 0.004333 -0.001842 -0.005594
# 3 -0.000790 -0.001175 0.012232 0.001220 -0.004551 -0.000823
# 4 0.000506 0.004333 0.001220 0.031017 -0.003919 -0.004916
# 5 -0.001678 -0.001842 -0.004551 -0.003919 0.026569 0.004408
# 6 -0.003441 -0.005594 -0.000823 -0.004916 0.004408 0.029865
#
#
# Mechanical properties :
#
#
# Convention : Reuss Voigt Hill
#
# Bulk Modulus (GPa) = 32.56497 39.94211 36.25354
# Shear Modulus (GPa) = 35.67199 39.13748 37.40474
#
# Velocity S-wave (km/s) = 3.89338 4.07812 3.98682
# Velocity P-wave (km/s) = 5.83518 6.25681 6.04967
#
# Compressibility (1/GPa) = 0.03070784
#
# Stress axis : x y z
#
# Youngs Moduli (GPa) = 98.54842 70.35209 81.75335
#
# Poissons Ratio (x) = 0.06883 0.06456
# Poissons Ratio (y) = 0.09641 0.09604
# Poissons Ratio (z) = 0.07782 0.08265
#
# Static dielectric constant tensor:
#      x y z
#    x 4.709350 -0.525260 -0.093450 
#    y -0.525260 6.408980 0.272820 
#    z -0.093450 0.272820 4.048680 
# 
# 
# High freq. dielectric constant tensor:
#      x y z
#    x 1.952720 0.014690 0.013140 
#    y 0.014690 1.945240 -0.005890 
#    z 0.013140 -0.005890 1.916870 
# 
# From -- ./inp_files/522270.got.cif
#   From: 2010.06.25/outbox.cif.g09.slc.cpg/sg2_262_cif.got.tgz:522270.got - 2010.06.27 13:26:56.
