data_PCOD8037224
_publ_section_title
;
Structure prediction by ZEFSAII (Michael W. Deem and Ramdas Pophale) SiO2 
 PCOD8037224
Probable space group: P -1
;
_chemical_formula_sum "Si O2"
_cell_formula_units_Z 16
_cell_length_a 11.777746
_cell_length_b 8.622379
_cell_length_c 15.814302
_cell_angle_alpha 68.884036
_cell_angle_beta 144.573671
_cell_angle_gamma 129.841138
_cell_volume 665.876923
_symmetry_space_group_name_H-M "P -1"
_symmetry_group_IT_number 2
_symmetry_cell_setting 'triclinic'
loop_
_space_group_symop_operation_xyz
x,y,z
-x,-y,-z
loop_
_atom_site_type_symbol
_atom_site_label
_atom_site_fract_x
_atom_site_fract_y
_atom_site_fract_z
Si Si1 0.866067 0.878509 0.736582
Si Si2 0.905295 0.334252 0.052262
Si Si3 0.186363 0.929278 0.482406
Si Si4 0.425170 0.298104 0.042937
Si Si5 0.348319 0.424165 0.725586
Si Si6 0.641985 0.299402 0.452880
Si Si7 0.880679 0.359346 0.223455
Si Si8 0.352734 0.051858 0.749587
O O1 0.650127 0.840404 0.670959
O O2 0.876983 0.685616 0.793761
O O3 0.782750 0.885062 0.589766
O O4 0.140101 0.093331 0.888006
O O5 0.857011 0.393356 0.103341
O O6 0.629446 0.109298 0.901638
O O7 0.000000 0.500000 0.000000
O O8 0.363162 0.875863 0.567463
O O9 0.897166 0.711643 0.335770
O O10 0.229747 0.993713 0.593897
O O11 0.432544 0.352171 0.136276
O O12 0.641260 0.284419 0.150275
O O13 0.500000 0.500000 0.000000
O O14 0.270290 0.489635 0.584970
O O15 0.424739 0.278223 0.777221
O O16 0.850602 0.410289 0.632853
O O17 0.845941 0.140520 0.265490
#
# Coordination Sequence:
#
# PCOD8037224 Si02
#       8
#     2   2   2   2   2   2   2   2
#     4  12  28  48  77 111 154 202 255 318 384 442
#     4  12  29  50  74 114 157 199 251 319 385 448
#     4  12  25  47  76 111 154 197 258 310 373 457
#     4  12  24  46  77 110 146 202 261 313 365 456
#     4  12  24  45  76 112 149 197 262 304 376 453
#     4  12  27  47  74 113 154 201 249 319 381 450
#     4  12  25  48  81 104 153 205 256 307 379 454
#     4  12  26  47  77 113 153 201 253 314 376 455
#
# _framework density 24.028464
#
# number of rings (size 3 to 8) (size 9 to 14) (size 15 to 20)
#    0.000    0.000    5.000    4.500    3.500    1.000 
#    2.250    0.000    0.000    0.000    0.000    0.000 
#    0.000    0.000    0.000    0.000    0.000    0.000 
#
# Total GULP energy -198297.590208 kJ/mol
# GULP energy per Si atom -12393.599388 kJ/mol
# Density = 2.397377 g / cm^3
# Si number density = 24.028464 Si / 1000 Ang^3
#
#
#
# Elastic Constant Matrix: (Units=GPa)
#
#
# Indices 1 2 3 4 5 6 
#
# 1 119.8221 46.7696 53.7971 -1.2633 1.1494 -1.5988
# 2 46.7696 80.6456 42.4279 -15.9890 -9.3889 12.3946
# 3 53.7971 42.4279 108.0111 -6.3582 -4.4597 -0.7019
# 4 -1.2633 -15.9890 -6.3582 43.9306 6.5872 -10.4243
# 5 1.1494 -9.3889 -4.4597 6.5872 55.9956 -1.7841
# 6 -1.5988 12.3946 -0.7019 -10.4243 -1.7841 29.0108
#
#
#
# Elastic Compliance Matrix: (Units=1/GPa)
#
#
# Indices 1 2 3 4 5 6 
#
# 1 0.012520 -0.006010 -0.004008 -0.001618 -0.001314 0.002499
# 2 -0.006010 0.020781 -0.004851 0.004530 0.002448 -0.007549
# 3 -0.004008 -0.004851 0.013222 0.000550 0.000333 0.002390
# 4 -0.001618 0.004530 0.000550 0.026505 -0.002046 0.007387
# 5 -0.001314 0.002448 0.000333 -0.002046 0.018541 -0.000705
# 6 0.002499 -0.007549 0.002390 0.007387 -0.000705 0.040501
#
#
# Mechanical properties :
#
#
# Convention : Reuss Voigt Hill
#
# Bulk Modulus (GPa) = 59.57870 66.05202 62.81536
# Shear Modulus (GPa) = 29.86822 36.81968 33.34395
#
# Velocity S-wave (km/s) = 3.52949 3.91875 3.72921
# Velocity P-wave (km/s) = 6.43884 6.92995 6.68891
#
# Compressibility (1/GPa) = 0.01678452
#
# Stress axis : x y z
#
# Youngs Moduli (GPa) = 79.87211 48.12184 75.63204
#
# Poissons Ratio (x) = 0.28920 0.30316
# Poissons Ratio (y) = 0.48001 0.36688
# Poissons Ratio (z) = 0.32016 0.23343
#
# Static dielectric constant tensor:
#      x y z
#    x 3.896340 0.277790 0.415130 
#    y 0.277790 4.188270 -0.521650 
#    z 0.415130 -0.521650 4.209100 
# 
# 
# High freq. dielectric constant tensor:
#      x y z
#    x 1.948070 -0.002010 0.003990 
#    y -0.002010 1.955410 -0.013270 
#    z 0.003990 -0.013270 1.970910 
# 
# From -- ./inp_files/286112.got.cif
#   From: 2010.06.25/outbox.cif.g09.slc.cpg/sg2_144_cif.got.tgz:286112.got - 2010.06.27 13:26:56.
