data_PCOD8037847
_publ_section_title
;
Structure prediction by ZEFSAII (Michael W. Deem and Ramdas Pophale) SiO2 
 PCOD8037847
Probable space group: P -1
;
_chemical_formula_sum "Si O2"
_cell_formula_units_Z 16
_cell_length_a 8.609675
_cell_length_b 14.441725
_cell_length_c 19.882210
_cell_angle_alpha 159.185245
_cell_angle_beta 55.627265
_cell_angle_gamma 124.770821
_cell_volume 717.391256
_symmetry_space_group_name_H-M "P -1"
_symmetry_group_IT_number 2
_symmetry_cell_setting 'triclinic'
loop_
_space_group_symop_operation_xyz
x,y,z
-x,-y,-z
loop_
_atom_site_type_symbol
_atom_site_label
_atom_site_fract_x
_atom_site_fract_y
_atom_site_fract_z
Si Si1 0.249098 0.420914 0.900918
Si Si2 0.604197 0.795479 0.877283
Si Si3 0.406962 0.833869 0.347650
Si Si4 0.994085 0.635049 0.344282
Si Si5 0.879929 0.076527 0.764566
Si Si6 0.685250 0.644054 0.620054
Si Si7 0.270672 0.729677 0.752406
Si Si8 0.289361 0.329995 0.676836
O O1 0.439722 0.346566 0.839376
O O2 0.224259 0.314208 0.758617
O O3 0.062426 0.268752 0.881561
O O4 0.256559 0.737597 0.112239
O O5 0.744238 0.683518 0.711704
O O6 0.465324 0.557857 0.780963
O O7 0.500000 0.000000 0.000000
O O8 0.707188 0.955197 0.024937
O O9 0.218344 0.638205 0.282155
O O10 0.500000 0.000000 0.500000
O O11 0.354635 0.046227 0.449522
O O12 0.916550 0.383130 0.236868
O O13 0.890104 0.614940 0.284568
O O14 0.950236 0.894928 0.567903
O O15 0.767963 0.905397 0.735178
O O16 0.454150 0.604121 0.649115
O O17 0.753898 0.376792 0.391422
#
# Coordination Sequence:
#
# PCOD8037847 Si02
#       8
#     2   2   2   2   2   2   2   2
#     4  10  21  38  56  87 113 159 192 236 302 350
#     4  10  17  32  53  87 118 145 198 245 293 339
#     4  10  21  37  57  83 121 156 189 240 303 349
#     4  11  19  35  59  89 114 146 201 240 288 354
#     4  10  20  33  60  83 114 148 199 236 285 360
#     4   9  17  31  51  88 118 145 189 253 290 343
#     4   9  18  30  53  89 114 149 190 244 294 342
#     4  11  20  34  60  86 114 152 196 243 283 358
#
# _framework density 22.303032000000002
#
# number of rings (size 3 to 8) (size 9 to 14) (size 15 to 20)
#    0.000    2.000    5.000    1.875    0.000    0.000 
#    0.000    0.625    0.000    7.500    0.000    0.000 
#    0.000    0.125    0.000    0.000    0.000    0.000 
#
# Total GULP energy -198213.906902 kJ/mol
# GULP energy per Si atom -12388.369181 kJ/mol
# Density = 2.225227 g / cm^3
# Si number density = 22.303032 Si / 1000 Ang^3
#
#
#
# Elastic Constant Matrix: (Units=GPa)
#
#
# Indices 1 2 3 4 5 6 
#
# 1 54.7215 28.0556 35.7545 -4.4254 3.5148 22.4249
# 2 28.0556 99.7571 35.9304 22.0828 16.5259 33.1462
# 3 35.7545 35.9304 70.7022 -5.0357 10.4124 15.6109
# 4 -4.4254 22.0828 -5.0357 27.5998 1.6047 13.9647
# 5 3.5148 16.5259 10.4124 1.6047 32.3752 -6.5218
# 6 22.4249 33.1462 15.6109 13.9647 -6.5218 30.9861
#
#
#
# Elastic Compliance Matrix: (Units=1/GPa)
#
#
# Indices 1 2 3 4 5 6 
#
# 1 0.045299 0.001876 -0.010133 0.027294 -0.012977 -0.044717
# 2 0.001876 0.023290 -0.006014 -0.006847 -0.014493 -0.023206
# 3 -0.010133 -0.006014 0.024809 0.010274 -0.005217 -0.004462
# 4 0.027294 -0.006847 0.010274 0.077497 -0.017957 -0.056311
# 5 -0.012977 -0.014493 -0.005217 -0.017957 0.051627 0.046483
# 6 -0.044717 -0.023206 -0.004462 -0.056311 0.046483 0.126868
#
#
# Mechanical properties :
#
#
# Convention : Reuss Voigt Hill
#
# Bulk Modulus (GPa) = 15.41841 47.18467 31.30154
# Shear Modulus (GPa) = 12.51403 26.55491 19.53447
#
# Velocity S-wave (km/s) = 2.37131 3.45431 2.96271
# Velocity P-wave (km/s) = 3.79811 6.09194 5.07629
#
# Compressibility (1/GPa) = 0.06485753
#
# Stress axis : x y z
#
# Youngs Moduli (GPa) = 22.07539 42.93640 40.30739
#
# Poissons Ratio (x) = -0.08053 0.40842
# Poissons Ratio (y) = -0.04141 0.24240
# Poissons Ratio (z) = 0.22368 0.25821
#
# Static dielectric constant tensor:
#      x y z
#    x 3.946340 0.156790 0.169670 
#    y 0.156790 4.133830 -0.125300 
#    z 0.169670 -0.125300 4.730940 
# 
# 
# High freq. dielectric constant tensor:
#      x y z
#    x 1.827990 0.021650 0.018400 
#    y 0.021650 1.880900 0.002980 
#    z 0.018400 0.002980 1.883100 
# 
# From -- ./inp_files/557359.got.cif
#   From: 2010.06.25/outbox.cif.g09.slc.cpg/sg2_279_cif.got.tgz:557359.got - 2010.06.27 13:26:56.
