data_PCOD8037265
_publ_section_title
;
Structure prediction by ZEFSAII (Michael W. Deem and Ramdas Pophale) SiO2 
 PCOD8037265
Probable space group: P -1
;
_chemical_formula_sum "Si O2"
_cell_formula_units_Z 16
_cell_length_a 21.115368
_cell_length_b 13.091312
_cell_length_c 9.161622
_cell_angle_alpha 143.964505
_cell_angle_beta 62.729042
_cell_angle_gamma 143.852873
_cell_volume 727.280651
_symmetry_space_group_name_H-M "P -1"
_symmetry_group_IT_number 2
_symmetry_cell_setting 'triclinic'
loop_
_space_group_symop_operation_xyz
x,y,z
-x,-y,-z
loop_
_atom_site_type_symbol
_atom_site_label
_atom_site_fract_x
_atom_site_fract_y
_atom_site_fract_z
Si Si1 0.129880 0.733910 0.224455
Si Si2 0.128099 0.291485 0.117092
Si Si3 0.266960 0.912669 0.758765
Si Si4 0.652192 0.768012 0.663705
Si Si5 0.763343 0.844799 0.148378
Si Si6 0.872241 0.665661 0.171183
Si Si7 0.611141 0.308855 0.139221
Si Si8 0.516562 0.213498 0.811868
O O1 0.263606 0.022545 0.326972
O O2 0.132281 0.877546 0.520275
O O3 0.123184 0.531177 0.067143
O O4 0.000000 0.500000 0.000000
O O5 0.157862 0.546601 0.430176
O O6 0.219002 0.319680 0.110636
O O7 0.124413 0.258680 0.909367
O O8 0.000000 0.000000 0.000000
O O9 0.231382 0.017723 0.836342
O O10 0.392580 0.076589 0.751399
O O11 0.282747 0.984025 0.994357
O O12 0.500000 0.500000 0.500000
O O13 0.664127 0.589602 0.486507
O O14 0.623401 0.562606 0.042885
O O15 0.737160 0.444860 0.137277
O O16 0.000000 0.000000 0.500000
O O17 0.540984 0.220911 0.962906
O O18 0.500000 0.000000 0.000000
O O19 0.500000 0.000000 0.500000
#
# Coordination Sequence:
#
# PCOD8037265 Si02
#       8
#     2   2   2   2   2   2   2   2
#     4  12  26  47  76 104 145 194 242 302 367 438
#     4  12  28  49  73 107 150 191 249 304 364 439
#     4  12  27  46  74 108 145 195 241 303 370 435
#     4  12  25  47  69 108 146 188 247 303 361 439
#     4  12  25  49  74 106 146 192 245 301 363 443
#     4  12  26  49  75 106 148 196 245 302 371 438
#     4  12  26  45  75 109 145 191 249 304 367 440
#     4  12  24  46  75 103 148 191 241 300 374 434
#
# _framework density 21.999759999999998
#
# number of rings (size 3 to 8) (size 9 to 14) (size 15 to 20)
#    0.000    0.000    6.250    2.625    5.250    2.500 
#    0.000    0.000    0.000    0.000    0.000    0.000 
#    0.000    0.000    0.000    0.000    0.000    0.000 
#
# Total GULP energy -198352.361962 kJ/mol
# GULP energy per Si atom -12397.022623 kJ/mol
# Density = 2.194969 g / cm^3
# Si number density = 21.999760 Si / 1000 Ang^3
#
#
#
# Elastic Constant Matrix: (Units=GPa)
#
#
# Indices 1 2 3 4 5 6 
#
# 1 112.9719 33.9574 21.5638 6.8787 -13.4258 -10.5224
# 2 33.9574 121.0538 29.3600 19.1559 1.0128 0.3451
# 3 21.5638 29.3600 116.2065 1.0553 -8.7797 -15.8199
# 4 6.8787 19.1559 1.0553 44.5861 1.4488 -2.9807
# 5 -13.4258 1.0128 -8.7797 1.4488 46.9885 8.2552
# 6 -10.5224 0.3451 -15.8199 -2.9807 8.2552 29.9044
#
#
#
# Elastic Compliance Matrix: (Units=1/GPa)
#
#
# Indices 1 2 3 4 5 6 
#
# 1 0.010351 -0.002712 -0.000694 -0.000321 0.002439 0.002601
# 2 -0.002712 0.010281 -0.002470 -0.004081 -0.000886 -0.002542
# 3 -0.000694 -0.002470 0.010092 0.001238 0.000820 0.005020
# 4 -0.000321 -0.004081 0.001238 0.024461 -0.001112 0.003335
# 5 0.002439 -0.000886 0.000820 -0.001112 0.023096 -0.005184
# 6 0.002601 -0.002542 0.005020 0.003335 -0.005184 0.038804
#
#
# Mechanical properties :
#
#
# Convention : Reuss Voigt Hill
#
# Bulk Modulus (GPa) = 52.71110 57.77719 55.24415
# Shear Modulus (GPa) = 36.99219 41.98587 39.48903
#
# Velocity S-wave (km/s) = 4.10504 4.37334 4.24131
# Velocity P-wave (km/s) = 6.81765 7.19869 7.01076
#
# Compressibility (1/GPa) = 0.01897133
#
# Stress axis : x y z
#
# Youngs Moduli (GPa) = 96.60679 97.26403 99.08359
#
# Poissons Ratio (x) = 0.26382 0.06879
# Poissons Ratio (y) = 0.26204 0.24476
# Poissons Ratio (z) = 0.06707 0.24026
#
# Static dielectric constant tensor:
#      x y z
#    x 4.943690 0.697240 -0.580140 
#    y 0.697240 4.313580 -0.310350 
#    z -0.580140 -0.310350 4.665610 
# 
# 
# High freq. dielectric constant tensor:
#      x y z
#    x 1.872410 0.004050 -0.012040 
#    y 0.004050 1.871160 0.005640 
#    z -0.012040 0.005640 1.887250 
# 
# From -- ./inp_files/346481.got.cif
#   From: 2010.06.25/outbox.cif.g09.slc.cpg/sg2_174_cif.got.tgz:346481.got - 2010.06.27 13:26:56.
