data_PCOD8037010
_publ_section_title
;
Structure prediction by ZEFSAII (Michael W. Deem and Ramdas Pophale) SiO2 
 PCOD8037010
Probable space group: P -1
;
_chemical_formula_sum "Si O2"
_cell_formula_units_Z 12
_cell_length_a 9.530874
_cell_length_b 7.682809
_cell_length_c 8.992640
_cell_angle_alpha 128.348120
_cell_angle_beta 82.904654
_cell_angle_gamma 98.544946
_cell_volume 510.264159
_symmetry_space_group_name_H-M "P -1"
_symmetry_group_IT_number 2
_symmetry_cell_setting 'triclinic'
loop_
_space_group_symop_operation_xyz
x,y,z
-x,-y,-z
loop_
_atom_site_type_symbol
_atom_site_label
_atom_site_fract_x
_atom_site_fract_y
_atom_site_fract_z
Si Si1 0.347662 0.053843 0.104097
Si Si2 0.882873 0.306833 0.179153
Si Si3 0.780881 0.188123 0.450858
Si Si4 0.760462 0.693043 0.252289
Si Si5 0.530004 0.725775 0.524746
Si Si6 0.804620 0.599703 0.868612
O O1 0.360336 0.106084 0.305947
O O2 0.308377 0.274343 0.141487
O O3 0.500000 0.000000 0.000000
O O4 0.230540 0.850383 0.983010
O O5 0.867646 0.273552 0.339463
O O6 0.041172 0.259270 0.084555
O O7 0.859754 0.562912 0.279329
O O8 0.613642 0.159318 0.421429
O O9 0.816157 0.356643 0.670179
O O10 0.827447 0.947631 0.362626
O O11 0.601753 0.679846 0.333625
O O12 0.751952 0.573068 0.030048
O O13 0.500000 0.500000 0.500000
#
# Coordination Sequence:
#
# PCOD8037010 Si02
#       6
#     2   2   2   2   2   2
#     4  12  23  46  81 103 145 197 239 300 366 427
#     4  12  26  50  73 109 152 190 242 300 368 433
#     4  12  26  48  77 107 148 192 247 296 368 431
#     4  12  27  47  73 108 150 189 248 300 360 437
#     4  12  23  48  71 109 145 190 244 305 360 428
#     4  12  27  48  75 110 148 194 241 302 364 435
#
# _framework density 23.517230999999999
#
# number of rings (size 3 to 8) (size 9 to 14) (size 15 to 20)
#    0.000    0.000    6.667    2.000    2.333    1.333 
#    0.000    0.000    0.000    0.000    0.000    0.000 
#    0.000    0.000    0.000    0.000    0.000    0.000 
#
# Total GULP energy -148884.498222 kJ/mol
# GULP energy per Si atom -12407.041518 kJ/mol
# Density = 2.346370 g / cm^3
# Si number density = 23.517231 Si / 1000 Ang^3
#
#
#
# Elastic Constant Matrix: (Units=GPa)
#
#
# Indices 1 2 3 4 5 6 
#
# 1 89.2329 24.8525 30.1282 -6.3168 -1.3088 14.7598
# 2 24.8525 134.3985 67.7055 -5.7949 3.2488 -5.6707
# 3 30.1282 67.7055 171.7018 -10.5572 4.8379 22.9503
# 4 -6.3168 -5.7949 -10.5572 50.2476 13.4388 -7.4880
# 5 -1.3088 3.2488 4.8379 13.4388 32.2837 7.2746
# 6 14.7598 -5.6707 22.9503 -7.4880 7.2746 25.0459
#
#
#
# Elastic Compliance Matrix: (Units=1/GPa)
#
#
# Indices 1 2 3 4 5 6 
#
# 1 0.013730 -0.003109 0.000008 -0.001121 0.003632 -0.010192
# 2 -0.003109 0.011248 -0.005086 0.002551 -0.004030 0.010972
# 3 0.000008 -0.005086 0.009102 -0.000650 0.001715 -0.010189
# 4 -0.001121 0.002551 -0.000650 0.025668 -0.013945 0.013558
# 5 0.003632 -0.004030 0.001715 -0.013945 0.041793 -0.020932
# 6 -0.010192 0.010972 -0.010189 0.013558 -0.020932 0.067887
#
#
# Mechanical properties :
#
#
# Convention : Reuss Voigt Hill
#
# Bulk Modulus (GPa) = 56.48065 71.18951 63.83508
# Shear Modulus (GPa) = 26.08204 39.69191 32.88697
#
# Velocity S-wave (km/s) = 3.33387 4.11272 3.74360
# Velocity P-wave (km/s) = 6.23606 7.27252 6.77414
#
# Compressibility (1/GPa) = 0.01770518
#
# Stress axis : x y z
#
# Youngs Moduli (GPa) = 72.83531 88.90482 109.86863
#
# Poissons Ratio (x) = 0.27640 -0.00087
# Poissons Ratio (y) = 0.22644 0.55879
# Poissons Ratio (z) = -0.00057 0.45217
#
# Static dielectric constant tensor:
#      x y z
#    x 4.295790 -0.121140 -0.046250 
#    y -0.121140 4.236530 0.018230 
#    z -0.046250 0.018230 4.499530 
# 
# 
# High freq. dielectric constant tensor:
#      x y z
#    x 1.929740 -0.007870 -0.009820 
#    y -0.007870 1.934480 0.000820 
#    z -0.009820 0.000820 1.944330 
# 
# From -- ./inp_files/160306.got.cif
#   From: 2010.06.25/outbox.cif.g09.slc.cpg/sg2_81_cif.got.tgz:160306.got - 2010.06.27 13:26:56.
