data_PCOD8037210
_publ_section_title
;
Structure prediction by ZEFSAII (Michael W. Deem and Ramdas Pophale) SiO2 
 PCOD8037210
Probable space group: P -1
;
_chemical_formula_sum "Si O2"
_cell_formula_units_Z 14
_cell_length_a 12.292907
_cell_length_b 15.006301
_cell_length_c 21.661210
_cell_angle_alpha 18.265651
_cell_angle_beta 33.763166
_cell_angle_gamma 27.639673
_cell_volume 579.649625
_symmetry_space_group_name_H-M "P -1"
_symmetry_group_IT_number 2
_symmetry_cell_setting 'triclinic'
loop_
_space_group_symop_operation_xyz
x,y,z
-x,-y,-z
loop_
_atom_site_type_symbol
_atom_site_label
_atom_site_fract_x
_atom_site_fract_y
_atom_site_fract_z
Si Si1 0.255037 0.186706 0.570405
Si Si2 0.775894 0.404499 0.061805
Si Si3 0.289816 0.954859 0.138370
Si Si4 0.056326 0.239250 0.855675
Si Si5 0.625829 0.845414 0.725128
Si Si6 0.588805 0.562063 0.481000
Si Si7 0.618798 0.345515 0.830231
O O1 0.371664 0.324161 0.377304
O O2 0.000000 0.500000 0.500000
O O3 0.217312 0.938343 0.711640
O O4 0.393420 0.006271 0.687471
O O5 0.610903 0.625601 0.052209
O O6 0.646876 0.592487 0.935468
O O7 0.039343 0.313016 0.007933
O O8 0.280689 0.808741 0.304822
O O9 0.358618 0.658678 0.251352
O O10 0.500000 0.000000 0.000000
O O11 0.242600 0.298540 0.696207
O O12 0.840652 0.619489 0.725019
O O13 0.159180 0.022896 0.011923
O O14 0.000000 0.000000 0.000000
O O15 0.624139 0.149805 0.563670
O O16 0.500000 0.500000 0.500000
#
# Coordination Sequence:
#
# PCOD8037210 Si02
#       7
#     2   2   2   2   2   2   2
#     4  12  24  45  74 111 153 193 242 314 388 459
#     4  12  26  45  77 109 152 197 249 314 389 453
#     4  12  28  51  75 105 152 199 259 319 374 454
#     4  12  28  47  79 116 156 200 256 319 385 463
#     4  12  26  48  76 112 153 201 253 317 386 454
#     4  12  29  52  76 110 154 203 261 315 390 461
#     4  12  25  46  71 112 151 193 250 311 385 457
#
# _framework density 24.152521
#
# number of rings (size 3 to 8) (size 9 to 14) (size 15 to 20)
#    0.000    0.000    5.714    2.571    8.000    1.143 
#    0.000    0.000    0.000    0.000    0.000    0.000 
#    0.000    0.000    0.000    0.000    0.000    0.000 
#
# Total GULP energy -173447.087537 kJ/mol
# GULP energy per Si atom -12389.077681 kJ/mol
# Density = 2.409755 g / cm^3
# Si number density = 24.152521 Si / 1000 Ang^3
#
#
#
# Elastic Constant Matrix: (Units=GPa)
#
#
# Indices 1 2 3 4 5 6 
#
# 1 114.6355 62.9546 41.8509 -7.4735 8.3733 -11.6345
# 2 62.9546 134.2489 34.7599 -15.4033 10.7226 -14.9006
# 3 41.8509 34.7599 123.5228 3.8729 18.9959 -24.1802
# 4 -7.4735 -15.4033 3.8729 49.7320 0.8609 -4.9997
# 5 8.3733 10.7226 18.9959 0.8609 48.3107 -1.5068
# 6 -11.6345 -14.9006 -24.1802 -4.9997 -1.5068 41.1892
#
#
#
# Elastic Compliance Matrix: (Units=1/GPa)
#
#
# Indices 1 2 3 4 5 6 
#
# 1 0.012606 -0.005106 -0.002838 0.000545 0.000058 0.000116
# 2 -0.005106 0.010714 -0.000742 0.002861 -0.001180 0.002302
# 3 -0.002838 -0.000742 0.010807 -0.000932 -0.003419 0.005036
# 4 0.000545 0.002861 -0.000932 0.021484 -0.000645 0.003225
# 5 0.000058 -0.001180 -0.003419 -0.000645 0.022255 -0.001682
# 6 0.000116 0.002302 0.005036 0.003225 -0.001682 0.028430
#
#
# Mechanical properties :
#
#
# Convention : Reuss Voigt Hill
#
# Bulk Modulus (GPa) = 59.68616 72.39313 66.03964
# Shear Modulus (GPa) = 38.68406 43.36917 41.02662
#
# Velocity S-wave (km/s) = 4.00641 4.24209 4.12594
# Velocity P-wave (km/s) = 6.79468 7.35066 7.07813
#
# Compressibility (1/GPa) = 0.01675430
#
# Stress axis : x y z
#
# Youngs Moduli (GPa) = 79.32423 93.33994 92.53431
#
# Poissons Ratio (x) = 0.47662 0.26257
# Poissons Ratio (y) = 0.40505 0.06870
# Poissons Ratio (z) = 0.22509 0.06930
#
# Static dielectric constant tensor:
#      x y z
#    x 3.347120 -0.209850 0.429850 
#    y -0.209850 4.623370 -0.147620 
#    z 0.429850 -0.147620 4.462410 
# 
# 
# High freq. dielectric constant tensor:
#      x y z
#    x 1.950120 0.010450 0.011310 
#    y 0.010450 1.965910 -0.008950 
#    z 0.011310 -0.008950 1.972290 
# 
# From -- ./inp_files/242199.got.cif
#   From: 2010.06.25/outbox.cif.g09.slc.cpg/sg2_122_cif.got.tgz:242199.got - 2010.06.27 13:26:56.
