data_PCOD8037481
_publ_section_title
;
Structure prediction by ZEFSAII (Michael W. Deem and Ramdas Pophale) SiO2 
 PCOD8037481
Probable space group: P -1
;
_chemical_formula_sum "Si O2"
_cell_formula_units_Z 12
_cell_length_a 12.992613
_cell_length_b 8.813672
_cell_length_c 4.966514
_cell_angle_alpha 93.877459
_cell_angle_beta 77.087754
_cell_angle_gamma 71.685352
_cell_volume 520.395349
_symmetry_space_group_name_H-M "P -1"
_symmetry_group_IT_number 2
_symmetry_cell_setting 'triclinic'
loop_
_space_group_symop_operation_xyz
x,y,z
-x,-y,-z
loop_
_atom_site_type_symbol
_atom_site_label
_atom_site_fract_x
_atom_site_fract_y
_atom_site_fract_z
Si Si1 0.633000 0.925705 0.441494
Si Si2 0.425600 0.575493 0.803059
Si Si3 0.757790 0.561828 0.274412
Si Si4 0.937970 0.099778 0.794372
Si Si5 0.099283 0.545903 0.309079
Si Si6 0.303587 0.924333 0.057430
O O1 0.697083 0.934982 0.129492
O O2 0.500000 0.000000 0.500000
O O3 0.676365 0.734720 0.451810
O O4 0.669958 0.026601 0.657623
O O5 0.500000 0.500000 0.500000
O O6 0.311018 0.536523 0.847834
O O7 0.399751 0.766349 0.867840
O O8 0.500000 0.500000 0.000000
O O9 0.814480 0.463591 0.497481
O O10 0.845889 0.573074 0.990774
O O11 0.946570 0.277404 0.780260
O O12 0.810152 0.112484 0.872836
O O13 0.000000 0.000000 0.500000
O O14 0.000000 0.000000 0.000000
O O15 0.000000 0.500000 0.500000
#
# Coordination Sequence:
#
# PCOD8037481 Si02
#       6
#     2   2   2   2   2   2
#     4  12  27  47  73 109 149 196 241 296 366 435
#     4  12  25  45  75 105 142 193 242 301 364 434
#     4  12  26  48  74 109 151 188 248 303 364 440
#     4  12  28  48  78 108 145 192 248 304 373 439
#     4  12  28  49  77 110 146 194 247 306 374 437
#     4  12  26  47  73 106 148 187 247 300 363 437
#
# _framework density 23.059393
#
# number of rings (size 3 to 8) (size 9 to 14) (size 15 to 20)
#    0.000    0.000    1.667    8.000    9.333    0.000 
#    0.000    0.000    0.000    0.000    0.000    0.000 
#    0.000    0.000    0.000    0.000    0.000    0.000 
#
# Total GULP energy -148811.344829 kJ/mol
# GULP energy per Si atom -12400.945402 kJ/mol
# Density = 2.300691 g / cm^3
# Si number density = 23.059393 Si / 1000 Ang^3
#
#
#
# Elastic Constant Matrix: (Units=GPa)
#
#
# Indices 1 2 3 4 5 6 
#
# 1 113.0511 57.8445 45.2429 -10.0905 17.4629 -4.8877
# 2 57.8445 147.9322 44.3849 -1.2047 6.4334 -12.9609
# 3 45.2429 44.3849 154.3530 -3.5027 1.1503 -20.3678
# 4 -10.0905 -1.2047 -3.5027 51.6532 -3.8591 0.0508
# 5 17.4629 6.4334 1.1503 -3.8591 43.0916 -10.9255
# 6 -4.8877 -12.9609 -20.3678 0.0508 -10.9255 32.7610
#
#
#
# Elastic Compliance Matrix: (Units=1/GPa)
#
#
# Indices 1 2 3 4 5 6 
#
# 1 0.013041 -0.004261 -0.002955 0.001859 -0.005248 -0.003331
# 2 -0.004261 0.008902 -0.000987 -0.000617 0.001033 0.002618
# 3 -0.002955 -0.000987 0.008292 0.000139 0.002438 0.005137
# 4 0.001859 -0.000617 0.000139 0.019810 0.001236 0.000501
# 5 -0.005248 0.001033 0.002438 0.001236 0.027870 0.010434
# 6 -0.003331 0.002618 0.005137 0.000501 0.010434 0.037735
#
#
# Mechanical properties :
#
#
# Convention : Reuss Voigt Hill
#
# Bulk Modulus (GPa) = 72.32104 78.92010 75.62057
# Shear Modulus (GPa) = 36.58573 43.35875 39.97224
#
# Velocity S-wave (km/s) = 3.98752 4.34096 4.16799
# Velocity P-wave (km/s) = 7.25475 7.70871 7.48517
#
# Compressibility (1/GPa) = 0.01382723
#
# Stress axis : x y z
#
# Youngs Moduli (GPa) = 76.68059 112.33991 120.60506
#
# Poissons Ratio (x) = 0.47869 0.35644
# Poissons Ratio (y) = 0.32674 0.11904
# Poissons Ratio (z) = 0.22662 0.11088
#
# Static dielectric constant tensor:
#      x y z
#    x 2.962070 1.256110 -0.445230 
#    y 1.256110 2.910060 0.386890 
#    z -0.445230 0.386890 4.241950 
# 
# 
# High freq. dielectric constant tensor:
#      x y z
#    x 1.918750 -0.007990 0.000150 
#    y -0.007990 1.921910 0.003790 
#    z 0.000150 0.003790 1.937960 
# 
# From -- ./inp_files/59334.got.cif
#   From: 2010.06.25/outbox.cif.g09.slc.cpg/sg2_30_cif.got.tgz:59334.got - 2010.06.27 13:26:56.
