data_PCOD8037027
_publ_section_title
;
Structure prediction by ZEFSAII (Michael W. Deem and Ramdas Pophale) SiO2 
 PCOD8037027
Probable space group: P -1
;
_chemical_formula_sum "Si O2"
_cell_formula_units_Z 14
_cell_length_a 9.527945
_cell_length_b 11.966082
_cell_length_c 15.194613
_cell_angle_alpha 27.651994
_cell_angle_beta 131.258985
_cell_angle_gamma 120.421962
_cell_volume 589.180760
_symmetry_space_group_name_H-M "P -1"
_symmetry_group_IT_number 2
_symmetry_cell_setting 'triclinic'
loop_
_space_group_symop_operation_xyz
x,y,z
-x,-y,-z
loop_
_atom_site_type_symbol
_atom_site_label
_atom_site_fract_x
_atom_site_fract_y
_atom_site_fract_z
Si Si1 0.429721 0.738447 0.551253
Si Si2 0.872758 0.520822 0.303012
Si Si3 0.786787 0.917246 0.291679
Si Si4 0.222379 0.237945 0.081264
Si Si5 0.815261 0.430690 0.008801
Si Si6 0.880344 0.970521 0.102183
Si Si7 0.437705 0.757607 0.336757
O O1 0.258711 0.644435 0.592947
O O2 0.632058 0.585677 0.773925
O O3 0.416139 0.703233 0.466823
O O4 0.400872 0.038800 0.338135
O O5 0.052871 0.339069 0.456681
O O6 0.946616 0.688143 0.291299
O O7 0.747031 0.695831 0.054131
O O8 0.592173 0.912958 0.265224
O O9 0.748509 0.977449 0.130071
O O10 0.850153 0.138101 0.215729
O O11 0.196060 0.492032 0.947153
O O12 0.049798 0.096668 0.113657
O O13 0.000000 0.500000 0.000000
O O14 0.770089 0.118930 0.872150
O O15 0.500000 0.500000 0.500000
#
# Coordination Sequence:
#
# PCOD8037027 Si02
#       7
#     2   2   2   2   2   2   2
#     4  12  27  51  75 108 147 199 251 305 370 439
#     4  12  26  47  78 112 147 194 250 304 372 448
#     4  12  26  46  76 114 147 201 244 307 374 429
#     4  12  27  48  77 109 150 202 244 304 367 445
#     4  12  27  52  74 107 153 193 253 308 364 441
#     4  12  23  47  75 113 153 190 248 301 377 446
#     4  12  26  44  75 114 154 190 243 314 373 439
#
# _framework density 23.761807999999998
#
# number of rings (size 3 to 8) (size 9 to 14) (size 15 to 20)
#    0.000    0.000    4.286    5.143    4.000    1.143 
#    2.571    0.000    0.000    0.000    0.000    0.000 
#    0.000    0.000    0.000    0.000    0.000    0.000 
#
# Total GULP energy -173551.944120 kJ/mol
# GULP energy per Si atom -12396.567437 kJ/mol
# Density = 2.370772 g / cm^3
# Si number density = 23.761808 Si / 1000 Ang^3
#
#
#
# Elastic Constant Matrix: (Units=GPa)
#
#
# Indices 1 2 3 4 5 6 
#
# 1 54.7783 -8.7547 32.1173 4.2356 -13.1403 -6.9824
# 2 -8.7547 95.4330 53.8192 -24.1617 6.1663 -9.0132
# 3 32.1173 53.8192 98.6795 -7.2648 -1.1018 -2.6927
# 4 4.2356 -24.1617 -7.2648 49.7117 -7.5648 4.8093
# 5 -13.1403 6.1663 -1.1018 -7.5648 48.8715 0.4096
# 6 -6.9824 -9.0132 -2.6927 4.8093 0.4096 35.0839
#
#
#
# Elastic Compliance Matrix: (Units=1/GPa)
#
#
# Indices 1 2 3 4 5 6 
#
# 1 0.034046 0.014289 -0.018440 0.001587 0.007108 0.008731
# 2 0.014289 0.023679 -0.016820 0.007434 0.001571 0.006599
# 3 -0.018440 -0.016820 0.024917 -0.002820 -0.002663 -0.005661
# 4 0.001587 0.007434 -0.002820 0.023781 0.003117 -0.001287
# 5 0.007108 0.001571 -0.002663 0.003117 0.022589 0.000923
# 6 0.008731 0.006599 -0.005661 -0.001287 0.000923 0.031667
#
#
# Mechanical properties :
#
#
# Convention : Reuss Voigt Hill
#
# Bulk Modulus (GPa) = 24.56955 44.80604 34.68780
# Shear Modulus (GPa) = 23.12798 38.18068 30.65433
#
# Velocity S-wave (km/s) = 3.12320 4.01285 3.59565
# Velocity P-wave (km/s) = 4.83407 6.35357 5.64518
#
# Compressibility (1/GPa) = 0.04070078
#
# Stress axis : x y z
#
# Youngs Moduli (GPa) = 29.37199 42.23140 40.13265
#
# Poissons Ratio (x) = -0.60346 0.74005
# Poissons Ratio (y) = -0.41971 0.67505
# Poissons Ratio (z) = 0.54162 0.71035
#
# Static dielectric constant tensor:
#      x y z
#    x 4.215710 -0.329630 0.087920 
#    y -0.329630 3.928010 -0.508650 
#    z 0.087920 -0.508650 4.584850 
# 
# 
# High freq. dielectric constant tensor:
#      x y z
#    x 1.949350 -0.012110 -0.002460 
#    y -0.012110 1.946560 -0.012410 
#    z -0.002460 -0.012410 1.958780 
# 
# From -- ./inp_files/427046.got.cif
#   From: 2010.06.25/outbox.cif.g09.slc.cpg/sg2_214_cif.got.tgz:427046.got - 2010.06.27 13:26:56.
