data_PCOD8037522
_publ_section_title
;
Structure prediction by ZEFSAII (Michael W. Deem and Ramdas Pophale) SiO2 
 PCOD8037522
Probable space group: P -1
;
_chemical_formula_sum "Si O2"
_cell_formula_units_Z 16
_cell_length_a 11.546504
_cell_length_b 17.672451
_cell_length_c 8.440475
_cell_angle_alpha 97.605729
_cell_angle_beta 55.714059
_cell_angle_gamma 141.771221
_cell_volume 700.044794
_symmetry_space_group_name_H-M "P -1"
_symmetry_group_IT_number 2
_symmetry_cell_setting 'triclinic'
loop_
_space_group_symop_operation_xyz
x,y,z
-x,-y,-z
loop_
_atom_site_type_symbol
_atom_site_label
_atom_site_fract_x
_atom_site_fract_y
_atom_site_fract_z
Si Si1 0.941863 0.670285 0.485056
Si Si2 0.032988 0.083897 0.121882
Si Si3 0.431788 0.253842 0.157981
Si Si4 0.655960 0.636613 0.221149
Si Si5 0.520279 0.125071 0.068198
Si Si6 0.119867 0.404319 0.131132
Si Si7 0.086438 0.194520 0.610698
Si Si8 0.517176 0.087040 0.409237
O O1 0.677716 0.504010 0.557564
O O2 0.953218 0.654664 0.652908
O O3 0.907829 0.745831 0.527306
O O4 0.224822 0.781173 0.209350
O O5 0.211679 0.141343 0.151732
O O6 0.195984 0.230172 0.959382
O O7 0.723950 0.967339 0.373502
O O8 0.000000 0.000000 0.000000
O O9 0.556877 0.231734 0.106625
O O10 0.264013 0.204087 0.428309
O O11 0.699942 0.433238 0.960089
O O12 0.774135 0.693426 0.322374
O O13 0.703014 0.576122 0.091315
O O14 0.499029 0.063562 0.227312
O O15 0.233660 0.978820 0.146992
O O16 0.815058 0.271286 0.250270
O O17 0.500000 0.000000 0.500000
#
# Coordination Sequence:
#
# PCOD8037522 Si02
#       8
#     2   2   2   2   2   2   2   2
#     4  12  26  45  75 108 146 193 250 306 366 434
#     4  12  27  48  77 109 148 199 248 303 369 445
#     4  12  27  51  74 105 156 200 241 303 379 438
#     4  12  25  46  76 110 145 194 256 303 367 438
#     4  12  29  48  71 113 152 191 246 309 371 437
#     4  12  26  47  76 107 149 197 249 307 367 441
#     4  12  25  46  77 105 146 197 251 305 365 442
#     4  12  27  49  77 109 148 194 247 306 368 439
#
# _framework density 22.855678999999999
#
# number of rings (size 3 to 8) (size 9 to 14) (size 15 to 20)
#    0.000    0.000    5.000    4.500    7.000    2.000 
#    0.000    0.000    0.000    0.000    0.000    0.000 
#    0.000    0.000    0.000    0.000    0.000    0.000 
#
# Total GULP energy -198451.855866 kJ/mol
# GULP energy per Si atom -12403.240992 kJ/mol
# Density = 2.280366 g / cm^3
# Si number density = 22.855679 Si / 1000 Ang^3
#
#
#
# Elastic Constant Matrix: (Units=GPa)
#
#
# Indices 1 2 3 4 5 6 
#
# 1 20.6130 -26.2736 -50.4475 32.2344 0.1124 11.4696
# 2 -26.2736 63.6573 -13.6520 22.8455 -16.5408 18.1586
# 3 -50.4475 -13.6520 41.9446 29.1334 -5.5747 31.4145
# 4 32.2344 22.8455 29.1334 32.1124 10.7240 -9.2327
# 5 0.1124 -16.5408 -5.5747 10.7240 26.3802 1.7984
# 6 11.4696 18.1586 31.4145 -9.2327 1.7984 32.6623
#
#
#
# Elastic Compliance Matrix: (Units=1/GPa)
#
#
# Indices 1 2 3 4 5 6 
#
# 1 0.007792 -0.006007 -0.006332 0.007911 -0.008996 0.009425
# 2 -0.006007 0.011546 -0.006299 0.002589 0.004730 0.002220
# 3 -0.006332 -0.006299 0.006215 0.007847 -0.005955 0.002294
# 4 0.007911 0.002589 0.007847 0.012265 -0.001177 -0.008232
# 5 -0.008996 0.004730 -0.005955 -0.001177 0.039878 0.003729
# 6 0.009425 0.002220 0.002294 -0.008232 0.003729 0.021334
#
#
# Mechanical properties :
#
#
# Convention : Reuss Voigt Hill
#
# Bulk Modulus (GPa) = -85.30472 -6.05903 -45.68187
# Shear Modulus (GPa) = 37.76454 32.67017 35.21735
#
# Velocity S-wave (km/s) = 4.06926 3.78486 3.92963
# Velocity P-wave (km/s) = 3.91480 4.05505 0.74758
#
# Compressibility (1/GPa) = -0.01172268
#
# Stress axis : x y z
#
# Youngs Moduli (GPa) = 128.32988 86.61025 160.89651
#
# Poissons Ratio (x) = 0.52028 1.01886
# Poissons Ratio (y) = 0.77089 1.01342
# Poissons Ratio (z) = 0.81264 0.54552
#
# Static dielectric constant tensor:
#      x y z
#    x 4.281030 0.143670 0.022840 
#    y 0.143670 4.312750 -0.206280 
#    z 0.022840 -0.206280 4.290880 
# 
# 
# High freq. dielectric constant tensor:
#      x y z
#    x 1.905560 0.005860 0.003010 
#    y 0.005860 1.916170 -0.015860 
#    z 0.003010 -0.015860 1.918160 
# 
# From -- ./inp_files/279490.got.cif
#   From: 2010.06.25/outbox.cif.g09.slc.cpg/sg2_140_cif.got.tgz:279490.got - 2010.06.27 13:26:56.
