data_PCOD8037561
_publ_section_title
;
Structure prediction by ZEFSAII (Michael W. Deem and Ramdas Pophale) SiO2 
 PCOD8037561
Probable space group: P -1
;
_chemical_formula_sum "Si O2"
_cell_formula_units_Z 12
_cell_length_a 23.355738
_cell_length_b 8.390509
_cell_length_c 23.355677
_cell_angle_alpha 31.857021
_cell_angle_beta 168.355619
_cell_angle_gamma 148.142930
_cell_volume 480.970075
_symmetry_space_group_name_H-M "P -1"
_symmetry_group_IT_number 2
_symmetry_cell_setting 'triclinic'
loop_
_space_group_symop_operation_xyz
x,y,z
-x,-y,-z
loop_
_atom_site_type_symbol
_atom_site_label
_atom_site_fract_x
_atom_site_fract_y
_atom_site_fract_z
Si Si1 0.876717 0.939879 0.834710
Si Si2 0.211239 0.463434 0.501083
Si Si3 0.556861 0.417519 0.182534
Si Si4 0.317433 0.917521 0.943106
Si Si5 0.665288 0.439862 0.623288
Si Si6 0.001051 0.036563 0.711210
O O1 0.570493 0.715573 0.606294
O O2 0.833959 0.252846 0.668207
O O3 0.106296 0.784454 0.070483
O O4 0.000000 0.000000 0.000000
O O5 0.328748 0.577360 0.642747
O O6 0.432832 0.281321 0.741398
O O7 0.903957 0.240259 0.274217
O O8 0.774138 0.259683 0.403895
O O9 0.241340 0.218732 0.932759
O O10 0.538819 0.750009 0.038817
O O11 0.142735 0.922669 0.828729
O O12 0.500000 0.500000 0.500000
O O13 0.831812 0.752820 0.666069
#
# Coordination Sequence:
#
# PCOD8037561 Si02
#       6
#     2   2   2   2   2   2
#     4  12  27  49  74 107 144 189 242 300 359 427
#     4  12  26  46  73 107 145 191 239 296 359 427
#     4  12  25  47  74 108 146 190 239 296 358 428
#     4  12  25  47  74 108 146 190 239 296 358 428
#     4  12  27  49  74 107 144 189 242 300 359 427
#     4  12  26  46  73 107 145 191 239 296 359 427
#
# _framework density 24.949577000000001
#
# number of rings (size 3 to 8) (size 9 to 14) (size 15 to 20)
#    0.000    0.000    0.000   10.000    0.000    5.333 
#    0.000    0.000    0.000    0.000    0.000    0.000 
#    0.000    0.000    0.000    0.000    0.000    0.000 
#
# Total GULP energy -148904.065903 kJ/mol
# GULP energy per Si atom -12408.672159 kJ/mol
# Density = 2.489279 g / cm^3
# Si number density = 24.949577 Si / 1000 Ang^3
#
#
#
# Elastic Constant Matrix: (Units=GPa)
#
#
# Indices 1 2 3 4 5 6 
#
# 1 81.6439 66.1859 28.0687 -10.7365 -1.3288 22.8064
# 2 66.1859 192.8399 112.0214 10.2265 -0.3876 1.8842
# 3 28.0687 112.0214 184.3678 -9.7675 9.5939 9.2885
# 4 -10.7365 10.2265 -9.7675 70.1152 -13.7650 3.0501
# 5 -1.3288 -0.3876 9.5939 -13.7650 40.9262 -0.4556
# 6 22.8064 1.8842 9.2885 3.0501 -0.4556 27.1832
#
#
#
# Elastic Compliance Matrix: (Units=1/GPa)
#
#
# Indices 1 2 3 4 5 6 
#
# 1 0.030581 -0.013942 0.005568 0.009148 0.002325 -0.027581
# 2 -0.013942 0.014692 -0.007812 -0.006046 -0.000360 0.014020
# 3 0.005568 -0.007812 0.009968 0.003503 -0.001140 -0.007949
# 4 0.009148 -0.006046 0.003503 0.018577 0.005551 -0.010444
# 5 0.002325 -0.000360 -0.001140 0.005551 0.026621 -0.001713
# 6 -0.027581 0.014020 -0.007949 -0.010444 -0.001713 0.062815
#
#
# Mechanical properties :
#
#
# Convention : Reuss Voigt Hill
#
# Bulk Modulus (GPa) = 43.72460 96.82261 70.27360
# Shear Modulus (GPa) = 24.60034 44.48328 34.54181
#
# Velocity S-wave (km/s) = 3.14347 4.22705 3.72488
# Velocity P-wave (km/s) = 5.54423 7.91931 6.83572
#
# Compressibility (1/GPa) = 0.02287042
#
# Stress axis : x y z
#
# Youngs Moduli (GPa) = 32.69954 68.06579 100.31971
#
# Poissons Ratio (x) = 0.94895 -0.55862
# Poissons Ratio (y) = 0.45589 0.78370
# Poissons Ratio (z) = -0.18208 0.53173
#
# Static dielectric constant tensor:
#      x y z
#    x -4.319320 -3.990430 1.464690 
#    y -3.990430 3.459040 0.637880 
#    z 1.464690 0.637880 5.087590 
# 
# 
# High freq. dielectric constant tensor:
#      x y z
#    x 1.989040 -0.017170 0.006020 
#    y -0.017170 2.016030 0.003240 
#    z 0.006020 0.003240 2.026240 
# 
# From -- ./inp_files/355534.got.cif
#   From: 2010.06.25/outbox.cif.g09.slc.cpg/sg2_178_cif.got.tgz:355534.got - 2010.06.27 13:26:56.
