data_PCOD8037062
_publ_section_title
;
Structure prediction by ZEFSAII (Michael W. Deem and Ramdas Pophale) SiO2 
 PCOD8037062
Probable space group: P -1
;
_chemical_formula_sum "Si O2"
_cell_formula_units_Z 14
_cell_length_a 12.838021
_cell_length_b 10.952826
_cell_length_c 8.510982
_cell_angle_alpha 138.862801
_cell_angle_beta 119.674693
_cell_angle_gamma 72.711029
_cell_volume 678.025405
_symmetry_space_group_name_H-M "P -1"
_symmetry_group_IT_number 2
_symmetry_cell_setting 'triclinic'
loop_
_space_group_symop_operation_xyz
x,y,z
-x,-y,-z
loop_
_atom_site_type_symbol
_atom_site_label
_atom_site_fract_x
_atom_site_fract_y
_atom_site_fract_z
Si Si1 0.097361 0.156318 0.400018
Si Si2 0.993451 0.756120 0.897525
Si Si3 0.436580 0.622364 0.779429
Si Si4 0.900827 0.511536 0.068330
Si Si5 0.364971 0.617401 0.361850
Si Si6 0.730711 0.732183 0.622659
Si Si7 0.532656 0.965649 0.812089
O O1 0.997340 0.218241 0.260771
O O2 0.103647 0.274062 0.679148
O O3 0.228581 0.184177 0.437728
O O4 0.057448 0.942742 0.212487
O O5 0.851175 0.716329 0.801769
O O6 0.064487 0.589245 0.843833
O O7 0.381233 0.630111 0.572601
O O8 0.568445 0.554763 0.815463
O O9 0.343529 0.473721 0.662274
O O10 0.451422 0.832423 0.068939
O O11 0.774136 0.414462 0.815924
O O12 0.000000 0.500000 0.000000
O O13 0.424482 0.814032 0.516495
O O14 0.655090 0.870757 0.795542
O O15 0.500000 0.000000 0.000000
#
# Coordination Sequence:
#
# PCOD8037062 Si02
#       7
#     2   2   2   2   2   2   2
#     4   9  22  41  59  85 120 160 198 232 289 357
#     4   9  21  41  61  85 120 157 198 236 289 354
#     4   9  17  35  60  79 114 154 188 241 285 341
#     4  12  24  37  60  92 121 152 192 243 301 344
#     4   9  20  35  51  87 119 145 192 236 292 346
#     4   9  18  34  59  85 105 146 205 231 275 345
#     4   9  18  32  55  82 110 149 193 235 283 339
#
# _framework density 20.648192999999999
#
# number of rings (size 3 to 8) (size 9 to 14) (size 15 to 20)
#    0.857    1.714    0.000    2.143    0.000    6.286 
#    0.000    2.857    0.000    5.143    0.000    0.000 
#    0.000    0.000    0.000    0.000    0.000    0.000 
#
# Total GULP energy -173477.573780 kJ/mol
# GULP energy per Si atom -12391.255270 kJ/mol
# Density = 2.060120 g / cm^3
# Si number density = 20.648193 Si / 1000 Ang^3
#
#
#
# Elastic Constant Matrix: (Units=GPa)
#
#
# Indices 1 2 3 4 5 6 
#
# 1 110.8291 19.7954 51.6024 5.5068 17.2782 -16.3029
# 2 19.7954 49.4200 28.4816 18.8762 12.2702 -12.8790
# 3 51.6024 28.4816 109.0049 29.2202 13.1793 -13.8104
# 4 5.5068 18.8762 29.2202 35.5412 1.3243 3.3566
# 5 17.2782 12.2702 13.1793 1.3243 36.1059 -2.8237
# 6 -16.3029 -12.8790 -13.8104 3.3566 -2.8237 26.0443
#
#
#
# Elastic Compliance Matrix: (Units=1/GPa)
#
#
# Indices 1 2 3 4 5 6 
#
# 1 0.012818 -0.001259 -0.005718 0.003174 -0.003455 0.003586
# 2 -0.001259 0.035464 0.000216 -0.020213 -0.009344 0.018456
# 3 -0.005718 0.000216 0.016559 -0.013395 -0.002360 0.006779
# 4 0.003174 -0.020213 -0.013395 0.051122 0.006725 -0.020971
# 5 -0.003455 -0.009344 -0.002360 0.006725 0.032721 -0.005354
# 6 0.003586 0.018456 0.006779 -0.020971 -0.005354 0.055484
#
#
# Mechanical properties :
#
#
# Convention : Reuss Voigt Hill
#
# Bulk Modulus (GPa) = 19.48566 52.11254 35.79910
# Shear Modulus (GPa) = 21.29484 30.82993 26.06239
#
# Velocity S-wave (km/s) = 3.21490 3.86826 3.55662
# Velocity P-wave (km/s) = 4.82060 6.72639 5.85161
#
# Compressibility (1/GPa) = 0.05131979
#
# Stress axis : x y z
#
# Youngs Moduli (GPa) = 78.01229 28.19728 60.38916
#
# Poissons Ratio (x) = 0.03550 0.34530
# Poissons Ratio (y) = 0.09822 -0.01303
# Poissons Ratio (z) = 0.44607 -0.00608
#
# Static dielectric constant tensor:
#      x y z
#    x 3.604210 0.039550 0.257670 
#    y 0.039550 3.730880 0.530920 
#    z 0.257670 0.530920 3.844800 
# 
# 
# High freq. dielectric constant tensor:
#      x y z
#    x 1.801280 -0.002520 0.017120 
#    y -0.002520 1.785360 0.029430 
#    z 0.017120 0.029430 1.802330 
# 
# From -- ./inp_files/261194.got.cif
#   From: 2010.06.25/outbox.cif.g09.slc.cpg/sg2_131_cif.got.tgz:261194.got - 2010.06.27 13:26:56.
