data_PCOD8037141
_publ_section_title
;
Structure prediction by ZEFSAII (Michael W. Deem and Ramdas Pophale) SiO2 
 PCOD8037141
Probable space group: P -1
;
_chemical_formula_sum "Si O2"
_cell_formula_units_Z 16
_cell_length_a 7.648557
_cell_length_b 20.853438
_cell_length_c 8.365260
_cell_angle_alpha 120.794647
_cell_angle_beta 62.886090
_cell_angle_gamma 142.576677
_cell_volume 693.404431
_symmetry_space_group_name_H-M "P -1"
_symmetry_group_IT_number 2
_symmetry_cell_setting 'triclinic'
loop_
_space_group_symop_operation_xyz
x,y,z
-x,-y,-z
loop_
_atom_site_type_symbol
_atom_site_label
_atom_site_fract_x
_atom_site_fract_y
_atom_site_fract_z
Si Si1 0.077786 0.960423 0.787075
Si Si2 0.907131 0.663356 0.408819
Si Si3 0.500301 0.579628 0.178935
Si Si4 0.437560 0.998102 0.205356
Si Si5 0.695911 0.734855 0.774319
Si Si6 0.546749 0.864687 0.413555
Si Si7 0.812599 0.790980 0.154548
Si Si8 0.067197 0.505031 0.793040
O O1 0.804288 0.826708 0.714182
O O2 0.354098 0.989065 0.752412
O O3 0.182614 0.028955 0.668123
O O4 0.000000 0.000000 0.000000
O O5 0.655329 0.618081 0.334164
O O6 0.842096 0.694861 0.633044
O O7 0.889225 0.571417 0.349117
O O8 0.226093 0.774709 0.351407
O O9 0.684819 0.675347 0.095200
O O10 0.183972 0.530070 0.259485
O O11 0.500000 0.500000 0.000000
O O12 0.119995 0.880843 0.224924
O O13 0.461582 0.092575 0.361199
O O14 0.500000 0.000000 0.000000
O O15 0.351203 0.630993 0.787793
O O16 0.821265 0.803153 0.974938
O O17 0.612172 0.796542 0.331689
O O18 0.000000 0.500000 0.000000
#
# Coordination Sequence:
#
# PCOD8037141 Si02
#       8
#     2   2   2   2   2   2   2   2
#     4  12  25  43  67 103 145 190 242 288 357 434
#     4  12  25  47  76 106 143 187 242 302 366 432
#     4  12  26  44  75 108 133 188 247 295 361 434
#     4  12  24  44  69 109 145 186 241 295 358 434
#     4  12  25  46  71 104 149 192 236 301 366 423
#     4  12  24  46  74 103 145 198 230 295 373 424
#     4  12  24  45  71 105 144 186 240 294 359 433
#     4  12  24  48  76 102 145 189 240 304 364 424
#
# _framework density 23.074555
#
# number of rings (size 3 to 8) (size 9 to 14) (size 15 to 20)
#    0.000    0.000    7.500    1.875    1.750    1.500 
#    0.000    0.000    0.000    0.000    0.000    0.000 
#    0.000    0.000    0.000    0.000    0.000    0.000 
#
# Total GULP energy -198352.830337 kJ/mol
# GULP energy per Si atom -12397.051896 kJ/mol
# Density = 2.302204 g / cm^3
# Si number density = 23.074555 Si / 1000 Ang^3
#
#
#
# Elastic Constant Matrix: (Units=GPa)
#
#
# Indices 1 2 3 4 5 6 
#
# 1 97.4587 71.4217 36.5771 -1.8189 -23.7252 3.7375
# 2 71.4217 173.8656 31.0298 12.9414 -6.5267 25.4463
# 3 36.5771 31.0298 134.9472 18.1258 -29.9519 -3.8934
# 4 -1.8189 12.9414 18.1258 30.2082 -6.0495 -12.9665
# 5 -23.7252 -6.5267 -29.9519 -6.0495 35.6303 1.7425
# 6 3.7375 25.4463 -3.8934 -12.9665 1.7425 38.8435
#
#
#
# Elastic Compliance Matrix: (Units=1/GPa)
#
#
# Indices 1 2 3 4 5 6 
#
# 1 0.021416 -0.010071 -0.002254 0.012882 0.012314 0.008059
# 2 -0.010071 0.012074 -0.000162 -0.011397 -0.006053 -0.010490
# 3 -0.002254 -0.000162 0.010090 -0.005187 0.006104 -0.000671
# 4 0.012882 -0.011397 -0.005187 0.053879 0.010141 0.023237
# 5 0.012314 -0.006053 0.006104 0.010141 0.041771 0.004904
# 6 0.008059 -0.010490 -0.000671 0.023237 0.004904 0.039310
#
#
# Mechanical properties :
#
#
# Convention : Reuss Voigt Hill
#
# Bulk Modulus (GPa) = 53.74193 76.03651 64.88922
# Shear Modulus (GPa) = 23.84169 38.75260 31.29714
#
# Velocity S-wave (km/s) = 3.21790 4.10256 3.68686
# Velocity P-wave (km/s) = 6.09489 7.44751 6.80489
#
# Compressibility (1/GPa) = 0.01860744
#
# Stress axis : x y z
#
# Youngs Moduli (GPa) = 46.69312 82.82305 99.10333
#
# Poissons Ratio (x) = 0.83415 0.22334
# Poissons Ratio (y) = 0.47027 0.01602
# Poissons Ratio (z) = 0.10523 0.01339
#
# Static dielectric constant tensor:
#      x y z
#    x 4.224530 0.235960 -0.198380 
#    y 0.235960 4.605580 0.139160 
#    z -0.198380 0.139160 4.492210 
# 
# 
# High freq. dielectric constant tensor:
#      x y z
#    x 1.900600 0.012040 -0.025970 
#    y 0.012040 1.933060 0.011810 
#    z -0.025970 0.011810 1.917120 
# 
# From -- ./inp_files/226449.got.cif
#   From: 2010.06.25/outbox.cif.g09.slc.cpg/sg2_114_cif.got.tgz:226449.got - 2010.06.27 13:26:56.
