data_PCOD8037686
_publ_section_title
;
Structure prediction by ZEFSAII (Michael W. Deem and Ramdas Pophale) SiO2 
 PCOD8037686
Probable space group: P -1
;
_chemical_formula_sum "Si O2"
_cell_formula_units_Z 12
_cell_length_a 9.549473
_cell_length_b 28.507655
_cell_length_c 26.141837
_cell_angle_alpha 170.903384
_cell_angle_beta 151.636264
_cell_angle_gamma 28.287189
_cell_volume 527.993109
_symmetry_space_group_name_H-M "P -1"
_symmetry_group_IT_number 2
_symmetry_cell_setting 'triclinic'
loop_
_space_group_symop_operation_xyz
x,y,z
-x,-y,-z
loop_
_atom_site_type_symbol
_atom_site_label
_atom_site_fract_x
_atom_site_fract_y
_atom_site_fract_z
Si Si1 0.386329 0.749482 0.159129
Si Si2 0.968790 0.343904 0.874038
Si Si3 0.832230 0.004500 0.897709
Si Si4 0.716866 0.220190 0.289168
Si Si5 0.428510 0.569252 0.338388
Si Si6 0.978790 0.738430 0.462451
O O1 0.500000 0.000000 0.500000
O O2 0.239451 0.941086 0.269353
O O3 0.646725 0.482232 0.940726
O O4 0.163015 0.566826 0.921852
O O5 0.000000 0.000000 0.500000
O O6 0.000000 0.500000 0.000000
O O7 0.225045 0.390868 0.046496
O O8 0.573509 0.797771 0.595165
O O9 0.060668 0.904203 0.817986
O O10 0.688781 0.343821 0.205882
O O11 0.000000 0.000000 0.000000
O O12 0.500000 0.500000 0.500000
O O13 0.910529 0.294826 0.479809
O O14 0.500000 0.000000 0.000000
O O15 0.238588 0.751578 0.518766
#
# Coordination Sequence:
#
# PCOD8037686 Si02
#       6
#     2   2   2   2   2   2
#     4  12  26  47  73 106 146 196 242 290 354 427
#     4  12  28  45  71 106 151 189 240 295 356 425
#     4  12  26  46  74 104 143 184 236 297 364 427
#     4  12  26  48  73 104 141 184 240 298 356 428
#     4  12  26  46  71 105 144 188 237 292 363 422
#     4  12  26  45  76 105 144 191 245 294 354 427
#
# _framework density 22.72757
#
# number of rings (size 3 to 8) (size 9 to 14) (size 15 to 20)
#    0.000    0.000    1.667    8.000    9.333    0.000 
#    0.000    0.000    0.000    0.000    0.000    0.000 
#    0.000    0.000    0.000    0.000    0.000    0.000 
#
# Total GULP energy -148829.000739 kJ/mol
# GULP energy per Si atom -12402.416728 kJ/mol
# Density = 2.267584 g / cm^3
# Si number density = 22.727570 Si / 1000 Ang^3
#
#
#
# Elastic Constant Matrix: (Units=GPa)
#
#
# Indices 1 2 3 4 5 6 
#
# 1 168.2009 49.1638 65.9195 -6.0084 0.7876 -10.7831
# 2 49.1638 138.5313 47.6113 14.3892 -12.0922 2.9944
# 3 65.9195 47.6113 132.4853 18.3138 4.5083 -15.0922
# 4 -6.0084 14.3892 18.3138 43.6218 6.9324 1.5398
# 5 0.7876 -12.0922 4.5083 6.9324 53.0461 -1.2349
# 6 -10.7831 2.9944 -15.0922 1.5398 -1.2349 40.9707
#
#
#
# Elastic Compliance Matrix: (Units=1/GPa)
#
#
# Indices 1 2 3 4 5 6 
#
# 1 0.008171 -0.002071 -0.003682 0.003439 -0.000711 0.000795
# 2 -0.002071 0.009277 -0.002223 -0.002768 0.002653 -0.001858
# 3 -0.003682 -0.002223 0.011220 -0.004490 -0.000738 0.003473
# 4 0.003439 -0.002768 -0.004490 0.026867 -0.003851 -0.001672
# 5 -0.000711 0.002653 -0.000738 -0.003851 0.020035 0.000096
# 6 0.000795 -0.001858 0.003473 -0.001672 0.000096 0.026098
#
#
# Mechanical properties :
#
#
# Convention : Reuss Voigt Hill
#
# Bulk Modulus (GPa) = 78.63669 84.95631 81.79650
# Shear Modulus (GPa) = 41.03179 45.96259 43.49719
#
# Velocity S-wave (km/s) = 4.25358 4.50191 4.37950
# Velocity P-wave (km/s) = 7.66803 8.03021 7.85121
#
# Compressibility (1/GPa) = 0.01271671
#
# Stress axis : x y z
#
# Youngs Moduli (GPa) = 122.38915 107.79772 89.12571
#
# Poissons Ratio (x) = 0.22323 0.32815
# Poissons Ratio (y) = 0.25344 0.19810
# Poissons Ratio (z) = 0.45062 0.23960
#
# Static dielectric constant tensor:
#      x y z
#    x 4.280690 0.075490 0.227420 
#    y 0.075490 4.485540 0.051050 
#    z 0.227420 0.051050 4.189180 
# 
# 
# High freq. dielectric constant tensor:
#      x y z
#    x 1.911840 0.002790 0.010880 
#    y 0.002790 1.922650 0.005700 
#    z 0.010880 0.005700 1.907180 
# 
# From -- ./inp_files/201241.got.cif
#   From: 2010.06.25/outbox.cif.g09.slc.cpg/sg2_101_cif.got.tgz:201241.got - 2010.06.27 13:26:56.
