data_PCOD8037645
_publ_section_title
;
Structure prediction by ZEFSAII (Michael W. Deem and Ramdas Pophale) SiO2 
 PCOD8037645
Probable space group: P -1
;
_chemical_formula_sum "Si O2"
_cell_formula_units_Z 16
_cell_length_a 11.525615
_cell_length_b 9.220918
_cell_length_c 9.024686
_cell_angle_alpha 77.706318
_cell_angle_beta 49.380999
_cell_angle_gamma 82.957089
_cell_volume 711.161070
_symmetry_space_group_name_H-M "P -1"
_symmetry_group_IT_number 2
_symmetry_cell_setting 'triclinic'
loop_
_space_group_symop_operation_xyz
x,y,z
-x,-y,-z
loop_
_atom_site_type_symbol
_atom_site_label
_atom_site_fract_x
_atom_site_fract_y
_atom_site_fract_z
Si Si1 0.377387 0.437340 0.505393
Si Si2 0.950158 0.025445 0.868230
Si Si3 0.743487 0.815731 0.926349
Si Si4 0.160443 0.462483 0.938675
Si Si5 0.250263 0.722115 0.021128
Si Si6 0.385744 0.712320 0.224802
Si Si7 0.222918 0.992471 0.420434
Si Si8 0.518227 0.875819 0.631170
O O1 0.500000 0.500000 0.500000
O O2 0.232338 0.414349 0.734450
O O3 0.360495 0.557657 0.363882
O O4 0.415614 0.278044 0.445998
O O5 0.085585 0.978758 0.654855
O O6 0.793721 0.929008 0.990897
O O7 0.913236 0.200156 0.832111
O O8 0.000000 0.000000 0.000000
O O9 0.815933 0.893431 0.703320
O O10 0.837211 0.667733 0.913178
O O11 0.560161 0.779577 0.078719
O O12 0.241078 0.597407 0.929802
O O13 0.000000 0.500000 0.000000
O O14 0.351129 0.854004 0.839757
O O15 0.336732 0.667292 0.108434
O O16 0.264386 0.830123 0.359776
O O17 0.375165 0.061385 0.344808
O O18 0.500000 0.000000 0.500000
#
# Coordination Sequence:
#
# PCOD8037645 Si02
#       8
#     2   2   2   2   2   2   2   2
#     4  12  26  47  73 108 147 195 246 298 362 436
#     4  12  28  46  71 106 153 193 249 298 366 437
#     4  12  25  49  75 105 148 195 243 304 363 436
#     4  12  30  49  74 106 153 196 240 303 372 437
#     4  12  26  48  72 108 145 195 243 303 365 428
#     4  12  26  48  77 110 149 190 248 306 361 431
#     4  12  27  45  74 112 148 194 241 305 369 430
#     4  12  26  43  76 110 142 189 250 303 356 430
#
# _framework density 22.498417
#
# number of rings (size 3 to 8) (size 9 to 14) (size 15 to 20)
#    0.000    0.000    5.000    3.750   10.500    1.000 
#    0.000    1.250    0.000    0.000    0.000    0.000 
#    0.000    0.000    0.000    0.000    0.000    0.000 
#
# Total GULP energy -198277.532159 kJ/mol
# GULP energy per Si atom -12392.345760 kJ/mol
# Density = 2.244721 g / cm^3
# Si number density = 22.498417 Si / 1000 Ang^3
#
#
#
# Elastic Constant Matrix: (Units=GPa)
#
#
# Indices 1 2 3 4 5 6 
#
# 1 139.2883 39.9452 44.1606 -13.2093 32.6640 -10.8778
# 2 39.9452 125.3572 46.0216 -17.1349 16.6646 -23.6827
# 3 44.1606 46.0216 115.3414 -4.7352 12.7273 -18.4643
# 4 -13.2093 -17.1349 -4.7352 37.0591 -9.1108 7.4405
# 5 32.6640 16.6646 12.7273 -9.1108 34.8460 -0.3636
# 6 -10.8778 -23.6827 -18.4643 7.4405 -0.3636 47.6820
#
#
#
# Elastic Compliance Matrix: (Units=1/GPa)
#
#
# Indices 1 2 3 4 5 6 
#
# 1 0.010276 -0.001067 -0.002486 0.000747 -0.008012 0.000674
# 2 -0.001067 0.010766 -0.002960 0.002967 -0.002255 0.003478
# 3 -0.002486 -0.002960 0.011227 -0.001508 -0.000723 0.002540
# 4 0.000747 0.002967 -0.001508 0.030752 0.006434 -0.003690
# 5 -0.008012 -0.002255 -0.000723 0.006434 0.039191 -0.003933
# 6 0.000674 0.003478 0.002540 -0.003690 -0.003933 0.024383
#
#
# Mechanical properties :
#
#
# Convention : Reuss Voigt Hill
#
# Bulk Modulus (GPa) = 51.96619 71.13796 61.55208
# Shear Modulus (GPa) = 34.23835 40.57471 37.40653
#
# Velocity S-wave (km/s) = 3.90527 4.25131 4.08196
# Velocity P-wave (km/s) = 6.59414 7.46900 7.04516
#
# Compressibility (1/GPa) = 0.01924328
#
# Stress axis : x y z
#
# Youngs Moduli (GPa) = 97.31598 92.88309 89.07020
#
# Poissons Ratio (x) = 0.09914 0.22141
# Poissons Ratio (y) = 0.10387 0.26362
# Poissons Ratio (z) = 0.24191 0.27491
#
# Static dielectric constant tensor:
#      x y z
#    x 4.244790 -0.126200 0.043150 
#    y -0.126200 4.109820 -0.052040 
#    z 0.043150 -0.052040 3.928900 
# 
# 
# High freq. dielectric constant tensor:
#      x y z
#    x 1.908610 -0.004280 0.007600 
#    y -0.004280 1.901660 0.003990 
#    z 0.007600 0.003990 1.888980 
# 
# From -- ./inp_files/190683.got.cif
#   From: 2010.06.25/outbox.cif.g09.slc.cpg/sg2_96_cif.got.tgz:190683.got - 2010.06.27 13:26:56.
