data_PCOD8037132
_publ_section_title
;
Structure prediction by ZEFSAII (Michael W. Deem and Ramdas Pophale) SiO2 
 PCOD8037132
Probable space group: P -1
;
_chemical_formula_sum "Si O2"
_cell_formula_units_Z 12
_cell_length_a 11.365814
_cell_length_b 8.383233
_cell_length_c 9.931986
_cell_angle_alpha 90.559190
_cell_angle_beta 57.681809
_cell_angle_gamma 49.980510
_cell_volume 513.004851
_symmetry_space_group_name_H-M "P -1"
_symmetry_group_IT_number 2
_symmetry_cell_setting 'triclinic'
loop_
_space_group_symop_operation_xyz
x,y,z
-x,-y,-z
loop_
_atom_site_type_symbol
_atom_site_label
_atom_site_fract_x
_atom_site_fract_y
_atom_site_fract_z
Si Si1 0.869003 0.918852 0.355929
Si Si2 0.027863 0.809940 0.706218
Si Si3 0.452621 0.725781 0.038631
Si Si4 0.129277 0.226619 0.933850
Si Si5 0.442752 0.970079 0.269911
Si Si6 0.791203 0.532558 0.647902
O O1 0.902153 0.846712 0.181247
O O2 0.062367 0.674807 0.326576
O O3 0.856317 0.121047 0.366684
O O4 0.637683 0.056868 0.550849
O O5 0.169993 0.566127 0.526615
O O6 0.799226 0.031605 0.775279
O O7 0.983565 0.778190 0.880217
O O8 0.552603 0.746930 0.097861
O O9 0.500000 0.500000 0.000000
O O10 0.541172 0.713631 0.843345
O O11 0.380076 0.052951 0.801216
O O12 0.000000 0.500000 0.000000
O O13 0.223135 0.259192 0.348911
#
# Coordination Sequence:
#
# PCOD8037132 Si02
#       6
#     2   2   2   2   2   2
#     4  12  25  46  73 108 148 190 236 299 360 431
#     4  12  26  48  74 109 145 193 242 296 361 429
#     4  12  24  43  76 109 144 186 245 302 355 422
#     4  12  28  48  70 105 152 192 239 296 366 431
#     4  12  26  46  76 110 142 191 246 298 359 429
#     4  12  24  45  79 110 141 185 250 300 351 423
#
# _framework density 23.391591999999999
#
# number of rings (size 3 to 8) (size 9 to 14) (size 15 to 20)
#    0.000    0.000    5.000    5.500    2.333    0.000 
#    0.000    1.667    0.000    0.000    0.000    0.000 
#    0.000    0.000    0.000    0.000    0.000    0.000 
#
# Total GULP energy -148717.266636 kJ/mol
# GULP energy per Si atom -12393.105553 kJ/mol
# Density = 2.333835 g / cm^3
# Si number density = 23.391592 Si / 1000 Ang^3
#
#
#
# Elastic Constant Matrix: (Units=GPa)
#
#
# Indices 1 2 3 4 5 6 
#
# 1 115.9628 52.2084 64.1320 -11.7635 20.0559 28.3455
# 2 52.2084 99.9312 38.3186 -12.4754 5.4295 27.8202
# 3 64.1320 38.3186 186.7922 -18.3964 14.5483 19.4886
# 4 -11.7635 -12.4754 -18.3964 44.6570 11.0117 0.6897
# 5 20.0559 5.4295 14.5483 11.0117 43.3419 0.7887
# 6 28.3455 27.8202 19.4886 0.6897 0.7887 40.2310
#
#
#
# Elastic Compliance Matrix: (Units=1/GPa)
#
#
# Indices 1 2 3 4 5 6 
#
# 1 0.015034 -0.004314 -0.002838 0.003201 -0.006165 -0.006168
# 2 -0.004314 0.014788 -0.000506 0.002971 -0.000314 -0.006986
# 3 -0.002838 -0.000506 0.006883 0.002334 -0.001509 -0.000995
# 4 0.003201 0.002971 0.002334 0.027461 -0.009510 -0.005725
# 5 -0.006165 -0.000314 -0.001509 -0.009510 0.028798 0.004890
# 6 -0.006168 -0.006986 -0.000995 -0.005725 0.004890 0.034518
#
#
# Mechanical properties :
#
#
# Convention : Reuss Voigt Hill
#
# Bulk Modulus (GPa) = 46.75553 79.11157 62.93355
# Shear Modulus (GPa) = 33.34949 42.18112 37.76530
#
# Velocity S-wave (km/s) = 3.77995 4.25109 4.02242
# Velocity P-wave (km/s) = 6.25158 7.61509 6.96677
#
# Compressibility (1/GPa) = 0.02138785
#
# Stress axis : x y z
#
# Youngs Moduli (GPa) = 66.51607 67.62301 145.28899
#
# Poissons Ratio (x) = 0.29176 0.41227
# Poissons Ratio (y) = 0.28698 0.07357
# Poissons Ratio (z) = 0.18874 0.03424
#
# Static dielectric constant tensor:
#      x y z
#    x 4.123970 0.469900 -0.212750 
#    y 0.469900 6.169840 2.112810 
#    z -0.212750 2.112810 7.452080 
# 
# 
# High freq. dielectric constant tensor:
#      x y z
#    x 1.923310 0.026100 -0.008710 
#    y 0.026100 1.923270 0.000610 
#    z -0.008710 0.000610 1.956810 
# 
# From -- ./inp_files/157757.got.cif
#   From: 2010.06.25/outbox.cif.g09.slc.cpg/sg2_79_cif.got.tgz:157757.got - 2010.06.27 13:26:56.
