data_PCOD8037191
_publ_section_title
;
Structure prediction by ZEFSAII (Michael W. Deem and Ramdas Pophale) SiO2 
 PCOD8037191
Probable space group: P -1
;
_chemical_formula_sum "Si O2"
_cell_formula_units_Z 14
_cell_length_a 16.247071
_cell_length_b 12.341947
_cell_length_c 22.722391
_cell_angle_alpha 152.929716
_cell_angle_beta 18.338347
_cell_angle_gamma 152.456656
_cell_volume 624.467883
_symmetry_space_group_name_H-M "P -1"
_symmetry_group_IT_number 2
_symmetry_cell_setting 'triclinic'
loop_
_space_group_symop_operation_xyz
x,y,z
-x,-y,-z
loop_
_atom_site_type_symbol
_atom_site_label
_atom_site_fract_x
_atom_site_fract_y
_atom_site_fract_z
Si Si1 0.947000 0.640049 0.547938
Si Si2 0.597050 0.238568 0.010288
Si Si3 0.892760 0.471141 0.124992
Si Si4 0.325941 0.997307 0.880098
Si Si5 0.435177 0.147181 0.464248
Si Si6 0.922461 0.329998 0.296499
Si Si7 0.171242 0.802102 0.290620
O O1 0.000000 0.500000 0.500000
O O2 0.639834 0.634614 0.765312
O O3 0.948108 0.485165 0.413637
O O4 0.165370 0.912112 0.530463
O O5 0.649693 0.164941 0.873328
O O6 0.870225 0.422485 0.938337
O O7 0.500000 0.000000 0.000000
O O8 0.779100 0.182709 0.079927
O O9 0.656305 0.603350 0.356677
O O10 0.000000 0.500000 0.000000
O O11 0.358668 0.850103 0.728018
O O12 0.627745 0.162389 0.772658
O O13 0.128854 0.164510 0.080107
O O14 0.613027 0.155251 0.407705
O O15 0.982077 0.520707 0.292594
O O16 0.000000 0.000000 0.500000
#
# Coordination Sequence:
#
# PCOD8037191 Si02
#       7
#     2   2   2   2   2   2   2
#     4  12  28  46  73 105 148 188 233 298 359 427
#     4  12  24  45  70 103 142 185 237 290 357 420
#     4  12  26  46  72 105 142 186 243 295 358 430
#     4  12  26  46  75 104 145 187 238 303 354 423
#     4  12  26  49  73 104 144 188 243 290 359 427
#     4  12  27  48  74 108 143 186 244 295 358 426
#     4  12  24  45  76 104 141 187 238 295 354 426
#
# _framework density 22.419087999999999
#
# number of rings (size 3 to 8) (size 9 to 14) (size 15 to 20)
#    0.000    0.000    2.857    7.286    6.000    0.571 
#    0.000    0.000    0.000    0.000    0.000    0.000 
#    0.000    0.000    0.000    0.000    0.000    0.000 
#
# Total GULP energy -173617.001610 kJ/mol
# GULP energy per Si atom -12401.214401 kJ/mol
# Density = 2.236806 g / cm^3
# Si number density = 22.419088 Si / 1000 Ang^3
#
#
#
# Elastic Constant Matrix: (Units=GPa)
#
#
# Indices 1 2 3 4 5 6 
#
# 1 128.3641 37.7086 68.1669 7.9200 -7.7325 3.8730
# 2 37.7086 68.8227 43.3499 9.0623 1.9604 -1.3255
# 3 68.1669 43.3499 199.5458 23.6761 -20.1410 -8.0445
# 4 7.9200 9.0623 23.6761 34.2834 -0.4368 -8.3992
# 5 -7.7325 1.9604 -20.1410 -0.4368 57.5103 -10.4308
# 6 3.8730 -1.3255 -8.0445 -8.3992 -10.4308 54.2669
#
#
#
# Elastic Compliance Matrix: (Units=1/GPa)
#
#
# Indices 1 2 3 4 5 6 
#
# 1 0.010484 -0.004093 -0.002731 0.000273 0.000389 -0.001136
# 2 -0.004093 0.018804 -0.002652 -0.002327 -0.002215 -0.000428
# 3 -0.002731 -0.002652 0.007208 -0.003333 0.002431 0.001150
# 4 0.000273 -0.002327 -0.003333 0.033141 0.000028 0.004564
# 5 0.000389 -0.002215 0.002431 0.000028 0.019084 0.003951
# 6 -0.001136 -0.000428 0.001150 0.004564 0.003951 0.020134
#
#
# Mechanical properties :
#
#
# Convention : Reuss Voigt Hill
#
# Bulk Modulus (GPa) = 56.99870 77.24261 67.12065
# Shear Modulus (GPa) = 37.40989 45.71259 41.56124
#
# Velocity S-wave (km/s) = 4.08936 4.52043 4.31029
# Velocity P-wave (km/s) = 6.91206 7.85967 7.40105
#
# Compressibility (1/GPa) = 0.01754426
#
# Stress axis : x y z
#
# Youngs Moduli (GPa) = 95.38438 53.18012 138.74243
#
# Poissons Ratio (x) = 0.21765 0.37894
# Poissons Ratio (y) = 0.39038 0.36790
# Poissons Ratio (z) = 0.26052 0.14102
#
# Static dielectric constant tensor:
#      x y z
#    x 3.946220 -0.001300 0.010040 
#    y -0.001300 4.071100 0.099400 
#    z 0.010040 0.099400 4.081600 
# 
# 
# High freq. dielectric constant tensor:
#      x y z
#    x 1.903280 0.008380 -0.005910 
#    y 0.008380 1.892620 -0.002890 
#    z -0.005910 -0.002890 1.900220 
# 
# From -- ./inp_files/181762.got.cif
#   From: 2010.06.25/outbox.cif.g09.slc.cpg/sg2_91_cif.got.tgz:181762.got - 2010.06.27 13:26:56.
