data_PCOD8037366
_publ_section_title
;
Structure prediction by ZEFSAII (Michael W. Deem and Ramdas Pophale) SiO2 
 PCOD8037366
Probable space group: P -1
;
_chemical_formula_sum "Si O2"
_cell_formula_units_Z 16
_cell_length_a 7.959344
_cell_length_b 14.064819
_cell_length_c 8.381993
_cell_angle_alpha 102.736897
_cell_angle_beta 57.036400
_cell_angle_gamma 71.366659
_cell_volume 647.788489
_symmetry_space_group_name_H-M "P -1"
_symmetry_group_IT_number 2
_symmetry_cell_setting 'triclinic'
loop_
_space_group_symop_operation_xyz
x,y,z
-x,-y,-z
loop_
_atom_site_type_symbol
_atom_site_label
_atom_site_fract_x
_atom_site_fract_y
_atom_site_fract_z
Si Si1 0.276649 0.337262 0.610866
Si Si2 0.951094 0.264351 0.918774
Si Si3 0.734315 0.966460 0.456405
Si Si4 0.221743 0.555355 0.671665
Si Si5 0.742255 0.890756 0.777053
Si Si6 0.742390 0.187704 0.496844
Si Si7 0.536785 0.375339 0.948632
Si Si8 0.183870 0.344951 0.299437
O O1 0.199477 0.464518 0.763311
O O2 0.554280 0.241397 0.468636
O O3 0.237232 0.369909 0.456539
O O4 0.113342 0.294224 0.741257
O O5 0.063458 0.126425 0.804439
O O6 0.922592 0.316520 0.128481
O O7 0.691260 0.320908 0.005257
O O8 0.765431 0.898408 0.578324
O O9 0.500000 0.000000 0.500000
O O10 0.743589 0.078820 0.531071
O O11 0.500000 0.500000 0.500000
O O12 0.099489 0.580232 0.567422
O O13 0.705043 0.790538 0.812269
O O14 0.987380 0.865334 0.721646
O O15 0.500000 0.000000 0.000000
O O16 0.667422 0.290693 0.699833
O O17 0.293930 0.381871 0.113680
O O18 0.500000 0.500000 0.000000
#
# Coordination Sequence:
#
# PCOD8037366 Si02
#       8
#     2   2   2   2   2   2   2   2
#     4  12  24  48  74 111 147 195 249 316 381 449
#     4  12  25  46  73 108 147 194 258 302 381 453
#     4  12  25  50  77 107 148 202 256 310 372 451
#     4  12  27  47  73 107 153 199 247 315 382 448
#     4  12  27  46  73 111 151 197 251 311 376 441
#     4  12  25  49  78 109 153 200 252 306 380 452
#     4  12  26  47  79 112 148 199 250 306 381 457
#     4  12  26  48  74 113 151 192 253 313 379 449
#
# _framework density 24.699418999999999
#
# number of rings (size 3 to 8) (size 9 to 14) (size 15 to 20)
#    0.000    0.000    3.750    5.625    3.500    2.000 
#    0.000    1.250    0.000    0.000    0.000    0.000 
#    0.000    0.000    0.000    0.000    0.000    0.000 
#
# Total GULP energy -198295.166736 kJ/mol
# GULP energy per Si atom -12393.447921 kJ/mol
# Density = 2.464320 g / cm^3
# Si number density = 24.699419 Si / 1000 Ang^3
#
#
#
# Elastic Constant Matrix: (Units=GPa)
#
#
# Indices 1 2 3 4 5 6 
#
# 1 135.6638 45.0495 44.9174 7.4763 -14.8875 -17.3880
# 2 45.0495 163.2090 46.8234 27.7195 1.6652 18.0054
# 3 44.9174 46.8234 112.4520 19.9029 -12.4341 4.3244
# 4 7.4763 27.7195 19.9029 36.5478 -3.6661 1.2947
# 5 -14.8875 1.6652 -12.4341 -3.6661 23.7012 5.3368
# 6 -17.3880 18.0054 4.3244 1.2947 5.3368 56.2731
#
#
#
# Elastic Compliance Matrix: (Units=1/GPa)
#
#
# Indices 1 2 3 4 5 6 
#
# 1 0.010103 -0.002745 -0.002878 0.001899 0.004478 0.003753
# 2 -0.002745 0.008677 -0.001850 -0.005249 -0.003433 -0.003036
# 3 -0.002878 -0.001850 0.012080 -0.004093 0.004375 -0.001546
# 4 0.001899 -0.005249 -0.004093 0.033563 0.004290 0.001402
# 5 0.004478 -0.003433 0.004375 0.004290 0.048786 -0.002579
# 6 0.003753 -0.003036 -0.001546 0.001402 -0.002579 0.020233
#
#
# Mechanical properties :
#
#
# Convention : Reuss Voigt Hill
#
# Bulk Modulus (GPa) = 62.83833 76.10060 69.46946
# Shear Modulus (GPa) = 32.53208 41.60672 37.06940
#
# Velocity S-wave (km/s) = 3.63315 4.10875 3.87825
# Velocity P-wave (km/s) = 6.56477 7.30662 6.94560
#
# Compressibility (1/GPa) = 0.01591385
#
# Stress axis : x y z
#
# Youngs Moduli (GPa) = 98.97608 115.24478 82.77988
#
# Poissons Ratio (x) = 0.31639 0.23822
# Poissons Ratio (y) = 0.27173 0.15317
# Poissons Ratio (z) = 0.28483 0.21324
#
# Static dielectric constant tensor:
#      x y z
#    x 4.854470 0.089340 -0.077690 
#    y 0.089340 5.047560 0.388740 
#    z -0.077690 0.388740 4.438470 
# 
# 
# High freq. dielectric constant tensor:
#      x y z
#    x 2.004880 0.002010 -0.008030 
#    y 0.002010 2.004670 0.023300 
#    z -0.008030 0.023300 1.963190 
# 
# From -- ./inp_files/207528.got.cif
#   From: 2010.06.25/outbox.cif.g09.slc.cpg/sg2_104_cif.got.tgz:207528.got - 2010.06.27 13:26:56.
