data_PCOD8037276
_publ_section_title
;
Structure prediction by ZEFSAII (Michael W. Deem and Ramdas Pophale) SiO2 
 PCOD8037276
Probable space group: P -1
;
_chemical_formula_sum "Si O2"
_cell_formula_units_Z 14
_cell_length_a 20.151142
_cell_length_b 11.104978
_cell_length_c 13.330515
_cell_angle_alpha 33.728875
_cell_angle_beta 33.010188
_cell_angle_gamma 24.370986
_cell_volume 639.356015
_symmetry_space_group_name_H-M "P -1"
_symmetry_group_IT_number 2
_symmetry_cell_setting 'triclinic'
loop_
_space_group_symop_operation_xyz
x,y,z
-x,-y,-z
loop_
_atom_site_type_symbol
_atom_site_label
_atom_site_fract_x
_atom_site_fract_y
_atom_site_fract_z
Si Si1 0.586019 0.819778 0.912836
Si Si2 0.571618 0.605523 0.401570
Si Si3 0.979954 0.335395 0.718523
Si Si4 0.864156 0.266158 0.564055
Si Si5 0.825374 0.816291 0.224171
Si Si6 0.516949 0.538681 0.743543
Si Si7 0.965320 0.100062 0.201162
O O1 0.789916 0.571044 0.842801
O O2 0.532583 0.047630 0.733707
O O3 0.526408 0.658826 0.067631
O O4 0.500000 0.000000 0.000000
O O5 0.500000 0.500000 0.500000
O O6 0.544038 0.597028 0.558325
O O7 0.771450 0.389862 0.277035
O O8 0.000000 0.500000 0.500000
O O9 0.115641 0.202170 0.725985
O O10 0.025748 0.047986 0.809998
O O11 0.831048 0.555396 0.375844
O O12 0.688653 0.351812 0.720238
O O13 0.936238 0.159889 0.658611
O O14 0.000000 0.000000 0.500000
O O15 0.631432 0.144104 0.230827
O O16 0.944664 0.782184 0.013573
#
# Coordination Sequence:
#
# PCOD8037276 Si02
#       7
#     2   2   2   2   2   2   2
#     4  12  26  43  72 110 147 182 233 300 356 425
#     4  12  25  42  72 105 145 185 233 293 364 415
#     4  12  24  46  76 109 145 183 235 299 366 414
#     4  12  29  50  73 103 147 193 242 293 354 431
#     4  12  27  47  77 105 145 185 243 297 359 429
#     4  12  27  49  69 105 145 189 240 291 356 430
#     4  12  26  47  73 109 142 190 239 297 359 425
#
# _framework density 21.897033
#
# number of rings (size 3 to 8) (size 9 to 14) (size 15 to 20)
#    0.000    0.000    5.714    4.286    4.000    2.286 
#    0.000    0.000    0.000    0.000    0.000    0.000 
#    0.000    0.000    0.000    0.000    0.000    0.000 
#
# Total GULP energy -173742.047152 kJ/mol
# GULP energy per Si atom -12410.146225 kJ/mol
# Density = 2.184719 g / cm^3
# Si number density = 21.897033 Si / 1000 Ang^3
#
#
#
# Elastic Constant Matrix: (Units=GPa)
#
#
# Indices 1 2 3 4 5 6 
#
# 1 64.8383 26.6062 8.0334 2.2608 -13.9272 0.2038
# 2 26.6062 127.4124 42.3306 6.0913 -25.2783 -2.8721
# 3 8.0334 42.3306 100.3134 4.4302 -12.1384 12.4306
# 4 2.2608 6.0913 4.4302 48.0435 -1.2605 -7.9711
# 5 -13.9272 -25.2783 -12.1384 -1.2605 37.3140 -2.5693
# 6 0.2038 -2.8721 12.4306 -7.9711 -2.5693 38.8626
#
#
#
# Elastic Compliance Matrix: (Units=1/GPa)
#
#
# Indices 1 2 3 4 5 6 
#
# 1 0.017574 -0.002853 0.000413 -0.000414 0.004733 -0.000207
# 2 -0.002853 0.010868 -0.004014 -0.000345 0.005144 0.002371
# 3 0.000413 -0.004014 0.012377 -0.001363 0.001108 -0.004464
# 4 -0.000414 -0.000345 -0.001363 0.021824 0.000243 0.004905
# 5 0.004733 0.005144 0.001108 0.000243 0.032571 0.002204
# 6 -0.000207 0.002371 -0.004464 0.004905 0.002204 0.028488
#
#
# Mechanical properties :
#
#
# Convention : Reuss Voigt Hill
#
# Bulk Modulus (GPa) = 35.82711 49.61162 42.71936
# Shear Modulus (GPa) = 34.26687 39.21694 36.74191
#
# Velocity S-wave (km/s) = 3.96019 4.23658 4.10071
# Velocity P-wave (km/s) = 6.10802 6.82916 6.47863
#
# Compressibility (1/GPa) = 0.02791183
#
# Stress axis : x y z
#
# Youngs Moduli (GPa) = 56.90157 92.01050 80.79527
#
# Poissons Ratio (x) = 0.26251 -0.03338
# Poissons Ratio (y) = 0.16234 0.32431
# Poissons Ratio (z) = -0.02351 0.36933
#
# Static dielectric constant tensor:
#      x y z
#    x 3.808740 -0.230920 -0.049780 
#    y -0.230920 4.063920 0.075180 
#    z -0.049780 0.075180 4.120660 
# 
# 
# High freq. dielectric constant tensor:
#      x y z
#    x 1.856860 -0.004700 -0.000820 
#    y -0.004700 1.880310 0.002530 
#    z -0.000820 0.002530 1.882190 
# 
# From -- ./inp_files/184633.got.cif
#   From: 2010.06.25/outbox.cif.g09.slc.cpg/sg2_93_cif.got.tgz:184633.got - 2010.06.27 13:26:56.
