data_PCOD8037227
_publ_section_title
;
Structure prediction by ZEFSAII (Michael W. Deem and Ramdas Pophale) SiO2 
 PCOD8037227
Probable space group: P -1
;
_chemical_formula_sum "Si O2"
_cell_formula_units_Z 12
_cell_length_a 9.509891
_cell_length_b 10.672858
_cell_length_c 8.592615
_cell_angle_alpha 60.810964
_cell_angle_beta 135.435064
_cell_angle_gamma 97.359087
_cell_volume 498.845762
_symmetry_space_group_name_H-M "P -1"
_symmetry_group_IT_number 2
_symmetry_cell_setting 'triclinic'
loop_
_space_group_symop_operation_xyz
x,y,z
-x,-y,-z
loop_
_atom_site_type_symbol
_atom_site_label
_atom_site_fract_x
_atom_site_fract_y
_atom_site_fract_z
Si Si1 0.975499 0.854224 0.985480
Si Si2 0.380102 0.297961 0.658763
Si Si3 0.170282 0.854224 0.806076
Si Si4 0.321931 0.297959 0.245322
Si Si5 0.692299 0.403360 0.419158
Si Si6 0.904337 0.403361 0.274118
O O1 0.735067 0.848985 0.773659
O O2 0.083702 0.832623 0.917392
O O3 0.089114 0.708791 0.269074
O O4 0.000000 0.000000 0.000000
O O5 0.359288 0.281401 0.468597
O O6 0.421586 0.454529 0.640290
O O7 0.157585 0.308153 0.559946
O O8 0.584044 0.151017 0.971634
O O9 0.202089 0.708791 0.813346
O O10 0.000000 0.000000 0.500000
O O11 0.534262 0.308147 0.323768
O O12 0.123883 0.454528 0.950653
O O13 0.767214 0.465550 0.284438
#
# Coordination Sequence:
#
# PCOD8037227 Si02
#       6
#     2   2   2   2   2   2
#     4  12  27  49  72 104 151 197 250 306 366 437
#     4  12  24  45  77 108 146 196 244 300 365 433
#     4  12  27  49  72 104 151 197 250 306 366 437
#     4  12  24  45  77 108 146 196 244 300 365 433
#     4  12  25  44  76 116 150 187 246 304 363 437
#     4  12  25  44  76 116 150 187 246 304 363 437
#
# _framework density 24.055530000000001
#
# number of rings (size 3 to 8) (size 9 to 14) (size 15 to 20)
#    0.000    0.000    6.667    4.000    0.000    1.333 
#    0.000    0.000    0.000    0.000    0.000    0.000 
#    0.000    0.000    0.000    0.000    0.000    0.000 
#
# Total GULP energy -148705.509362 kJ/mol
# GULP energy per Si atom -12392.125780 kJ/mol
# Density = 2.400078 g / cm^3
# Si number density = 24.055530 Si / 1000 Ang^3
#
#
#
# Elastic Constant Matrix: (Units=GPa)
#
#
# Indices 1 2 3 4 5 6 
#
# 1 105.5715 33.5672 43.8524 27.7965 15.4371 17.2623
# 2 33.5672 140.9983 60.9664 28.2640 -4.4405 16.6867
# 3 43.8524 60.9664 153.0502 23.7842 20.1100 -6.5090
# 4 27.7965 28.2640 23.7842 29.0741 8.6342 12.0022
# 5 15.4371 -4.4405 20.1100 8.6342 36.9985 19.4392
# 6 17.2623 16.6867 -6.5090 12.0022 19.4392 31.6355
#
#
#
# Elastic Compliance Matrix: (Units=1/GPa)
#
#
# Indices 1 2 3 4 5 6 
#
# 1 0.013772 0.000682 -0.003211 -0.009171 0.001296 -0.005852
# 2 0.000682 0.013769 -0.007546 -0.005623 0.015489 -0.016571
# 3 -0.003211 -0.007546 0.014443 -0.005035 -0.017453 0.021339
# 4 -0.009171 -0.005623 -0.005035 0.059132 0.000344 -0.015711
# 5 0.001296 0.015489 -0.017453 0.000344 0.065526 -0.052863
# 6 -0.005852 -0.016571 0.021339 -0.015711 -0.052863 0.086378
#
#
# Mechanical properties :
#
#
# Convention : Reuss Voigt Hill
#
# Bulk Modulus (GPa) = 45.80462 75.15467 60.47964
# Shear Modulus (GPa) = 17.82860 36.95721 27.39290
#
# Velocity S-wave (km/s) = 2.72535 3.92386 3.37818
# Velocity P-wave (km/s) = 5.38386 7.19992 6.35707
#
# Compressibility (1/GPa) = 0.02183186
#
# Stress axis : x y z
#
# Youngs Moduli (GPa) = 72.61373 72.62726 69.23726
#
# Poissons Ratio (x) = -0.04952 0.22236
# Poissons Ratio (y) = -0.04952 0.52248
# Poissons Ratio (z) = 0.23320 0.54806
#
# Static dielectric constant tensor:
#      x y z
#    x 4.178300 0.126400 0.146090 
#    y 0.126400 4.843810 0.822040 
#    z 0.146090 0.822040 5.096630 
# 
# 
# High freq. dielectric constant tensor:
#      x y z
#    x 1.947580 0.006060 0.005630 
#    y 0.006060 1.955100 0.032580 
#    z 0.005630 0.032580 1.965070 
# 
# From -- ./inp_files/153362.got.cif
#   From: 2010.06.25/outbox.cif.g09.slc.cpg/sg2_77_cif.got.tgz:153362.got - 2010.06.27 13:26:56.
