data_PCOD8037037
_publ_section_title
;
Structure prediction by ZEFSAII (Michael W. Deem and Ramdas Pophale) SiO2 
 PCOD8037037
Probable space group: P -1
;
_chemical_formula_sum "Si O2"
_cell_formula_units_Z 16
_cell_length_a 31.342234
_cell_length_b 9.652696
_cell_length_c 11.815259
_cell_angle_alpha 133.029855
_cell_angle_beta 153.758588
_cell_angle_gamma 29.989219
_cell_volume 714.171655
_symmetry_space_group_name_H-M "P -1"
_symmetry_group_IT_number 2
_symmetry_cell_setting 'triclinic'
loop_
_space_group_symop_operation_xyz
x,y,z
-x,-y,-z
loop_
_atom_site_type_symbol
_atom_site_label
_atom_site_fract_x
_atom_site_fract_y
_atom_site_fract_z
Si Si1 0.124609 0.274143 0.765862
Si Si2 0.484190 0.808897 0.342039
Si Si3 0.934612 0.809628 0.993696
Si Si4 0.950182 0.859400 0.801585
Si Si5 0.635944 0.436776 0.280850
Si Si6 0.903461 0.114164 0.444932
Si Si7 0.406695 0.631801 0.466501
Si Si8 0.571075 0.690286 0.023183
O O1 0.000000 0.500000 0.500000
O O2 0.088348 0.498249 0.895460
O O3 0.084300 0.125892 0.629551
O O4 0.306446 0.005449 0.008134
O O5 0.607580 0.597869 0.416293
O O6 0.550771 0.629011 0.517812
O O7 0.500000 0.000000 0.500000
O O8 0.044929 0.815454 0.295569
O O9 0.895140 0.886594 0.810557
O O10 0.000000 0.500000 0.000000
O O11 0.775173 0.075393 0.833586
O O12 0.804955 0.072015 0.485818
O O13 0.000000 0.000000 0.000000
O O14 0.619723 0.587573 0.212990
O O15 0.500000 0.500000 0.000000
O O16 0.724300 0.434076 0.168025
O O17 0.000000 0.000000 0.500000
O O18 0.500000 0.500000 0.500000
O O19 0.445875 0.730768 0.707928
O O20 0.500000 0.000000 0.000000
#
# Coordination Sequence:
#
# PCOD8037037 Si02
#       8
#     2   2   2   2   2   2   2   2
#     4  12  26  45  72 106 142 184 236 297 357 424
#     4  12  27  46  74 106 142 190 236 296 368 424
#     4  12  26  46  72 105 141 192 243 289 360 427
#     4  12  25  44  72 104 140 186 235 297 356 425
#     4  12  23  48  70 101 143 181 240 294 350 433
#     4  12  26  47  71 105 146 188 239 295 358 428
#     4  12  27  48  70 104 147 183 240 301 356 429
#     4  12  26  47  73 105 140 192 240 296 362 427
#
# _framework density 22.403578
#
# number of rings (size 3 to 8) (size 9 to 14) (size 15 to 20)
#    0.000    0.000    3.750    6.000    5.250    2.000 
#    0.000    0.000    0.000    0.000    0.000    0.000 
#    0.000    0.000    0.000    0.000    0.000    0.000 
#
# Total GULP energy -198336.570423 kJ/mol
# GULP energy per Si atom -12396.035651 kJ/mol
# Density = 2.235259 g / cm^3
# Si number density = 22.403578 Si / 1000 Ang^3
#
#
#
# Elastic Constant Matrix: (Units=GPa)
#
#
# Indices 1 2 3 4 5 6 
#
# 1 138.6676 54.0396 13.6930 -11.0898 0.7475 20.9842
# 2 54.0396 163.6186 37.0838 -4.9874 8.0495 33.1140
# 3 13.6930 37.0838 96.3875 -8.6452 12.7218 24.5180
# 4 -11.0898 -4.9874 -8.6452 48.9072 -1.6345 4.1464
# 5 0.7475 8.0495 12.7218 -1.6345 41.1249 -3.7406
# 6 20.9842 33.1140 24.5180 4.1464 -3.7406 45.2404
#
#
#
# Elastic Compliance Matrix: (Units=1/GPa)
#
#
# Indices 1 2 3 4 5 6 
#
# 1 0.008663 -0.002361 0.000581 0.002062 -0.000047 -0.002797
# 2 -0.002361 0.008170 -0.001512 0.000339 -0.001458 -0.004217
# 3 0.000581 -0.001512 0.013523 0.002823 -0.004433 -0.007116
# 4 0.002062 0.000339 0.002823 0.021835 -0.000544 -0.004781
# 5 -0.000047 -0.001458 -0.004433 -0.000544 0.026473 0.005731
# 6 -0.002797 -0.004217 -0.007116 -0.004781 0.005731 0.031257
#
#
# Mechanical properties :
#
#
# Convention : Reuss Voigt Hill
#
# Bulk Modulus (GPa) = 42.07154 67.58962 54.83058
# Shear Modulus (GPa) = 40.18328 46.64498 43.41413
#
# Velocity S-wave (km/s) = 4.23970 4.56788 4.40684
# Velocity P-wave (km/s) = 6.54113 7.61940 7.10077
#
# Compressibility (1/GPa) = 0.02376904
#
# Stress axis : x y z
#
# Youngs Moduli (GPa) = 115.43521 122.39935 73.95071
#
# Poissons Ratio (x) = 0.28904 -0.04293
# Poissons Ratio (y) = 0.27259 0.11183
# Poissons Ratio (z) = -0.06702 0.18510
#
# Static dielectric constant tensor:
#      x y z
#    x 4.123140 -0.006900 0.005450 
#    y -0.006900 4.029610 -0.118220 
#    z 0.005450 -0.118220 4.167240 
# 
# 
# High freq. dielectric constant tensor:
#      x y z
#    x 1.893810 -0.001770 0.005320 
#    y -0.001770 1.900900 -0.001140 
#    z 0.005320 -0.001140 1.895000 
# 
# From -- ./inp_files/477504.got.cif
#   From: 2010.06.25/outbox.cif.g09.slc.cpg/sg2_239_cif.got.tgz:477504.got - 2010.06.27 13:26:56.
