data_PCOD8037151
_publ_section_title
;
Structure prediction by ZEFSAII (Michael W. Deem and Ramdas Pophale) SiO2 
 PCOD8037151
Probable space group: P -1
;
_chemical_formula_sum "Si O2"
_cell_formula_units_Z 16
_cell_length_a 12.392179
_cell_length_b 9.189230
_cell_length_c 18.002462
_cell_angle_alpha 122.961501
_cell_angle_beta 30.252283
_cell_angle_gamma 134.488508
_cell_volume 726.023082
_symmetry_space_group_name_H-M "P -1"
_symmetry_group_IT_number 2
_symmetry_cell_setting 'triclinic'
loop_
_space_group_symop_operation_xyz
x,y,z
-x,-y,-z
loop_
_atom_site_type_symbol
_atom_site_label
_atom_site_fract_x
_atom_site_fract_y
_atom_site_fract_z
Si Si1 0.877172 0.761162 0.532623
Si Si2 0.994943 0.503823 0.091352
Si Si3 0.414301 0.008045 0.473803
Si Si4 0.572107 0.579218 0.399250
Si Si5 0.448461 0.788010 0.001634
Si Si6 0.331527 0.712218 0.219993
Si Si7 0.225475 0.956963 0.860192
Si Si8 0.834915 0.699731 0.709841
O O1 0.645157 0.591330 0.573288
O O2 0.763333 0.704018 0.667530
O O3 0.105954 0.729190 0.388359
O O4 0.000000 0.000000 0.500000
O O5 0.844607 0.614007 0.229714
O O6 0.864530 0.274843 0.135125
O O7 0.270532 0.623131 0.999094
O O8 0.000000 0.500000 0.000000
O O9 0.136070 0.809709 0.567618
O O10 0.500000 0.000000 0.500000
O O11 0.406199 0.208495 0.542461
O O12 0.605828 0.992608 0.300154
O O13 0.500000 0.500000 0.500000
O O14 0.313343 0.704404 0.139011
O O15 0.723434 0.816893 0.851387
O O16 0.500000 0.000000 0.000000
O O17 0.305857 0.520353 0.225873
O O18 0.604334 0.911384 0.134658
O O19 0.000000 0.000000 0.000000
#
# Coordination Sequence:
#
# PCOD8037151 Si02
#       8
#     2   2   2   2   2   2   2   2
#     4  12  24  44  72 103 141 185 235 289 351 422
#     4  12  26  47  74 105 144 185 237 293 360 427
#     4  12  28  45  73 105 144 188 238 295 356 426
#     4  12  24  45  72 104 143 183 238 294 350 419
#     4  12  26  47  73 104 141 186 236 291 357 427
#     4  12  26  46  72 102 144 184 238 294 350 429
#     4  12  28  48  71 104 145 187 238 294 363 424
#     4  12  26  47  71 105 142 188 239 288 358 419
#
# _framework density 22.037866999999999
#
# number of rings (size 3 to 8) (size 9 to 14) (size 15 to 20)
#    0.000    0.000    2.500    7.500    7.000    0.000 
#    0.000    0.000    0.000    0.000    0.000    0.000 
#    0.000    0.000    0.000    0.000    0.000    0.000 
#
# Total GULP energy -198247.239035 kJ/mol
# GULP energy per Si atom -12390.452440 kJ/mol
# Density = 2.198771 g / cm^3
# Si number density = 22.037867 Si / 1000 Ang^3
#
#
#
# Elastic Constant Matrix: (Units=GPa)
#
#
# Indices 1 2 3 4 5 6 
#
# 1 129.4991 29.4925 25.6639 -9.0633 15.7723 3.3462
# 2 29.4925 90.5766 26.8174 -0.4273 5.0545 -7.5735
# 3 25.6639 26.8174 136.8171 16.7274 -6.1105 -7.2873
# 4 -9.0633 -0.4273 16.7274 42.8094 -5.5482 -8.6007
# 5 15.7723 5.0545 -6.1105 -5.5482 47.2318 -3.5024
# 6 3.3462 -7.5735 -7.2873 -8.6007 -3.5024 50.5820
#
#
#
# Elastic Compliance Matrix: (Units=1/GPa)
#
#
# Indices 1 2 3 4 5 6 
#
# 1 0.009110 -0.002394 -0.001664 0.001972 -0.002848 -0.001063
# 2 -0.002394 0.012613 -0.002039 0.000707 -0.000595 0.001832
# 3 -0.001664 -0.002039 0.008534 -0.003397 0.001521 0.000562
# 4 0.001972 0.000707 -0.003397 0.026221 0.002210 0.004097
# 5 -0.002848 -0.000595 0.001521 0.002210 0.022812 0.002274
# 6 -0.001063 0.001832 0.000562 0.004097 0.002274 0.021050
#
#
# Mechanical properties :
#
#
# Convention : Reuss Voigt Hill
#
# Bulk Modulus (GPa) = 55.36284 57.87117 56.61701
# Shear Modulus (GPa) = 42.17469 46.45256 44.31362
#
# Velocity S-wave (km/s) = 4.37937 4.59612 4.48905
# Velocity P-wave (km/s) = 7.12377 7.38123 7.25364
#
# Compressibility (1/GPa) = 0.01806266
#
# Stress axis : x y z
#
# Youngs Moduli (GPa) = 109.77503 79.28205 117.17761
#
# Poissons Ratio (x) = 0.18980 0.19504
# Poissons Ratio (y) = 0.26280 0.23888
# Poissons Ratio (z) = 0.18272 0.16163
#
# Static dielectric constant tensor:
#      x y z
#    x 4.221030 0.098670 -0.106440 
#    y 0.098670 3.541290 0.446860 
#    z -0.106440 0.446860 4.028150 
# 
# 
# High freq. dielectric constant tensor:
#      x y z
#    x 1.890130 -0.005870 0.000300 
#    y -0.005870 1.882480 0.004130 
#    z 0.000300 0.004130 1.887280 
# 
# From -- ./inp_files/209488.got.cif
#   From: 2010.06.25/outbox.cif.g09.slc.cpg/sg2_105_cif.got.tgz:209488.got - 2010.06.27 13:26:56.
