data_PCOD8037340
_publ_section_title
;
Structure prediction by ZEFSAII (Michael W. Deem and Ramdas Pophale) SiO2 
 PCOD8037340
Probable space group: P -1
;
_chemical_formula_sum "Si O2"
_cell_formula_units_Z 14
_cell_length_a 20.433579
_cell_length_b 9.323722
_cell_length_c 13.630799
_cell_angle_alpha 32.621367
_cell_angle_beta 30.140198
_cell_angle_gamma 31.164296
_cell_volume 620.340461
_symmetry_space_group_name_H-M "P -1"
_symmetry_group_IT_number 2
_symmetry_cell_setting 'triclinic'
loop_
_space_group_symop_operation_xyz
x,y,z
-x,-y,-z
loop_
_atom_site_type_symbol
_atom_site_label
_atom_site_fract_x
_atom_site_fract_y
_atom_site_fract_z
Si Si1 0.360954 0.083760 0.065164
Si Si2 0.886071 0.876302 0.190635
Si Si3 0.330046 0.646134 0.674840
Si Si4 0.158013 0.278971 0.874048
Si Si5 0.178817 0.827417 0.561892
Si Si6 0.647101 0.225842 0.935656
Si Si7 0.070930 0.755941 0.463282
O O1 0.246827 0.023112 0.311159
O O2 0.406522 0.881826 0.026837
O O3 0.297010 0.424323 0.913861
O O4 0.500000 0.000000 0.000000
O O5 0.853255 0.899519 0.103313
O O6 0.962898 0.522973 0.321399
O O7 0.729740 0.057351 0.348749
O O8 0.000000 0.000000 0.000000
O O9 0.500000 0.500000 0.500000
O O10 0.221930 0.747624 0.664131
O O11 0.221032 0.514313 0.629055
O O12 0.000000 0.500000 0.000000
O O13 0.275624 0.043478 0.932127
O O14 0.002222 0.058666 0.649752
O O15 0.755455 0.364541 0.691346
O O16 0.500000 0.500000 0.000000
O O17 0.000000 0.000000 0.500000
#
# Coordination Sequence:
#
# PCOD8037340 Si02
#       7
#     2   2   2   2   2   2   2
#     4  12  26  47  74 109 157 201 257 324 398 460
#     4  12  28  47  77 117 153 199 266 327 389 472
#     4  12  28  49  73 113 163 203 255 325 401 465
#     4  12  24  49  80 111 156 209 264 323 400 474
#     4  12  24  47  83 106 151 213 257 319 390 478
#     4  12  28  45  76 114 151 199 265 325 388 468
#     4  12  24  49  77 108 148 204 264 317 389 469
#
# _framework density 22.568252999999999
#
# number of rings (size 3 to 8) (size 9 to 14) (size 15 to 20)
#    0.000    0.000    7.143    1.714    4.000    0.571 
#    0.000    2.143    0.000    0.000    0.000    0.000 
#    0.000    0.000    0.000    0.000    0.000    0.000 
#
# Total GULP energy -173503.037345 kJ/mol
# GULP energy per Si atom -12393.074096 kJ/mol
# Density = 2.251689 g / cm^3
# Si number density = 22.568253 Si / 1000 Ang^3
#
#
#
# Elastic Constant Matrix: (Units=GPa)
#
#
# Indices 1 2 3 4 5 6 
#
# 1 200.4293 77.3996 53.5536 -5.2504 -0.8914 -5.2975
# 2 77.3996 164.0086 60.0305 4.3089 -2.5750 -4.2831
# 3 53.5536 60.0305 127.5950 -22.3602 -2.0648 -4.5201
# 4 -5.2504 4.3089 -22.3602 45.6477 -5.2625 0.5963
# 5 -0.8914 -2.5750 -2.0648 -5.2625 38.9341 -8.0852
# 6 -5.2975 -4.2831 -4.5201 0.5963 -8.0852 44.7144
#
#
#
# Elastic Compliance Matrix: (Units=1/GPa)
#
#
# Indices 1 2 3 4 5 6 
#
# 1 0.006342 -0.002460 -0.001448 0.000250 0.000016 0.000369
# 2 -0.002460 0.008623 -0.003511 -0.002821 -0.000009 0.000216
# 3 -0.001448 -0.003511 0.011155 0.005765 0.001266 0.000772
# 4 0.000250 -0.002821 0.005765 0.025444 0.003704 0.000673
# 5 0.000016 -0.000009 0.001266 0.003704 0.027293 0.005015
# 6 0.000369 0.000216 0.000772 0.000673 0.005015 0.023404
#
#
# Mechanical properties :
#
#
# Convention : Reuss Voigt Hill
#
# Bulk Modulus (GPa) = 88.63084 97.11114 92.87099
# Shear Modulus (GPa) = 41.37009 45.92920 43.64964
#
# Velocity S-wave (km/s) = 4.28613 4.51613 4.40263
# Velocity P-wave (km/s) = 7.99075 8.38554 8.19053
#
# Compressibility (1/GPa) = 0.01128275
#
# Stress axis : x y z
#
# Youngs Moduli (GPa) = 157.66909 115.96984 89.64673
#
# Poissons Ratio (x) = 0.28528 0.12977
# Poissons Ratio (y) = 0.38786 0.31477
# Poissons Ratio (z) = 0.22824 0.40719
#
# Static dielectric constant tensor:
#      x y z
#    x 4.493670 -0.276960 -0.191470 
#    y -0.276960 4.337050 0.006230 
#    z -0.191470 0.006230 4.879640 
# 
# 
# High freq. dielectric constant tensor:
#      x y z
#    x 1.909230 -0.010660 0.000100 
#    y -0.010660 1.884660 -0.016180 
#    z 0.000100 -0.016180 1.903650 
# 
# From -- ./inp_files/540370.got.cif
#   From: 2010.06.25/outbox.cif.g09.slc.cpg/sg2_271_cif.got.tgz:540370.got - 2010.06.27 13:26:56.
