data_PCOD8037332
_publ_section_title
;
Structure prediction by ZEFSAII (Michael W. Deem and Ramdas Pophale) SiO2 
 PCOD8037332
Probable space group: P -1
;
_chemical_formula_sum "Si O2"
_cell_formula_units_Z 14
_cell_length_a 15.601330
_cell_length_b 22.118135
_cell_length_c 12.238434
_cell_angle_alpha 152.046065
_cell_angle_beta 37.047590
_cell_angle_gamma 162.098459
_cell_volume 581.535058
_symmetry_space_group_name_H-M "P -1"
_symmetry_group_IT_number 2
_symmetry_cell_setting 'triclinic'
loop_
_space_group_symop_operation_xyz
x,y,z
-x,-y,-z
loop_
_atom_site_type_symbol
_atom_site_label
_atom_site_fract_x
_atom_site_fract_y
_atom_site_fract_z
Si Si1 0.360608 0.345724 0.505298
Si Si2 0.946520 0.343917 0.397591
Si Si3 0.181417 0.493543 0.634995
Si Si4 0.272381 0.832282 0.060847
Si Si5 0.271967 0.483148 0.982150
Si Si6 0.156569 0.247562 0.922198
Si Si7 0.373101 0.021282 0.481601
O O1 0.500000 0.500000 0.500000
O O2 0.550719 0.391726 0.449687
O O3 0.389258 0.503222 0.790057
O O4 0.034049 0.033206 0.313892
O O5 0.610456 0.096246 0.381256
O O6 0.000000 0.500000 0.500000
O O7 0.135422 0.497013 0.560266
O O8 0.009623 0.251638 0.140725
O O9 0.279217 0.707653 0.929175
O O10 0.908406 0.224664 0.550519
O O11 0.960225 0.594545 0.941359
O O12 0.317030 0.982274 0.344180
O O13 0.500000 0.000000 0.000000
O O14 0.123072 0.253422 0.838310
O O15 0.517617 0.750379 0.229775
O O16 0.500000 0.500000 0.000000
#
# Coordination Sequence:
#
# PCOD8037332 Si02
#       7
#     2   2   2   2   2   2   2
#     4  12  30  51  75 113 159 209 266 319 389 470
#     4  12  24  47  78 117 151 199 262 323 390 472
#     4  12  26  48  76 110 160 203 257 329 395 462
#     4  12  26  46  79 109 153 202 263 326 390 465
#     4  12  27  49  76 111 155 199 263 324 388 474
#     4  12  28  49  78 111 155 207 262 319 393 464
#     4  12  26  45  78 116 153 200 258 319 402 453
#
# _framework density 24.074214999999999
#
# number of rings (size 3 to 8) (size 9 to 14) (size 15 to 20)
#    0.000    0.000    2.857    6.429    6.000    0.571 
#    0.000    0.000    0.000    0.000    0.000    0.000 
#    0.000    0.000    0.000    0.000    0.000    0.000 
#
# Total GULP energy -173485.665357 kJ/mol
# GULP energy per Si atom -12391.833240 kJ/mol
# Density = 2.401942 g / cm^3
# Si number density = 24.074215 Si / 1000 Ang^3
#
#
#
# Elastic Constant Matrix: (Units=GPa)
#
#
# Indices 1 2 3 4 5 6 
#
# 1 115.3872 42.1854 35.8889 3.6242 10.1875 -3.8994
# 2 42.1854 139.9584 66.3893 4.6079 3.1573 -2.7672
# 3 35.8889 66.3893 154.4727 4.4899 9.0257 -21.2861
# 4 3.6242 4.6079 4.4899 41.7004 -0.7044 2.5157
# 5 10.1875 3.1573 9.0257 -0.7044 40.7415 -5.7109
# 6 -3.8994 -2.7672 -21.2861 2.5157 -5.7109 50.7456
#
#
#
# Elastic Compliance Matrix: (Units=1/GPa)
#
#
# Indices 1 2 3 4 5 6 
#
# 1 0.010120 -0.002428 -0.001178 -0.000516 -0.002099 -0.000060
# 2 -0.002428 0.009637 -0.003757 -0.000370 0.000524 -0.001160
# 3 -0.001178 -0.003757 0.008899 -0.000659 -0.000925 0.003366
# 4 -0.000516 -0.000370 -0.000659 0.024235 0.000515 -0.001480
# 5 -0.002099 0.000524 -0.000925 0.000515 0.025570 0.002331
# 6 -0.000060 -0.001160 0.003366 -0.001480 0.002331 0.021386
#
#
# Mechanical properties :
#
#
# Convention : Reuss Voigt Hill
#
# Bulk Modulus (GPa) = 71.79405 77.63837 74.71621
# Shear Modulus (GPa) = 41.94026 44.32780 43.13403
#
# Velocity S-wave (km/s) = 4.17840 4.29569 4.23745
# Velocity P-wave (km/s) = 7.29146 7.54477 7.41920
#
# Compressibility (1/GPa) = 0.01392873
#
# Stress axis : x y z
#
# Youngs Moduli (GPa) = 98.81221 103.77176 112.37045
#
# Poissons Ratio (x) = 0.25199 0.13239
# Poissons Ratio (y) = 0.23995 0.42218
# Poissons Ratio (z) = 0.11642 0.38988
#
# Static dielectric constant tensor:
#      x y z
#    x 3.798770 -0.324350 0.680100 
#    y -0.324350 4.158620 0.176830 
#    z 0.680100 0.176830 4.401740 
# 
# 
# High freq. dielectric constant tensor:
#      x y z
#    x 1.960830 0.004600 0.004220 
#    y 0.004600 1.964120 -0.010450 
#    z 0.004220 -0.010450 1.972170 
# 
# From -- ./inp_files/457728.got.cif
#   From: 2010.06.25/outbox.cif.g09.slc.cpg/sg2_229_cif.got.tgz:457728.got - 2010.06.27 13:26:56.
