data_PCOD8037784
_publ_section_title
;
Structure prediction by ZEFSAII (Michael W. Deem and Ramdas Pophale) SiO2 
 PCOD8037784
Probable space group: P -1
;
_chemical_formula_sum "Si O2"
_cell_formula_units_Z 12
_cell_length_a 13.336810
_cell_length_b 5.256288
_cell_length_c 16.934209
_cell_angle_alpha 77.650846
_cell_angle_beta 153.919090
_cell_angle_gamma 92.328918
_cell_volume 477.075983
_symmetry_space_group_name_H-M "P -1"
_symmetry_group_IT_number 2
_symmetry_cell_setting 'triclinic'
loop_
_space_group_symop_operation_xyz
x,y,z
-x,-y,-z
loop_
_atom_site_type_symbol
_atom_site_label
_atom_site_fract_x
_atom_site_fract_y
_atom_site_fract_z
Si Si1 0.601368 0.332646 0.408310
Si Si2 0.443414 0.817087 0.167573
Si Si3 0.620517 0.231807 0.050929
Si Si4 0.944563 0.240593 0.796112
Si Si5 0.114779 0.038116 0.496913
Si Si6 0.820871 0.713484 0.799914
O O1 0.407149 0.639991 0.229037
O O2 0.837121 0.315855 0.627287
O O3 0.451845 0.177212 0.362771
O O4 0.685663 0.222812 0.386974
O O5 0.728889 0.774362 0.380294
O O6 0.409761 0.691077 0.067559
O O7 0.241171 0.129734 0.009898
O O8 0.905438 0.149527 0.276478
O O9 0.500000 0.500000 0.000000
O O10 0.500000 0.000000 0.000000
O O11 0.831360 0.533850 0.740662
O O12 0.878209 0.990324 0.805134
O O13 0.000000 0.000000 0.500000
O O14 0.000000 0.500000 0.000000
#
# Coordination Sequence:
#
# PCOD8037784 Si02
#       6
#     2   2   2   2   2   2
#     4  12  28  47  79 115 155 212 264 322 394 470
#     4  12  28  48  82 112 162 209 264 327 396 466
#     4  12  28  51  78 111 157 208 264 328 391 462
#     4  12  28  50  78 117 159 206 261 325 392 468
#     4  12  27  49  79 114 159 205 266 323 395 466
#     4  12  26  50  80 112 161 206 259 325 394 463
#
# _framework density 25.153226
#
# number of rings (size 3 to 8) (size 9 to 14) (size 15 to 20)
#    0.000    0.000    5.000    3.500    7.000    1.333 
#    0.000    0.000    0.000    0.000    0.000    0.000 
#    0.000    0.000    0.000    0.000    0.000    0.000 
#
# Total GULP energy -148697.273620 kJ/mol
# GULP energy per Si atom -12391.439468 kJ/mol
# Density = 2.509598 g / cm^3
# Si number density = 25.153226 Si / 1000 Ang^3
#
#
#
# Elastic Constant Matrix: (Units=GPa)
#
#
# Indices 1 2 3 4 5 6 
#
# 1 130.6217 29.4866 37.8943 10.4403 4.0367 -16.9993
# 2 29.4866 88.1646 21.0589 14.3163 5.1177 -10.5177
# 3 37.8943 21.0589 179.3243 16.5276 -10.2209 2.6766
# 4 10.4403 14.3163 16.5276 39.5341 1.2292 2.1565
# 5 4.0367 5.1177 -10.2209 1.2292 52.6140 -3.1580
# 6 -16.9993 -10.5177 2.6766 2.1565 -3.1580 40.4775
#
#
#
# Elastic Compliance Matrix: (Units=1/GPa)
#
#
# Indices 1 2 3 4 5 6 
#
# 1 0.009159 -0.002030 -0.001676 -0.001152 -0.000597 0.003445
# 2 -0.002030 0.013274 -0.000859 -0.004031 -0.001041 0.002787
# 3 -0.001676 -0.000859 0.006301 -0.001862 0.001412 -0.001135
# 4 -0.001152 -0.004031 -0.001862 0.028021 -0.000713 -0.002957
# 5 -0.000597 -0.001041 0.001412 -0.000713 0.019501 0.000945
# 6 0.003445 0.002787 -0.001135 -0.002957 0.000945 0.027182
#
#
# Mechanical properties :
#
#
# Convention : Reuss Voigt Hill
#
# Bulk Modulus (GPa) = 51.01396 63.88779 57.45087
# Shear Modulus (GPa) = 41.98034 47.16983 44.57509
#
# Velocity S-wave (km/s) = 4.08975 4.33517 4.21425
# Velocity P-wave (km/s) = 6.52892 7.10724 6.82421
#
# Compressibility (1/GPa) = 0.01960248
#
# Stress axis : x y z
#
# Youngs Moduli (GPa) = 109.18051 75.33450 158.71373
#
# Poissons Ratio (x) = 0.15294 0.26606
# Poissons Ratio (y) = 0.22165 0.13637
# Poissons Ratio (z) = 0.18302 0.06473
#
# Static dielectric constant tensor:
#      x y z
#    x 4.599240 0.428030 -0.297800 
#    y 0.428030 4.607240 0.928140 
#    z -0.297800 0.928140 4.401210 
# 
# 
# High freq. dielectric constant tensor:
#      x y z
#    x 2.015830 -0.007120 -0.002910 
#    y -0.007120 1.987070 0.005330 
#    z -0.002910 0.005330 2.033640 
# 
# From -- ./inp_files/89422.got.cif
#   From: 2010.06.25/outbox.cif.g09.slc.cpg/sg2_45_cif.got.tgz:89422.got - 2010.06.27 13:26:56.
