data_PCOD8037863
_publ_section_title
;
Structure prediction by ZEFSAII (Michael W. Deem and Ramdas Pophale) SiO2 
 PCOD8037863
Probable space group: P -1
;
_chemical_formula_sum "Si O2"
_cell_formula_units_Z 14
_cell_length_a 14.651001
_cell_length_b 9.573128
_cell_length_c 8.964800
_cell_angle_alpha 59.907552
_cell_angle_beta 129.402068
_cell_angle_gamma 89.410546
_cell_volume 732.116299
_symmetry_space_group_name_H-M "P -1"
_symmetry_group_IT_number 2
_symmetry_cell_setting 'triclinic'
loop_
_space_group_symop_operation_xyz
x,y,z
-x,-y,-z
loop_
_atom_site_type_symbol
_atom_site_label
_atom_site_fract_x
_atom_site_fract_y
_atom_site_fract_z
Si Si1 0.338500 0.953040 0.169338
Si Si2 0.548466 0.530595 0.191874
Si Si3 0.287733 0.278450 0.764179
Si Si4 0.948762 0.454695 0.820084
Si Si5 0.608129 0.572003 0.699999
Si Si6 0.789230 0.677159 0.020184
Si Si7 0.235724 0.697458 0.252536
O O1 0.484822 0.778448 0.439809
O O2 0.223875 0.888388 0.077703
O O3 0.332993 0.060896 0.951718
O O4 0.301468 0.097292 0.192091
O O5 0.576006 0.705147 0.124601
O O6 0.433490 0.556763 0.177457
O O7 0.692483 0.350185 0.484047
O O8 0.500000 0.500000 0.000000
O O9 0.186842 0.361330 0.474556
O O10 0.208413 0.393405 0.770104
O O11 0.909830 0.292879 0.898416
O O12 0.060168 0.383411 0.845193
O O13 0.000000 0.500000 0.000000
O O14 0.659151 0.475280 0.646892
O O15 0.729318 0.584632 0.897799
#
# Coordination Sequence:
#
# PCOD8037863 Si02
#       7
#     2   2   2   2   2   2   2
#     4   9  20  36  58  84 118 140 188 234 287 327
#     4  10  17  32  55  83 111 143 186 225 274 340
#     4   9  21  36  58  85 112 149 187 236 277 330
#     4  11  21  39  61  81 111 153 198 225 277 339
#     4  11  19  37  60  84 115 154 181 228 288 340
#     4  10  20  35  63  80 114 149 192 227 279 328
#     4  10  22  37  59  82 115 154 186 228 283 335
#
# _framework density 19.122644000000001
#
# number of rings (size 3 to 8) (size 9 to 14) (size 15 to 20)
#    0.857    1.143    2.857    2.571    0.000    0.571 
#    0.000    7.143   12.571    0.000    0.000    0.000 
#    0.000    0.000    0.000    0.000    0.000    0.000 
#
# Total GULP energy -173468.113925 kJ/mol
# GULP energy per Si atom -12390.579566 kJ/mol
# Density = 1.907912 g / cm^3
# Si number density = 19.122644 Si / 1000 Ang^3
#
#
#
# Elastic Constant Matrix: (Units=GPa)
#
#
# Indices 1 2 3 4 5 6 
#
# 1 137.9796 39.4091 41.1315 -0.0984 3.6299 35.0017
# 2 39.4091 77.7393 39.4883 11.9723 -4.5615 23.0037
# 3 41.1315 39.4883 79.2096 19.7707 -9.8003 14.1547
# 4 -0.0984 11.9723 19.7707 31.5091 5.2472 -1.0581
# 5 3.6299 -4.5615 -9.8003 5.2472 31.2179 -1.9860
# 6 35.0017 23.0037 14.1547 -1.0581 -1.9860 47.4089
#
#
#
# Elastic Compliance Matrix: (Units=1/GPa)
#
#
# Indices 1 2 3 4 5 6 
#
# 1 0.011003 -0.002216 -0.005370 0.004801 -0.004447 -0.005524
# 2 -0.002216 0.019739 -0.006473 -0.003878 0.001378 -0.006039
# 3 -0.005370 -0.006473 0.023127 -0.013598 0.009243 0.000284
# 4 0.004801 -0.003878 -0.013598 0.043952 -0.012600 0.002850
# 5 -0.004447 0.001378 0.009243 -0.012600 0.037845 0.001160
# 6 -0.005524 -0.006039 0.000284 0.002850 0.001160 0.028129
#
#
# Mechanical properties :
#
#
# Convention : Reuss Voigt Hill
#
# Bulk Modulus (GPa) = 38.83192 59.44292 49.13742
# Shear Modulus (GPa) = 24.93814 33.68718 29.31266
#
# Velocity S-wave (km/s) = 3.61517 4.20174 3.91944
# Velocity P-wave (km/s) = 6.14628 7.39541 6.79959
#
# Compressibility (1/GPa) = 0.02575201
#
# Stress axis : x y z
#
# Youngs Moduli (GPa) = 90.88514 50.65995 43.23905
#
# Poissons Ratio (x) = 0.11224 0.23221
# Poissons Ratio (y) = 0.20136 0.27988
# Poissons Ratio (z) = 0.48810 0.32791
#
# Static dielectric constant tensor:
#      x y z
#    x 3.882430 0.298190 -0.092870 
#    y 0.298190 3.357850 0.183670 
#    z -0.092870 0.183670 3.183040 
# 
# 
# High freq. dielectric constant tensor:
#      x y z
#    x 1.764620 0.019840 -0.006670 
#    y 0.019840 1.726910 0.023210 
#    z -0.006670 0.023210 1.716270 
# 
# From -- ./inp_files/294979.got.cif
#   From: 2010.06.25/outbox.cif.g09.slc.cpg/sg2_148_cif.got.tgz:294979.got - 2010.06.27 13:26:56.
