data_PCOD8037288
_publ_section_title
;
Structure prediction by ZEFSAII (Michael W. Deem and Ramdas Pophale) SiO2 
 PCOD8037288
Probable space group: P -1
;
_chemical_formula_sum "Si O2"
_cell_formula_units_Z 14
_cell_length_a 15.221418
_cell_length_b 9.193748
_cell_length_c 7.337162
_cell_angle_alpha 106.290821
_cell_angle_beta 75.966413
_cell_angle_gamma 143.550748
_cell_volume 585.270833
_symmetry_space_group_name_H-M "P -1"
_symmetry_group_IT_number 2
_symmetry_cell_setting 'triclinic'
loop_
_space_group_symop_operation_xyz
x,y,z
-x,-y,-z
loop_
_atom_site_type_symbol
_atom_site_label
_atom_site_fract_x
_atom_site_fract_y
_atom_site_fract_z
Si Si1 0.487942 0.650326 0.983164
Si Si2 0.352182 0.235409 0.385419
Si Si3 0.273346 0.550743 0.844259
Si Si4 0.142690 0.777112 0.603503
Si Si5 0.841967 0.742279 0.559942
Si Si6 0.955402 0.774098 0.875897
Si Si7 0.593002 0.044240 0.308746
O O1 0.606731 0.823195 0.820974
O O2 0.331970 0.484225 0.906905
O O3 0.500000 0.500000 0.000000
O O4 0.507885 0.782127 0.195281
O O5 0.500000 0.500000 0.500000
O O6 0.258699 0.246164 0.345336
O O7 0.247893 0.997764 0.482294
O O8 0.232091 0.454957 0.626522
O O9 0.396057 0.841244 0.842779
O O10 0.135442 0.429706 0.988852
O O11 0.241030 0.780574 0.653872
O O12 0.000000 0.500000 0.500000
O O13 0.093234 0.846088 0.790199
O O14 0.855685 0.659016 0.704490
O O15 0.000000 0.000000 0.500000
O O16 0.000000 0.000000 0.000000
O O17 0.500000 0.000000 0.500000
#
# Coordination Sequence:
#
# PCOD8037288 Si02
#       7
#     2   2   2   2   2   2   2
#     4  12  28  48  82 116 155 209 281 335 404 485
#     4  12  25  48  79 116 157 206 275 333 398 487
#     4  12  27  49  79 114 161 213 265 333 407 489
#     4  12  29  50  78 116 163 211 268 333 409 485
#     4  12  24  46  78 115 161 206 258 338 406 466
#     4  12  27  47  79 116 161 208 274 327 406 484
#     4  12  31  52  78 114 164 218 268 337 415 481
#
# _framework density 23.920549000000001
#
# number of rings (size 3 to 8) (size 9 to 14) (size 15 to 20)
#    0.000    0.000    4.286    3.857   12.000    0.571 
#    0.000    0.000    0.000    0.000    0.000    0.000 
#    0.000    0.000    0.000    0.000    0.000    0.000 
#
# Total GULP energy -173558.421362 kJ/mol
# GULP energy per Si atom -12397.030097 kJ/mol
# Density = 2.386610 g / cm^3
# Si number density = 23.920549 Si / 1000 Ang^3
#
#
#
# Elastic Constant Matrix: (Units=GPa)
#
#
# Indices 1 2 3 4 5 6 
#
# 1 149.2921 32.0558 54.7286 4.1653 -8.2377 8.6328
# 2 32.0558 130.9508 56.0443 -11.7863 -6.9851 -6.3080
# 3 54.7286 56.0443 178.6420 -6.6889 -22.1974 2.1503
# 4 4.1653 -11.7863 -6.6889 52.8865 6.1892 2.6155
# 5 -8.2377 -6.9851 -22.1974 6.1892 52.4366 -3.2963
# 6 8.6328 -6.3080 2.1503 2.6155 -3.2963 40.4802
#
#
#
# Elastic Compliance Matrix: (Units=1/GPa)
#
#
# Indices 1 2 3 4 5 6 
#
# 1 0.007837 -0.001225 -0.002007 -0.001090 0.000242 -0.001665
# 2 -0.001225 0.009238 -0.002492 0.001769 -0.000118 0.001709
# 3 -0.002007 -0.002492 0.007305 0.000254 0.002404 -0.000169
# 4 -0.001090 0.001769 0.000254 0.019728 -0.002217 -0.000960
# 5 0.000242 -0.000118 0.002404 -0.002217 0.020474 0.001613
# 6 -0.001665 0.001709 -0.000169 -0.000960 0.001613 0.025527
#
#
# Mechanical properties :
#
#
# Convention : Reuss Voigt Hill
#
# Bulk Modulus (GPa) = 77.32873 82.72691 80.02782
# Shear Modulus (GPa) = 47.22864 50.23107 48.72986
#
# Velocity S-wave (km/s) = 4.44824 4.58745 4.51838
# Velocity P-wave (km/s) = 7.66681 7.91952 7.79419
#
# Compressibility (1/GPa) = 0.01293180
#
# Stress axis : x y z
#
# Youngs Moduli (GPa) = 127.59591 108.24770 136.89501
#
# Poissons Ratio (x) = 0.13258 0.27481
# Poissons Ratio (y) = 0.15628 0.34114
# Poissons Ratio (z) = 0.25614 0.26975
#
# Static dielectric constant tensor:
#      x y z
#    x 4.736440 0.051100 -0.077300 
#    y 0.051100 4.932520 0.232590 
#    z -0.077300 0.232590 4.943680 
# 
# 
# High freq. dielectric constant tensor:
#      x y z
#    x 1.962470 0.002710 -0.006430 
#    y 0.002710 1.949900 -0.012700 
#    z -0.006430 -0.012700 1.965130 
# 
# From -- ./inp_files/296061.got.cif
#   From: 2010.06.25/outbox.cif.g09.slc.cpg/sg2_149_cif.got.tgz:296061.got - 2010.06.27 13:26:56.
