data_PCOD8037294
_publ_section_title
;
Structure prediction by ZEFSAII (Michael W. Deem and Ramdas Pophale) SiO2 
 PCOD8037294
Probable space group: P -1
;
_chemical_formula_sum "Si O2"
_cell_formula_units_Z 16
_cell_length_a 21.723754
_cell_length_b 9.248570
_cell_length_c 12.309134
_cell_angle_alpha 136.463753
_cell_angle_beta 152.814609
_cell_angle_gamma 37.331312
_cell_volume 683.793484
_symmetry_space_group_name_H-M "P -1"
_symmetry_group_IT_number 2
_symmetry_cell_setting 'triclinic'
loop_
_space_group_symop_operation_xyz
x,y,z
-x,-y,-z
loop_
_atom_site_type_symbol
_atom_site_label
_atom_site_fract_x
_atom_site_fract_y
_atom_site_fract_z
Si Si1 0.470557 0.591812 0.626559
Si Si2 0.080428 0.745807 0.434667
Si Si3 0.982560 0.417950 0.192767
Si Si4 0.842261 0.967399 0.568697
Si Si5 0.368739 0.763714 0.931812
Si Si6 0.307745 0.201492 0.935336
Si Si7 0.389729 0.879994 0.269267
Si Si8 0.050113 0.163911 0.942617
O O1 0.500000 0.500000 0.500000
O O2 0.292561 0.773686 0.466686
O O3 0.518837 0.374957 0.668221
O O4 0.566111 0.732478 0.876434
O O5 0.079202 0.562288 0.421818
O O6 0.246223 0.711153 0.647830
O O7 0.998878 0.703908 0.178416
O O8 0.000000 0.000000 0.500000
O O9 0.811866 0.583597 0.060171
O O10 0.082565 0.178661 0.284763
O O11 0.963169 0.344234 0.001234
O O12 0.981496 0.978684 0.730427
O O13 0.782679 0.823969 0.322331
O O14 0.395552 0.953008 0.005644
O O15 0.500000 0.500000 0.000000
O O16 0.327858 0.862074 0.043450
O O17 0.500000 0.000000 0.500000
O O18 0.234450 0.040870 0.181322
#
# Coordination Sequence:
#
# PCOD8037294 Si02
#       8
#     2   2   2   2   2   2   2   2
#     4  12  27  47  72 106 151 189 242 297 365 432
#     4  12  24  47  71 107 140 192 241 301 352 430
#     4  12  26  42  74 103 143 188 243 296 360 422
#     4  12  26  46  73 106 144 192 245 295 360 428
#     4  12  27  46  73 104 146 186 247 293 365 426
#     4  12  25  48  71 107 145 192 242 299 360 430
#     4  12  28  48  74 107 146 192 239 297 365 433
#     4  12  25  48  73 106 144 188 242 300 362 428
#
# _framework density 23.398878
#
# number of rings (size 3 to 8) (size 9 to 14) (size 15 to 20)
#    0.000    0.000    3.750    5.250    5.250    1.000 
#    0.000    0.000    0.000    0.000    0.000    0.000 
#    0.000    0.000    0.000    0.000    0.000    0.000 
#
# Total GULP energy -198405.936817 kJ/mol
# GULP energy per Si atom -12400.371051 kJ/mol
# Density = 2.334562 g / cm^3
# Si number density = 23.398878 Si / 1000 Ang^3
#
#
#
# Elastic Constant Matrix: (Units=GPa)
#
#
# Indices 1 2 3 4 5 6 
#
# 1 95.4697 42.4662 40.2610 -7.3403 8.9844 7.4468
# 2 42.4662 124.5295 47.0191 -27.5316 16.8353 15.4687
# 3 40.2610 47.0191 119.0899 -0.9608 17.0959 5.1096
# 4 -7.3403 -27.5316 -0.9608 39.1489 1.9358 2.1691
# 5 8.9844 16.8353 17.0959 1.9358 56.6505 9.0870
# 6 7.4468 15.4687 5.1096 2.1691 9.0870 60.2420
#
#
#
# Elastic Compliance Matrix: (Units=1/GPa)
#
#
# Indices 1 2 3 4 5 6 
#
# 1 0.013317 -0.003209 -0.003194 0.000197 -0.000114 -0.000541
# 2 -0.003209 0.013015 -0.003560 0.008716 -0.002160 -0.002631
# 3 -0.003194 -0.003560 0.011087 -0.002782 -0.001805 0.000741
# 4 0.000197 0.008716 -0.002782 0.031917 -0.002422 -0.002810
# 5 -0.000114 -0.002160 -0.001805 -0.002422 0.019276 -0.002099
# 6 -0.000541 -0.002631 0.000741 -0.002810 -0.002099 0.017697
#
#
# Mechanical properties :
#
#
# Convention : Reuss Voigt Hill
#
# Bulk Modulus (GPa) = 57.16673 66.50907 61.83790
# Shear Modulus (GPa) = 37.85952 45.16446 41.51199
#
# Velocity S-wave (km/s) = 4.02681 4.39817 4.21658
# Velocity P-wave (km/s) = 6.79004 7.36733 7.08457
#
# Compressibility (1/GPa) = 0.01749269
#
# Stress axis : x y z
#
# Youngs Moduli (GPa) = 75.09199 76.83613 90.19288
#
# Poissons Ratio (x) = 0.24657 0.28807
# Poissons Ratio (y) = 0.24097 0.32111
# Poissons Ratio (z) = 0.23983 0.27356
#
# Static dielectric constant tensor:
#      x y z
#    x 4.923470 0.232640 0.047460 
#    y 0.232640 4.340870 0.207420 
#    z 0.047460 0.207420 4.238130 
# 
# 
# High freq. dielectric constant tensor:
#      x y z
#    x 1.938890 0.005530 0.000190 
#    y 0.005530 1.937750 0.006720 
#    z 0.000190 0.006720 1.935050 
# 
# From -- ./inp_files/470167.got.cif
#   From: 2010.06.25/outbox.cif.g09.slc.cpg/sg2_236_cif.got.tgz:470167.got - 2010.06.27 13:26:56.
