data_PCOD8037473
_publ_section_title
;
Structure prediction by ZEFSAII (Michael W. Deem and Ramdas Pophale) SiO2 
 PCOD8037473
Probable space group: P -1
;
_chemical_formula_sum "Si O2"
_cell_formula_units_Z 16
_cell_length_a 8.366071
_cell_length_b 14.496085
_cell_length_c 14.710632
_cell_angle_alpha 29.083353
_cell_angle_beta 111.190447
_cell_angle_gamma 94.502040
_cell_volume 688.752570
_symmetry_space_group_name_H-M "P -1"
_symmetry_group_IT_number 2
_symmetry_cell_setting 'triclinic'
loop_
_space_group_symop_operation_xyz
x,y,z
-x,-y,-z
loop_
_atom_site_type_symbol
_atom_site_label
_atom_site_fract_x
_atom_site_fract_y
_atom_site_fract_z
Si Si1 0.191214 0.956581 0.857886
Si Si2 0.018048 0.451318 0.441241
Si Si3 0.489527 0.774296 0.506766
Si Si4 0.590179 0.805652 0.971010
Si Si5 0.347653 0.451246 0.964334
Si Si6 0.206100 0.270716 0.242000
Si Si7 0.656660 0.459006 0.646766
Si Si8 0.858381 0.090708 0.540587
O O1 0.417472 0.890288 0.938054
O O2 0.205022 0.803959 0.076684
O O3 0.075705 0.932067 0.768446
O O4 0.052585 0.209268 0.643384
O O5 0.203943 0.450929 0.434107
O O6 0.000000 0.500000 0.500000
O O7 0.810390 0.635334 0.198152
O O8 0.678300 0.746182 0.627036
O O9 0.553190 0.569294 0.627432
O O10 0.319414 0.794449 0.520888
O O11 0.398124 0.989112 0.240030
O O12 0.544346 0.681456 0.990069
O O13 0.147305 0.698571 0.692392
O O14 0.500000 0.500000 0.000000
O O15 0.318611 0.281003 0.166173
O O16 0.179368 0.059173 0.409064
O O17 0.000000 0.500000 0.000000
O O18 0.500000 0.500000 0.500000
#
# Coordination Sequence:
#
# PCOD8037473 Si02
#       8
#     2   2   2   2   2   2   2   2
#     4  12  28  49  80 112 150 196 247 308 373 446
#     4  12  29  52  79 111 148 196 250 311 379 440
#     4  12  25  49  75 106 155 197 246 314 371 438
#     4  12  26  49  78 107 155 195 245 311 370 443
#     4  12  25  45  72 106 148 198 249 298 366 438
#     4  12  28  44  70 108 153 198 251 303 367 445
#     4  12  29  50  81 113 147 195 251 307 380 445
#     4  12  25  46  73 109 150 197 250 300 370 438
#
# _framework density 23.230404
#
# number of rings (size 3 to 8) (size 9 to 14) (size 15 to 20)
#    0.000    0.000    5.000    4.125    8.750    2.000 
#    0.000    0.000    0.000    0.000    0.000    0.000 
#    0.000    0.000    0.000    0.000    0.000    0.000 
#
# Total GULP energy -198454.849326 kJ/mol
# GULP energy per Si atom -12403.428083 kJ/mol
# Density = 2.317753 g / cm^3
# Si number density = 23.230404 Si / 1000 Ang^3
#
#
#
# Elastic Constant Matrix: (Units=GPa)
#
#
# Indices 1 2 3 4 5 6 
#
# 1 38.8762 21.8292 9.3442 -2.6863 13.7211 10.8840
# 2 21.8292 124.2786 37.0873 9.9778 9.6661 5.3214
# 3 9.3442 37.0873 149.2528 3.8989 -4.7620 15.4203
# 4 -2.6863 9.9778 3.8989 35.1724 3.4337 5.6956
# 5 13.7211 9.6661 -4.7620 3.4337 47.3537 -1.2609
# 6 10.8840 5.3214 15.4203 5.6956 -1.2609 35.3402
#
#
#
# Elastic Compliance Matrix: (Units=1/GPa)
#
#
# Indices 1 2 3 4 5 6 
#
# 1 0.036347 -0.005615 -0.000178 0.007302 -0.010248 -0.011814
# 2 -0.005615 0.009906 -0.002213 -0.003238 -0.000337 0.001713
# 3 -0.000178 -0.002213 0.007596 0.000127 0.001180 -0.002905
# 4 0.007302 -0.003238 0.000127 0.031411 -0.003907 -0.007019
# 5 -0.010248 -0.000337 0.001180 -0.003907 0.024670 0.004202
# 6 -0.011814 0.001713 -0.002905 -0.007019 0.004202 0.034225
#
#
# Mechanical properties :
#
#
# Convention : Reuss Voigt Hill
#
# Bulk Modulus (GPa) = 26.42868 49.88099 38.15484
# Shear Modulus (GPa) = 28.93889 39.84971 34.39430
#
# Velocity S-wave (km/s) = 3.53332 4.14625 3.85200
# Velocity P-wave (km/s) = 5.29597 6.66639 6.02030
#
# Compressibility (1/GPa) = 0.03783768
#
# Stress axis : x y z
#
# Youngs Moduli (GPa) = 27.51274 100.94964 131.65635
#
# Poissons Ratio (x) = 0.56679 0.02338
# Poissons Ratio (y) = 0.15447 0.29137
# Poissons Ratio (z) = 0.00488 0.22342
#
# Static dielectric constant tensor:
#      x y z
#    x 3.810190 0.206330 0.082420 
#    y 0.206330 4.158310 -0.131870 
#    z 0.082420 -0.131870 4.523990 
# 
# 
# High freq. dielectric constant tensor:
#      x y z
#    x 1.915180 0.005090 -0.004610 
#    y 0.005090 1.921850 -0.001730 
#    z -0.004610 -0.001730 1.946690 
# 
# From -- ./inp_files/505079.got.cif
#   From: 2010.06.25/outbox.cif.g09.slc.cpg/sg2_253_cif.got.tgz:505079.got - 2010.06.27 13:26:56.
