data_PCOD8037626
_publ_section_title
;
Structure prediction by ZEFSAII (Michael W. Deem and Ramdas Pophale) SiO2 
 PCOD8037626
Probable space group: P -1
;
_chemical_formula_sum "Si O2"
_cell_formula_units_Z 14
_cell_length_a 7.967180
_cell_length_b 9.225614
_cell_length_c 11.889490
_cell_angle_alpha 50.038645
_cell_angle_beta 60.174530
_cell_angle_gamma 72.992815
_cell_volume 580.627406
_symmetry_space_group_name_H-M "P -1"
_symmetry_group_IT_number 2
_symmetry_cell_setting 'triclinic'
loop_
_space_group_symop_operation_xyz
x,y,z
-x,-y,-z
loop_
_atom_site_type_symbol
_atom_site_label
_atom_site_fract_x
_atom_site_fract_y
_atom_site_fract_z
Si Si1 0.514880 0.611142 0.246759
Si Si2 0.782826 0.706057 0.451363
Si Si3 0.552995 0.303030 0.019950
Si Si4 0.013915 0.781102 0.120245
Si Si5 0.526130 0.115438 0.678349
Si Si6 0.896026 0.480592 0.162312
Si Si7 0.966302 0.200119 0.460560
O O1 0.309509 0.505930 0.398945
O O2 0.517082 0.714828 0.075301
O O3 0.569647 0.773697 0.240511
O O4 0.663833 0.436386 0.264687
O O5 0.613506 0.846422 0.401095
O O6 0.951768 0.705101 0.301808
O O7 0.887302 0.769144 0.500138
O O8 0.781296 0.294229 0.945888
O O9 0.500000 0.500000 0.000000
O O10 0.462521 0.112489 0.203877
O O11 0.879475 0.691291 0.113094
O O12 0.000000 0.000000 0.000000
O O13 0.740045 0.211904 0.556646
O O14 0.017382 0.349182 0.269563
O O15 0.000000 0.500000 0.000000
O O16 0.000000 0.000000 0.500000
#
# Coordination Sequence:
#
# PCOD8037626 Si02
#       7
#     2   2   2   2   2   2   2
#     4  12  25  49  80 112 156 205 262 330 389 467
#     4  12  26  51  84 111 156 206 272 328 388 470
#     4  12  28  47  75 116 161 209 261 325 400 470
#     4  12  25  48  78 113 151 209 266 316 390 470
#     4  12  26  53  79 113 157 206 267 325 392 473
#     4  12  27  48  76 115 161 199 256 326 394 469
#     4  12  31  49  78 118 157 207 263 327 402 471
#
# _framework density 24.111851000000001
#
# number of rings (size 3 to 8) (size 9 to 14) (size 15 to 20)
#    0.000    0.000    4.286    4.286    8.000    3.429 
#    0.000    0.000    0.000    0.000    0.000    0.000 
#    0.000    0.000    0.000    0.000    0.000    0.000 
#
# Total GULP energy -173462.480177 kJ/mol
# GULP energy per Si atom -12390.177155 kJ/mol
# Density = 2.405697 g / cm^3
# Si number density = 24.111851 Si / 1000 Ang^3
#
#
#
# Elastic Constant Matrix: (Units=GPa)
#
#
# Indices 1 2 3 4 5 6 
#
# 1 138.8153 51.3835 64.9713 3.5671 17.6541 -2.4513
# 2 51.3835 162.4541 75.2556 -3.2832 6.9479 -4.4878
# 3 64.9713 75.2556 145.7685 0.6789 17.6520 16.1050
# 4 3.5671 -3.2832 0.6789 41.7042 -0.2237 -0.2523
# 5 17.6541 6.9479 17.6520 -0.2237 42.5214 5.5403
# 6 -2.4513 -4.4878 16.1050 -0.2523 5.5403 39.5064
#
#
#
# Elastic Compliance Matrix: (Units=1/GPa)
#
#
# Indices 1 2 3 4 5 6 
#
# 1 0.009769 -0.001242 -0.003644 -0.000874 -0.002647 0.002316
# 2 -0.001242 0.008569 -0.004221 0.000868 0.000541 0.002547
# 3 -0.003644 -0.004221 0.011458 -0.000248 -0.001889 -0.005113
# 4 -0.000874 0.000868 -0.000248 0.024129 0.000420 0.000241
# 5 -0.002647 0.000541 -0.001889 0.000420 0.025697 -0.002934
# 6 0.002316 0.002547 -0.005113 0.000241 -0.002934 0.028243
#
#
# Mechanical properties :
#
#
# Convention : Reuss Voigt Hill
#
# Bulk Modulus (GPa) = 86.34510 92.25098 89.29804
# Shear Modulus (GPa) = 38.47916 41.77490 40.12703
#
# Velocity S-wave (km/s) = 3.99916 4.16690 4.08389
# Velocity P-wave (km/s) = 7.56388 7.84177 7.70408
#
# Compressibility (1/GPa) = 0.01158143
#
# Stress axis : x y z
#
# Youngs Moduli (GPa) = 102.36155 116.70585 87.27163
#
# Poissons Ratio (x) = 0.14498 0.31805
# Poissons Ratio (y) = 0.12716 0.36836
# Poissons Ratio (z) = 0.37304 0.49260
#
# Static dielectric constant tensor:
#      x y z
#    x 4.699510 -0.013970 -0.078670 
#    y -0.013970 4.275740 -0.314560 
#    z -0.078670 -0.314560 5.073100 
# 
# 
# High freq. dielectric constant tensor:
#      x y z
#    x 1.982550 -0.008690 -0.009150 
#    y -0.008690 1.957680 0.002060 
#    z -0.009150 0.002060 1.965130 
# 
# From -- ./inp_files/380960.got.cif
#   From: 2010.06.25/outbox.cif.g09.slc.cpg/sg2_191_cif.got.tgz:380960.got - 2010.06.27 13:26:56.
