data_PCOD8037230
_publ_section_title
;
Structure prediction by ZEFSAII (Michael W. Deem and Ramdas Pophale) SiO2 
 PCOD8037230
Probable space group: P -1
;
_chemical_formula_sum "Si O2"
_cell_formula_units_Z 16
_cell_length_a 18.430117
_cell_length_b 8.476611
_cell_length_c 12.375865
_cell_angle_alpha 52.088192
_cell_angle_beta 29.357617
_cell_angle_gamma 46.818491
_cell_volume 690.302986
_symmetry_space_group_name_H-M "P -1"
_symmetry_group_IT_number 2
_symmetry_cell_setting 'triclinic'
loop_
_space_group_symop_operation_xyz
x,y,z
-x,-y,-z
loop_
_atom_site_type_symbol
_atom_site_label
_atom_site_fract_x
_atom_site_fract_y
_atom_site_fract_z
Si Si1 0.993821 0.369749 0.282399
Si Si2 0.258110 0.851144 0.937738
Si Si3 0.647777 0.893905 0.132258
Si Si4 0.383996 0.065235 0.223841
Si Si5 0.855431 0.459981 0.654225
Si Si6 0.785003 0.244854 0.436327
Si Si7 0.477855 0.393165 0.463326
Si Si8 0.004258 0.188303 0.992411
O O1 0.909000 0.357995 0.509641
O O2 0.910503 0.261777 0.352770
O O3 0.184601 0.226675 0.098753
O O4 0.961374 0.620929 0.193158
O O5 0.352601 0.748254 0.749659
O O6 0.359637 0.887869 0.890360
O O7 0.169291 0.705940 0.160563
O O8 0.132258 0.085729 0.965097
O O9 0.627814 0.746632 0.316569
O O10 0.493855 0.953453 0.230483
O O11 0.305204 0.322739 0.234910
O O12 0.239198 0.981673 0.428867
O O13 0.500000 0.000000 0.000000
O O14 0.000000 0.500000 0.500000
O O15 0.609707 0.436625 0.590538
O O16 0.835504 0.284149 0.232837
O O17 0.500000 0.500000 0.500000
O O18 0.000000 0.000000 0.000000
#
# Coordination Sequence:
#
# PCOD8037230 Si02
#       8
#     2   2   2   2   2   2   2   2
#     4  12  27  47  79 113 152 190 252 308 368 442
#     4  12  28  47  73 110 152 195 249 309 371 444
#     4  12  27  48  75 111 148 197 246 310 372 438
#     4  12  28  48  75 106 152 200 247 299 376 446
#     4  12  29  50  75 110 151 200 249 302 370 449
#     4  12  24  46  75 111 145 196 246 307 369 437
#     4  12  25  45  75 109 150 191 244 310 378 438
#     4  12  24  45  78 111 147 194 250 304 371 437
#
# _framework density 23.178228000000001
#
# number of rings (size 3 to 8) (size 9 to 14) (size 15 to 20)
#    0.000    0.000    3.750    6.000    7.000    1.000 
#    0.000    0.000    0.000    0.000    0.000    0.000 
#    0.000    0.000    0.000    0.000    0.000    0.000 
#
# Total GULP energy -198428.003830 kJ/mol
# GULP energy per Si atom -12401.750239 kJ/mol
# Density = 2.312547 g / cm^3
# Si number density = 23.178228 Si / 1000 Ang^3
#
#
#
# Elastic Constant Matrix: (Units=GPa)
#
#
# Indices 1 2 3 4 5 6 
#
# 1 110.7975 33.1743 33.1886 6.2064 -9.3225 17.2325
# 2 33.1743 89.8567 33.0783 11.9864 0.9740 3.3514
# 3 33.1886 33.0783 121.1686 13.7199 7.0490 14.6875
# 4 6.2064 11.9864 13.7199 34.6207 11.2334 -0.7485
# 5 -9.3225 0.9740 7.0490 11.2334 43.2771 1.1000
# 6 17.2325 3.3514 14.6875 -0.7485 1.1000 44.2722
#
#
#
# Elastic Compliance Matrix: (Units=1/GPa)
#
#
# Indices 1 2 3 4 5 6 
#
# 1 0.011490 -0.003283 -0.001840 -0.001343 0.003292 -0.003718
# 2 -0.003283 0.013684 -0.002619 -0.003155 0.000204 0.001052
# 3 -0.001840 -0.002619 0.010117 -0.002404 -0.001299 -0.002450
# 4 -0.001343 -0.003155 -0.002404 0.034052 -0.008725 0.002351
# 5 0.003292 0.000204 -0.001299 -0.008725 0.026330 -0.001667
# 6 -0.003718 0.001052 -0.002450 0.002351 -0.001667 0.024849
#
#
# Mechanical properties :
#
#
# Convention : Reuss Voigt Hill
#
# Bulk Modulus (GPa) = 50.48388 57.85614 54.17001
# Shear Modulus (GPa) = 35.06143 39.25945 37.16044
#
# Velocity S-wave (km/s) = 3.89355 4.12005 4.00840
# Velocity P-wave (km/s) = 6.48390 6.90281 6.69663
#
# Compressibility (1/GPa) = 0.01980830
#
# Stress axis : x y z
#
# Youngs Moduli (GPa) = 87.03334 73.07732 98.84765
#
# Poissons Ratio (x) = 0.23988 0.18186
# Poissons Ratio (y) = 0.28570 0.25886
# Poissons Ratio (z) = 0.16012 0.19137
#
# Static dielectric constant tensor:
#      x y z
#    x 3.621770 -0.096950 -0.946800 
#    y -0.096950 4.480630 -0.230580 
#    z -0.946800 -0.230580 2.718640 
# 
# 
# High freq. dielectric constant tensor:
#      x y z
#    x 1.921830 0.002730 -0.003460 
#    y 0.002730 1.926740 0.004330 
#    z -0.003460 0.004330 1.928160 
# 
# From -- ./inp_files/208251.got.cif
#   From: 2010.06.25/outbox.cif.g09.slc.cpg/sg2_105_cif.got.tgz:208251.got - 2010.06.27 13:26:56.
