data_PCOD8037927
_publ_section_title
;
Structure prediction by ZEFSAII (Michael W. Deem and Ramdas Pophale) SiO2 
 PCOD8037927
Probable space group: P -1
;
_chemical_formula_sum "Si O2"
_cell_formula_units_Z 16
_cell_length_a 8.918702
_cell_length_b 10.969750
_cell_length_c 9.502107
_cell_angle_alpha 71.175303
_cell_angle_beta 63.757988
_cell_angle_gamma 75.848269
_cell_volume 783.534855
_symmetry_space_group_name_H-M "P -1"
_symmetry_group_IT_number 2
_symmetry_cell_setting 'triclinic'
loop_
_space_group_symop_operation_xyz
x,y,z
-x,-y,-z
loop_
_atom_site_type_symbol
_atom_site_label
_atom_site_fract_x
_atom_site_fract_y
_atom_site_fract_z
Si Si1 0.625317 0.598278 0.050734
Si Si2 0.495348 0.874312 0.354018
Si Si3 0.913768 0.145322 0.960679
Si Si4 0.412388 0.382090 0.247262
Si Si5 0.797839 0.673883 0.209934
Si Si6 0.625227 0.130806 0.290801
Si Si7 0.685204 0.477278 0.503832
Si Si8 0.316437 0.772242 0.229991
O O1 0.579811 0.456588 0.167478
O O2 0.768132 0.651783 0.064970
O O3 0.454076 0.698072 0.096522
O O4 0.686548 0.586177 0.869216
O O5 0.631209 0.746928 0.328730
O O6 0.367007 0.871840 0.540892
O O7 0.386066 0.886231 0.250758
O O8 0.601688 0.994160 0.281263
O O9 0.829822 0.160053 0.834968
O O10 0.043337 0.250409 0.869336
O O11 0.788899 0.177748 0.132449
O O12 0.000000 0.000000 0.000000
O O13 0.460791 0.228598 0.287590
O O14 0.292551 0.429884 0.406509
O O15 0.821231 0.528322 0.321553
O O16 0.500000 0.500000 0.500000
O O17 0.735676 0.329427 0.590749
#
# Coordination Sequence:
#
# PCOD8037927 Si02
#       8
#     2   2   2   2   2   2   2   2
#     4   9  19  33  61  91 114 148 205 249 288 355
#     4  10  21  38  66  89 111 155 222 239 284 358
#     4  12  26  41  57  86 135 160 191 248 314 355
#     4  10  17  32  60  90 115 142 201 256 289 331
#     4  11  21  39  61  91 120 161 197 244 311 356
#     4  11  21  37  62  90 117 160 196 256 293 354
#     4  11  18  36  68  90 116 154 204 257 286 353
#     4  10  21  39  62  93 114 163 203 245 297 361
#
# _framework density 20.420276000000001
#
# number of rings (size 3 to 8) (size 9 to 14) (size 15 to 20)
#    0.000    1.500    7.500    0.000    0.000    2.000 
#    0.000    2.500    0.000    0.000    0.000    0.000 
#    0.000    0.000    0.000    0.000    0.000    0.000 
#
# Total GULP energy -198238.106191 kJ/mol
# GULP energy per Si atom -12389.881637 kJ/mol
# Density = 2.037380 g / cm^3
# Si number density = 20.420276 Si / 1000 Ang^3
#
#
#
# Elastic Constant Matrix: (Units=GPa)
#
#
# Indices 1 2 3 4 5 6 
#
# 1 98.4214 20.6500 62.3117 -0.7569 16.9939 19.0315
# 2 20.6500 60.9077 30.2940 4.8486 15.4139 8.2332
# 3 62.3117 30.2940 103.7399 -0.4822 10.9520 17.7305
# 4 -0.7569 4.8486 -0.4822 34.6922 3.8041 9.9021
# 5 16.9939 15.4139 10.9520 3.8041 32.5097 -0.7078
# 6 19.0315 8.2332 17.7305 9.9021 -0.7078 29.5550
#
#
#
# Elastic Compliance Matrix: (Units=1/GPa)
#
#
# Indices 1 2 3 4 5 6 
#
# 1 0.018804 0.001088 -0.009404 0.003274 -0.007735 -0.008052
# 2 0.001088 0.021542 -0.005456 -0.001161 -0.008879 -0.003252
# 3 -0.009404 -0.005456 0.017304 0.001585 0.001416 -0.003302
# 4 0.003274 -0.001161 0.001585 0.033786 -0.005958 -0.014198
# 5 -0.007735 -0.008879 0.001416 -0.005958 0.039441 0.009546
# 6 -0.008052 -0.003252 -0.003302 -0.014198 0.009546 0.046893
#
#
# Mechanical properties :
#
#
# Convention : Reuss Voigt Hill
#
# Bulk Modulus (GPa) = 33.21782 54.39783 43.80782
# Shear Modulus (GPa) = 23.21788 29.33892 26.27840
#
# Velocity S-wave (km/s) = 3.37560 3.79457 3.59120
# Velocity P-wave (km/s) = 5.61207 6.77460 6.22055
#
# Compressibility (1/GPa) = 0.03010432
#
# Stress axis : x y z
#
# Youngs Moduli (GPa) = 53.18054 46.41993 57.79089
#
# Poissons Ratio (x) = -0.05049 0.54348
# Poissons Ratio (y) = -0.05784 0.31532
# Poissons Ratio (z) = 0.50012 0.25328
#
# Static dielectric constant tensor:
#      x y z
#    x 3.308610 0.201070 0.180600 
#    y 0.201070 3.781860 -0.020530 
#    z 0.180600 -0.020530 3.947050 
# 
# 
# High freq. dielectric constant tensor:
#      x y z
#    x 1.752990 0.025750 0.023660 
#    y 0.025750 1.800570 -0.004260 
#    z 0.023660 -0.004260 1.809530 
# 
# From -- ./inp_files/176094.got.cif
#   From: 2010.06.25/outbox.cif.g09.slc.cpg/sg2_89_cif.got.tgz:176094.got - 2010.06.27 13:26:56.
