data_PCOD8037175
_publ_section_title
;
Structure prediction by ZEFSAII (Michael W. Deem and Ramdas Pophale) SiO2 
 PCOD8037175
Probable space group: P -1
;
_chemical_formula_sum "Si O2"
_cell_formula_units_Z 16
_cell_length_a 9.163707
_cell_length_b 23.753730
_cell_length_c 14.945291
_cell_angle_alpha 27.405322
_cell_angle_beta 30.398795
_cell_angle_gamma 48.261655
_cell_volume 684.311731
_symmetry_space_group_name_H-M "P -1"
_symmetry_group_IT_number 2
_symmetry_cell_setting 'triclinic'
loop_
_space_group_symop_operation_xyz
x,y,z
-x,-y,-z
loop_
_atom_site_type_symbol
_atom_site_label
_atom_site_fract_x
_atom_site_fract_y
_atom_site_fract_z
Si Si1 0.647837 0.196883 0.410124
Si Si2 0.198067 0.010416 0.292847
Si Si3 0.221973 0.726272 0.425143
Si Si4 0.981748 0.762970 0.314716
Si Si5 0.281711 0.456202 0.762168
Si Si6 0.743609 0.386313 0.737518
Si Si7 0.404357 0.026876 0.613775
Si Si8 0.155935 0.158838 0.442137
O O1 0.595417 0.075048 0.679539
O O2 0.363552 0.241411 0.512751
O O3 0.666411 0.145626 0.370326
O O4 0.974058 0.322125 0.087564
O O5 0.942629 0.945658 0.440659
O O6 0.000000 0.000000 0.500000
O O7 0.412907 0.166059 0.934160
O O8 0.190794 0.576652 0.670072
O O9 0.013404 0.736366 0.438990
O O10 0.075013 0.765331 0.535776
O O11 0.031310 0.642361 0.411056
O O12 0.258517 0.900234 0.936038
O O13 0.500000 0.500000 0.500000
O O14 0.483809 0.429222 0.770930
O O15 0.000000 0.500000 0.500000
O O16 0.530976 0.257775 0.091939
O O17 0.132324 0.077963 0.661620
O O18 0.500000 0.000000 0.500000
#
# Coordination Sequence:
#
# PCOD8037175 Si02
#       8
#     2   2   2   2   2   2   2   2
#     4  12  26  46  81 106 151 197 252 306 372 449
#     4  12  24  48  77 107 152 200 242 317 373 439
#     4  12  26  46  78 107 154 193 253 309 370 445
#     4  12  25  48  74 112 147 196 247 312 374 435
#     4  12  28  49  77 109 142 205 253 293 380 456
#     4  12  29  50  73 105 157 194 247 312 374 448
#     4  12  24  44  75 112 147 194 249 304 375 444
#     4  12  26  46  72 114 144 193 255 306 375 440
#
# _framework density 23.381159
#
# number of rings (size 3 to 8) (size 9 to 14) (size 15 to 20)
#    0.000    0.000    6.250    3.750    3.500    3.000 
#    0.000    0.000    0.000    0.000    0.000    0.000 
#    0.000    0.000    0.000    0.000    0.000    0.000 
#
# Total GULP energy -198323.545347 kJ/mol
# GULP energy per Si atom -12395.221584 kJ/mol
# Density = 2.332794 g / cm^3
# Si number density = 23.381159 Si / 1000 Ang^3
#
#
#
# Elastic Constant Matrix: (Units=GPa)
#
#
# Indices 1 2 3 4 5 6 
#
# 1 135.4798 32.8511 48.3104 -25.0963 -27.1876 -6.1056
# 2 32.8511 115.0203 36.1662 -17.2957 -13.8249 2.5516
# 3 48.3104 36.1662 97.1458 -10.9032 -30.4280 5.6990
# 4 -25.0963 -17.2957 -10.9032 40.5866 1.6558 0.4119
# 5 -27.1876 -13.8249 -30.4280 1.6558 42.9097 -5.9724
# 6 -6.1056 2.5516 5.6990 0.4119 -5.9724 43.9954
#
#
#
# Elastic Compliance Matrix: (Units=1/GPa)
#
#
# Indices 1 2 3 4 5 6 
#
# 1 0.010668 -0.000787 -0.003203 0.005197 0.004380 0.002487
# 2 -0.000787 0.010387 -0.002912 0.003135 0.000623 -0.000279
# 3 -0.003203 -0.002912 0.015588 0.000657 0.007889 -0.001230
# 4 0.005197 0.003135 0.000657 0.029205 0.003737 0.000688
# 5 0.004380 0.000623 0.007889 0.003737 0.032273 0.003896
# 6 0.002487 -0.000279 -0.001230 0.000688 0.003896 0.023773
#
#
# Mechanical properties :
#
#
# Convention : Reuss Voigt Hill
#
# Bulk Modulus (GPa) = 43.78602 64.70012 54.24307
# Shear Modulus (GPa) = 34.88938 40.85291 37.87115
#
# Velocity S-wave (km/s) = 3.86709 4.18456 4.02895
# Velocity P-wave (km/s) = 6.22149 7.14698 6.70023
#
# Compressibility (1/GPa) = 0.02283834
#
# Stress axis : x y z
#
# Youngs Moduli (GPa) = 93.74056 96.27358 64.15303
#
# Poissons Ratio (x) = 0.07577 0.20547
# Poissons Ratio (y) = 0.07378 0.18683
# Poissons Ratio (z) = 0.30023 0.28037
#
# Static dielectric constant tensor:
#      x y z
#    x 4.532560 0.039330 0.033350 
#    y 0.039330 3.362660 0.237500 
#    z 0.033350 0.237500 4.025270 
# 
# 
# High freq. dielectric constant tensor:
#      x y z
#    x 1.940490 -0.005590 -0.001540 
#    y -0.005590 1.949920 -0.004280 
#    z -0.001540 -0.004280 1.912530 
# 
# From -- ./inp_files/352101.got.cif
#   From: 2010.06.25/outbox.cif.g09.slc.cpg/sg2_177_cif.got.tgz:352101.got - 2010.06.27 13:26:56.
