data_PCOD8037074
_publ_section_title
;
Structure prediction by ZEFSAII (Michael W. Deem and Ramdas Pophale) SiO2 
 PCOD8037074
Probable space group: P -1
;
_chemical_formula_sum "Si O2"
_cell_formula_units_Z 16
_cell_length_a 7.998384
_cell_length_b 19.446471
_cell_length_c 7.962593
_cell_angle_alpha 141.099589
_cell_angle_beta 118.231923
_cell_angle_gamma 54.093353
_cell_volume 629.613625
_symmetry_space_group_name_H-M "P -1"
_symmetry_group_IT_number 2
_symmetry_cell_setting 'triclinic'
loop_
_space_group_symop_operation_xyz
x,y,z
-x,-y,-z
loop_
_atom_site_type_symbol
_atom_site_label
_atom_site_fract_x
_atom_site_fract_y
_atom_site_fract_z
Si Si1 0.363564 0.628450 0.619634
Si Si2 0.972130 0.302801 0.980800
Si Si3 0.224596 0.953894 0.096324
Si Si4 0.990746 0.633182 0.252366
Si Si5 0.255556 0.831491 0.208649
Si Si6 0.371774 0.457799 0.727563
Si Si7 0.377742 0.146260 0.408171
Si Si8 0.618009 0.769850 0.768055
O O1 0.500000 0.500000 0.500000
O O2 0.128613 0.649208 0.501339
O O3 0.480911 0.633262 0.514912
O O4 0.378944 0.714193 0.935225
O O5 0.814886 0.429143 0.229050
O O6 0.210337 0.266754 0.073088
O O7 0.928658 0.334430 0.823866
O O8 0.915482 0.193346 0.808395
O O9 0.174081 0.938573 0.238336
O O10 0.322660 0.050697 0.304210
O O11 0.388195 0.829862 0.859240
O O12 0.000000 0.000000 0.000000
O O13 0.760688 0.725213 0.340446
O O14 0.000000 0.500000 0.000000
O O15 0.390277 0.868558 0.474330
O O16 0.315664 0.347846 0.554033
O O17 0.500000 0.500000 0.000000
O O18 0.358513 0.135120 0.174533
#
# Coordination Sequence:
#
# PCOD8037074 Si02
#       8
#     2   2   2   2   2   2   2   2
#     4  12  24  41  71 104 153 194 245 299 377 439
#     4  12  26  46  76 110 154 199 246 305 382 445
#     4  12  27  52  80 105 146 198 254 315 375 440
#     4  12  27  46  72 113 152 197 250 310 372 450
#     4  12  26  48  72 109 148 198 245 312 370 444
#     4  12  24  43  72 111 152 199 244 301 373 447
#     4  12  28  48  76 111 149 197 256 304 374 448
#     4  12  27  48  76 110 150 196 252 311 373 446
#
# _framework density 25.412410000000001
#
# number of rings (size 3 to 8) (size 9 to 14) (size 15 to 20)
#    0.000    0.000    3.750    6.375    1.750    0.000 
#    0.000    1.875    0.000    0.000    0.000    0.000 
#    0.000    0.000    0.000    0.000    0.000    0.000 
#
# Total GULP energy -198221.998106 kJ/mol
# GULP energy per Si atom -12388.874882 kJ/mol
# Density = 2.535457 g / cm^3
# Si number density = 25.412410 Si / 1000 Ang^3
#
#
#
# Elastic Constant Matrix: (Units=GPa)
#
#
# Indices 1 2 3 4 5 6 
#
# 1 110.5798 52.5016 21.2142 1.4196 17.0765 4.3665
# 2 52.5016 163.0991 40.0757 -4.0752 15.1791 -1.2090
# 3 21.2142 40.0757 83.5752 -5.6227 17.2458 -8.0194
# 4 1.4196 -4.0752 -5.6227 34.8620 -0.9147 1.1025
# 5 17.0765 15.1791 17.2458 -0.9147 32.5971 -2.0797
# 6 4.3665 -1.2090 -8.0194 1.1025 -2.0797 64.8589
#
#
#
# Elastic Compliance Matrix: (Units=1/GPa)
#
#
# Indices 1 2 3 4 5 6 
#
# 1 0.011367 -0.003132 -0.000677 -0.001017 -0.004232 -0.001026
# 2 -0.003132 0.007902 -0.002851 0.000579 -0.000516 -0.000021
# 3 -0.000677 -0.002851 0.015052 0.001910 -0.006124 0.001625
# 4 -0.001017 0.000579 0.001910 0.029109 0.000058 -0.000178
# 5 -0.004232 -0.000516 -0.006124 0.000058 0.036420 0.000685
# 6 -0.001026 -0.000021 0.001625 -0.000178 0.000685 0.015713
#
#
# Mechanical properties :
#
#
# Convention : Reuss Voigt Hill
#
# Bulk Modulus (GPa) = 47.61449 64.98190 56.29820
# Shear Modulus (GPa) = 36.79615 42.69442 39.74528
#
# Velocity S-wave (km/s) = 3.80933 4.10330 3.95905
# Velocity P-wave (km/s) = 6.17458 6.93368 6.56511
#
# Compressibility (1/GPa) = 0.02100201
#
# Stress axis : x y z
#
# Youngs Moduli (GPa) = 87.97208 126.54695 66.43507
#
# Poissons Ratio (x) = 0.39633 0.04498
# Poissons Ratio (y) = 0.27552 0.18940
# Poissons Ratio (z) = 0.05957 0.36077
#
# Static dielectric constant tensor:
#      x y z
#    x 4.933050 0.339410 0.172280 
#    y 0.339410 4.797900 0.241310 
#    z 0.172280 0.241310 4.462240 
# 
# 
# High freq. dielectric constant tensor:
#      x y z
#    x 2.028270 0.018370 -0.000300 
#    y 0.018370 2.037320 0.012220 
#    z -0.000300 0.012220 2.004280 
# 
# From -- ./inp_files/224270.got.cif
#   From: 2010.06.25/outbox.cif.g09.slc.cpg/sg2_113_cif.got.tgz:224270.got - 2010.06.27 13:26:56.
