data_PCOD8037857
_publ_section_title
;
Structure prediction by ZEFSAII (Michael W. Deem and Ramdas Pophale) SiO2 
 PCOD8037857
Probable space group: P -1
;
_chemical_formula_sum "Si O2"
_cell_formula_units_Z 16
_cell_length_a 14.986904
_cell_length_b 8.849642
_cell_length_c 14.003039
_cell_angle_alpha 66.884268
_cell_angle_beta 66.700439
_cell_angle_gamma 124.786622
_cell_volume 802.564926
_symmetry_space_group_name_H-M "P -1"
_symmetry_group_IT_number 2
_symmetry_cell_setting 'triclinic'
loop_
_space_group_symop_operation_xyz
x,y,z
-x,-y,-z
loop_
_atom_site_type_symbol
_atom_site_label
_atom_site_fract_x
_atom_site_fract_y
_atom_site_fract_z
Si Si1 0.237297 0.681173 0.904089
Si Si2 0.830243 0.150915 0.252252
Si Si3 0.784976 0.347173 0.357099
Si Si4 0.635548 0.378840 0.289786
Si Si5 0.426452 0.370968 0.358480
Si Si6 0.249721 0.757168 0.242981
Si Si7 0.816611 0.181223 0.550872
Si Si8 0.531576 0.881078 0.126616
O O1 0.274989 0.908728 0.776306
O O2 0.320106 0.645444 0.822164
O O3 0.336731 0.828212 0.928074
O O4 0.013493 0.318688 0.097130
O O5 0.918729 0.423075 0.217681
O O6 0.694171 0.823814 0.444547
O O7 0.780107 0.529857 0.277020
O O8 0.827944 0.377729 0.442821
O O9 0.581175 0.976816 0.501986
O O10 0.630484 0.569933 0.232604
O O11 0.463171 0.613573 0.267897
O O12 0.314627 0.134491 0.373285
O O13 0.275515 0.917272 0.282572
O O14 0.344263 0.716543 0.226911
O O15 0.024754 0.403649 0.412690
O O16 0.349417 0.985490 0.052704
#
# Coordination Sequence:
#
# PCOD8037857 Si02
#       8
#     2   2   2   2   2   2   2   2
#     4  10  17  32  55  76 103 135 168 201 242 308
#     4   8  17  31  53  78 101 136 168 194 248 314
#     4   8  13  27  52  75  96 124 162 200 240 298
#     4   8  15  28  51  78  98 128 165 191 241 313
#     4  10  20  34  52  77 106 131 162 212 261 294
#     4  10  22  37  53  72  95 138 184 208 247 301
#     4   9  18  37  57  71  96 133 175 213 246 297
#     4  11  22  34  51  77 105 131 168 218 255 288
#
# _framework density 19.93608
#
# number of rings (size 3 to 8) (size 9 to 14) (size 15 to 20)
#    0.000    3.000    0.000    3.750    0.000    1.500 
#    0.000    2.500    0.000   10.500    0.000    0.000 
#    0.000    0.000    0.000    0.000    0.000    0.000 
#
# Total GULP energy -198221.217245 kJ/mol
# GULP energy per Si atom -12388.826078 kJ/mol
# Density = 1.989070 g / cm^3
# Si number density = 19.936080 Si / 1000 Ang^3
#
#
#
# Elastic Constant Matrix: (Units=GPa)
#
#
# Indices 1 2 3 4 5 6 
#
# 1 108.6623 20.4671 42.2464 3.8572 5.6950 -0.9596
# 2 20.4671 35.9615 24.5388 15.2067 2.2964 9.8110
# 3 42.2464 24.5388 93.3296 26.2578 3.7818 -6.4234
# 4 3.8572 15.2067 26.2578 22.3648 2.3898 7.3631
# 5 5.6950 2.2964 3.7818 2.3898 28.7287 3.1882
# 6 -0.9596 9.8110 -6.4234 7.3631 3.1882 30.5909
#
#
#
# Elastic Compliance Matrix: (Units=1/GPa)
#
#
# Indices 1 2 3 4 5 6 
#
# 1 0.013067 -0.006769 -0.007539 0.011954 -0.001864 -0.001685
# 2 -0.006769 0.046557 -0.003422 -0.023169 0.001153 -0.010406
# 3 -0.007539 -0.003422 0.024026 -0.028775 -0.000430 0.012877
# 4 0.011954 -0.023169 -0.028775 0.099696 -0.002585 -0.021964
# 5 -0.001864 0.001153 -0.000430 -0.002585 0.035760 -0.003623
# 6 -0.001685 -0.010406 0.012877 -0.021964 -0.003623 0.044342
#
#
# Mechanical properties :
#
#
# Convention : Reuss Voigt Hill
#
# Bulk Modulus (GPa) = 20.75036 45.82866 33.28951
# Shear Modulus (GPa) = 15.87441 26.38361 21.12901
#
# Velocity S-wave (km/s) = 2.82488 3.64182 3.25905
# Velocity P-wave (km/s) = 4.59031 6.38134 5.55844
#
# Compressibility (1/GPa) = 0.04819192
#
# Stress axis : x y z
#
# Youngs Moduli (GPa) = 76.52682 21.47895 41.62079
#
# Poissons Ratio (x) = 0.14539 0.31378
# Poissons Ratio (y) = 0.51800 0.14241
# Poissons Ratio (z) = 0.57693 0.07349
#
# Static dielectric constant tensor:
#      x y z
#    x 4.085430 0.174810 -0.132070 
#    y 0.174810 3.187510 0.397690 
#    z -0.132070 0.397690 3.575790 
# 
# 
# High freq. dielectric constant tensor:
#      x y z
#    x 1.790560 0.017690 -0.015230 
#    y 0.017690 1.735140 0.039630 
#    z -0.015230 0.039630 1.771950 
# 
# From -- ./inp_files/527416.got.cif
#   From: 2010.06.25/outbox.cif.g09.slc.cpg/sg2_264_cif.got.tgz:527416.got - 2010.06.27 13:26:56.
