data_PCOD8037047
_publ_section_title
;
Structure prediction by ZEFSAII (Michael W. Deem and Ramdas Pophale) SiO2 
 PCOD8037047
Probable space group: P -1
;
_chemical_formula_sum "Si O2"
_cell_formula_units_Z 16
_cell_length_a 13.417735
_cell_length_b 6.644064
_cell_length_c 8.590265
_cell_angle_alpha 106.603931
_cell_angle_beta 76.740428
_cell_angle_gamma 83.607818
_cell_volume 701.350933
_symmetry_space_group_name_H-M "P -1"
_symmetry_group_IT_number 2
_symmetry_cell_setting 'triclinic'
loop_
_space_group_symop_operation_xyz
x,y,z
-x,-y,-z
loop_
_atom_site_type_symbol
_atom_site_label
_atom_site_fract_x
_atom_site_fract_y
_atom_site_fract_z
Si Si1 0.049594 0.050521 0.333901
Si Si2 0.571315 0.771982 0.899804
Si Si3 0.750830 0.803387 0.602607
Si Si4 0.134739 0.658439 0.658595
Si Si5 0.428645 0.612508 0.685865
Si Si6 0.294007 0.385022 0.896145
Si Si7 0.913617 0.355269 0.977422
Si Si8 0.715594 0.026386 0.355144
O O1 0.168934 0.069122 0.315935
O O2 0.984032 0.276609 0.345830
O O3 0.038550 0.862818 0.174843
O O4 0.000000 0.000000 0.500000
O O5 0.668515 0.777014 0.755832
O O6 0.498539 0.626955 0.815029
O O7 0.612811 0.669290 0.025881
O O8 0.500000 0.000000 0.000000
O O9 0.813689 0.577320 0.467648
O O10 0.687937 0.943746 0.517210
O O11 0.196099 0.836647 0.612185
O O12 0.133005 0.684286 0.848545
O O13 0.500000 0.500000 0.500000
O O14 0.338037 0.489508 0.749119
O O15 0.381202 0.838671 0.673781
O O16 0.247808 0.179889 0.811547
O O17 0.192748 0.529758 0.047246
O O18 0.000000 0.500000 0.000000
#
# Coordination Sequence:
#
# PCOD8037047 Si02
#       8
#     2   2   2   2   2   2   2   2
#     4  12  27  46  76 110 152 191 241 310 371 445
#     4  12  29  48  73 110 151 197 248 311 373 431
#     4  12  28  48  76 111 150 198 248 309 374 444
#     4  12  25  50  74 110 149 196 248 300 377 451
#     4  12  27  49  77 106 143 199 250 309 373 433
#     4  12  27  48  77 109 150 193 252 308 367 451
#     4  12  27  47  77 110 148 198 245 301 376 449
#     4  12  23  48  77 105 148 190 252 302 370 438
#
# _framework density 22.813116999999998
#
# number of rings (size 3 to 8) (size 9 to 14) (size 15 to 20)
#    0.000    0.000    5.000    4.125    8.750    2.000 
#    0.000    0.000    0.000    0.000    0.000    0.000 
#    0.000    0.000    0.000    0.000    0.000    0.000 
#
# Total GULP energy -198394.619875 kJ/mol
# GULP energy per Si atom -12399.663742 kJ/mol
# Density = 2.276119 g / cm^3
# Si number density = 22.813117 Si / 1000 Ang^3
#
#
#
# Elastic Constant Matrix: (Units=GPa)
#
#
# Indices 1 2 3 4 5 6 
#
# 1 114.9682 40.9722 22.3441 1.6290 4.2263 -8.1249
# 2 40.9722 118.9929 48.6485 4.9660 -1.5648 -8.7487
# 3 22.3441 48.6485 122.5944 11.6940 -6.8528 -3.8669
# 4 1.6290 4.9660 11.6940 32.5538 1.4455 4.8923
# 5 4.2263 -1.5648 -6.8528 1.4455 42.4422 2.6782
# 6 -8.1249 -8.7487 -3.8669 4.8923 2.6782 49.6829
#
#
#
# Elastic Compliance Matrix: (Units=1/GPa)
#
#
# Indices 1 2 3 4 5 6 
#
# 1 0.010067 -0.003148 -0.000632 0.000095 -0.001293 0.001103
# 2 -0.003148 0.011131 -0.003768 -0.000367 0.000053 0.001185
# 3 -0.000632 -0.003768 0.010169 -0.003157 0.001658 0.000246
# 4 0.000095 -0.000367 -0.003157 0.032480 -0.001423 -0.003416
# 5 -0.001293 0.000053 0.001658 -0.001423 0.024086 -0.001231
# 6 0.001103 0.001185 0.000246 -0.003416 -0.001231 0.020939
#
#
# Mechanical properties :
#
#
# Convention : Reuss Voigt Hill
#
# Bulk Modulus (GPa) = 61.45817 64.49834 62.97826
# Shear Modulus (GPa) = 38.64212 41.24183 39.94197
#
# Velocity S-wave (km/s) = 4.12011 4.25645 4.18884
# Velocity P-wave (km/s) = 7.04500 7.24502 7.14571
#
# Compressibility (1/GPa) = 0.01627123
#
# Stress axis : x y z
#
# Youngs Moduli (GPa) = 99.33591 89.83591 98.33711
#
# Poissons Ratio (x) = 0.28277 0.06218
# Poissons Ratio (y) = 0.31267 0.37055
# Poissons Ratio (z) = 0.06281 0.33851
#
# Static dielectric constant tensor:
#      x y z
#    x 4.740500 -0.262690 0.205580 
#    y -0.262690 4.454760 0.022410 
#    z 0.205580 0.022410 4.118140 
# 
# 
# High freq. dielectric constant tensor:
#      x y z
#    x 1.918960 -0.009280 0.005990 
#    y -0.009280 1.910300 -0.000960 
#    z 0.005990 -0.000960 1.903270 
# 
# From -- ./inp_files/39185.got.cif
#   From: 2010.06.25/outbox.cif.g09.slc.cpg/sg2_20_cif.got.tgz:39185.got - 2010.06.27 13:26:56.
