data_PCOD8037880
_publ_section_title
;
Structure prediction by ZEFSAII (Michael W. Deem and Ramdas Pophale) SiO2 
 PCOD8037880
Probable space group: P -1
;
_chemical_formula_sum "Si O2"
_cell_formula_units_Z 16
_cell_length_a 9.223042
_cell_length_b 14.253865
_cell_length_c 16.222074
_cell_angle_alpha 44.310243
_cell_angle_beta 144.508549
_cell_angle_gamma 110.275318
_cell_volume 703.258810
_symmetry_space_group_name_H-M "P -1"
_symmetry_group_IT_number 2
_symmetry_cell_setting 'triclinic'
loop_
_space_group_symop_operation_xyz
x,y,z
-x,-y,-z
loop_
_atom_site_type_symbol
_atom_site_label
_atom_site_fract_x
_atom_site_fract_y
_atom_site_fract_z
Si Si1 0.702176 0.512492 0.464589
Si Si2 0.471615 0.999496 0.085097
Si Si3 0.623563 0.705659 0.726265
Si Si4 0.233460 0.630365 0.041433
Si Si5 0.334825 0.284586 0.538663
Si Si6 0.614612 0.689256 0.077956
Si Si7 0.313983 0.430138 0.985026
Si Si8 0.784768 0.176327 0.681209
O O1 0.439016 0.644715 0.195645
O O2 0.595393 0.602417 0.447227
O O3 0.707896 0.351487 0.563144
O O4 0.048409 0.455752 0.637514
O O5 0.718216 0.820233 0.353325
O O6 0.500000 0.000000 0.000000
O O7 0.519991 0.131279 0.061728
O O8 0.145395 0.038128 0.935797
O O9 0.733293 0.540210 0.830698
O O10 0.320600 0.838743 0.450006
O O11 0.553106 0.685081 0.800323
O O12 0.863537 0.757456 0.801784
O O13 0.362543 0.650693 0.002809
O O14 0.604246 0.151898 0.684469
O O15 0.036118 0.409617 0.265936
O O16 0.659578 0.688225 0.001215
O O17 0.500000 0.500000 0.000000
#
# Coordination Sequence:
#
# PCOD8037880 Si02
#       8
#     2   2   2   2   2   2   2   2
#     4   9  19  33  62  96 120 152 209 265 310 353
#     4  11  25  42  63  90 127 168 209 254 309 367
#     4  10  21  35  60  90 121 159 199 250 312 361
#     4  10  17  32  56  88 123 154 200 252 304 362
#     4  11  22  39  64  94 123 165 205 256 317 361
#     4  10  21  37  60  91 123 163 208 255 305 364
#     4  11  22  38  66  95 124 157 205 258 308 370
#     4  10  22  40  65  90 127 161 210 256 309 371
#
# _framework density 22.751227
#
# number of rings (size 3 to 8) (size 9 to 14) (size 15 to 20)
#    0.000    1.750    1.250    4.125    1.750    4.000 
#    0.000    1.875    0.000    3.750    0.000    0.000 
#    0.000    0.000    0.000    0.000    0.000    0.000 
#
# Total GULP energy -198243.155705 kJ/mol
# GULP energy per Si atom -12390.197232 kJ/mol
# Density = 2.269944 g / cm^3
# Si number density = 22.751227 Si / 1000 Ang^3
#
#
#
# Elastic Constant Matrix: (Units=GPa)
#
#
# Indices 1 2 3 4 5 6 
#
# 1 125.8900 30.9242 28.3706 16.7261 -3.3671 -4.6122
# 2 30.9242 75.5375 31.9631 15.1086 3.5630 -8.3688
# 3 28.3706 31.9631 55.8245 14.7247 -10.5639 -1.2870
# 4 16.7261 15.1086 14.7247 29.8845 1.4415 2.9172
# 5 -3.3671 3.5630 -10.5639 1.4415 34.2957 8.4272
# 6 -4.6122 -8.3688 -1.2870 2.9172 8.4272 35.7830
#
#
#
# Elastic Compliance Matrix: (Units=1/GPa)
#
#
# Indices 1 2 3 4 5 6 
#
# 1 0.009511 -0.002006 -0.002839 -0.003003 0.000184 0.000856
# 2 -0.002006 0.020459 -0.010771 -0.004175 -0.006969 0.006121
# 3 -0.002839 -0.010771 0.029593 -0.007714 0.011222 -0.003835
# 4 -0.003003 -0.004175 -0.007714 0.041619 -0.002918 -0.004347
# 5 0.000184 -0.006969 0.011222 -0.002918 0.035788 -0.009393
# 6 0.000856 0.006121 -0.003835 -0.004347 -0.009393 0.031917
#
#
# Mechanical properties :
#
#
# Convention : Reuss Voigt Hill
#
# Bulk Modulus (GPa) = 35.29569 48.86306 42.07937
# Shear Modulus (GPa) = 23.85924 31.05892 27.45908
#
# Velocity S-wave (km/s) = 3.24188 3.69881 3.47786
# Velocity P-wave (km/s) = 5.43695 6.30597 5.88752
#
# Compressibility (1/GPa) = 0.02833207
#
# Stress axis : x y z
#
# Youngs Moduli (GPa) = 105.13996 48.87774 33.79176
#
# Poissons Ratio (x) = 0.09804 0.09592
# Poissons Ratio (y) = 0.21088 0.36398
# Poissons Ratio (z) = 0.29846 0.52647
#
# Static dielectric constant tensor:
#      x y z
#    x 4.055390 -0.096630 0.115830 
#    y -0.096630 4.028740 0.497430 
#    z 0.115830 0.497430 4.133200 
# 
# 
# High freq. dielectric constant tensor:
#      x y z
#    x 1.900670 -0.007120 0.001260 
#    y -0.007120 1.884610 0.031940 
#    z 0.001260 0.031940 1.876700 
# 
# From -- ./inp_files/505394.got.cif
#   From: 2010.06.25/outbox.cif.g09.slc.cpg/sg2_253_cif.got.tgz:505394.got - 2010.06.27 13:26:56.
