data_PCOD8037233
_publ_section_title
;
Structure prediction by ZEFSAII (Michael W. Deem and Ramdas Pophale) SiO2 
 PCOD8037233
Probable space group: P -1
;
_chemical_formula_sum "Si O2"
_cell_formula_units_Z 14
_cell_length_a 9.534366
_cell_length_b 11.800508
_cell_length_c 15.039726
_cell_angle_alpha 152.508389
_cell_angle_beta 55.094098
_cell_angle_gamma 123.736627
_cell_volume 635.469313
_symmetry_space_group_name_H-M "P -1"
_symmetry_group_IT_number 2
_symmetry_cell_setting 'triclinic'
loop_
_space_group_symop_operation_xyz
x,y,z
-x,-y,-z
loop_
_atom_site_type_symbol
_atom_site_label
_atom_site_fract_x
_atom_site_fract_y
_atom_site_fract_z
Si Si1 0.799159 0.481062 0.066182
Si Si2 0.552384 0.178974 0.345449
Si Si3 0.351761 0.019345 0.139716
Si Si4 0.698414 0.464966 0.895523
Si Si5 0.370339 0.035073 0.492776
Si Si6 0.185284 0.402525 0.372421
Si Si7 0.820711 0.833573 0.967935
O O1 0.742128 0.743198 0.298232
O O2 0.717989 0.263792 0.009021
O O3 0.743931 0.407366 0.937451
O O4 0.000000 0.500000 0.000000
O O5 0.466184 0.060171 0.381800
O O6 0.667036 0.428798 0.509490
O O7 0.414915 0.191567 0.323413
O O8 0.675338 0.007331 0.135897
O O9 0.189836 0.139021 0.237434
O O10 0.500000 0.000000 0.000000
O O11 0.814967 0.702102 0.975070
O O12 0.743595 0.232143 0.658159
O O13 0.500000 0.500000 0.000000
O O14 0.500000 0.000000 0.500000
O O15 0.233666 0.373537 0.231498
O O16 0.000000 0.500000 0.500000
O O17 0.000000 0.000000 0.000000
#
# Coordination Sequence:
#
# PCOD8037233 Si02
#       7
#     2   2   2   2   2   2   2
#     4  12  29  49  71 113 154 192 244 316 381 429
#     4  12  24  46  74 109 144 196 256 296 368 449
#     4  12  26  49  77 104 153 197 247 310 371 444
#     4  12  24  47  75 107 148 194 250 301 366 454
#     4  12  24  45  82 105 143 202 254 294 367 455
#     4  12  27  45  73 111 148 193 249 308 380 436
#     4  12  25  45  73 112 151 188 242 315 370 431
#
# _framework density 22.030961000000001
#
# number of rings (size 3 to 8) (size 9 to 14) (size 15 to 20)
#    0.000    0.000    7.143    2.143    2.000    2.857 
#    2.571    0.000    0.000    0.000    0.000    0.000 
#    0.000    0.000    0.000    0.000    0.000    0.000 
#
# Total GULP energy -173461.914469 kJ/mol
# GULP energy per Si atom -12390.136748 kJ/mol
# Density = 2.198082 g / cm^3
# Si number density = 22.030961 Si / 1000 Ang^3
#
#
#
# Elastic Constant Matrix: (Units=GPa)
#
#
# Indices 1 2 3 4 5 6 
#
# 1 129.7003 54.6652 51.9327 -4.5330 -19.3299 -8.6854
# 2 54.6652 152.2374 39.4686 3.9003 -9.2391 -4.8552
# 3 51.9327 39.4686 146.7136 0.7271 -7.8037 1.5084
# 4 -4.5330 3.9003 0.7271 41.3644 -6.2374 3.5716
# 5 -19.3299 -9.2391 -7.8037 -6.2374 43.3735 1.1039
# 6 -8.6854 -4.8552 1.5084 3.5716 1.1039 39.0587
#
#
#
# Elastic Compliance Matrix: (Units=1/GPa)
#
#
# Indices 1 2 3 4 5 6 
#
# 1 0.010871 -0.002907 -0.002886 0.001948 0.003939 0.001878
# 2 -0.002907 0.007944 -0.001106 -0.001085 0.000029 0.000482
# 3 -0.002886 -0.001106 0.008144 -0.000273 -0.000069 -0.001067
# 4 0.001948 -0.001085 -0.000273 0.025326 0.004284 -0.002128
# 5 0.003939 0.000029 -0.000069 0.004284 0.025427 -0.000228
# 6 0.001878 0.000482 -0.001067 -0.002128 -0.000228 0.026322
#
#
# Mechanical properties :
#
#
# Convention : Reuss Voigt Hill
#
# Bulk Modulus (GPa) = 75.97486 80.08712 78.03099
# Shear Modulus (GPa) = 40.91023 43.59830 42.25426
#
# Velocity S-wave (km/s) = 4.31390 4.45337 4.38419
# Velocity P-wave (km/s) = 7.70541 7.92934 7.81817
#
# Compressibility (1/GPa) = 0.01316225
#
# Stress axis : x y z
#
# Youngs Moduli (GPa) = 91.98380 125.87875 122.79329
#
# Poissons Ratio (x) = 0.36587 0.35435
# Poissons Ratio (y) = 0.26735 0.13585
# Poissons Ratio (z) = 0.26544 0.13926
#
# Static dielectric constant tensor:
#      x y z
#    x 3.857190 -0.191010 0.093930 
#    y -0.191010 4.093250 0.045800 
#    z 0.093930 0.045800 4.406160 
# 
# 
# High freq. dielectric constant tensor:
#      x y z
#    x 1.868910 -0.018710 0.006160 
#    y -0.018710 1.872610 0.001340 
#    z 0.006160 0.001340 1.887620 
# 
# From -- ./inp_files/494126.got.cif
#   From: 2010.06.25/outbox.cif.g09.slc.cpg/sg2_248_cif.got.tgz:494126.got - 2010.06.27 13:26:56.
