data_PCOD8037971
_publ_section_title
;
Structure prediction by ZEFSAII (Michael W. Deem and Ramdas Pophale) SiO2 
 PCOD8037971
Probable space group: P -1
;
_chemical_formula_sum "Si O2"
_cell_formula_units_Z 16
_cell_length_a 24.850108
_cell_length_b 16.291965
_cell_length_c 10.720758
_cell_angle_alpha 23.354810
_cell_angle_beta 141.045388
_cell_angle_gamma 150.873547
_cell_volume 830.811306
_symmetry_space_group_name_H-M "P -1"
_symmetry_group_IT_number 2
_symmetry_cell_setting 'triclinic'
loop_
_space_group_symop_operation_xyz
x,y,z
-x,-y,-z
loop_
_atom_site_type_symbol
_atom_site_label
_atom_site_fract_x
_atom_site_fract_y
_atom_site_fract_z
Si Si1 0.376562 0.953992 0.265366
Si Si2 0.611525 0.779761 0.855955
Si Si3 0.914802 0.275090 0.416599
Si Si4 0.965456 0.792368 0.834564
Si Si5 0.145937 0.439673 0.573655
Si Si6 0.851076 0.980414 0.963487
Si Si7 0.816338 0.743980 0.849177
Si Si8 0.404052 0.788640 0.789416
O O1 0.393257 0.191776 0.042647
O O2 0.466958 0.084438 0.132661
O O3 0.249208 0.736631 0.293706
O O4 0.393254 0.779169 0.631066
O O5 0.719242 0.808896 0.981745
O O6 0.619889 0.017458 0.469973
O O7 0.500000 0.500000 0.000000
O O8 0.895574 0.201817 0.629367
O O9 0.039864 0.420109 0.398673
O O10 0.833170 0.007572 0.556890
O O11 0.896705 0.494432 0.063771
O O12 0.891583 0.804719 0.782566
O O13 0.076933 0.868061 0.993638
O O14 0.000000 0.000000 0.500000
O O15 0.157254 0.378119 0.822423
O O16 0.126545 0.220153 0.753149
O O17 0.685892 0.513163 0.897501
#
# Coordination Sequence:
#
# PCOD8037971 Si02
#       8
#     2   2   2   2   2   2   2   2
#     4   8  16  27  43  75 116 141 167 220 284 327
#     4  10  18  26  47  82 117 140 173 226 288 326
#     4  11  21  34  61  80 108 145 184 233 289 324
#     4  12  25  38  53  81 116 152 189 225 276 340
#     4  10  17  33  55  81 113 142 182 231 285 324
#     4  11  20  34  55  84 114 141 186 233 279 331
#     4  10  19  36  52  82 110 145 183 232 274 336
#     4   8  16  29  45  71 116 137 173 217 273 328
#
# _framework density 19.258284
#
# number of rings (size 3 to 8) (size 9 to 14) (size 15 to 20)
#    0.750    1.250    2.500    3.375    3.500    0.500 
#    0.000    0.000    0.000    0.000    0.000   11.375 
#    0.000    0.000    0.000    0.000    0.000    0.000 
#
# Total GULP energy -198245.369920 kJ/mol
# GULP energy per Si atom -12390.335620 kJ/mol
# Density = 1.921445 g / cm^3
# Si number density = 19.258284 Si / 1000 Ang^3
#
#
#
# Elastic Constant Matrix: (Units=GPa)
#
#
# Indices 1 2 3 4 5 6 
#
# 1 92.7665 29.9686 45.7755 -6.0752 -1.3164 11.9569
# 2 29.9686 61.3618 43.5460 -29.4387 -16.2049 17.7034
# 3 45.7755 43.5460 99.1329 -30.1877 7.4207 -7.5771
# 4 -6.0752 -29.4387 -30.1877 27.2210 2.6791 2.0331
# 5 -1.3164 -16.2049 7.4207 2.6791 20.5460 -13.6820
# 6 11.9569 17.7034 -7.5771 2.0331 -13.6820 27.9002
#
#
#
# Elastic Compliance Matrix: (Units=1/GPa)
#
#
# Indices 1 2 3 4 5 6 
#
# 1 0.017718 -0.009565 -0.008614 -0.015100 -0.004705 -0.005070
# 2 -0.009565 0.107253 -0.023621 0.087374 0.044571 -0.054881
# 3 -0.008614 -0.023621 0.028640 0.004908 -0.018986 0.016789
# 4 -0.015100 0.087374 0.004908 0.135553 0.015142 -0.050089
# 5 -0.004705 0.044571 -0.018986 0.015142 0.099115 0.016080
# 6 -0.005070 -0.054881 0.016789 -0.050089 0.016080 0.088933
#
#
# Mechanical properties :
#
#
# Convention : Reuss Voigt Hill
#
# Bulk Modulus (GPa) = 14.28307 54.64904 34.46606
# Shear Modulus (GPa) = 8.55949 24.06483 16.31216
#
# Velocity S-wave (km/s) = 2.11050 3.53878 2.91352
# Velocity P-wave (km/s) = 3.65673 6.71832 5.40867
#
# Compressibility (1/GPa) = 0.07001295
#
# Stress axis : x y z
#
# Youngs Moduli (GPa) = 56.44022 9.32375 34.91647
#
# Poissons Ratio (x) = 0.08918 0.30075
# Poissons Ratio (y) = 0.53984 0.82475
# Poissons Ratio (z) = 0.48615 0.22023
#
# Static dielectric constant tensor:
#      x y z
#    x 3.603740 0.220110 0.176800 
#    y 0.220110 3.493050 -0.475120 
#    z 0.176800 -0.475120 3.200560 
# 
# 
# High freq. dielectric constant tensor:
#      x y z
#    x 1.750820 0.024660 0.022260 
#    y 0.024660 1.727310 -0.050690 
#    z 0.022260 -0.050690 1.708390 
# 
# From -- ./inp_files/476993.got.cif
#   From: 2010.06.25/outbox.cif.g09.slc.cpg/sg2_239_cif.got.tgz:476993.got - 2010.06.27 13:26:56.
