data_PCOD8037270
_publ_section_title
;
Structure prediction by ZEFSAII (Michael W. Deem and Ramdas Pophale) SiO2 
 PCOD8037270
Probable space group: P -1
;
_chemical_formula_sum "Si O2"
_cell_formula_units_Z 16
_cell_length_a 17.932132
_cell_length_b 7.999100
_cell_length_c 20.960042
_cell_angle_alpha 137.236574
_cell_angle_beta 160.812410
_cell_angle_gamma 44.075987
_cell_volume 666.677688
_symmetry_space_group_name_H-M "P -1"
_symmetry_group_IT_number 2
_symmetry_cell_setting 'triclinic'
loop_
_space_group_symop_operation_xyz
x,y,z
-x,-y,-z
loop_
_atom_site_type_symbol
_atom_site_label
_atom_site_fract_x
_atom_site_fract_y
_atom_site_fract_z
Si Si1 0.433600 0.318196 0.821311
Si Si2 0.236672 0.421482 0.136996
Si Si3 0.935983 0.673315 0.167087
Si Si4 0.930893 0.329317 0.189276
Si Si5 0.389167 0.906878 0.583011
Si Si6 0.312310 0.854210 0.841256
Si Si7 0.961492 0.743562 0.427710
Si Si8 0.348182 0.919691 0.409406
O O1 0.427965 0.616180 0.905143
O O2 0.302199 0.240700 0.757050
O O3 0.309568 0.181420 0.624809
O O4 0.703785 0.235945 0.009431
O O5 0.384200 0.179482 0.216729
O O6 0.375868 0.638532 0.331624
O O7 0.194805 0.405966 0.023215
O O8 0.000000 0.500000 0.000000
O O9 0.898931 0.469154 0.134050
O O10 0.201926 0.709290 0.381071
O O11 0.827935 0.950184 0.172431
O O12 0.028078 0.524240 0.369942
O O13 0.098066 0.074582 0.248269
O O14 0.454682 0.938780 0.571158
O O15 0.145655 0.710122 0.622718
O O16 0.500000 0.000000 0.000000
O O17 0.000000 0.000000 0.500000
O O18 0.500000 0.000000 0.500000
#
# Coordination Sequence:
#
# PCOD8037270 Si02
#       8
#     2   2   2   2   2   2   2   2
#     4  12  26  45  77 112 161 202 252 321 382 478
#     4  12  28  50  79 107 146 203 261 327 392 455
#     4  12  27  50  77 109 157 204 260 319 386 472
#     4  12  27  48  73 121 153 204 264 318 395 466
#     4  12  27  52  76 113 150 202 261 320 393 467
#     4  12  25  47  71 114 156 205 253 309 389 467
#     4  12  24  46  75 113 158 208 250 313 392 466
#     4  12  29  49  79 110 153 201 260 334 392 459
#
# _framework density 23.999604000000001
#
# number of rings (size 3 to 8) (size 9 to 14) (size 15 to 20)
#    0.000    0.000    5.000    3.375    5.250    4.500 
#    0.000    0.000    0.000    0.000    0.000    0.000 
#    0.000    0.000    0.000    0.000    0.000    0.000 
#
# Total GULP energy -198227.056182 kJ/mol
# GULP energy per Si atom -12389.191011 kJ/mol
# Density = 2.394498 g / cm^3
# Si number density = 23.999604 Si / 1000 Ang^3
#
#
#
# Elastic Constant Matrix: (Units=GPa)
#
#
# Indices 1 2 3 4 5 6 
#
# 1 154.9809 36.7934 51.0527 -2.5351 -4.1070 -1.5522
# 2 36.7934 116.9456 28.9441 3.3352 -11.8018 -1.1096
# 3 51.0527 28.9441 92.0057 -6.6218 -3.5759 -2.7498
# 4 -2.5351 3.3352 -6.6218 44.5923 -10.0213 4.3130
# 5 -4.1070 -11.8018 -3.5759 -10.0213 61.6386 16.9236
# 6 -1.5522 -1.1096 -2.7498 4.3130 16.9236 29.4564
#
#
#
# Elastic Compliance Matrix: (Units=1/GPa)
#
#
# Indices 1 2 3 4 5 6 
#
# 1 0.008152 -0.001566 -0.004032 -0.000015 0.000010 -0.000009
# 2 -0.001566 0.009780 -0.002213 -0.000673 0.001759 -0.000833
# 3 -0.004032 -0.002213 0.013976 0.002027 0.000300 0.000540
# 4 -0.000015 -0.000673 0.002027 0.024763 0.005894 -0.006849
# 5 0.000010 0.001759 0.000300 0.005894 0.021072 -0.012875
# 6 -0.000009 -0.000833 0.000540 -0.006849 -0.012875 0.042367
#
#
# Mechanical properties :
#
#
# Convention : Reuss Voigt Hill
#
# Bulk Modulus (GPa) = 61.39806 66.39029 63.89418
# Shear Modulus (GPa) = 35.42087 43.61359 39.51723
#
# Velocity S-wave (km/s) = 3.84590 4.26756 4.06221
# Velocity P-wave (km/s) = 6.73497 7.21151 6.97731
#
# Compressibility (1/GPa) = 0.01628716
#
# Stress axis : x y z
#
# Youngs Moduli (GPa) = 122.66620 102.24862 71.55103
#
# Poissons Ratio (x) = 0.16008 0.28849
# Poissons Ratio (y) = 0.19205 0.15834
# Poissons Ratio (z) = 0.49459 0.22627
#
# Static dielectric constant tensor:
#      x y z
#    x 4.024980 0.148350 -0.742430 
#    y 0.148350 4.179190 0.778740 
#    z -0.742430 0.778740 2.637050 
# 
# 
# High freq. dielectric constant tensor:
#      x y z
#    x 1.958150 -0.007960 -0.000230 
#    y -0.007960 1.968500 0.015430 
#    z -0.000230 0.015430 1.965560 
# 
# From -- ./inp_files/599791.got.cif
#   From: 2010.06.25/outbox.cif.g09.slc.cpg/sg2_300_cif.got.tgz:599791.got - 2010.06.27 13:26:56.
