data_PCOD8037008
_publ_section_title
;
Structure prediction by ZEFSAII (Michael W. Deem and Ramdas Pophale) SiO2 
 PCOD8037008
Probable space group: P -1
;
_chemical_formula_sum "Si O2"
_cell_formula_units_Z 14
_cell_length_a 14.913107
_cell_length_b 11.168099
_cell_length_c 11.273574
_cell_angle_alpha 50.185680
_cell_angle_beta 41.521274
_cell_angle_gamma 27.215602
_cell_volume 567.219248
_symmetry_space_group_name_H-M "P -1"
_symmetry_group_IT_number 2
_symmetry_cell_setting 'triclinic'
loop_
_space_group_symop_operation_xyz
x,y,z
-x,-y,-z
loop_
_atom_site_type_symbol
_atom_site_label
_atom_site_fract_x
_atom_site_fract_y
_atom_site_fract_z
Si Si1 0.589941 0.752368 0.792188
Si Si2 0.898335 0.765768 0.914670
Si Si3 0.004197 0.823676 0.556930
Si Si4 0.692776 0.990123 0.576466
Si Si5 0.343452 0.510120 0.708540
Si Si6 0.245172 0.690755 0.956696
Si Si7 0.482430 0.279398 0.364004
O O1 0.730132 0.770324 0.691313
O O2 0.577075 0.785858 0.640606
O O3 0.736847 0.465927 0.867158
O O4 0.328562 0.994953 0.938634
O O5 0.848175 0.849411 0.773115
O O6 0.081529 0.733397 0.785282
O O7 0.000000 0.500000 0.000000
O O8 0.260712 0.526714 0.501989
O O9 0.905889 0.895538 0.474708
O O10 0.000000 0.000000 0.500000
O O11 0.470515 0.232797 0.722762
O O12 0.665897 0.053449 0.423040
O O13 0.500000 0.500000 0.500000
O O14 0.332964 0.544328 0.837167
O O15 0.423446 0.657752 0.839739
O O16 0.000000 0.000000 0.000000
#
# Coordination Sequence:
#
# PCOD8037008 Si02
#       7
#     2   2   2   2   2   2   2
#     4  12  28  48  74 115 160 196 258 326 390 456
#     4  12  24  46  75 113 155 193 252 330 387 448
#     4  12  27  46  79 110 151 203 263 312 383 471
#     4  12  26  48  80 113 151 202 261 317 387 463
#     4  12  23  46  79 108 151 204 257 313 383 468
#     4  12  28  48  77 109 153 203 256 319 389 456
#     4  12  26  52  73 109 156 206 255 313 388 470
#
# _framework density 24.681812999999998
#
# number of rings (size 3 to 8) (size 9 to 14) (size 15 to 20)
#    0.000    0.000    4.286    5.143    4.000    1.714 
#    2.571    0.000    0.000    0.000    0.000    0.000 
#    0.000    0.000    0.000    0.000    0.000    0.000 
#
# Total GULP energy -173549.287049 kJ/mol
# GULP energy per Si atom -12396.377646 kJ/mol
# Density = 2.462564 g / cm^3
# Si number density = 24.681813 Si / 1000 Ang^3
#
#
#
# Elastic Constant Matrix: (Units=GPa)
#
#
# Indices 1 2 3 4 5 6 
#
# 1 149.3293 37.5931 48.5864 -17.4224 -10.5367 -3.2104
# 2 37.5931 127.9265 45.8325 -14.3891 -2.3044 0.2587
# 3 48.5864 45.8325 100.6584 -14.8879 -0.7945 7.0752
# 4 -17.4224 -14.3891 -14.8879 39.5373 -2.5021 0.4909
# 5 -10.5367 -2.3044 -0.7945 -2.5021 48.0958 0.3102
# 6 -3.2104 0.2587 7.0752 0.4909 0.3102 40.4753
#
#
#
# Elastic Compliance Matrix: (Units=1/GPa)
#
#
# Indices 1 2 3 4 5 6 
#
# 1 0.008460 -0.000999 -0.003375 0.002196 0.001856 0.001227
# 2 -0.000999 0.009623 -0.003682 0.001687 0.000266 0.000480
# 3 -0.003375 -0.003682 0.013773 0.002357 -0.000548 -0.002676
# 4 0.002196 0.001687 0.002357 0.027899 0.002056 -0.000603
# 5 0.001856 0.000266 -0.000548 0.002056 0.021309 0.000053
# 6 0.001227 0.000480 -0.002676 -0.000603 0.000053 0.025275
#
#
# Mechanical properties :
#
#
# Convention : Reuss Voigt Hill
#
# Bulk Modulus (GPa) = 63.51806 71.32645 67.42226
# Shear Modulus (GPa) = 39.15464 42.01517 40.58490
#
# Velocity S-wave (km/s) = 3.98725 4.13034 4.05943
# Velocity P-wave (km/s) = 6.85480 7.19078 7.02480
#
# Compressibility (1/GPa) = 0.01574355
#
# Stress axis : x y z
#
# Youngs Moduli (GPa) = 118.20602 103.91668 72.60725
#
# Poissons Ratio (x) = 0.10379 0.24508
# Poissons Ratio (y) = 0.11806 0.26732
# Poissons Ratio (z) = 0.39900 0.38260
#
# Static dielectric constant tensor:
#      x y z
#    x 4.870110 0.082380 -0.006130 
#    y 0.082380 4.479600 0.003470 
#    z -0.006130 0.003470 4.494910 
# 
# 
# High freq. dielectric constant tensor:
#      x y z
#    x 1.998960 0.002830 0.001840 
#    y 0.002830 1.981950 0.000520 
#    z 0.001840 0.000520 1.982070 
# 
# From -- ./inp_files/451062.got.cif
#   From: 2010.06.25/outbox.cif.g09.slc.cpg/sg2_226_cif.got.tgz:451062.got - 2010.06.27 13:26:56.
