data_PCOD8037961
_publ_section_title
;
Structure prediction by ZEFSAII (Michael W. Deem and Ramdas Pophale) SiO2 
 PCOD8037961
Probable space group: P -1
;
_chemical_formula_sum "Si O2"
_cell_formula_units_Z 16
_cell_length_a 11.948553
_cell_length_b 18.850549
_cell_length_c 12.194671
_cell_angle_alpha 151.398383
_cell_angle_beta 39.492369
_cell_angle_gamma 133.686604
_cell_volume 835.451365
_symmetry_space_group_name_H-M "P -1"
_symmetry_group_IT_number 2
_symmetry_cell_setting 'triclinic'
loop_
_space_group_symop_operation_xyz
x,y,z
-x,-y,-z
loop_
_atom_site_type_symbol
_atom_site_label
_atom_site_fract_x
_atom_site_fract_y
_atom_site_fract_z
Si Si1 0.457734 0.199565 0.007922
Si Si2 0.729590 0.543610 0.601880
Si Si3 0.202769 0.730163 0.300085
Si Si4 0.086749 0.430468 0.090633
Si Si5 0.930478 0.659324 0.244279
Si Si6 0.528880 0.635097 0.578312
Si Si7 0.369718 0.370987 0.964862
Si Si8 0.407085 0.909250 0.542524
O O1 0.615296 0.251617 0.878941
O O2 0.383740 0.029180 0.819721
O O3 0.301075 0.311231 0.252516
O O4 0.517781 0.220000 0.117692
O O5 0.598959 0.401318 0.477191
O O6 0.925498 0.495551 0.365875
O O7 0.708989 0.585374 0.800010
O O8 0.194422 0.564037 0.128195
O O9 0.220287 0.841343 0.543100
O O10 0.041234 0.768955 0.393290
O O11 0.029602 0.311314 0.875858
O O12 0.207799 0.347930 0.972533
O O13 0.725057 0.663604 0.426124
O O14 0.000000 0.500000 0.000000
O O15 0.500000 0.500000 0.500000
O O16 0.469789 0.219086 0.684560
O O17 0.500000 0.500000 0.000000
O O18 0.500000 0.000000 0.500000
#
# Coordination Sequence:
#
# PCOD8037961 Si02
#       8
#     2   2   2   2   2   2   2   2
#     4  10  18  34  57  81 113 147 191 231 281 334
#     4  11  20  34  55  85 114 145 189 234 281 334
#     4  10  17  33  54  81 109 149 187 230 276 329
#     4  11  21  33  54  86 114 147 187 237 282 329
#     4  10  18  30  51  81 114 141 187 236 279 326
#     4  10  18  30  52  82 109 145 186 238 278 324
#     4  12  21  38  60  82 116 150 191 232 278 339
#     4  10  20  36  60  82 113 155 188 226 285 334
#
# _framework density 19.151325
#
# number of rings (size 3 to 8) (size 9 to 14) (size 15 to 20)
#    0.000    1.500    3.750    7.875    0.000    0.000 
#    0.000    2.500    0.000    9.750    0.000    0.000 
#    0.000    0.000    0.000    0.000    0.000    0.000 
#
# Total GULP energy -198236.333942 kJ/mol
# GULP energy per Si atom -12389.770871 kJ/mol
# Density = 1.910774 g / cm^3
# Si number density = 19.151325 Si / 1000 Ang^3
#
#
#
# Elastic Constant Matrix: (Units=GPa)
#
#
# Indices 1 2 3 4 5 6 
#
# 1 169.9773 28.2900 65.7992 13.0186 19.6083 8.0693
# 2 28.2900 42.6447 33.7638 3.8342 -2.3676 2.8352
# 3 65.7992 33.7638 108.5522 5.9330 17.8338 6.8490
# 4 13.0186 3.8342 5.9330 26.1202 2.6631 2.5027
# 5 19.6083 -2.3676 17.8338 2.6631 41.7561 -1.7723
# 6 8.0693 2.8352 6.8490 2.5027 -1.7723 27.9212
#
#
#
# Elastic Compliance Matrix: (Units=1/GPa)
#
#
# Indices 1 2 3 4 5 6 
#
# 1 0.008208 -0.002385 -0.003639 -0.002567 -0.002321 -0.001154
# 2 -0.002385 0.033677 -0.010172 -0.002255 0.007537 0.000445
# 3 -0.003639 -0.010172 0.015619 0.000543 -0.005665 -0.002155
# 4 -0.002567 -0.002255 0.000543 0.040236 -0.001843 -0.002886
# 5 -0.002321 0.007537 -0.005665 -0.001843 0.028140 0.003246
# 6 -0.001154 0.000445 -0.002155 -0.002886 0.003246 0.037097
#
#
# Mechanical properties :
#
#
# Convention : Reuss Voigt Hill
#
# Bulk Modulus (GPa) = 39.82261 64.09778 51.96020
# Shear Modulus (GPa) = 24.54105 32.04757 28.29431
#
# Velocity S-wave (km/s) = 3.58359 4.09514 3.84788
# Velocity P-wave (km/s) = 6.16130 7.47677 6.85068
#
# Compressibility (1/GPa) = 0.02511136
#
# Stress axis : x y z
#
# Youngs Moduli (GPa) = 121.83384 29.69363 64.02563
#
# Poissons Ratio (x) = 0.07082 0.23299
# Poissons Ratio (y) = 0.29060 0.65128
# Poissons Ratio (z) = 0.44335 0.30205
#
# Static dielectric constant tensor:
#      x y z
#    x 4.758080 0.291400 0.822960 
#    y 0.291400 3.315440 0.073910 
#    z 0.822960 0.073910 3.845340 
# 
# 
# High freq. dielectric constant tensor:
#      x y z
#    x 1.763610 0.014350 0.026520 
#    y 0.014350 1.707640 -0.022470 
#    z 0.026520 -0.022470 1.728870 
# 
# From -- ./inp_files/437051.got.cif
#   From: 2010.06.25/outbox.cif.g09.slc.cpg/sg2_219_cif.got.tgz:437051.got - 2010.06.27 13:26:56.
