data_PCOD8037592
_publ_section_title
;
Structure prediction by ZEFSAII (Michael W. Deem and Ramdas Pophale) SiO2 
 PCOD8037592
Probable space group: P -1
;
_chemical_formula_sum "Si O2"
_cell_formula_units_Z 16
_cell_length_a 5.300818
_cell_length_b 8.814353
_cell_length_c 20.372791
_cell_angle_alpha 113.340719
_cell_angle_beta 52.314392
_cell_angle_gamma 95.603448
_cell_volume 677.825525
_symmetry_space_group_name_H-M "P -1"
_symmetry_group_IT_number 2
_symmetry_cell_setting 'triclinic'
loop_
_space_group_symop_operation_xyz
x,y,z
-x,-y,-z
loop_
_atom_site_type_symbol
_atom_site_label
_atom_site_fract_x
_atom_site_fract_y
_atom_site_fract_z
Si Si1 0.980630 0.552703 0.337060
Si Si2 0.816335 0.890280 0.966610
Si Si3 0.563525 0.156797 0.476291
Si Si4 0.153092 0.746147 0.761686
Si Si5 0.329565 0.784766 0.247822
Si Si6 0.679810 0.608207 0.036795
Si Si7 0.883597 0.657130 0.593165
Si Si8 0.761083 0.997319 0.295397
O O1 0.655713 0.674613 0.432526
O O2 0.934292 0.437934 0.261791
O O3 0.262665 0.654943 0.293041
O O4 0.064921 0.411521 0.353629
O O5 0.082941 0.797046 0.856469
O O6 0.732480 0.755645 0.006499
O O7 0.500000 0.000000 0.000000
O O8 0.000000 0.000000 0.000000
O O9 0.929213 0.192713 0.428248
O O10 0.500000 0.000000 0.500000
O O11 0.490798 0.122558 0.405217
O O12 0.507597 0.742530 0.672707
O O13 0.991206 0.907120 0.769051
O O14 0.460908 0.684143 0.145125
O O15 0.586802 0.886149 0.255049
O O16 0.981094 0.892593 0.299859
O O17 0.500000 0.500000 0.000000
O O18 0.000000 0.500000 0.000000
O O19 0.000000 0.500000 0.500000
#
# Coordination Sequence:
#
# PCOD8037592 Si02
#       8
#     2   2   2   2   2   2   2   2
#     4  12  27  44  72 107 149 197 256 306 377 449
#     4  12  28  50  81 117 153 203 262 321 389 464
#     4  12  25  48  70 109 151 202 252 311 374 449
#     4  12  27  47  78 105 154 198 253 315 384 449
#     4  12  28  47  75 109 149 197 251 312 378 454
#     4  12  26  49  78 111 155 195 253 321 392 461
#     4  12  26  46  73 108 154 198 254 316 376 454
#     4  12  26  48  71 107 149 199 249 307 374 448
#
# _framework density 23.604893000000001
#
# number of rings (size 3 to 8) (size 9 to 14) (size 15 to 20)
#    0.000    0.000    3.750    5.625    7.000    0.500 
#    0.000    0.000    0.000    0.000    0.000    0.000 
#    0.000    0.000    0.000    0.000    0.000    0.000 
#
# Total GULP energy -198243.540339 kJ/mol
# GULP energy per Si atom -12390.221271 kJ/mol
# Density = 2.355117 g / cm^3
# Si number density = 23.604893 Si / 1000 Ang^3
#
#
#
# Elastic Constant Matrix: (Units=GPa)
#
#
# Indices 1 2 3 4 5 6 
#
# 1 126.3721 39.9322 33.0035 16.1343 10.6999 7.0842
# 2 39.9322 122.6700 9.8380 3.9177 -13.0586 8.7188
# 3 33.0035 9.8380 147.3213 15.1734 13.5412 12.3166
# 4 16.1343 3.9177 15.1734 37.5796 16.7386 10.2041
# 5 10.6999 -13.0586 13.5412 16.7386 32.2070 7.3844
# 6 7.0842 8.7188 12.3166 10.2041 7.3844 40.8194
#
#
#
# Elastic Compliance Matrix: (Units=1/GPa)
#
#
# Indices 1 2 3 4 5 6 
#
# 1 0.009878 -0.003392 -0.001539 -0.002045 -0.003071 0.000541
# 2 -0.003392 0.010232 -0.000160 -0.001999 0.006909 -0.002299
# 3 -0.001539 -0.000160 0.007545 -0.001205 -0.001790 -0.001350
# 4 -0.002045 -0.001999 -0.001205 0.037554 -0.017999 -0.004986
# 5 -0.003071 0.006909 -0.001790 -0.017999 0.045944 -0.004215
# 6 0.000541 -0.002299 -0.001350 -0.004986 -0.004215 0.027311
#
#
# Mechanical properties :
#
#
# Convention : Reuss Voigt Hill
#
# Bulk Modulus (GPa) = 57.23482 62.43456 59.83469
# Shear Modulus (GPa) = 32.36879 43.02716 37.69798
#
# Velocity S-wave (km/s) = 3.70709 4.27407 4.00063
# Velocity P-wave (km/s) = 6.52863 7.13191 6.83693
#
# Compressibility (1/GPa) = 0.01747188
#
# Stress axis : x y z
#
# Youngs Moduli (GPa) = 101.23877 97.73563 132.54126
#
# Poissons Ratio (x) = 0.33153 0.20393
# Poissons Ratio (y) = 0.34342 0.02125
# Poissons Ratio (z) = 0.15577 0.01567
#
# Static dielectric constant tensor:
#      x y z
#    x 4.119130 0.088380 0.224360 
#    y 0.088380 4.385340 -0.020990 
#    z 0.224360 -0.020990 4.566650 
# 
# 
# High freq. dielectric constant tensor:
#      x y z
#    x 1.925400 -0.004250 0.014800 
#    y -0.004250 1.966150 0.001670 
#    z 0.014800 0.001670 1.959700 
# 
# From -- ./inp_files/323572.got.cif
#   From: 2010.06.25/outbox.cif.g09.slc.cpg/sg2_162_cif.got.tgz:323572.got - 2010.06.27 13:26:56.
