data_PCOD8037539
_publ_section_title
;
Structure prediction by ZEFSAII (Michael W. Deem and Ramdas Pophale) SiO2 
 PCOD8037539
Probable space group: P -1
;
_chemical_formula_sum "Si O2"
_cell_formula_units_Z 16
_cell_length_a 15.321772
_cell_length_b 9.095493
_cell_length_c 8.404402
_cell_angle_alpha 81.434940
_cell_angle_beta 109.972654
_cell_angle_gamma 48.267666
_cell_volume 693.236494
_symmetry_space_group_name_H-M "P -1"
_symmetry_group_IT_number 2
_symmetry_cell_setting 'triclinic'
loop_
_space_group_symop_operation_xyz
x,y,z
-x,-y,-z
loop_
_atom_site_type_symbol
_atom_site_label
_atom_site_fract_x
_atom_site_fract_y
_atom_site_fract_z
Si Si1 0.241560 0.007070 0.078906
Si Si2 0.233546 0.591983 0.869653
Si Si3 0.032979 0.086089 0.131344
Si Si4 0.488325 0.861082 0.416798
Si Si5 0.778360 0.146811 0.423947
Si Si6 0.637461 0.786827 0.222837
Si Si7 0.452455 0.466430 0.245712
Si Si8 0.149987 0.227735 0.639769
O O1 0.098220 0.148009 0.070612
O O2 0.326194 0.037457 0.214792
O O3 0.343098 0.734998 0.176186
O O4 0.188818 0.119864 0.855321
O O5 0.177116 0.802255 0.701477
O O6 0.250456 0.436185 0.784666
O O7 0.117916 0.684288 0.915044
O O8 0.387732 0.443521 0.069456
O O9 0.151787 0.879793 0.365257
O O10 0.000000 0.000000 0.000000
O O11 0.597610 0.733237 0.356229
O O12 0.528508 0.663749 0.570147
O O13 0.500000 0.000000 0.500000
O O14 0.604326 0.347521 0.300020
O O15 0.856226 0.895074 0.473259
O O16 0.718355 0.832200 0.330547
O O17 0.500000 0.000000 0.000000
O O18 0.000000 0.500000 0.500000
#
# Coordination Sequence:
#
# PCOD8037539 Si02
#       8
#     2   2   2   2   2   2   2   2
#     4  12  26  49  77 114 152 200 256 321 378 454
#     4  12  26  45  76 113 154 199 255 314 375 458
#     4  12  26  47  72 111 158 193 250 310 382 456
#     4  12  26  47  77 114 157 196 251 318 389 450
#     4  12  25  47  77 113 147 199 258 316 379 454
#     4  12  26  47  76 111 155 197 257 317 375 453
#     4  12  25  46  80 116 149 195 258 323 384 445
#     4  12  27  50  74 109 156 206 252 308 389 462
#
# _framework density 23.080147
#
# number of rings (size 3 to 8) (size 9 to 14) (size 15 to 20)
#    0.000    0.000    5.000    4.875    1.750    2.000 
#    0.000    3.750    0.000    0.000    0.000    0.000 
#    0.000    0.000    0.000    0.000    0.000    0.000 
#
# Total GULP energy -198478.674524 kJ/mol
# GULP energy per Si atom -12404.917158 kJ/mol
# Density = 2.302762 g / cm^3
# Si number density = 23.080147 Si / 1000 Ang^3
#
#
#
# Elastic Constant Matrix: (Units=GPa)
#
#
# Indices 1 2 3 4 5 6 
#
# 1 145.7678 49.0312 47.0714 5.6622 -3.8810 -16.8976
# 2 49.0312 126.9980 31.9271 2.0719 1.1042 -5.7403
# 3 47.0714 31.9271 135.2647 8.4940 2.4956 -0.3541
# 4 5.6622 2.0719 8.4940 42.3659 2.1964 -1.3814
# 5 -3.8810 1.1042 2.4956 2.1964 43.9328 1.9431
# 6 -16.8976 -5.7403 -0.3541 -1.3814 1.9431 35.4818
#
#
#
# Elastic Compliance Matrix: (Units=1/GPa)
#
#
# Indices 1 2 3 4 5 6 
#
# 1 0.009052 -0.002698 -0.002488 -0.000501 0.000867 0.003783
# 2 -0.002698 0.009240 -0.001246 0.000188 -0.000419 0.000228
# 3 -0.002488 -0.001246 0.008644 -0.001354 -0.000553 -0.001322
# 4 -0.000501 0.000188 -0.001354 0.024021 -0.001207 0.000780
# 5 0.000867 -0.000419 -0.000553 -0.001207 0.022984 -0.000966
# 6 0.003783 0.000228 -0.001322 0.000780 -0.000966 0.030092
#
#
# Mechanical properties :
#
#
# Convention : Reuss Voigt Hill
#
# Bulk Modulus (GPa) = 71.05409 73.78777 72.42093
# Shear Modulus (GPa) = 41.12294 43.02281 42.07288
#
# Velocity S-wave (km/s) = 4.22565 4.32216 4.27418
# Velocity P-wave (km/s) = 7.39329 7.54637 7.47023
#
# Compressibility (1/GPa) = 0.01407379
#
# Stress axis : x y z
#
# Youngs Moduli (GPa) = 110.47195 108.22872 115.68077
#
# Poissons Ratio (x) = 0.29197 0.28781
# Poissons Ratio (y) = 0.29802 0.14408
# Poissons Ratio (z) = 0.27485 0.13480
#
# Static dielectric constant tensor:
#      x y z
#    x 4.462700 -0.208980 0.020060 
#    y -0.208980 5.856170 0.877570 
#    z 0.020060 0.877570 4.698440 
# 
# 
# High freq. dielectric constant tensor:
#      x y z
#    x 1.932890 -0.002420 0.004560 
#    y -0.002420 1.905430 0.015730 
#    z 0.004560 0.015730 1.925730 
# 
# From -- ./inp_files/298301.got.cif
#   From: 2010.06.25/outbox.cif.g09.slc.cpg/sg2_150_cif.got.tgz:298301.got - 2010.06.27 13:26:56.
