data_PCOD8037744
_publ_section_title
;
Structure prediction by ZEFSAII (Michael W. Deem and Ramdas Pophale) SiO2 
 PCOD8037744
Probable space group: P -1
;
_chemical_formula_sum "Si O2"
_cell_formula_units_Z 14
_cell_length_a 5.618799
_cell_length_b 8.872889
_cell_length_c 21.791053
_cell_angle_alpha 142.012429
_cell_angle_beta 84.001574
_cell_angle_gamma 77.382991
_cell_volume 579.174585
_symmetry_space_group_name_H-M "P -1"
_symmetry_group_IT_number 2
_symmetry_cell_setting 'triclinic'
loop_
_space_group_symop_operation_xyz
x,y,z
-x,-y,-z
loop_
_atom_site_type_symbol
_atom_site_label
_atom_site_fract_x
_atom_site_fract_y
_atom_site_fract_z
Si Si1 0.988641 0.582361 0.299500
Si Si2 0.662289 0.477002 0.048889
Si Si3 0.853245 0.115344 0.163585
Si Si4 0.456751 0.912934 0.725885
Si Si5 0.955894 0.375931 0.553752
Si Si6 0.595090 0.118960 0.421501
Si Si7 0.507322 0.716821 0.889732
O O1 0.021723 0.280352 0.219293
O O2 0.034600 0.704739 0.400828
O O3 0.214159 0.526936 0.224705
O O4 0.700605 0.812320 0.350976
O O5 0.527687 0.424495 0.094582
O O6 0.658783 0.765447 0.151478
O O7 0.500000 0.500000 0.000000
O O8 0.967394 0.220994 0.948792
O O9 0.645040 0.216772 0.258758
O O10 0.725927 0.205390 0.128889
O O11 0.787911 0.714110 0.654583
O O12 0.340100 0.898568 0.658093
O O13 0.774100 0.253443 0.487105
O O14 0.264611 0.277998 0.490451
O O15 0.500000 0.000000 0.000000
#
# Coordination Sequence:
#
# PCOD8037744 Si02
#       7
#     2   2   2   2   2   2   2
#     4  12  27  49  80 110 151 205 253 325 390 459
#     4  12  27  46  78 114 157 197 254 314 388 479
#     4  12  26  50  75 113 157 197 253 312 393 478
#     4  12  27  49  78 111 156 208 251 324 393 455
#     4  12  27  54  76 115 155 207 268 326 386 458
#     4  12  30  49  83 113 155 204 274 328 383 455
#     4  12  26  48  76 112 153 200 253 310 390 471
#
# _framework density 24.172333999999999
#
# number of rings (size 3 to 8) (size 9 to 14) (size 15 to 20)
#    0.000    0.000    2.857    6.000    8.000    1.143 
#    0.000    0.000    0.000    0.000    0.000    0.000 
#    0.000    0.000    0.000    0.000    0.000    0.000 
#
# Total GULP energy -173547.902218 kJ/mol
# GULP energy per Si atom -12396.278730 kJ/mol
# Density = 2.411732 g / cm^3
# Si number density = 24.172334 Si / 1000 Ang^3
#
#
#
# Elastic Constant Matrix: (Units=GPa)
#
#
# Indices 1 2 3 4 5 6 
#
# 1 126.3720 46.3995 58.1647 -12.8991 -5.5580 -14.1259
# 2 46.3995 173.7360 61.2299 -29.7604 -4.9263 -17.0686
# 3 58.1647 61.2299 121.1836 -13.0845 -6.7425 -14.7018
# 4 -12.8991 -29.7604 -13.0845 69.4626 -9.7662 -5.5640
# 5 -5.5580 -4.9263 -6.7425 -9.7662 31.7121 2.5229
# 6 -14.1259 -17.0686 -14.7018 -5.5640 2.5229 39.1146
#
#
#
# Elastic Compliance Matrix: (Units=1/GPa)
#
#
# Indices 1 2 3 4 5 6 
#
# 1 0.010552 -0.000946 -0.004186 0.001057 0.000986 0.001911
# 2 -0.000946 0.007769 -0.002800 0.002979 0.001177 0.002344
# 3 -0.004186 -0.002800 0.012042 0.000638 0.001446 0.001790
# 4 0.001057 0.002979 0.000638 0.017115 0.005737 0.003986
# 5 0.000986 0.001177 0.001446 0.005737 0.033961 0.000039
# 6 0.001911 0.002344 0.001790 0.003986 0.000039 0.028517
#
#
# Mechanical properties :
#
#
# Convention : Reuss Voigt Hill
#
# Bulk Modulus (GPa) = 68.96562 83.65330 76.30946
# Shear Modulus (GPa) = 38.26952 45.09104 41.68028
#
# Velocity S-wave (km/s) = 3.98325 4.32371 4.15697
# Velocity P-wave (km/s) = 7.05321 7.72063 7.39446
#
# Compressibility (1/GPa) = 0.01449998
#
# Stress axis : x y z
#
# Youngs Moduli (GPa) = 94.76859 128.71316 83.04100
#
# Poissons Ratio (x) = 0.12177 0.34759
# Poissons Ratio (y) = 0.08966 0.23251
# Poissons Ratio (z) = 0.39668 0.36039
#
# Static dielectric constant tensor:
#      x y z
#    x 4.153560 -0.171960 -0.104910 
#    y -0.171960 4.909040 -0.080170 
#    z -0.104910 -0.080170 4.544360 
# 
# 
# High freq. dielectric constant tensor:
#      x y z
#    x 1.947940 -0.008950 -0.004890 
#    y -0.008950 1.988170 -0.007390 
#    z -0.004890 -0.007390 1.984510 
# 
# From -- ./inp_files/60341.got.cif
#   From: 2010.06.25/outbox.cif.g09.slc.cpg/sg2_31_cif.got.tgz:60341.got - 2010.06.27 13:26:56.
