data_PCOD8037906
_publ_section_title
;
Structure prediction by ZEFSAII (Michael W. Deem and Ramdas Pophale) SiO2 
 PCOD8037906
Probable space group: P -1
;
_chemical_formula_sum "Si O2"
_cell_formula_units_Z 16
_cell_length_a 9.483482
_cell_length_b 11.713122
_cell_length_c 21.228455
_cell_angle_alpha 33.998881
_cell_angle_beta 141.509068
_cell_angle_gamma 125.189835
_cell_volume 802.612690
_symmetry_space_group_name_H-M "P -1"
_symmetry_group_IT_number 2
_symmetry_cell_setting 'triclinic'
loop_
_space_group_symop_operation_xyz
x,y,z
-x,-y,-z
loop_
_atom_site_type_symbol
_atom_site_label
_atom_site_fract_x
_atom_site_fract_y
_atom_site_fract_z
Si Si1 0.690295 0.145555 0.603757
Si Si2 0.060804 0.308943 0.060961
Si Si3 0.259145 0.433296 0.947998
Si Si4 0.366629 0.706307 0.161823
Si Si5 0.223467 0.389963 0.352028
Si Si6 0.900815 0.427011 0.646904
Si Si7 0.167091 0.577983 0.570027
Si Si8 0.192145 0.097565 0.987767
O O1 0.408206 0.177859 0.495170
O O2 0.756683 0.309193 0.602851
O O3 0.767955 0.209301 0.531686
O O4 0.795988 0.902227 0.760653
O O5 0.211898 0.385598 0.025089
O O6 0.000000 0.500000 0.000000
O O7 0.828212 0.252699 0.978694
O O8 0.307089 0.217672 0.025155
O O9 0.045029 0.605854 0.763586
O O10 0.500000 0.500000 0.000000
O O11 0.295658 0.574201 0.254201
O O12 0.603460 0.601085 0.259850
O O13 0.388983 0.923160 0.103289
O O14 0.252954 0.436296 0.415336
O O15 0.032549 0.592847 0.582682
O O16 0.087324 0.248739 0.826039
O O17 0.000000 0.500000 0.500000
O O18 0.000000 0.000000 0.000000
#
# Coordination Sequence:
#
# PCOD8037906 Si02
#       8
#     2   2   2   2   2   2   2   2
#     4  10  19  38  57  86 119 155 206 240 291 371
#     4  11  23  40  63  84 116 165 203 240 295 368
#     4  10  22  41  58  89 127 150 198 257 302 345
#     4  10  19  38  61  86 114 155 207 242 291 358
#     4   9  19  34  64  85 115 155 196 247 299 351
#     4  10  17  32  57  94 122 148 190 255 307 341
#     4   9  21  36  51  86 133 146 184 254 305 351
#     4  11  17  35  67  91 111 157 210 248 287 353
#
# _framework density 19.934895999999998
#
# number of rings (size 3 to 8) (size 9 to 14) (size 15 to 20)
#    0.000    2.000    5.000    0.375    0.000    2.500 
#    4.500    6.250    0.000    0.000    0.000    0.000 
#    0.000    0.000    0.000    0.000    0.000    0.000 
#
# Total GULP energy -198247.827109 kJ/mol
# GULP energy per Si atom -12390.489194 kJ/mol
# Density = 1.988952 g / cm^3
# Si number density = 19.934896 Si / 1000 Ang^3
#
#
#
# Elastic Constant Matrix: (Units=GPa)
#
#
# Indices 1 2 3 4 5 6 
#
# 1 82.4101 42.2776 52.9807 0.5480 -1.2744 -1.1951
# 2 42.2776 95.5228 38.6856 -1.3045 13.1299 1.1292
# 3 52.9807 38.6856 128.8195 -11.8557 11.0728 -2.0700
# 4 0.5480 -1.3045 -11.8557 19.9167 -2.0420 7.7691
# 5 -1.2744 13.1299 11.0728 -2.0420 34.1069 3.0611
# 6 -1.1951 1.1292 -2.0700 7.7691 3.0611 29.0040
#
#
#
# Elastic Compliance Matrix: (Units=1/GPa)
#
#
# Indices 1 2 3 4 5 6 
#
# 1 0.020530 -0.006964 -0.007285 -0.005383 0.005358 0.001473
# 2 -0.006964 0.014761 -0.001090 0.000088 -0.005550 -0.000377
# 3 -0.007285 -0.001090 0.012024 0.007358 -0.003223 -0.001030
# 4 -0.005383 0.000088 0.007358 0.061405 0.002526 -0.016415
# 5 0.005358 -0.005550 -0.003223 0.002526 0.033211 -0.003975
# 6 0.001473 -0.000377 -0.001030 -0.016415 -0.003975 0.039296
#
#
# Mechanical properties :
#
#
# Convention : Reuss Voigt Hill
#
# Bulk Modulus (GPa) = 60.10188 63.84890 61.97539
# Shear Modulus (GPa) = 22.99395 28.12610 25.56002
#
# Velocity S-wave (km/s) = 3.39994 3.76027 3.58463
# Velocity P-wave (km/s) = 6.75480 7.13800 6.94904
#
# Compressibility (1/GPa) = 0.01663841
#
# Stress axis : x y z
#
# Youngs Moduli (GPa) = 48.70873 67.74818 83.16902
#
# Poissons Ratio (x) = 0.47178 0.60586
# Poissons Ratio (y) = 0.33919 0.09062
# Poissons Ratio (z) = 0.35483 0.07382
#
# Static dielectric constant tensor:
#      x y z
#    x 4.045590 0.054390 -0.123870 
#    y 0.054390 3.449820 0.160290 
#    z -0.123870 0.160290 4.383190 
# 
# 
# High freq. dielectric constant tensor:
#      x y z
#    x 1.787780 -0.002440 -0.002860 
#    y -0.002440 1.741660 0.011960 
#    z -0.002860 0.011960 1.782820 
# 
# From -- ./inp_files/203099.got.cif
#   From: 2010.06.25/outbox.cif.g09.slc.cpg/sg2_102_cif.got.tgz:203099.got - 2010.06.27 13:26:56.
