data_PCOD8037205
_publ_section_title
;
Structure prediction by ZEFSAII (Michael W. Deem and Ramdas Pophale) SiO2 
 PCOD8037205
Probable space group: P -1
;
_chemical_formula_sum "Si O2"
_cell_formula_units_Z 16
_cell_length_a 9.128135
_cell_length_b 21.199274
_cell_length_c 18.424275
_cell_angle_alpha 161.942532
_cell_angle_beta 136.798857
_cell_angle_gamma 42.380426
_cell_volume 738.828732
_symmetry_space_group_name_H-M "P -1"
_symmetry_group_IT_number 2
_symmetry_cell_setting 'triclinic'
loop_
_space_group_symop_operation_xyz
x,y,z
-x,-y,-z
loop_
_atom_site_type_symbol
_atom_site_label
_atom_site_fract_x
_atom_site_fract_y
_atom_site_fract_z
Si Si1 0.740687 0.228413 0.443508
Si Si2 0.869492 0.463019 0.612561
Si Si3 0.661208 0.811354 0.814767
Si Si4 0.907439 0.183852 0.877539
Si Si5 0.773096 0.441604 0.835093
Si Si6 0.969810 0.980994 0.883623
Si Si7 0.203832 0.878509 0.394126
Si Si8 0.559838 0.145561 0.825611
O O1 0.769862 0.398833 0.580767
O O2 0.479840 0.230737 0.352936
O O3 0.817922 0.287256 0.614032
O O4 0.886681 0.000205 0.225684
O O5 0.691693 0.612963 0.662141
O O6 0.965910 0.259229 0.377794
O O7 0.053701 0.590326 0.839410
O O8 0.500000 0.000000 0.000000
O O9 0.889384 0.869564 0.940130
O O10 0.875999 0.179967 0.776351
O O11 0.692220 0.152888 0.807420
O O12 0.693250 0.332238 0.756385
O O13 0.580213 0.634882 0.957740
O O14 0.000000 0.500000 0.000000
O O15 0.718053 0.063187 0.859926
O O16 0.000000 0.000000 0.000000
O O17 0.393810 0.001850 0.588990
O O18 0.000000 0.000000 0.500000
#
# Coordination Sequence:
#
# PCOD8037205 Si02
#       8
#     2   2   2   2   2   2   2   2
#     4  12  25  43  77 106 146 191 241 302 354 428
#     4  12  24  45  74 101 145 189 246 284 370 415
#     4  12  24  46  69 108 141 185 250 293 348 437
#     4  12  25  48  74 107 147 187 244 300 356 440
#     4  12  27  47  72 111 144 185 245 301 368 427
#     4  12  30  47  70 107 152 188 239 304 361 432
#     4  12  26  46  75 105 145 187 240 303 361 427
#     4  12  27  49  70 107 148 190 243 297 365 434
#
# _framework density 21.655898000000001
#
# number of rings (size 3 to 8) (size 9 to 14) (size 15 to 20)
#    0.000    0.000    7.500    1.500    5.250    1.000 
#    0.000    0.000    0.000    0.000    0.000    0.000 
#    0.000    0.000    0.000    0.000    0.000    0.000 
#
# Total GULP energy -198437.730908 kJ/mol
# GULP energy per Si atom -12402.358182 kJ/mol
# Density = 2.160661 g / cm^3
# Si number density = 21.655898 Si / 1000 Ang^3
#
#
#
# Elastic Constant Matrix: (Units=GPa)
#
#
# Indices 1 2 3 4 5 6 
#
# 1 95.1174 44.6972 50.3202 -6.3413 -1.8382 8.6693
# 2 44.6972 136.1107 58.4601 1.8801 -4.9505 4.1739
# 3 50.3202 58.4601 139.5183 -7.3566 7.1026 5.6230
# 4 -6.3413 1.8801 -7.3566 51.1211 3.6425 -0.0463
# 5 -1.8382 -4.9505 7.1026 3.6425 37.0932 -5.3961
# 6 8.6693 4.1739 5.6230 -0.0463 -5.3961 43.5684
#
#
#
# Elastic Compliance Matrix: (Units=1/GPa)
#
#
# Indices 1 2 3 4 5 6 
#
# 1 0.014173 -0.002980 -0.003747 0.001283 0.000609 -0.001974
# 2 -0.002980 0.009782 -0.003206 -0.001329 0.001947 0.000309
# 3 -0.003747 -0.003206 0.010095 0.001302 -0.002760 -0.000591
# 4 0.001283 -0.001329 0.001302 0.020129 -0.002423 -0.000575
# 5 0.000609 0.001947 -0.002760 -0.002423 0.028537 0.003580
# 6 -0.001974 0.000309 -0.000591 -0.000575 0.003580 0.023835
#
#
# Mechanical properties :
#
#
# Convention : Reuss Voigt Hill
#
# Bulk Modulus (GPa) = 70.49648 75.30017 72.89833
# Shear Modulus (GPa) = 38.12588 40.84113 39.48351
#
# Velocity S-wave (km/s) = 4.20042 4.34742 4.27455
# Velocity P-wave (km/s) = 7.49322 7.74899 7.62218
#
# Compressibility (1/GPa) = 0.01418511
#
# Stress axis : x y z
#
# Youngs Moduli (GPa) = 70.55562 102.22719 99.05735
#
# Poissons Ratio (x) = 0.30464 0.37116
# Poissons Ratio (y) = 0.21026 0.31755
# Poissons Ratio (z) = 0.26437 0.32771
#
# Static dielectric constant tensor:
#      x y z
#    x 4.171740 -0.047100 0.380280 
#    y -0.047100 4.321940 -0.052430 
#    z 0.380280 -0.052430 4.438370 
# 
# 
# High freq. dielectric constant tensor:
#      x y z
#    x 1.844210 0.007370 0.008060 
#    y 0.007370 1.871920 -0.005590 
#    z 0.008060 -0.005590 1.867650 
# 
# From -- ./inp_files/562996.got.cif
#   From: 2010.06.25/outbox.cif.g09.slc.cpg/sg2_282_cif.got.tgz:562996.got - 2010.06.27 13:26:56.
