data_PCOD8037421
_publ_section_title
;
Structure prediction by ZEFSAII (Michael W. Deem and Ramdas Pophale) SiO2 
 PCOD8037421
Probable space group: P -1
;
_chemical_formula_sum "Si O2"
_cell_formula_units_Z 14
_cell_length_a 11.725681
_cell_length_b 8.482375
_cell_length_c 9.029046
_cell_angle_alpha 71.318912
_cell_angle_beta 118.946898
_cell_angle_gamma 65.544147
_cell_volume 541.368567
_symmetry_space_group_name_H-M "P -1"
_symmetry_group_IT_number 2
_symmetry_cell_setting 'triclinic'
loop_
_space_group_symop_operation_xyz
x,y,z
-x,-y,-z
loop_
_atom_site_type_symbol
_atom_site_label
_atom_site_fract_x
_atom_site_fract_y
_atom_site_fract_z
Si Si1 0.867149 0.092097 0.729508
Si Si2 0.225429 0.963292 0.601238
Si Si3 0.748572 0.201537 0.007049
Si Si4 0.864468 0.726600 0.941281
Si Si5 0.592351 0.687344 0.754923
Si Si6 0.094966 0.431287 0.426962
Si Si7 0.593557 0.617187 0.441360
O O1 0.819520 0.944601 0.782151
O O2 0.861887 0.100699 0.541800
O O3 0.709586 0.345955 0.620448
O O4 0.071987 0.971689 0.934374
O O5 0.427635 0.812671 0.722412
O O6 0.118598 0.229001 0.432052
O O7 0.222053 0.912975 0.784224
O O8 0.724315 0.418522 0.954902
O O9 0.583881 0.259397 0.802458
O O10 0.680080 0.786707 0.820531
O O11 0.000000 0.500000 0.000000
O O12 0.960341 0.664692 0.178084
O O13 0.540811 0.730550 0.535732
O O14 0.286829 0.354974 0.581590
O O15 0.000000 0.500000 0.500000
#
# Coordination Sequence:
#
# PCOD8037421 Si02
#       7
#     2   2   2   2   2   2   2
#     4  12  26  49  82 111 149 205 258 300 386 443
#     4  12  27  50  78 110 150 207 248 313 381 448
#     4  12  26  47  77 113 155 196 249 315 376 442
#     4  12  24  52  79 106 150 205 254 307 373 453
#     4  12  26  51  75 112 156 195 260 307 373 456
#     4  12  28  52  75 113 153 196 258 315 373 456
#     4  12  28  50  75 117 156 194 254 321 367 453
#
# _framework density 25.860386999999999
#
# number of rings (size 3 to 8) (size 9 to 14) (size 15 to 20)
#    0.000    0.000    5.714    2.143    2.000    6.286 
#    7.714    0.000    0.000    0.000    0.000    0.000 
#    0.000    0.000    0.000    0.000    0.000    0.000 
#
# Total GULP energy -173680.772569 kJ/mol
# GULP energy per Si atom -12405.769469 kJ/mol
# Density = 2.580153 g / cm^3
# Si number density = 25.860387 Si / 1000 Ang^3
#
#
#
# Elastic Constant Matrix: (Units=GPa)
#
#
# Indices 1 2 3 4 5 6 
#
# 1 165.1347 30.3399 43.0793 3.8094 12.4093 -4.8080
# 2 30.3399 79.5250 7.9189 -8.5399 2.1732 -6.0934
# 3 43.0793 7.9189 114.6826 -4.9739 12.8042 9.1732
# 4 3.8094 -8.5399 -4.9739 28.1237 3.5774 7.2899
# 5 12.4093 2.1732 12.8042 3.5774 54.8877 4.3973
# 6 -4.8080 -6.0934 9.1732 7.2899 4.3973 44.8661
#
#
#
# Elastic Compliance Matrix: (Units=1/GPa)
#
#
# Indices 1 2 3 4 5 6 
#
# 1 0.007437 -0.002703 -0.002740 -0.002588 -0.000886 0.001497
# 2 -0.002703 0.014149 0.000203 0.004513 -0.000362 0.000892
# 3 -0.002740 0.000203 0.010288 0.003182 -0.001779 -0.002712
# 4 -0.002588 0.004513 0.003182 0.039846 -0.002408 -0.006553
# 5 -0.000886 -0.000362 -0.001779 -0.002408 0.019107 -0.001262
# 6 0.001497 0.000892 -0.002712 -0.006553 -0.001262 0.024313
#
#
# Mechanical properties :
#
#
# Convention : Reuss Voigt Hill
#
# Bulk Modulus (GPa) = 46.74218 58.00203 52.37211
# Shear Modulus (GPa) = 37.66426 44.10912 40.88669
#
# Velocity S-wave (km/s) = 3.82048 4.13445 3.98056
# Velocity P-wave (km/s) = 6.12989 6.72824 6.43602
#
# Compressibility (1/GPa) = 0.02139395
#
# Stress axis : x y z
#
# Youngs Moduli (GPa) = 134.46104 70.67752 97.19599
#
# Poissons Ratio (x) = 0.19108 0.26632
# Poissons Ratio (y) = 0.36351 -0.01976
# Poissons Ratio (z) = 0.36843 -0.01437
#
# Static dielectric constant tensor:
#      x y z
#    x 4.943120 0.356010 0.025070 
#    y 0.356010 8.002380 -0.134850 
#    z 0.025070 -0.134850 4.500350 
# 
# 
# High freq. dielectric constant tensor:
#      x y z
#    x 2.052860 -0.003740 0.004300 
#    y -0.003740 2.049400 -0.001580 
#    z 0.004300 -0.001580 2.045300 
# 
# From -- ./inp_files/243076.got.cif
#   From: 2010.06.25/outbox.cif.g09.slc.cpg/sg2_122_cif.got.tgz:243076.got - 2010.06.27 13:26:56.
