data_PCOD8037444
_publ_section_title
;
Structure prediction by ZEFSAII (Michael W. Deem and Ramdas Pophale) SiO2 
 PCOD8037444
Probable space group: P -1
;
_chemical_formula_sum "Si O2"
_cell_formula_units_Z 10
_cell_length_a 11.003151
_cell_length_b 11.493190
_cell_length_c 9.510721
_cell_angle_alpha 94.201200
_cell_angle_beta 72.225404
_cell_angle_gamma 155.742474
_cell_volume 400.727978
_symmetry_space_group_name_H-M "P -1"
_symmetry_group_IT_number 2
_symmetry_cell_setting 'triclinic'
loop_
_space_group_symop_operation_xyz
x,y,z
-x,-y,-z
loop_
_atom_site_type_symbol
_atom_site_label
_atom_site_fract_x
_atom_site_fract_y
_atom_site_fract_z
Si Si1 0.615081 0.900642 0.580355
Si Si2 0.974103 0.628484 0.762304
Si Si3 0.513684 0.026566 0.830667
Si Si4 0.163721 0.295442 0.620951
Si Si5 0.301892 0.213032 0.015770
O O1 0.278367 0.524869 0.645087
O O2 0.540636 0.925704 0.736158
O O3 0.705753 0.043589 0.416405
O O4 0.969017 0.130585 0.523478
O O5 0.873655 0.414894 0.715149
O O6 0.597223 0.376204 0.865043
O O7 0.144826 0.769493 0.872549
O O8 0.500000 0.000000 0.000000
O O9 0.500000 0.500000 0.500000
O O10 0.879480 0.001825 0.805761
O O11 0.500000 0.500000 0.000000
O O12 0.000000 0.000000 0.000000
#
# Coordination Sequence:
#
# PCOD8037444 Si02
#       5
#     2   2   2   2   2
#     4  12  25  46  72 104 142 187 236 291 352 421
#     4  12  25  46  72 104 142 188 237 294 353 419
#     4  12  26  45  71 106 144 188 237 293 353 420
#     4  12  25  45  71 104 141 186 235 292 354 422
#     4  12  25  44  69 102 139 183 232 288 350 418
#
# _framework density 24.954581999999998
#
# number of rings (size 3 to 8) (size 9 to 14) (size 15 to 20)
#    0.000    0.000    0.000   10.800    0.000    3.200 
#    0.000    0.000    0.000    0.000    0.000    0.000 
#    0.000    0.000    0.000    0.000    0.000    0.000 
#
# Total GULP energy -123987.065980 kJ/mol
# GULP energy per Si atom -12398.706598 kJ/mol
# Density = 2.489778 g / cm^3
# Si number density = 24.954582 Si / 1000 Ang^3
#
#
#
# Elastic Constant Matrix: (Units=GPa)
#
#
# Indices 1 2 3 4 5 6 
#
# 1 109.2823 43.6003 47.4955 -2.1909 25.9801 2.2411
# 2 43.6003 173.3971 40.8487 -11.9523 35.2474 -12.0996
# 3 47.4955 40.8487 127.4500 -6.9163 14.3068 -15.9517
# 4 -2.1909 -11.9523 -6.9163 42.4530 -3.6661 16.3002
# 5 25.9801 35.2474 14.3068 -3.6661 34.0163 -0.7535
# 6 2.2411 -12.0996 -15.9517 16.3002 -0.7535 76.7385
#
#
#
# Elastic Compliance Matrix: (Units=1/GPa)
#
#
# Indices 1 2 3 4 5 6 
#
# 1 0.012999 -0.000976 -0.003894 -0.000359 -0.007348 -0.001339
# 2 -0.000976 0.007783 -0.001235 0.001095 -0.006666 0.000701
# 3 -0.003894 -0.001235 0.009934 0.000349 0.000156 0.001911
# 4 -0.000359 0.001095 0.000349 0.026069 0.001686 -0.005265
# 5 -0.007348 -0.006666 0.000156 0.001686 0.042016 -0.000750
# 6 -0.001339 0.000701 0.001911 -0.005265 -0.000750 0.014689
#
#
# Mechanical properties :
#
#
# Convention : Reuss Voigt Hill
#
# Bulk Modulus (GPa) = 54.03630 74.89093 64.46362
# Shear Modulus (GPa) = 37.91616 49.18723 43.55169
#
# Velocity S-wave (km/s) = 3.90219 4.44449 4.18214
# Velocity P-wave (km/s) = 6.48102 7.51093 7.01490
#
# Compressibility (1/GPa) = 0.01850608
#
# Stress axis : x y z
#
# Youngs Moduli (GPa) = 76.92709 128.48554 100.66560
#
# Poissons Ratio (x) = 0.12539 0.39197
# Poissons Ratio (y) = 0.07507 0.12436
# Poissons Ratio (z) = 0.29954 0.15873
#
# Static dielectric constant tensor:
#      x y z
#    x 5.017250 0.044820 0.255400 
#    y 0.044820 5.068390 -0.004830 
#    z 0.255400 -0.004830 3.752750 
# 
# 
# High freq. dielectric constant tensor:
#      x y z
#    x 2.025060 0.005340 0.009920 
#    y 0.005340 2.025140 -0.010250 
#    z 0.009920 -0.010250 1.980040 
# 
# From -- ./inp_files/251808.got.cif
#   From: 2010.06.25/outbox.cif.g09.slc.cpg/sg2_126_cif.got.tgz:251808.got - 2010.06.27 13:26:56.
