data_PCOD8037129
_publ_section_title
;
Structure prediction by ZEFSAII (Michael W. Deem and Ramdas Pophale) SiO2 
 PCOD8037129
Probable space group: P -1
;
_chemical_formula_sum "Si O2"
_cell_formula_units_Z 12
_cell_length_a 6.662129
_cell_length_b 14.629871
_cell_length_c 12.288253
_cell_angle_alpha 30.441735
_cell_angle_beta 118.162671
_cell_angle_gamma 114.952652
_cell_volume 534.681772
_symmetry_space_group_name_H-M "P -1"
_symmetry_group_IT_number 2
_symmetry_cell_setting 'triclinic'
loop_
_space_group_symop_operation_xyz
x,y,z
-x,-y,-z
loop_
_atom_site_type_symbol
_atom_site_label
_atom_site_fract_x
_atom_site_fract_y
_atom_site_fract_z
Si Si1 0.513257 0.919596 0.465803
Si Si2 0.477758 0.730786 0.029484
Si Si3 0.801246 0.599400 0.785619
Si Si4 0.950986 0.704652 0.275012
Si Si5 0.713771 0.114371 0.979626
Si Si6 0.998448 0.812645 0.416579
O O1 0.701420 0.764947 0.660165
O O2 0.270896 0.826355 0.469429
O O3 0.500000 0.000000 0.500000
O O4 0.587032 0.086797 0.236436
O O5 0.400837 0.549460 0.132676
O O6 0.748590 0.737367 0.105398
O O7 0.362539 0.725533 0.124885
O O8 0.907854 0.667733 0.629399
O O9 0.000000 0.500000 0.000000
O O10 0.000000 0.500000 0.500000
O O11 0.897566 0.764924 0.321000
O O12 0.171749 0.812178 0.176385
O O13 0.886511 0.003960 0.213448
O O14 0.500000 0.000000 0.000000
#
# Coordination Sequence:
#
# PCOD8037129 Si02
#       6
#     2   2   2   2   2   2
#     4  12  28  49  76 102 144 199 246 301 367 428
#     4  12  26  47  74 105 149 189 239 301 364 436
#     4  12  30  49  74 109 144 191 253 305 358 429
#     4  12  26  42  72 111 145 187 235 298 367 431
#     4  12  24  43  74 108 146 189 236 286 367 436
#     4  12  25  46  73 105 148 187 241 297 361 437
#
# _framework density 22.443254
#
# number of rings (size 3 to 8) (size 9 to 14) (size 15 to 20)
#    0.000    0.000    5.000    4.500    4.667    6.667 
#    0.000    0.000    0.000    0.000    0.000    0.000 
#    0.000    0.000    0.000    0.000    0.000    0.000 
#
# Total GULP energy -148824.396684 kJ/mol
# GULP energy per Si atom -12402.033057 kJ/mol
# Density = 2.239217 g / cm^3
# Si number density = 22.443254 Si / 1000 Ang^3
#
#
#
# Elastic Constant Matrix: (Units=GPa)
#
#
# Indices 1 2 3 4 5 6 
#
# 1 125.7748 48.9506 66.4652 -1.3838 -6.5718 -4.0531
# 2 48.9506 127.1194 48.8141 -2.9843 -2.7438 -7.0988
# 3 66.4652 48.8141 152.4867 -5.6079 -0.8503 -1.4606
# 4 -1.3838 -2.9843 -5.6079 36.5085 -0.9414 1.0035
# 5 -6.5718 -2.7438 -0.8503 -0.9414 47.6567 -3.9439
# 6 -4.0531 -7.0988 -1.4606 1.0035 -3.9439 39.0746
#
#
#
# Elastic Compliance Matrix: (Units=1/GPa)
#
#
# Indices 1 2 3 4 5 6 
#
# 1 0.011223 -0.002720 -0.004022 -0.000398 0.001367 0.000668
# 2 -0.002720 0.009740 -0.001903 0.000368 0.000278 0.001435
# 3 -0.004022 -0.001903 0.008952 0.001067 -0.000526 -0.000509
# 4 -0.000398 0.000368 0.001067 0.027599 0.000481 -0.000595
# 5 0.001367 0.000278 -0.000526 0.000481 0.021380 0.002318
# 6 0.000668 0.001435 -0.000509 -0.000595 0.002318 0.026152
#
#
# Mechanical properties :
#
#
# Convention : Reuss Voigt Hill
#
# Bulk Modulus (GPa) = 79.21312 81.53784 80.37548
# Shear Modulus (GPa) = 39.51200 40.72468 40.11834
#
# Velocity S-wave (km/s) = 4.20042 4.26439 4.23252
# Velocity P-wave (km/s) = 7.67438 7.78821 7.73151
#
# Compressibility (1/GPa) = 0.01262417
#
# Stress axis : x y z
#
# Youngs Moduli (GPa) = 89.10153 102.67253 111.70995
#
# Poissons Ratio (x) = 0.27926 0.44928
# Poissons Ratio (y) = 0.24235 0.21264
# Poissons Ratio (z) = 0.35835 0.19544
#
# Static dielectric constant tensor:
#      x y z
#    x 3.993210 0.059990 0.122300 
#    y 0.059990 3.941010 -0.031020 
#    z 0.122300 -0.031020 4.291910 
# 
# 
# High freq. dielectric constant tensor:
#      x y z
#    x 1.900570 -0.001930 0.002430 
#    y -0.001930 1.884890 -0.002070 
#    z 0.002430 -0.002070 1.897350 
# 
# From -- ./inp_files/21552.got.cif
#   From: 2010.06.25/outbox.cif.g09.slc.cpg/sg2_11_cif.got.tgz:21552.got - 2010.06.27 13:26:56.
