data_PCOD8037083
_publ_section_title
;
Structure prediction by ZEFSAII (Michael W. Deem and Ramdas Pophale) SiO2 
 PCOD8037083
Probable space group: P -1
;
_chemical_formula_sum "Si O2"
_cell_formula_units_Z 16
_cell_length_a 8.209072
_cell_length_b 27.806286
_cell_length_c 8.618727
_cell_angle_alpha 139.149455
_cell_angle_beta 146.427339
_cell_angle_gamma 41.567927
_cell_volume 672.715360
_symmetry_space_group_name_H-M "P -1"
_symmetry_group_IT_number 2
_symmetry_cell_setting 'triclinic'
loop_
_space_group_symop_operation_xyz
x,y,z
-x,-y,-z
loop_
_atom_site_type_symbol
_atom_site_label
_atom_site_fract_x
_atom_site_fract_y
_atom_site_fract_z
Si Si1 0.173719 0.569876 0.436824
Si Si2 0.254906 0.453852 0.702562
Si Si3 0.789754 0.946235 0.685316
Si Si4 0.695623 0.182717 0.692625
Si Si5 0.400472 0.341296 0.998204
Si Si6 0.604834 0.692147 0.744268
Si Si7 0.065718 0.785756 0.357811
Si Si8 0.706800 0.916516 0.899717
O O1 0.500000 0.500000 0.500000
O O2 0.919295 0.543944 0.267212
O O3 0.955530 0.607820 0.207036
O O4 0.314549 0.631895 0.781385
O O5 0.379646 0.365160 0.528401
O O6 0.000000 0.500000 0.500000
O O7 0.500000 0.500000 0.000000
O O8 0.728863 0.916709 0.732623
O O9 0.886727 0.874991 0.468852
O O10 0.500000 0.000000 0.500000
O O11 0.000000 0.000000 0.000000
O O12 0.481608 0.250992 0.799618
O O13 0.824395 0.221281 0.749775
O O14 0.468011 0.143106 0.334959
O O15 0.953638 0.116085 0.831780
O O16 0.437724 0.349971 0.233976
O O17 0.320785 0.766654 0.650521
O O18 0.891402 0.722534 0.077264
O O19 0.500000 0.000000 0.000000
#
# Coordination Sequence:
#
# PCOD8037083 Si02
#       8
#     2   2   2   2   2   2   2   2
#     4  12  26  46  71 102 139 181 229 286 349 418
#     4  12  26  47  71 101 137 180 227 282 345 416
#     4  12  24  42  65  96 134 176 223 278 336 403
#     4  12  24  43  68  97 134 178 226 282 342 411
#     4  12  25  45  69 102 137 180 229 286 348 417
#     4  12  25  44  69  99 134 176 225 281 340 410
#     4  12  24  43  67  98 132 177 226 279 340 407
#     4  12  24  42  65  97 134 178 227 282 342 408
#
# _framework density 23.784203999999999
#
# number of rings (size 3 to 8) (size 9 to 14) (size 15 to 20)
#    0.000    0.000    0.000   11.250    0.000    2.000 
#    0.000    0.000    0.000    0.000    0.000    0.000 
#    0.000    0.000    0.000    0.000    0.000    0.000 
#
# Total GULP energy -198279.705203 kJ/mol
# GULP energy per Si atom -12392.481575 kJ/mol
# Density = 2.373007 g / cm^3
# Si number density = 23.784204 Si / 1000 Ang^3
#
#
#
# Elastic Constant Matrix: (Units=GPa)
#
#
# Indices 1 2 3 4 5 6 
#
# 1 104.8282 44.5601 41.7037 -1.0407 5.9071 -3.5373
# 2 44.5601 149.3246 45.9217 -17.2156 -8.3834 -7.8092
# 3 41.7037 45.9217 129.7971 0.7686 11.9802 -2.6366
# 4 -1.0407 -17.2156 0.7686 65.4302 9.8501 -5.5437
# 5 5.9071 -8.3834 11.9802 9.8501 40.9591 1.7755
# 6 -3.5373 -7.8092 -2.6366 -5.5437 1.7755 35.4362
#
#
#
# Elastic Compliance Matrix: (Units=1/GPa)
#
#
# Indices 1 2 3 4 5 6 
#
# 1 0.011897 -0.002818 -0.002681 -0.000267 -0.001461 0.000399
# 2 -0.002818 0.008724 -0.002373 0.002072 0.002315 0.001673
# 3 -0.002681 -0.002373 0.009670 -0.000351 -0.002844 0.000016
# 4 -0.000267 0.002072 -0.000351 0.016636 -0.003574 0.003185
# 5 -0.001461 0.002315 -0.002844 -0.003574 0.026866 -0.001752
# 6 0.000399 0.001673 0.000016 0.003185 -0.001752 0.029216
#
#
# Mechanical properties :
#
#
# Convention : Reuss Voigt Hill
#
# Bulk Modulus (GPa) = 68.74128 72.03567 70.38847
# Shear Modulus (GPa) = 40.45252 45.14938 42.80095
#
# Velocity S-wave (km/s) = 4.12857 4.36167 4.24672
# Velocity P-wave (km/s) = 7.18969 7.46448 7.32837
#
# Compressibility (1/GPa) = 0.01454730
#
# Stress axis : x y z
#
# Youngs Moduli (GPa) = 84.05573 114.62987 103.41006
#
# Poissons Ratio (x) = 0.32298 0.27725
# Poissons Ratio (y) = 0.23684 0.24540
# Poissons Ratio (z) = 0.22536 0.27203
#
# Static dielectric constant tensor:
#      x y z
#    x 4.323110 0.053980 0.204240 
#    y 0.053980 4.509250 -0.105410 
#    z 0.204240 -0.105410 4.404730 
# 
# 
# High freq. dielectric constant tensor:
#      x y z
#    x 1.940890 0.008470 0.005160 
#    y 0.008470 1.968600 -0.001420 
#    z 0.005160 -0.001420 1.964000 
# 
# From -- ./inp_files/228015.got.cif
#   From: 2010.06.25/outbox.cif.g09.slc.cpg/sg2_115_cif.got.tgz:228015.got - 2010.06.27 13:26:56.
