data_PCOD8037525
_publ_section_title
;
Structure prediction by ZEFSAII (Michael W. Deem and Ramdas Pophale) SiO2 
 PCOD8037525
Probable space group: P -1
;
_chemical_formula_sum "Si O2"
_cell_formula_units_Z 16
_cell_length_a 12.826280
_cell_length_b 11.399798
_cell_length_c 19.496585
_cell_angle_alpha 127.807134
_cell_angle_beta 162.173533
_cell_angle_gamma 52.376340
_cell_volume 685.231859
_symmetry_space_group_name_H-M "P -1"
_symmetry_group_IT_number 2
_symmetry_cell_setting 'triclinic'
loop_
_space_group_symop_operation_xyz
x,y,z
-x,-y,-z
loop_
_atom_site_type_symbol
_atom_site_label
_atom_site_fract_x
_atom_site_fract_y
_atom_site_fract_z
Si Si1 0.197932 0.429438 0.368585
Si Si2 0.260068 0.818268 0.409486
Si Si3 0.476518 0.129955 0.685721
Si Si4 0.964999 0.136768 0.871705
Si Si5 0.354830 0.396133 0.190564
Si Si6 0.729664 0.186359 0.012323
Si Si7 0.727105 0.698036 0.121778
Si Si8 0.822833 0.351079 0.340563
O O1 0.494709 0.335054 0.476339
O O2 0.362370 0.533270 0.563193
O O3 0.947475 0.536481 0.201751
O O4 0.979314 0.313109 0.228015
O O5 0.187767 0.829903 0.287504
O O6 0.915574 0.814672 0.236622
O O7 0.458608 0.953465 0.607633
O O8 0.667378 0.183787 0.757460
O O9 0.691674 0.162894 0.899169
O O10 0.097001 0.213620 0.483095
O O11 0.273336 0.238125 0.114976
O O12 0.104042 0.964237 0.901731
O O13 0.505740 0.367292 0.199554
O O14 0.000000 0.500000 0.000000
O O15 0.355885 0.236292 0.830165
O O16 0.348249 0.682812 0.850652
O O17 0.000000 0.500000 0.500000
#
# Coordination Sequence:
#
# PCOD8037525 Si02
#       8
#     2   2   2   2   2   2   2   2
#     4  12  26  49  74 109 152 198 243 305 369 442
#     4  12  27  47  76 111 146 198 243 311 373 435
#     4  12  28  48  76 108 150 197 252 300 375 440
#     4  12  26  49  76 110 148 192 253 305 366 449
#     4  12  25  46  76 114 147 192 250 301 371 438
#     4  12  28  49  76 110 150 197 247 305 374 442
#     4  12  27  47  76 110 152 188 251 311 368 441
#     4  12  25  46  77 108 147 199 245 307 368 440
#
# _framework density 23.349761999999998
#
# number of rings (size 3 to 8) (size 9 to 14) (size 15 to 20)
#    0.000    0.000    3.750    5.250    5.250    2.500 
#    0.000    0.000    0.000    0.000    0.000    0.000 
#    0.000    0.000    0.000    0.000    0.000    0.000 
#
# Total GULP energy -198512.119549 kJ/mol
# GULP energy per Si atom -12407.007472 kJ/mol
# Density = 2.329662 g / cm^3
# Si number density = 23.349762 Si / 1000 Ang^3
#
#
#
# Elastic Constant Matrix: (Units=GPa)
#
#
# Indices 1 2 3 4 5 6 
#
# 1 133.2221 28.2276 38.9811 20.0413 33.4862 -5.9562
# 2 28.2276 112.0889 44.1307 10.1665 10.0638 2.1620
# 3 38.9811 44.1307 115.3594 18.8918 7.7897 3.2879
# 4 20.0413 10.1665 18.8918 53.3220 -3.9837 9.3557
# 5 33.4862 10.0638 7.7897 -3.9837 36.2540 2.8738
# 6 -5.9562 2.1620 3.2879 9.3557 2.8738 33.7896
#
#
#
# Elastic Compliance Matrix: (Units=1/GPa)
#
#
# Indices 1 2 3 4 5 6 
#
# 1 0.012306 -0.000735 -0.002349 -0.005387 -0.011640 0.004926
# 2 -0.000735 0.010742 -0.003658 -0.000562 -0.001565 -0.000172
# 3 -0.002349 -0.003658 0.011206 -0.002222 0.000589 -0.000705
# 4 -0.005387 -0.000562 -0.002222 0.023742 0.008854 -0.008024
# 5 -0.011640 -0.001565 0.000589 0.008854 0.040240 -0.007883
# 6 0.004926 -0.000172 -0.000705 -0.008024 -0.007883 0.033435
#
#
# Mechanical properties :
#
#
# Convention : Reuss Voigt Hill
#
# Bulk Modulus (GPa) = 48.15093 64.81659 56.48376
# Shear Modulus (GPa) = 32.87766 41.29520 37.08643
#
# Velocity S-wave (km/s) = 3.75647 4.20997 3.98967
# Velocity P-wave (km/s) = 6.28340 7.17294 6.74286
#
# Compressibility (1/GPa) = 0.02076803
#
# Stress axis : x y z
#
# Youngs Moduli (GPa) = 81.26258 93.09484 89.23802
#
# Poissons Ratio (x) = 0.06847 0.20964
# Poissons Ratio (y) = 0.05977 0.32644
# Poissons Ratio (z) = 0.19090 0.34055
#
# Static dielectric constant tensor:
#      x y z
#    x 4.360530 -0.101760 0.187040 
#    y -0.101760 4.460400 0.119830 
#    z 0.187040 0.119830 4.309780 
# 
# 
# High freq. dielectric constant tensor:
#      x y z
#    x 1.934060 -0.003710 0.010890 
#    y -0.003710 1.934670 0.005670 
#    z 0.010890 0.005670 1.932910 
# 
# From -- ./inp_files/569202.got.cif
#   From: 2010.06.25/outbox.cif.g09.slc.cpg/sg2_285_cif.got.tgz:569202.got - 2010.06.27 13:26:56.
