data_PCOD8037283
_publ_section_title
;
Structure prediction by ZEFSAII (Michael W. Deem and Ramdas Pophale) SiO2 
 PCOD8037283
Probable space group: P -1
;
_chemical_formula_sum "Si O2"
_cell_formula_units_Z 16
_cell_length_a 7.958852
_cell_length_b 18.531928
_cell_length_c 11.612166
_cell_angle_alpha 136.433474
_cell_angle_beta 135.627407
_cell_angle_gamma 76.533396
_cell_volume 665.625715
_symmetry_space_group_name_H-M "P -1"
_symmetry_group_IT_number 2
_symmetry_cell_setting 'triclinic'
loop_
_space_group_symop_operation_xyz
x,y,z
-x,-y,-z
loop_
_atom_site_type_symbol
_atom_site_label
_atom_site_fract_x
_atom_site_fract_y
_atom_site_fract_z
Si Si1 0.471828 0.264224 0.725658
Si Si2 0.229728 0.977298 0.645594
Si Si3 0.044879 0.277252 0.644284
Si Si4 0.757825 0.996496 0.798383
Si Si5 0.190653 0.267124 0.223895
Si Si6 0.298148 0.549094 0.140514
Si Si7 0.806036 0.349755 0.211114
Si Si8 0.447853 0.764880 0.795593
O O1 0.151459 0.240725 0.540091
O O2 0.444025 0.138411 0.525882
O O3 0.710005 0.391727 0.916864
O O4 0.527987 0.292484 0.923719
O O5 0.519674 0.014747 0.758901
O O6 0.062864 0.828953 0.431278
O O7 0.000000 0.000000 0.500000
O O8 0.358581 0.078288 0.931900
O O9 0.783806 0.285145 0.480108
O O10 0.304510 0.424271 0.986158
O O11 0.000000 0.000000 0.000000
O O12 0.956254 0.113109 0.942932
O O13 0.416314 0.331881 0.516425
O O14 0.356527 0.286964 0.205797
O O15 0.010328 0.327580 0.206075
O O16 0.000000 0.500000 0.000000
O O17 0.692823 0.280732 0.199183
O O18 0.000000 0.500000 0.500000
#
# Coordination Sequence:
#
# PCOD8037283 Si02
#       8
#     2   2   2   2   2   2   2   2
#     4  12  26  46  79 110 151 204 254 327 389 456
#     4  12  27  47  78 116 160 197 257 333 392 465
#     4  12  24  46  77 109 150 200 260 318 390 468
#     4  12  24  49  80 114 154 201 265 322 395 467
#     4  12  26  47  79 107 156 202 255 322 388 467
#     4  12  24  48  74 113 146 196 265 316 384 468
#     4  12  28  50  72 111 163 204 254 317 391 464
#     4  12  25  49  74 110 154 203 262 314 388 470
#
# _framework density 24.037534000000001
#
# number of rings (size 3 to 8) (size 9 to 14) (size 15 to 20)
#    0.000    0.000    3.750    6.750    1.750    1.000 
#    2.250    0.000    0.000    0.000    0.000    0.000 
#    0.000    0.000    0.000    0.000    0.000    0.000 
#
# Total GULP energy -198286.528687 kJ/mol
# GULP energy per Si atom -12392.908043 kJ/mol
# Density = 2.398282 g / cm^3
# Si number density = 24.037534 Si / 1000 Ang^3
#
#
#
# Elastic Constant Matrix: (Units=GPa)
#
#
# Indices 1 2 3 4 5 6 
#
# 1 165.8814 42.2872 36.5627 7.3745 2.9259 -19.2554
# 2 42.2872 116.9665 50.1833 21.4345 -3.0851 4.1469
# 3 36.5627 50.1833 111.8953 23.9550 -11.7965 2.8808
# 4 7.3745 21.4345 23.9550 41.4861 -8.1110 -3.1625
# 5 2.9259 -3.0851 -11.7965 -8.1110 43.8858 3.7306
# 6 -19.2554 4.1469 2.8808 -3.1625 3.7306 41.8300
#
#
#
# Elastic Compliance Matrix: (Units=1/GPa)
#
#
# Indices 1 2 3 4 5 6 
#
# 1 0.007456 -0.002242 -0.001878 0.000962 -0.001319 0.003974
# 2 -0.002242 0.011707 -0.003710 -0.003779 -0.000538 -0.002175
# 3 -0.001878 -0.003710 0.012524 -0.004632 0.002539 -0.001936
# 4 0.000962 -0.003779 -0.004632 0.029500 0.003619 0.003044
# 5 -0.001319 -0.000538 0.002539 0.003619 0.024412 -0.002632
# 6 0.003974 -0.002175 -0.001936 0.003044 -0.002632 0.026549
#
#
# Mechanical properties :
#
#
# Convention : Reuss Voigt Hill
#
# Bulk Modulus (GPa) = 62.39477 72.53440 67.46458
# Shear Modulus (GPa) = 37.55198 43.15439 40.35318
#
# Velocity S-wave (km/s) = 3.95678 4.24169 4.10171
# Velocity P-wave (km/s) = 6.84751 7.36411 7.11051
#
# Compressibility (1/GPa) = 0.01602698
#
# Stress axis : x y z
#
# Youngs Moduli (GPa) = 134.12638 85.41977 79.84948
#
# Poissons Ratio (x) = 0.19148 0.14998
# Poissons Ratio (y) = 0.30067 0.29621
# Poissons Ratio (z) = 0.25193 0.31687
#
# Static dielectric constant tensor:
#      x y z
#    x 4.687960 -0.431990 0.048080 
#    y -0.431990 4.381210 0.289750 
#    z 0.048080 0.289750 4.781190 
# 
# 
# High freq. dielectric constant tensor:
#      x y z
#    x 1.977740 -0.018430 0.003990 
#    y -0.018430 1.942180 0.013680 
#    z 0.003990 0.013680 1.969050 
# 
# From -- ./inp_files/403290.got.cif
#   From: 2010.06.25/outbox.cif.g09.slc.cpg/sg2_202_cif.got.tgz:403290.got - 2010.06.27 13:26:56.
