data_PCOD8037059
_publ_section_title
;
Structure prediction by ZEFSAII (Michael W. Deem and Ramdas Pophale) SiO2 
 PCOD8037059
Probable space group: P -1
;
_chemical_formula_sum "Si O2"
_cell_formula_units_Z 14
_cell_length_a 8.092747
_cell_length_b 23.102174
_cell_length_c 5.760932
_cell_angle_alpha 62.932293
_cell_angle_beta 120.743062
_cell_angle_gamma 143.455630
_cell_volume 549.130785
_symmetry_space_group_name_H-M "P -1"
_symmetry_group_IT_number 2
_symmetry_cell_setting 'triclinic'
loop_
_space_group_symop_operation_xyz
x,y,z
-x,-y,-z
loop_
_atom_site_type_symbol
_atom_site_label
_atom_site_fract_x
_atom_site_fract_y
_atom_site_fract_z
Si Si1 0.145960 0.167148 0.338172
Si Si2 0.609139 0.964201 0.272839
Si Si3 0.236848 0.840108 0.617193
Si Si4 0.728437 0.577299 0.217008
Si Si5 0.631088 0.221563 0.818671
Si Si6 0.154555 0.525251 0.314451
Si Si7 0.311244 0.299046 0.819836
O O1 0.382815 0.213281 0.623192
O O2 0.908582 0.158088 0.278207
O O3 0.305847 0.235655 0.101711
O O4 0.961036 0.055393 0.346620
O O5 0.504471 0.945027 0.500507
O O6 0.467784 0.862152 0.267855
O O7 0.500000 0.000000 0.000000
O O8 0.999412 0.765980 0.389277
O O9 0.364062 0.804122 0.869075
O O10 0.745143 0.525095 0.519722
O O11 0.601550 0.613664 0.141635
O O12 0.055940 0.669546 0.197693
O O13 0.500000 0.500000 0.000000
O O14 0.434903 0.644012 0.294156
O O15 0.000000 0.500000 0.500000
O O16 0.000000 0.500000 0.000000
#
# Coordination Sequence:
#
# PCOD8037059 Si02
#       7
#     2   2   2   2   2   2   2
#     4  12  27  48  78 112 155 201 259 322 393 469
#     4  12  23  50  74 109 157 204 251 321 391 468
#     4  12  24  46  77 104 159 196 257 310 399 458
#     4  12  25  52  80 108 157 211 263 328 409 476
#     4  12  27  46  75 114 151 197 266 317 384 473
#     4  12  29  49  77 116 156 203 272 335 398 475
#     4  12  26  51  75 109 154 205 256 323 396 480
#
# _framework density 25.494835999999999
#
# number of rings (size 3 to 8) (size 9 to 14) (size 15 to 20)
#    0.000    0.000    5.714    3.857    4.000    2.857 
#    0.000    0.000    0.000    0.000    0.000    0.000 
#    0.000    0.000    0.000    0.000    0.000    0.000 
#
# Total GULP energy -173472.943175 kJ/mol
# GULP energy per Si atom -12390.924513 kJ/mol
# Density = 2.543681 g / cm^3
# Si number density = 25.494836 Si / 1000 Ang^3
#
#
#
# Elastic Constant Matrix: (Units=GPa)
#
#
# Indices 1 2 3 4 5 6 
#
# 1 43.2637 34.6732 23.8448 -3.5433 -2.8021 12.7452
# 2 34.6732 180.3331 77.7114 -20.5531 8.2333 16.2624
# 3 23.8448 77.7114 215.8819 -14.2382 18.4274 24.8155
# 4 -3.5433 -20.5531 -14.2382 56.4581 12.6098 -15.6949
# 5 -2.8021 8.2333 18.4274 12.6098 36.1162 3.5001
# 6 12.7452 16.2624 24.8155 -15.6949 3.5001 44.9732
#
#
#
# Elastic Compliance Matrix: (Units=1/GPa)
#
#
# Indices 1 2 3 4 5 6 
#
# 1 0.030541 -0.005323 -0.001365 -0.003991 0.006436 -0.007871
# 2 -0.005323 0.007733 -0.001928 0.002748 -0.002240 0.000909
# 3 -0.001365 -0.001928 0.005973 0.000892 -0.002863 -0.001678
# 4 -0.003991 0.002748 0.000892 0.023407 -0.010399 0.008623
# 5 0.006436 -0.002240 -0.002863 -0.010399 0.034346 -0.005736
# 6 -0.007871 0.000909 -0.001678 0.008623 -0.005736 0.028519
#
#
# Mechanical properties :
#
#
# Convention : Reuss Voigt Hill
#
# Bulk Modulus (GPa) = 37.01588 79.10416 58.06002
# Shear Modulus (GPa) = 31.89698 47.72612 39.81155
#
# Velocity S-wave (km/s) = 3.54095 4.33135 3.95594
# Velocity P-wave (km/s) = 5.59180 7.49059 6.60973
#
# Compressibility (1/GPa) = 0.02701543
#
# Stress axis : x y z
#
# Youngs Moduli (GPa) = 32.74293 129.31700 167.42176
#
# Poissons Ratio (x) = 0.68833 0.22854
# Poissons Ratio (y) = 0.17428 0.32276
# Poissons Ratio (z) = 0.04470 0.24930
#
# Static dielectric constant tensor:
#      x y z
#    x 4.692210 0.140580 0.121230 
#    y 0.140580 5.306900 -0.136700 
#    z 0.121230 -0.136700 4.940690 
# 
# 
# High freq. dielectric constant tensor:
#      x y z
#    x 2.002450 0.003000 0.007800 
#    y 0.003000 2.050460 -0.006040 
#    z 0.007800 -0.006040 2.030530 
# 
# From -- ./inp_files/56352.got.cif
#   From: 2010.06.25/outbox.cif.g09.slc.cpg/sg2_29_cif.got.tgz:56352.got - 2010.06.27 13:26:56.
