data_PCOD8037018
_publ_section_title
;
Structure prediction by ZEFSAII (Michael W. Deem and Ramdas Pophale) SiO2 
 PCOD8037018
Probable space group: P -1
;
_chemical_formula_sum "Si O2"
_cell_formula_units_Z 16
_cell_length_a 9.274295
_cell_length_b 17.647603
_cell_length_c 11.619091
_cell_angle_alpha 125.020022
_cell_angle_beta 95.209912
_cell_angle_gamma 39.167669
_cell_volume 716.977459
_symmetry_space_group_name_H-M "P -1"
_symmetry_group_IT_number 2
_symmetry_cell_setting 'triclinic'
loop_
_space_group_symop_operation_xyz
x,y,z
-x,-y,-z
loop_
_atom_site_type_symbol
_atom_site_label
_atom_site_fract_x
_atom_site_fract_y
_atom_site_fract_z
Si Si1 0.851939 0.952136 0.238734
Si Si2 0.384500 0.911818 0.197690
Si Si3 0.714764 0.238028 0.468702
Si Si4 0.496974 0.105896 0.558821
Si Si5 0.803240 0.512189 0.788831
Si Si6 0.175347 0.495699 0.476284
Si Si7 0.508705 0.504761 0.866814
Si Si8 0.577215 0.936594 0.820197
O O1 0.851282 0.061260 0.357707
O O2 0.793733 0.945589 0.356152
O O3 0.581602 0.069666 0.235806
O O4 0.166198 0.737525 0.013987
O O5 0.440521 0.873560 0.304033
O O6 0.521006 0.924602 0.152576
O O7 0.578789 0.713051 0.004182
O O8 0.010422 0.122399 0.330674
O O9 0.446508 0.372106 0.474000
O O10 0.577684 0.369533 0.685861
O O11 0.174623 0.323668 0.664546
O O12 0.500000 0.000000 0.500000
O O13 0.690932 0.583211 0.711259
O O14 0.758383 0.437752 0.780215
O O15 0.000000 0.500000 0.500000
O O16 0.945303 0.713272 0.648434
O O17 0.500000 0.500000 0.000000
O O18 0.500000 0.000000 0.000000
#
# Coordination Sequence:
#
# PCOD8037018 Si02
#       8
#     2   2   2   2   2   2   2   2
#     4  12  25  47  74 108 149 193 243 308 371 440
#     4  12  27  45  74 109 143 199 247 302 378 436
#     4  12  27  48  76 106 153 196 244 312 373 438
#     4  12  23  47  73 103 150 192 247 306 367 446
#     4  12  26  47  73 109 149 195 247 309 372 445
#     4  12  24  48  74 105 146 193 249 305 370 444
#     4  12  28  47  73 113 152 195 250 305 379 447
#     4  12  25  45  72 106 144 193 249 300 370 446
#
# _framework density 22.315904
#
# number of rings (size 3 to 8) (size 9 to 14) (size 15 to 20)
#    0.000    0.000    5.000    4.875    1.750    5.500 
#    0.000    0.000    0.000    0.000    0.000    0.000 
#    0.000    0.000    0.000    0.000    0.000    0.000 
#
# Total GULP energy -198343.329127 kJ/mol
# GULP energy per Si atom -12396.458070 kJ/mol
# Density = 2.226511 g / cm^3
# Si number density = 22.315904 Si / 1000 Ang^3
#
#
#
# Elastic Constant Matrix: (Units=GPa)
#
#
# Indices 1 2 3 4 5 6 
#
# 1 98.2510 25.3641 38.7785 -9.1973 8.2511 2.0185
# 2 25.3641 79.0775 14.2463 -5.5066 10.2940 -11.3859
# 3 38.7785 14.2463 127.4385 -0.4627 28.7165 -10.0392
# 4 -9.1973 -5.5066 -0.4627 47.9906 -1.3353 -4.2759
# 5 8.2511 10.2940 28.7165 -1.3353 38.5866 1.0920
# 6 2.0185 -11.3859 -10.0392 -4.2759 1.0920 39.3056
#
#
#
# Elastic Compliance Matrix: (Units=1/GPa)
#
#
# Indices 1 2 3 4 5 6 
#
# 1 0.012850 -0.003837 -0.003995 0.001788 0.001385 -0.002636
# 2 -0.003837 0.015056 0.000751 0.001338 -0.003850 0.005003
# 3 -0.003995 0.000751 0.010959 -0.000484 -0.007614 0.003381
# 4 0.001788 0.001338 -0.000484 0.021561 0.000296 0.002509
# 5 0.001385 -0.003850 -0.007614 0.000296 0.032437 -0.004000
# 6 -0.002636 0.005003 0.003381 0.002509 -0.004000 0.028274
#
#
# Mechanical properties :
#
#
# Convention : Reuss Voigt Hill
#
# Bulk Modulus (GPa) = 40.47995 51.28276 45.88135
# Shear Modulus (GPa) = 34.83520 40.26842 37.55181
#
# Velocity S-wave (km/s) = 3.95524 4.25252 4.10657
# Velocity P-wave (km/s) = 6.24800 6.86601 6.56428
#
# Compressibility (1/GPa) = 0.02470359
#
# Stress axis : x y z
#
# Youngs Moduli (GPa) = 77.81819 66.41830 91.25082
#
# Poissons Ratio (x) = 0.25488 0.36451
# Poissons Ratio (y) = 0.29863 -0.06855
# Poissons Ratio (z) = 0.31085 -0.04989
#
# Static dielectric constant tensor:
#      x y z
#    x 4.833880 -0.815190 -0.343320 
#    y -0.815190 4.658090 0.476620 
#    z -0.343320 0.476620 4.393640 
# 
# 
# High freq. dielectric constant tensor:
#      x y z
#    x 1.880570 -0.000370 0.002020 
#    y -0.000370 1.884550 0.001020 
#    z 0.002020 0.001020 1.903660 
# 
# From -- ./inp_files/242152.got.cif
#   From: 2010.06.25/outbox.cif.g09.slc.cpg/sg2_122_cif.got.tgz:242152.got - 2010.06.27 13:26:56.
