data_PCOD8037221
_publ_section_title
;
Structure prediction by ZEFSAII (Michael W. Deem and Ramdas Pophale) SiO2 
 PCOD8037221
Probable space group: P -1
;
_chemical_formula_sum "Si O2"
_cell_formula_units_Z 16
_cell_length_a 8.877025
_cell_length_b 9.871965
_cell_length_c 15.529200
_cell_angle_alpha 37.379205
_cell_angle_beta 117.022420
_cell_angle_gamma 115.218393
_cell_volume 730.638302
_symmetry_space_group_name_H-M "P -1"
_symmetry_group_IT_number 2
_symmetry_cell_setting 'triclinic'
loop_
_space_group_symop_operation_xyz
x,y,z
-x,-y,-z
loop_
_atom_site_type_symbol
_atom_site_label
_atom_site_fract_x
_atom_site_fract_y
_atom_site_fract_z
Si Si1 0.277254 0.444401 0.715778
Si Si2 0.704643 0.869965 0.264427
Si Si3 0.914614 0.330688 0.132413
Si Si4 0.880617 0.788904 0.608782
Si Si5 0.670225 0.581990 0.055866
Si Si6 0.104193 0.490611 0.400419
Si Si7 0.499772 0.145761 0.509753
Si Si8 0.636810 0.070070 0.758728
O O1 0.300107 0.201837 0.801722
O O2 0.339845 0.470348 0.817805
O O3 0.393948 0.615187 0.599113
O O4 0.085361 0.494175 0.622519
O O5 0.810871 0.702437 0.429664
O O6 0.513122 0.856149 0.257706
O O7 0.791490 0.126926 0.161568
O O8 0.817358 0.457888 0.115040
O O9 0.075982 0.240446 0.265304
O O10 0.000000 0.500000 0.000000
O O11 0.914104 0.570923 0.673613
O O12 0.688652 0.825551 0.526240
O O13 0.000000 0.000000 0.500000
O O14 0.500000 0.500000 0.000000
O O15 0.711825 0.850892 0.924710
O O16 0.211259 0.732050 0.310496
O O17 0.570707 0.012012 0.674607
O O18 0.500000 0.000000 0.500000
#
# Coordination Sequence:
#
# PCOD8037221 Si02
#       8
#     2   2   2   2   2   2   2   2
#     4  12  28  45  74 109 146 190 240 297 368 426
#     4  12  25  49  74 110 147 186 241 308 360 422
#     4  12  29  47  76 105 146 193 244 293 365 432
#     4  12  24  46  75 103 144 192 243 299 356 427
#     4  12  28  52  70 103 150 195 236 296 362 436
#     4  12  24  45  76 107 144 185 244 301 356 422
#     4  12  26  41  74 109 139 190 251 296 356 427
#     4  12  26  46  74 103 150 191 236 301 363 426
#
# _framework density 21.898662000000002
#
# number of rings (size 3 to 8) (size 9 to 14) (size 15 to 20)
#    0.000    0.000    6.250    3.000    5.250    2.000 
#    0.000    0.000    0.000    0.000    0.000    0.000 
#    0.000    0.000    0.000    0.000    0.000    0.000 
#
# Total GULP energy -198422.487400 kJ/mol
# GULP energy per Si atom -12401.405463 kJ/mol
# Density = 2.184882 g / cm^3
# Si number density = 21.898662 Si / 1000 Ang^3
#
#
#
# Elastic Constant Matrix: (Units=GPa)
#
#
# Indices 1 2 3 4 5 6 
#
# 1 106.2852 46.5321 23.9359 -13.9107 -11.2017 11.8655
# 2 46.5321 118.8641 19.8331 -2.7337 0.3811 -13.2979
# 3 23.9359 19.8331 97.2307 -6.6449 -10.3370 7.8170
# 4 -13.9107 -2.7337 -6.6449 40.6722 -2.8939 -2.9804
# 5 -11.2017 0.3811 -10.3370 -2.8939 30.7772 -1.6049
# 6 11.8655 -13.2979 7.8170 -2.9804 -1.6049 47.3631
#
#
#
# Elastic Compliance Matrix: (Units=1/GPa)
#
#
# Indices 1 2 3 4 5 6 
#
# 1 0.013625 -0.005565 -0.001071 0.004134 0.004828 -0.004375
# 2 -0.005565 0.011379 -0.001692 -0.001256 -0.002608 0.004701
# 3 -0.001071 -0.001692 0.011527 0.001517 0.003546 -0.001894
# 4 0.004134 -0.001256 0.001517 0.026500 0.004531 0.000183
# 5 0.004828 -0.002608 0.003546 0.004531 0.035845 -0.001027
# 6 -0.004375 0.004701 -0.001894 0.000183 -0.001027 0.023819
#
#
# Mechanical properties :
#
#
# Convention : Reuss Voigt Hill
#
# Bulk Modulus (GPa) = 50.31771 55.88689 53.10230
# Shear Modulus (GPa) = 34.25256 39.23444 36.74350
#
# Velocity S-wave (km/s) = 3.95921 4.23736 4.10065
# Velocity P-wave (km/s) = 6.62781 7.03679 6.83536
#
# Compressibility (1/GPa) = 0.01987372
#
# Stress axis : x y z
#
# Youngs Moduli (GPa) = 73.39701 87.88010 86.75563
#
# Poissons Ratio (x) = 0.48903 0.09295
# Poissons Ratio (y) = 0.40844 0.14681
# Poissons Ratio (z) = 0.07863 0.14871
#
# Static dielectric constant tensor:
#      x y z
#    x 3.336450 -0.380360 0.450260 
#    y -0.380360 4.238340 0.118100 
#    z 0.450260 0.118100 3.667040 
# 
# 
# High freq. dielectric constant tensor:
#      x y z
#    x 1.872010 -0.001240 -0.001010 
#    y -0.001240 1.885170 -0.000010 
#    z -0.001010 -0.000010 1.857440 
# 
# From -- ./inp_files/208314.got.cif
#   From: 2010.06.25/outbox.cif.g09.slc.cpg/sg2_105_cif.got.tgz:208314.got - 2010.06.27 13:26:56.
