data_PCOD8037359
_publ_section_title
;
Structure prediction by ZEFSAII (Michael W. Deem and Ramdas Pophale) SiO2 
 PCOD8037359
Probable space group: P -1
;
_chemical_formula_sum "Si O2"
_cell_formula_units_Z 16
_cell_length_a 8.180282
_cell_length_b 11.295216
_cell_length_c 9.598388
_cell_angle_alpha 49.978742
_cell_angle_beta 100.128854
_cell_angle_gamma 97.257935
_cell_volume 668.483826
_symmetry_space_group_name_H-M "P -1"
_symmetry_group_IT_number 2
_symmetry_cell_setting 'triclinic'
loop_
_space_group_symop_operation_xyz
x,y,z
-x,-y,-z
loop_
_atom_site_type_symbol
_atom_site_label
_atom_site_fract_x
_atom_site_fract_y
_atom_site_fract_z
Si Si1 0.381754 0.798513 0.797424
Si Si2 0.860074 0.421374 0.946145
Si Si3 0.176519 0.020739 0.439571
Si Si4 0.337991 0.189076 0.936856
Si Si5 0.025170 0.366491 0.719700
Si Si6 0.371819 0.312749 0.288982
Si Si7 0.191151 0.878939 0.246952
Si Si8 0.502359 0.319140 0.599084
O O1 0.330831 0.961818 0.600255
O O2 0.453693 0.694753 0.760866
O O3 0.203930 0.740451 0.876827
O O4 0.527470 0.816510 0.916466
O O5 0.916227 0.407833 0.806009
O O6 0.690129 0.514036 0.862073
O O7 0.000000 0.500000 0.000000
O O8 0.167043 0.930822 0.361758
O O9 0.227189 0.200142 0.287209
O O10 0.000000 0.000000 0.500000
O O11 0.433933 0.207733 0.793360
O O12 0.215528 0.337417 0.819555
O O13 0.242711 0.024023 0.048877
O O14 0.978748 0.197793 0.777464
O O15 0.000000 0.500000 0.500000
O O16 0.390573 0.278386 0.480562
O O17 0.312149 0.732965 0.365542
O O18 0.500000 0.500000 0.500000
#
# Coordination Sequence:
#
# PCOD8037359 Si02
#       8
#     2   2   2   2   2   2   2   2
#     4  12  25  49  77 108 150 198 257 320 379 457
#     4  12  28  46  74 111 152 198 260 316 387 459
#     4  12  28  47  79 111 153 202 253 320 393 460
#     4  12  26  48  78 112 152 199 259 322 382 461
#     4  12  29  50  76 111 158 206 254 321 398 466
#     4  12  24  48  73 107 148 201 257 311 385 460
#     4  12  26  50  75 112 154 198 266 316 390 466
#     4  12  26  47  75 111 151 203 255 316 392 462
#
# _framework density 23.934761000000002
#
# number of rings (size 3 to 8) (size 9 to 14) (size 15 to 20)
#    0.000    0.000    2.500    7.500    7.000    2.000 
#    0.000    0.000    0.000    0.000    0.000    0.000 
#    0.000    0.000    0.000    0.000    0.000    0.000 
#
# Total GULP energy -198413.447928 kJ/mol
# GULP energy per Si atom -12400.840495 kJ/mol
# Density = 2.388028 g / cm^3
# Si number density = 23.934761 Si / 1000 Ang^3
#
#
#
# Elastic Constant Matrix: (Units=GPa)
#
#
# Indices 1 2 3 4 5 6 
#
# 1 99.0088 30.5619 27.4200 11.3346 -9.8988 -10.2922
# 2 30.5619 124.5457 51.8042 17.5147 -14.5212 -2.6589
# 3 27.4200 51.8042 113.4112 18.0858 -10.3547 1.3556
# 4 11.3346 17.5147 18.0858 37.6918 -2.8090 -2.9547
# 5 -9.8988 -14.5212 -10.3547 -2.8090 54.0149 -1.2732
# 6 -10.2922 -2.6589 1.3556 -2.9547 -1.2732 48.5584
#
#
#
# Elastic Compliance Matrix: (Units=1/GPa)
#
#
# Indices 1 2 3 4 5 6 
#
# 1 0.011662 -0.001732 -0.001679 -0.001613 0.001321 0.002360
# 2 -0.001732 0.010611 -0.003896 -0.002399 0.001669 0.000220
# 3 -0.001679 -0.003896 0.011601 -0.003286 0.000673 -0.001075
# 4 -0.001613 -0.002399 -0.003286 0.029821 0.000014 0.001433
# 5 0.001321 0.001669 0.000673 0.000014 0.019354 0.000861
# 6 0.002360 0.000220 -0.001075 0.001433 0.000861 0.021246
#
#
# Mechanical properties :
#
#
# Convention : Reuss Voigt Hill
#
# Bulk Modulus (GPa) = 51.91893 61.83756 56.87825
# Shear Modulus (GPa) = 39.89496 43.19833 41.54665
#
# Velocity S-wave (km/s) = 4.08710 4.25295 4.17085
# Velocity P-wave (km/s) = 6.63411 7.07168 6.85639
#
# Compressibility (1/GPa) = 0.01926080
#
# Stress axis : x y z
#
# Youngs Moduli (GPa) = 85.74996 94.23826 86.19814
#
# Poissons Ratio (x) = 0.16323 0.14470
# Poissons Ratio (y) = 0.14853 0.33583
# Poissons Ratio (z) = 0.14394 0.36715
#
# Static dielectric constant tensor:
#      x y z
#    x 4.498950 -0.173190 0.170950 
#    y -0.173190 4.331690 0.016180 
#    z 0.170950 0.016180 4.673370 
# 
# 
# High freq. dielectric constant tensor:
#      x y z
#    x 1.962360 -0.006430 0.003170 
#    y -0.006430 1.950260 0.001040 
#    z 0.003170 0.001040 1.967130 
# 
# From -- ./inp_files/184389.got.cif
#   From: 2010.06.25/outbox.cif.g09.slc.cpg/sg2_93_cif.got.tgz:184389.got - 2010.06.27 13:26:56.
