data_PCOD8037895
_publ_section_title
;
Structure prediction by ZEFSAII (Michael W. Deem and Ramdas Pophale) SiO2 
 PCOD8037895
Probable space group: P -1
;
_chemical_formula_sum "Si O2"
_cell_formula_units_Z 14
_cell_length_a 11.884816
_cell_length_b 9.418666
_cell_length_c 8.801275
_cell_angle_alpha 110.670945
_cell_angle_beta 102.124435
_cell_angle_gamma 117.772439
_cell_volume 727.360908
_symmetry_space_group_name_H-M "P -1"
_symmetry_group_IT_number 2
_symmetry_cell_setting 'triclinic'
loop_
_space_group_symop_operation_xyz
x,y,z
-x,-y,-z
loop_
_atom_site_type_symbol
_atom_site_label
_atom_site_fract_x
_atom_site_fract_y
_atom_site_fract_z
Si Si1 0.641178 0.946959 0.930504
Si Si2 0.684896 0.499743 0.508228
Si Si3 0.681866 0.302361 0.165170
Si Si4 0.843260 0.818217 0.911739
Si Si5 0.413079 0.351044 0.703707
Si Si6 0.542202 0.880328 0.548276
Si Si7 0.290209 0.432990 0.959997
O O1 0.488549 0.796385 0.907665
O O2 0.737971 0.874787 0.942705
O O3 0.624431 0.983179 0.764214
O O4 0.714500 0.148234 0.111219
O O5 0.757869 0.437424 0.385581
O O6 0.800672 0.691122 0.701177
O O7 0.580873 0.528003 0.391379
O O8 0.595521 0.332642 0.540176
O O9 0.734453 0.421862 0.069072
O O10 0.841119 0.708231 0.018591
O O11 0.000000 0.000000 0.000000
O O12 0.362285 0.146227 0.550324
O O13 0.299393 0.315932 0.783416
O O14 0.569354 0.461679 0.858812
O O15 0.500000 0.000000 0.500000
#
# Coordination Sequence:
#
# PCOD8037895 Si02
#       7
#     2   2   2   2   2   2   2
#     4  10  20  36  57  90 119 141 181 234 297 338
#     4  10  20  36  55  81 115 150 187 225 290 334
#     4   9  20  36  62  87 116 140 172 252 306 327
#     4  12  24  39  57  78 115 164 200 222 260 337
#     4  10  17  32  57  85 109 144 173 244 294 330
#     4  11  19  28  57  91 117 134 176 239 300 341
#     4  10  19  32  57  83 110 141 192 226 288 338
#
# _framework density 19.247665999999999
#
# number of rings (size 3 to 8) (size 9 to 14) (size 15 to 20)
#    0.000    1.714    2.857    4.714    0.000    2.286 
#    0.000    4.286    0.000    0.000    0.000    0.000 
#    0.000    0.000    0.000    0.000    0.000    0.000 
#
# Total GULP energy -173528.449230 kJ/mol
# GULP energy per Si atom -12394.889231 kJ/mol
# Density = 1.920386 g / cm^3
# Si number density = 19.247666 Si / 1000 Ang^3
#
#
#
# Elastic Constant Matrix: (Units=GPa)
#
#
# Indices 1 2 3 4 5 6 
#
# 1 42.4041 30.3948 30.1276 11.8441 -19.9444 -9.2301
# 2 30.3948 110.6190 49.1152 -7.3282 -13.5219 -6.4043
# 3 30.1276 49.1152 97.5589 6.6606 -29.1577 -5.2540
# 4 11.8441 -7.3282 6.6606 35.7460 -6.0366 -6.1708
# 5 -19.9444 -13.5219 -29.1577 -6.0366 27.3324 8.2897
# 6 -9.2301 -6.4043 -5.2540 -6.1708 8.2897 34.5618
#
#
#
# Elastic Compliance Matrix: (Units=1/GPa)
#
#
# Indices 1 2 3 4 5 6 
#
# 1 0.047584 -0.010295 -0.001046 -0.013072 0.024919 0.002330
# 2 -0.010295 0.014468 -0.006293 0.006810 -0.006063 0.001645
# 3 -0.001046 -0.006293 0.018638 -0.002150 0.016421 -0.002935
# 4 -0.013072 0.006810 -0.002150 0.034457 -0.002096 0.004099
# 5 0.024919 -0.006063 0.016421 -0.002096 0.071722 -0.009549
# 6 0.002330 0.001645 -0.002935 0.004099 -0.009549 0.032437
#
#
# Mechanical properties :
#
#
# Convention : Reuss Voigt Hill
#
# Bulk Modulus (GPa) = 22.01569 52.20637 37.11103
# Shear Modulus (GPa) = 18.53805 28.92432 23.73118
#
# Velocity S-wave (km/s) = 3.10680 3.88073 3.51513
# Velocity P-wave (km/s) = 4.93281 6.87477 5.98310
#
# Compressibility (1/GPa) = 0.04542215
#
# Stress axis : x y z
#
# Youngs Moduli (GPa) = 21.01533 69.11692 53.65387
#
# Poissons Ratio (x) = 0.71158 0.05612
# Poissons Ratio (y) = 0.21636 0.33764
# Poissons Ratio (z) = 0.02198 0.43495
#
# Static dielectric constant tensor:
#      x y z
#    x 3.343120 -0.211610 -0.660800 
#    y -0.211610 3.573750 -0.114960 
#    z -0.660800 -0.114960 3.811990 
# 
# 
# High freq. dielectric constant tensor:
#      x y z
#    x 1.705690 -0.028190 -0.051970 
#    y -0.028190 1.748850 -0.016370 
#    z -0.051970 -0.016370 1.749430 
# 
# From -- ./inp_files/172188.got.cif
#   From: 2010.06.25/outbox.cif.g09.slc.cpg/sg2_87_cif.got.tgz:172188.got - 2010.06.27 13:26:56.
