data_PCOD8037066
_publ_section_title
;
Structure prediction by ZEFSAII (Michael W. Deem and Ramdas Pophale) SiO2 
 PCOD8037066
Probable space group: P -1
;
_chemical_formula_sum "Si O2"
_cell_formula_units_Z 12
_cell_length_a 10.799553
_cell_length_b 11.714190
_cell_length_c 9.661488
_cell_angle_alpha 39.955091
_cell_angle_beta 66.851841
_cell_angle_gamma 48.301335
_cell_volume 568.405233
_symmetry_space_group_name_H-M "P -1"
_symmetry_group_IT_number 2
_symmetry_cell_setting 'triclinic'
loop_
_space_group_symop_operation_xyz
x,y,z
-x,-y,-z
loop_
_atom_site_type_symbol
_atom_site_label
_atom_site_fract_x
_atom_site_fract_y
_atom_site_fract_z
Si Si1 0.987235 0.731716 0.095927
Si Si2 0.714263 0.528310 0.604620
Si Si3 0.021860 0.663624 0.552791
Si Si4 0.075366 0.753408 0.738158
Si Si5 0.276466 0.057229 0.764636
Si Si6 0.471935 0.459009 0.896022
O O1 0.164318 0.654086 0.158063
O O2 0.993810 0.520421 0.324529
O O3 0.818323 0.935748 0.060527
O O4 0.972641 0.781627 0.893981
O O5 0.805189 0.404000 0.533613
O O6 0.673585 0.772978 0.410982
O O7 0.542214 0.552034 0.672319
O O8 0.032922 0.656895 0.719697
O O9 0.848480 0.894826 0.354528
O O10 0.274460 0.595082 0.824551
O O11 0.000000 0.000000 0.500000
O O12 0.447345 0.802683 0.914444
O O13 0.500000 0.500000 0.000000
#
# Coordination Sequence:
#
# PCOD8037066 Si02
#       6
#     2   2   2   2   2   2
#     4   9  19  42  65  87 120 161 202 240 299 368
#     4   9  20  41  66  92 118 157 207 244 297 364
#     4   9  20  40  65  90 119 158 200 249 299 356
#     4  12  25  39  57  93 126 158 197 250 309 351
#     4   9  21  42  70  87 114 164 205 246 294 358
#     4  12  24  40  62  91 124 159 203 250 297 359
#
# _framework density 21.111696999999999
#
# number of rings (size 3 to 8) (size 9 to 14) (size 15 to 20)
#    0.000    2.000    1.667    3.500    2.333    2.667 
#    6.000    1.667    0.000    0.000    0.000    0.000 
#    0.000    0.000    0.000    0.000    0.000    0.000 
#
# Total GULP energy -148714.750928 kJ/mol
# GULP energy per Si atom -12392.895911 kJ/mol
# Density = 2.106365 g / cm^3
# Si number density = 21.111697 Si / 1000 Ang^3
#
#
#
# Elastic Constant Matrix: (Units=GPa)
#
#
# Indices 1 2 3 4 5 6 
#
# 1 48.5349 11.9758 18.9969 -0.9290 16.7051 -3.0402
# 2 11.9758 81.4881 49.2141 -4.0701 22.2142 1.3535
# 3 18.9969 49.2141 101.9995 6.0070 8.6268 -3.7452
# 4 -0.9290 -4.0701 6.0070 55.2861 5.3199 8.0786
# 5 16.7051 22.2142 8.6268 5.3199 34.0823 6.4268
# 6 -3.0402 1.3535 -3.7452 8.0786 6.4268 31.5723
#
#
#
# Elastic Compliance Matrix: (Units=1/GPa)
#
#
# Indices 1 2 3 4 5 6 
#
# 1 0.027578 0.003562 -0.005496 0.002173 -0.015631 0.004477
# 2 0.003562 0.022077 -0.010364 0.004177 -0.014160 -0.000019
# 3 -0.005496 -0.010364 0.015590 -0.003313 0.005748 0.001442
# 4 0.002173 0.004177 -0.003313 0.019938 -0.005231 -0.004400
# 5 -0.015631 -0.014160 0.005748 -0.005231 0.047192 -0.008484
# 6 0.004477 -0.000019 0.001442 -0.004400 -0.008484 0.035129
#
#
# Mechanical properties :
#
#
# Convention : Reuss Voigt Hill
#
# Bulk Modulus (GPa) = 24.60200 43.59956 34.10078
# Shear Modulus (GPa) = 24.31297 34.31052 29.31175
#
# Velocity S-wave (km/s) = 3.39726 4.03574 3.73018
# Velocity P-wave (km/s) = 5.20260 6.51252 5.89406
#
# Compressibility (1/GPa) = 0.04064711
#
# Stress axis : x y z
#
# Youngs Moduli (GPa) = 36.26067 45.29656 64.14262
#
# Poissons Ratio (x) = -0.16133 0.35255
# Poissons Ratio (y) = -0.12915 0.66479
# Poissons Ratio (z) = 0.19930 0.46947
#
# Static dielectric constant tensor:
#      x y z
#    x 3.583450 -0.210470 -0.221770 
#    y -0.210470 3.533950 -0.265340 
#    z -0.221770 -0.265340 3.382490 
# 
# 
# High freq. dielectric constant tensor:
#      x y z
#    x 1.807270 0.003640 -0.009770 
#    y 0.003640 1.837130 0.006750 
#    z -0.009770 0.006750 1.827740 
# 
# From -- ./inp_files/144897.got.cif
#   From: 2010.06.25/outbox.cif.g09.slc.cpg/sg2_73_cif.got.tgz:144897.got - 2010.06.27 13:26:56.
