data_PCOD8037565
_publ_section_title
;
Structure prediction by ZEFSAII (Michael W. Deem and Ramdas Pophale) SiO2 
 PCOD8037565
Probable space group: P -1
;
_chemical_formula_sum "Si O2"
_cell_formula_units_Z 12
_cell_length_a 6.782484
_cell_length_b 9.423746
_cell_length_c 8.091434
_cell_angle_alpha 117.641001
_cell_angle_beta 90.000151
_cell_angle_gamma 90.000116
_cell_volume 458.151097
_symmetry_space_group_name_H-M "P -1"
_symmetry_group_IT_number 2
_symmetry_cell_setting 'triclinic'
loop_
_space_group_symop_operation_xyz
x,y,z
-x,-y,-z
loop_
_atom_site_type_symbol
_atom_site_label
_atom_site_fract_x
_atom_site_fract_y
_atom_site_fract_z
Si Si1 0.039089 0.831899 0.255810
Si Si2 0.732272 0.318365 0.100861
Si Si3 0.267734 0.318363 0.600864
Si Si4 0.368979 0.113161 0.957418
Si Si5 0.368974 0.886842 0.542581
Si Si6 0.960905 0.831897 0.755813
O O1 0.169770 0.833657 0.423449
O O2 0.180993 0.217420 0.705801
O O3 0.059312 0.999996 0.249988
O O4 0.119149 0.693879 0.060574
O O5 0.709687 0.500001 0.250000
O O6 0.819015 0.217424 0.205799
O O7 0.517138 0.261179 0.002002
O O8 0.482872 0.261181 0.502011
O O9 0.119154 0.306115 0.439429
O O10 0.292030 0.000000 0.750001
O O11 0.169781 0.166357 0.076559
O O12 0.500000 0.000000 0.000000
O O13 0.500000 0.000000 0.500000
#
# Coordination Sequence:
#
# PCOD8037565 Si02
#       6
#     2   2   2   2   2   2
#     4  12  27  46  76 108 142 196 242 294 355 435
#     4  12  28  47  73 109 148 188 238 302 368 420
#     4  12  28  47  73 109 148 188 238 302 368 420
#     4  12  25  47  75 105 143 191 247 291 355 432
#     4  12  25  47  75 105 143 191 247 291 355 432
#     4  12  27  46  76 108 142 196 242 294 355 435
#
# _framework density 26.192232000000001
#
# number of rings (size 3 to 8) (size 9 to 14) (size 15 to 20)
#    0.000    0.000    6.667    2.000    4.667    5.333 
#    0.000    0.000    0.000    0.000    0.000    0.000 
#    0.000    0.000    0.000    0.000    0.000    0.000 
#
# Total GULP energy -148674.163887 kJ/mol
# GULP energy per Si atom -12389.513657 kJ/mol
# Density = 2.613262 g / cm^3
# Si number density = 26.192232 Si / 1000 Ang^3
#
#
#
# Elastic Constant Matrix: (Units=GPa)
#
#
# Indices 1 2 3 4 5 6 
#
# 1 176.1684 37.1185 56.6092 5.6050 -1.0124 -6.4474
# 2 37.1185 87.3698 56.3199 16.9118 3.2895 -1.0690
# 3 56.6092 56.3199 201.7656 34.5611 1.0322 -2.4217
# 4 5.6050 16.9118 34.5611 37.7329 -2.3623 1.9030
# 5 -1.0124 3.2895 1.0322 -2.3623 45.8876 -14.3975
# 6 -6.4474 -1.0690 -2.4217 1.9030 -14.3975 27.9371
#
#
#
# Elastic Compliance Matrix: (Units=1/GPa)
#
#
# Indices 1 2 3 4 5 6 
#
# 1 0.006625 -0.002131 -0.001469 0.001289 0.000936 0.001715
# 2 -0.002131 0.015031 -0.002952 -0.003775 -0.001462 -0.000669
# 3 -0.001469 -0.002952 0.007044 -0.004939 -0.000093 0.000447
# 4 0.001289 -0.003775 -0.004939 0.032710 0.001561 -0.001699
# 5 0.000936 -0.001462 -0.000093 0.001561 0.026261 0.013579
# 6 0.001715 -0.000669 0.000447 -0.001699 0.013579 0.043317
#
#
# Mechanical properties :
#
#
# Convention : Reuss Voigt Hill
#
# Bulk Modulus (GPa) = 64.11699 85.04434 74.58067
# Shear Modulus (GPa) = 33.49168 43.32860 38.41014
#
# Velocity S-wave (km/s) = 3.57975 4.07166 3.83361
# Velocity P-wave (km/s) = 6.45126 7.39218 6.93769
#
# Compressibility (1/GPa) = 0.01559649
#
# Stress axis : x y z
#
# Youngs Moduli (GPa) = 150.95417 66.52748 141.96173
#
# Poissons Ratio (x) = 0.14180 0.20849
# Poissons Ratio (y) = 0.32174 0.41904
# Poissons Ratio (z) = 0.22169 0.19637
#
# Static dielectric constant tensor:
#      x y z
#    x 7.699660 -0.263560 0.068870 
#    y -0.263560 4.471550 -0.509460 
#    z 0.068870 -0.509460 4.689740 
# 
# 
# High freq. dielectric constant tensor:
#      x y z
#    x 2.082560 -0.004360 -0.000940 
#    y -0.004360 2.026930 -0.013410 
#    z -0.000940 -0.013410 2.076940 
# 
# From -- ./inp_files/183305.got.cif
#   From: 2010.06.25/outbox.cif.g09.slc.cpg/sg2_92_cif.got.tgz:183305.got - 2010.06.27 13:26:56.
