data_PCOD8037746
_publ_section_title
;
Structure prediction by ZEFSAII (Michael W. Deem and Ramdas Pophale) SiO2 
 PCOD8037746
Probable space group: P -1
;
_chemical_formula_sum "Si O2"
_cell_formula_units_Z 14
_cell_length_a 8.731336
_cell_length_b 9.125998
_cell_length_c 8.104536
_cell_angle_alpha 85.625676
_cell_angle_beta 67.329526
_cell_angle_gamma 99.531749
_cell_volume 580.658398
_symmetry_space_group_name_H-M "P -1"
_symmetry_group_IT_number 2
_symmetry_cell_setting 'triclinic'
loop_
_space_group_symop_operation_xyz
x,y,z
-x,-y,-z
loop_
_atom_site_type_symbol
_atom_site_label
_atom_site_fract_x
_atom_site_fract_y
_atom_site_fract_z
Si Si1 0.426095 0.088271 0.379640
Si Si2 0.000537 0.844239 0.921512
Si Si3 0.798724 0.690995 0.482101
Si Si4 0.708290 0.609728 0.174646
Si Si5 0.131421 0.834243 0.504216
Si Si6 0.711174 0.290261 0.045462
Si Si7 0.673016 0.381624 0.687790
O O1 0.356728 0.225699 0.472791
O O2 0.568637 0.150746 0.180912
O O3 0.500000 0.000000 0.500000
O O4 0.268575 0.976621 0.365538
O O5 0.074049 0.874880 0.705449
O O6 0.107815 0.745813 0.988185
O O7 0.810581 0.740686 0.001083
O O8 0.000000 0.000000 0.000000
O O9 0.808883 0.617417 0.305167
O O10 0.759966 0.558471 0.645799
O O11 0.973892 0.804075 0.446365
O O12 0.692246 0.446465 0.118963
O O13 0.522381 0.641506 0.279013
O O14 0.225758 0.693964 0.485843
O O15 0.692463 0.301004 0.857601
#
# Coordination Sequence:
#
# PCOD8037746 Si02
#       7
#     2   2   2   2   2   2   2
#     4  12  26  48  77 112 154 203 256 317 386 454
#     4  12  28  50  79 113 157 200 254 320 391 457
#     4  12  26  48  78 114 154 203 256 313 389 456
#     4  12  26  49  81 113 155 202 261 317 381 460
#     4  12  27  49  78 113 160 198 254 318 388 464
#     4  12  27  50  78 114 156 200 261 323 381 457
#     4  12  27  49  80 116 150 204 259 321 386 453
#
# _framework density 24.110562000000002
#
# number of rings (size 3 to 8) (size 9 to 14) (size 15 to 20)
#    0.000    0.000    2.857    6.429    4.000    1.714 
#    0.000    0.000    0.000    0.000    0.000    0.000 
#    0.000    0.000    0.000    0.000    0.000    0.000 
#
# Total GULP energy -173674.015016 kJ/mol
# GULP energy per Si atom -12405.286787 kJ/mol
# Density = 2.405569 g / cm^3
# Si number density = 24.110562 Si / 1000 Ang^3
#
#
#
# Elastic Constant Matrix: (Units=GPa)
#
#
# Indices 1 2 3 4 5 6 
#
# 1 86.3251 18.7115 32.2017 14.5957 -11.8068 4.6867
# 2 18.7115 105.9222 40.9475 4.1910 -8.5452 -4.5980
# 3 32.2017 40.9475 103.5762 2.9319 -3.4947 6.0192
# 4 14.5957 4.1910 2.9319 49.3887 0.1118 -11.0219
# 5 -11.8068 -8.5452 -3.4947 0.1118 41.4730 2.8754
# 6 4.6867 -4.5980 6.0192 -11.0219 2.8754 51.6640
#
#
#
# Elastic Compliance Matrix: (Units=1/GPa)
#
#
# Indices 1 2 3 4 5 6 
#
# 1 0.014581 -0.000677 -0.003886 -0.004499 0.003842 -0.002104
# 2 -0.000677 0.011444 -0.004335 -0.000194 0.001700 0.001449
# 3 -0.003886 -0.004335 0.012614 0.000467 -0.000844 -0.001356
# 4 -0.004499 -0.000194 0.000467 0.022749 -0.001709 0.005285
# 5 0.003842 0.001700 -0.000844 -0.001709 0.025621 -0.001890
# 6 -0.002104 0.001449 -0.001356 0.005285 -0.001890 0.021066
#
#
# Mechanical properties :
#
#
# Convention : Reuss Voigt Hill
#
# Bulk Modulus (GPa) = 47.97924 53.28276 50.63100
# Shear Modulus (GPa) = 37.64510 42.10265 39.87387
#
# Velocity S-wave (km/s) = 3.95568 4.18333 4.07110
# Velocity P-wave (km/s) = 6.38797 6.74396 6.56837
#
# Compressibility (1/GPa) = 0.02084235
#
# Stress axis : x y z
#
# Youngs Moduli (GPa) = 68.58257 87.38138 79.27687
#
# Poissons Ratio (x) = 0.05913 0.30810
# Poissons Ratio (y) = 0.04641 0.34368
# Poissons Ratio (z) = 0.26654 0.37882
#
# Static dielectric constant tensor:
#      x y z
#    x 4.451060 0.017710 -0.304960 
#    y 0.017710 4.519000 -0.085870 
#    z -0.304960 -0.085870 4.390840 
# 
# 
# High freq. dielectric constant tensor:
#      x y z
#    x 1.965120 -0.000310 -0.015920 
#    y -0.000310 1.973970 -0.002560 
#    z -0.015920 -0.002560 1.959700 
# 
# From -- ./inp_files/158448.got.cif
#   From: 2010.06.25/outbox.cif.g09.slc.cpg/sg2_80_cif.got.tgz:158448.got - 2010.06.27 13:26:56.
