data_PCOD8037186
_publ_section_title
;
Structure prediction by ZEFSAII (Michael W. Deem and Ramdas Pophale) SiO2 
 PCOD8037186
Probable space group: P -1
;
_chemical_formula_sum "Si O2"
_cell_formula_units_Z 16
_cell_length_a 26.379730
_cell_length_b 11.172787
_cell_length_c 25.804253
_cell_angle_alpha 30.118084
_cell_angle_beta 10.990492
_cell_angle_gamma 30.178667
_cell_volume 718.150656
_symmetry_space_group_name_H-M "P -1"
_symmetry_group_IT_number 2
_symmetry_cell_setting 'triclinic'
loop_
_space_group_symop_operation_xyz
x,y,z
-x,-y,-z
loop_
_atom_site_type_symbol
_atom_site_label
_atom_site_fract_x
_atom_site_fract_y
_atom_site_fract_z
Si Si1 0.154520 0.231081 0.447293
Si Si2 0.316159 0.539537 0.970794
Si Si3 0.233546 0.880107 0.587039
Si Si4 0.729535 0.534820 0.070374
Si Si5 0.303075 0.915881 0.099541
Si Si6 0.249960 0.452128 0.649649
Si Si7 0.860837 0.257786 0.563668
Si Si8 0.285729 0.067116 0.843547
O O1 0.000000 0.500000 0.500000
O O2 0.964291 0.057791 0.677267
O O3 0.208955 0.138838 0.486011
O O4 0.436738 0.226758 0.136730
O O5 0.087679 0.428991 0.272827
O O6 0.214520 0.590928 0.994627
O O7 0.604884 0.363855 0.745383
O O8 0.355696 0.783832 0.868240
O O9 0.268850 0.672820 0.586276
O O10 0.488637 0.842563 0.382116
O O11 0.984070 0.861374 0.880480
O O12 0.498079 0.420001 0.373520
O O13 0.985890 0.491178 0.865682
O O14 0.640160 0.819307 0.042382
O O15 0.253101 0.761070 0.257612
O O16 0.258881 0.205346 0.764444
O O17 0.000000 0.000000 0.500000
#
# Coordination Sequence:
#
# PCOD8037186 Si02
#       8
#     2   2   2   2   2   2   2   2
#     4  12  27  43  69 103 140 184 226 286 357 407
#     4  12  28  46  69 109 143 184 233 291 353 418
#     4  12  24  47  72 100 142 183 236 286 349 426
#     4  12  24  45  74 101 138 179 239 290 342 418
#     4  12  24  45  68 100 139 183 230 283 345 420
#     4  12  25  47  75 102 131 187 240 293 351 413
#     4  12  26  44  72 100 142 187 232 276 344 427
#     4  12  28  46  71 103 143 183 229 297 357 408
#
# _framework density 22.279447000000001
#
# number of rings (size 3 to 8) (size 9 to 14) (size 15 to 20)
#    0.000    0.000    3.750    6.000    7.000    1.000 
#    0.000    0.000    0.000    0.000    0.000    0.000 
#    0.000    0.000    0.000    0.000    0.000    0.000 
#
# Total GULP energy -198526.143683 kJ/mol
# GULP energy per Si atom -12407.883980 kJ/mol
# Density = 2.222874 g / cm^3
# Si number density = 22.279447 Si / 1000 Ang^3
#
#
#
# Elastic Constant Matrix: (Units=GPa)
#
#
# Indices 1 2 3 4 5 6 
#
# 1 99.6361 20.7214 57.3667 0.8440 -1.1039 -10.2612
# 2 20.7214 69.6956 31.7391 -7.7972 -0.6851 -22.0511
# 3 57.3667 31.7391 178.3694 5.6912 7.6574 -9.7810
# 4 0.8440 -7.7972 5.6912 26.0649 -12.1227 -1.2128
# 5 -1.1039 -0.6851 7.6574 -12.1227 52.0272 -7.8395
# 6 -10.2612 -22.0511 -9.7810 -1.2128 -7.8395 31.4968
#
#
#
# Elastic Compliance Matrix: (Units=1/GPa)
#
#
# Indices 1 2 3 4 5 6 
#
# 1 0.012759 -0.001117 -0.003853 0.000870 0.001412 0.002564
# 2 -0.001117 0.022675 -0.003381 0.011015 0.005799 0.016329
# 3 -0.003853 -0.003381 0.007560 -0.003756 -0.002419 -0.002021
# 4 0.000870 0.011015 -0.003756 0.049589 0.014117 0.012252
# 5 0.001412 0.005799 -0.002419 0.014117 0.024543 0.010421
# 6 0.002564 0.016329 -0.002021 0.012252 0.010421 0.046455
#
#
# Mechanical properties :
#
#
# Convention : Reuss Voigt Hill
#
# Bulk Modulus (GPa) = 38.03109 63.03949 50.53529
# Shear Modulus (GPa) = 26.44868 37.77604 32.11236
#
# Velocity S-wave (km/s) = 3.44922 4.12218 3.80062
# Velocity P-wave (km/s) = 5.74194 7.14233 6.48007
#
# Compressibility (1/GPa) = 0.02629428
#
# Stress axis : x y z
#
# Youngs Moduli (GPa) = 78.37424 44.10074 132.27742
#
# Poissons Ratio (x) = 0.04925 0.50963
# Poissons Ratio (y) = 0.08752 0.44719
# Poissons Ratio (z) = 0.30195 0.14909
#
# Static dielectric constant tensor:
#      x y z
#    x 4.243200 -0.148990 0.022130 
#    y -0.148990 3.958650 -0.109510 
#    z 0.022130 -0.109510 4.281580 
# 
# 
# High freq. dielectric constant tensor:
#      x y z
#    x 1.890700 -0.008920 0.001660 
#    y -0.008920 1.873710 -0.001480 
#    z 0.001660 -0.001480 1.900520 
# 
# From -- ./inp_files/477189.got.cif
#   From: 2010.06.25/outbox.cif.g09.slc.cpg/sg2_239_cif.got.tgz:477189.got - 2010.06.27 13:26:56.
