data_PCOD8037458
_publ_section_title
;
Structure prediction by ZEFSAII (Michael W. Deem and Ramdas Pophale) SiO2 
 PCOD8037458
Probable space group: P -1
;
_chemical_formula_sum "Si O2"
_cell_formula_units_Z 12
_cell_length_a 14.491393
_cell_length_b 9.310083
_cell_length_c 12.671009
_cell_angle_alpha 129.078665
_cell_angle_beta 29.895647
_cell_angle_gamma 137.245135
_cell_volume 578.338226
_symmetry_space_group_name_H-M "P -1"
_symmetry_group_IT_number 2
_symmetry_cell_setting 'triclinic'
loop_
_space_group_symop_operation_xyz
x,y,z
-x,-y,-z
loop_
_atom_site_type_symbol
_atom_site_label
_atom_site_fract_x
_atom_site_fract_y
_atom_site_fract_z
Si Si1 0.386521 0.924083 0.965198
Si Si2 0.091706 0.560417 0.552301
Si Si3 0.153337 0.231169 0.997294
Si Si4 0.947137 0.771989 0.408889
Si Si5 0.497203 0.570142 0.653406
Si Si6 0.535357 0.721038 0.112957
O O1 0.465835 0.773707 0.765532
O O2 0.439124 0.129909 0.941065
O O3 0.132658 0.788143 0.157256
O O4 0.500000 0.000000 0.000000
O O5 0.045709 0.339630 0.543544
O O6 0.343142 0.709745 0.366983
O O7 0.000000 0.500000 0.500000
O O8 0.987590 0.667436 0.776110
O O9 0.317020 0.384165 0.817115
O O10 0.265503 0.189199 0.965857
O O11 0.000000 0.000000 0.000000
O O12 0.723749 0.640160 0.512494
O O13 0.000000 0.000000 0.500000
O O14 0.500000 0.500000 0.500000
O O15 0.500000 0.500000 0.000000
#
# Coordination Sequence:
#
# PCOD8037458 Si02
#       6
#     2   2   2   2   2   2
#     4  12  25  45  75 108 140 184 241 294 351 422
#     4  12  25  44  76 106 141 183 238 293 353 419
#     4  12  29  49  70 105 147 188 239 294 354 423
#     4  12  25  44  76 106 141 183 238 293 353 419
#     4  12  29  49  70 105 147 188 239 294 354 423
#     4  12  25  45  75 108 140 184 241 294 351 422
#
# _framework density 20.749103999999999
#
# number of rings (size 3 to 8) (size 9 to 14) (size 15 to 20)
#    0.000    0.000    6.667    3.000    4.667    2.667 
#    0.000    0.000    0.000    0.000    0.000    0.000 
#    0.000    0.000    0.000    0.000    0.000    0.000 
#
# Total GULP energy -148811.965731 kJ/mol
# GULP energy per Si atom -12400.997144 kJ/mol
# Density = 2.070188 g / cm^3
# Si number density = 20.749104 Si / 1000 Ang^3
#
#
#
# Elastic Constant Matrix: (Units=GPa)
#
#
# Indices 1 2 3 4 5 6 
#
# 1 263.2271 41.0762 32.8300 -44.0634 -1.0663 20.2422
# 2 41.0762 204.2394 98.2967 34.5563 7.2739 -29.4106
# 3 32.8300 98.2967 185.5843 20.4920 -5.5742 -11.0513
# 4 -44.0634 34.5563 20.4920 71.4409 4.5016 -10.9528
# 5 -1.0663 7.2739 -5.5742 4.5016 41.4072 -5.9332
# 6 20.2422 -29.4106 -11.0513 -10.9528 -5.9332 61.8893
#
#
#
# Elastic Compliance Matrix: (Units=1/GPa)
#
#
# Indices 1 2 3 4 5 6 
#
# 1 0.004868 -0.001590 -0.000543 0.003668 -0.000329 -0.001827
# 2 -0.001590 0.007864 -0.003377 -0.003292 -0.001094 0.002967
# 3 -0.000543 -0.003377 0.007422 -0.000952 0.001666 -0.000111
# 4 0.003668 -0.003292 -0.000952 0.018239 -0.001416 0.000158
# 5 -0.000329 -0.001094 0.001666 -0.001416 0.025003 0.002032
# 6 -0.001827 0.002967 -0.000111 0.000158 0.002032 0.018368
#
#
# Mechanical properties :
#
#
# Convention : Reuss Voigt Hill
#
# Bulk Modulus (GPa) = 109.46856 110.82850 110.14853
# Shear Modulus (GPa) = 52.17687 67.00402 59.59044
#
# Velocity S-wave (km/s) = 5.02008 5.68881 5.36487
# Velocity P-wave (km/s) = 9.29915 9.83258 9.56959
#
# Compressibility (1/GPa) = 0.00913504
#
# Stress axis : x y z
#
# Youngs Moduli (GPa) = 205.42769 127.15595 134.74198
#
# Poissons Ratio (x) = 0.20214 0.07314
# Poissons Ratio (y) = 0.32657 0.45501
# Poissons Ratio (z) = 0.11150 0.42939
#
# Static dielectric constant tensor:
#      x y z
#    x 3.493340 0.149330 -0.024970 
#    y 0.149330 3.657850 -0.286270 
#    z -0.024970 -0.286270 4.203910 
# 
# 
# High freq. dielectric constant tensor:
#      x y z
#    x 1.827040 -0.014370 -0.012170 
#    y -0.014370 1.819740 -0.005890 
#    z -0.012170 -0.005890 1.834640 
# 
# From -- ./inp_files/129380.got.cif
#   From: 2010.06.25/outbox.cif.g09.slc.cpg/sg2_65_cif.got.tgz:129380.got - 2010.06.27 13:26:56.
