data_PCOD8037833
_publ_section_title
;
Structure prediction by ZEFSAII (Michael W. Deem and Ramdas Pophale) SiO2 
 PCOD8037833
Probable space group: P -1
;
_chemical_formula_sum "Si O2"
_cell_formula_units_Z 16
_cell_length_a 11.103956
_cell_length_b 19.246042
_cell_length_c 14.512053
_cell_angle_alpha 35.431748
_cell_angle_beta 150.954580
_cell_angle_gamma 137.249587
_cell_volume 870.239282
_symmetry_space_group_name_H-M "P -1"
_symmetry_group_IT_number 2
_symmetry_cell_setting 'triclinic'
loop_
_space_group_symop_operation_xyz
x,y,z
-x,-y,-z
loop_
_atom_site_type_symbol
_atom_site_label
_atom_site_fract_x
_atom_site_fract_y
_atom_site_fract_z
Si Si1 0.490226 0.562993 0.743788
Si Si2 0.930742 0.713369 0.912062
Si Si3 0.827146 0.062260 0.245661
Si Si4 0.981424 0.884155 0.175338
Si Si5 0.463227 0.744344 0.673229
Si Si6 0.737480 0.007266 0.036049
Si Si7 0.298440 0.302275 0.932407
Si Si8 0.186196 0.718135 0.254090
O O1 0.792014 0.590210 0.912385
O O2 0.386248 0.611851 0.719924
O O3 0.408110 0.424365 0.824718
O O4 0.410995 0.646349 0.517185
O O5 0.725458 0.788751 0.749994
O O6 0.065697 0.798154 0.833405
O O7 0.138270 0.676350 0.162514
O O8 0.543386 0.049836 0.101636
O O9 0.000000 0.000000 0.500000
O O10 0.835229 0.010018 0.203437
O O11 0.760209 0.793505 0.084270
O O12 0.249151 0.830659 0.413488
O O13 0.911336 0.920122 0.192778
O O14 0.000000 0.000000 0.000000
O O15 0.500282 0.738802 0.814348
O O16 0.751952 0.138291 0.856214
O O17 0.046361 0.324819 0.791594
#
# Coordination Sequence:
#
# PCOD8037833 Si02
#       8
#     2   2   2   2   2   2   2   2
#     4  10  18  30  54  77 111 138 182 219 263 314
#     4   8  19  32  51  82 102 131 179 227 264 303
#     4  10  20  36  60  75 103 140 189 230 261 299
#     4  12  23  35  52  77 120 150 169 209 272 338
#     4   9  21  33  51  79 114 139 178 217 267 319
#     4  10  22  37  52  84 109 141 183 217 262 327
#     4  11  20  32  50  80 109 149 174 212 268 326
#     4  10  17  32  51  76 110 137 174 217 266 312
#
# _framework density 18.385748
#
# number of rings (size 3 to 8) (size 9 to 14) (size 15 to 20)
#    0.750    1.250    2.500    1.500    1.750    1.500 
#    0.000    0.000    0.000    0.750    0.000   13.125 
#    0.000    0.000    0.000    0.000    0.000    0.000 
#
# Total GULP energy -198245.408686 kJ/mol
# GULP energy per Si atom -12390.338043 kJ/mol
# Density = 1.834390 g / cm^3
# Si number density = 18.385748 Si / 1000 Ang^3
#
#
#
# Elastic Constant Matrix: (Units=GPa)
#
#
# Indices 1 2 3 4 5 6 
#
# 1 32.7189 19.8924 13.0964 2.9446 -6.4295 5.3050
# 2 19.8924 126.5335 36.5786 -6.4642 -10.5538 15.2678
# 3 13.0964 36.5786 86.1213 9.8829 -17.6228 -6.2929
# 4 2.9446 -6.4642 9.8829 24.5797 -0.5045 -5.9904
# 5 -6.4295 -10.5538 -17.6228 -0.5045 24.4561 0.1995
# 6 5.3050 15.2678 -6.2929 -5.9904 0.1995 27.3238
#
#
#
# Elastic Compliance Matrix: (Units=1/GPa)
#
#
# Indices 1 2 3 4 5 6 
#
# 1 0.036860 -0.004069 -0.002430 -0.006043 0.006114 -0.006812
# 2 -0.004069 0.010805 -0.004762 0.003912 0.000287 -0.005489
# 3 -0.002430 -0.004762 0.017061 -0.006258 0.009425 0.005621
# 4 -0.006043 0.003912 -0.006258 0.046789 -0.003509 0.007830
# 5 0.006114 0.000287 0.009425 -0.003509 0.049343 -0.000306
# 6 -0.006812 -0.005489 0.005621 0.007830 -0.000306 0.044001
#
#
# Mechanical properties :
#
#
# Convention : Reuss Voigt Hill
#
# Bulk Modulus (GPa) = 23.69418 42.72314 33.20866
# Shear Modulus (GPa) = 20.70827 26.99236 23.85031
#
# Velocity S-wave (km/s) = 3.35971 3.83575 3.60560
# Velocity P-wave (km/s) = 5.28824 6.55018 5.95274
#
# Compressibility (1/GPa) = 0.04220446
#
# Stress axis : x y z
#
# Youngs Moduli (GPa) = 27.12976 92.54611 58.61294
#
# Poissons Ratio (x) = 0.37658 0.14243
# Poissons Ratio (y) = 0.11039 0.27911
# Poissons Ratio (z) = 0.06593 0.44069
#
# Static dielectric constant tensor:
#      x y z
#    x 3.166110 0.047480 -0.202710 
#    y 0.047480 3.550660 0.282720 
#    z -0.202710 0.282720 3.319270 
# 
# 
# High freq. dielectric constant tensor:
#      x y z
#    x 1.670230 0.012030 -0.028070 
#    y 0.012030 1.722480 0.022790 
#    z -0.028070 0.022790 1.707470 
# 
# From -- ./inp_files/523762.got.cif
#   From: 2010.06.25/outbox.cif.g09.slc.cpg/sg2_262_cif.got.tgz:523762.got - 2010.06.27 13:26:56.
