data_PCOD8037123
_publ_section_title
;
Structure prediction by ZEFSAII (Michael W. Deem and Ramdas Pophale) SiO2 
 PCOD8037123
Probable space group: P -1
;
_chemical_formula_sum "Si O2"
_cell_formula_units_Z 16
_cell_length_a 11.472518
_cell_length_b 6.750364
_cell_length_c 10.946941
_cell_angle_alpha 111.104928
_cell_angle_beta 113.855203
_cell_angle_gamma 71.969581
_cell_volume 709.867582
_symmetry_space_group_name_H-M "P -1"
_symmetry_group_IT_number 2
_symmetry_cell_setting 'triclinic'
loop_
_space_group_symop_operation_xyz
x,y,z
-x,-y,-z
loop_
_atom_site_type_symbol
_atom_site_label
_atom_site_fract_x
_atom_site_fract_y
_atom_site_fract_z
Si Si1 0.012446 0.439078 0.848317
Si Si2 0.445490 0.091488 0.870274
Si Si3 0.366765 0.842547 0.231438
Si Si4 0.566142 0.604206 0.441764
Si Si5 0.287154 0.758523 0.750706
Si Si6 0.007652 0.964074 0.638295
Si Si7 0.709720 0.455433 0.051849
Si Si8 0.182400 0.227493 0.325479
O O1 0.150240 0.480566 0.870237
O O2 0.004674 0.187630 0.762799
O O3 0.900136 0.593545 0.758355
O O4 0.000000 0.500000 0.000000
O O5 0.551886 0.034685 0.797978
O O6 0.400085 0.345829 0.912047
O O7 0.324390 0.978126 0.764828
O O8 0.500000 0.000000 0.000000
O O9 0.451476 0.785563 0.377150
O O10 0.229142 0.002335 0.225174
O O11 0.325954 0.625554 0.113489
O O12 0.500000 0.500000 0.500000
O O13 0.623644 0.439383 0.323559
O O14 0.685806 0.702525 0.561729
O O15 0.304608 0.730716 0.898077
O O16 0.135606 0.781654 0.668617
O O17 0.896563 0.836520 0.606358
O O18 0.000000 0.000000 0.500000
#
# Coordination Sequence:
#
# PCOD8037123 Si02
#       8
#     2   2   2   2   2   2   2   2
#     4  12  29  49  78 110 153 199 254 318 377 445
#     4  12  24  43  72 109 148 191 239 309 374 444
#     4  12  27  47  75 108 156 195 248 307 377 453
#     4  12  29  50  76 108 155 202 249 302 373 458
#     4  12  25  47  76 106 148 191 250 309 374 436
#     4  12  29  49  78 110 149 202 255 311 376 449
#     4  12  25  47  74 113 145 189 255 313 375 444
#     4  12  30  50  75 109 153 200 252 309 375 447
#
# _framework density 22.539414000000001
#
# number of rings (size 3 to 8) (size 9 to 14) (size 15 to 20)
#    0.000    0.000    5.000    3.750   12.250    2.000 
#    0.000    0.000    0.000    0.000    0.000    0.000 
#    0.000    0.000    0.000    0.000    0.000    0.000 
#
# Total GULP energy -198395.082078 kJ/mol
# GULP energy per Si atom -12399.692630 kJ/mol
# Density = 2.248811 g / cm^3
# Si number density = 22.539414 Si / 1000 Ang^3
#
#
#
# Elastic Constant Matrix: (Units=GPa)
#
#
# Indices 1 2 3 4 5 6 
#
# 1 133.8892 37.7854 25.7971 -12.0917 0.4701 9.7595
# 2 37.7854 91.8573 23.4929 -20.4148 1.0674 -0.5077
# 3 25.7971 23.4929 97.9137 -13.9554 -2.1066 6.4749
# 4 -12.0917 -20.4148 -13.9554 48.8650 3.9990 3.3464
# 5 0.4701 1.0674 -2.1066 3.9990 41.9779 -0.7506
# 6 9.7595 -0.5077 6.4749 3.3464 -0.7506 48.0408
#
#
#
# Elastic Compliance Matrix: (Units=1/GPa)
#
#
# Indices 1 2 3 4 5 6 
#
# 1 0.008797 -0.003141 -0.001371 0.000602 -0.000175 -0.001680
# 2 -0.003141 0.013653 -0.001885 0.004406 -0.000814 0.000717
# 3 -0.001371 -0.001885 0.011444 0.002207 0.000402 -0.001431
# 4 0.000602 0.004406 0.002207 0.023410 -0.002275 -0.002039
# 5 -0.000175 -0.000814 0.000402 -0.002275 0.024091 0.000508
# 6 -0.001680 0.000717 -0.001431 -0.002039 0.000508 0.021507
#
#
# Mechanical properties :
#
#
# Convention : Reuss Voigt Hill
#
# Bulk Modulus (GPa) = 47.39361 55.31234 51.35297
# Shear Modulus (GPa) = 40.73934 43.54907 42.14421
#
# Velocity S-wave (km/s) = 4.25605 4.40037 4.32881
# Velocity P-wave (km/s) = 6.72492 7.10008 6.91505
#
# Compressibility (1/GPa) = 0.02109989
#
# Stress axis : x y z
#
# Youngs Moduli (GPa) = 113.67480 73.24164 87.37915
#
# Poissons Ratio (x) = 0.23009 0.11978
# Poissons Ratio (y) = 0.35710 0.16473
# Poissons Ratio (z) = 0.15582 0.13808
#
# Static dielectric constant tensor:
#      x y z
#    x 4.439780 0.231710 -0.027070 
#    y 0.231710 3.912600 0.358030 
#    z -0.027070 0.358030 3.991560 
# 
# 
# High freq. dielectric constant tensor:
#      x y z
#    x 1.915120 0.000550 0.002910 
#    y 0.000550 1.898510 -0.001330 
#    z 0.002910 -0.001330 1.892140 
# 
# From -- ./inp_files/98715.got.cif
#   From: 2010.06.25/outbox.cif.g09.slc.cpg/sg2_50_cif.got.tgz:98715.got - 2010.06.27 13:26:56.
