data_PCOD8037393
_publ_section_title
;
Structure prediction by ZEFSAII (Michael W. Deem and Ramdas Pophale) SiO2 
 PCOD8037393
Probable space group: P -1
;
_chemical_formula_sum "Si O2"
_cell_formula_units_Z 16
_cell_length_a 17.155837
_cell_length_b 17.378597
_cell_length_c 8.573412
_cell_angle_alpha 139.660554
_cell_angle_beta 32.446156
_cell_angle_gamma 149.299146
_cell_volume 693.882743
_symmetry_space_group_name_H-M "P -1"
_symmetry_group_IT_number 2
_symmetry_cell_setting 'triclinic'
loop_
_space_group_symop_operation_xyz
x,y,z
-x,-y,-z
loop_
_atom_site_type_symbol
_atom_site_label
_atom_site_fract_x
_atom_site_fract_y
_atom_site_fract_z
Si Si1 0.829018 0.393800 0.406822
Si Si2 0.033317 0.731701 0.574395
Si Si3 0.818507 0.846848 0.130926
Si Si4 0.498433 0.370670 0.875199
Si Si5 0.377816 0.855898 0.369862
Si Si6 0.989162 0.256379 0.740876
Si Si7 0.361965 0.358509 0.401648
Si Si8 0.711824 0.908476 0.715557
O O1 0.675489 0.383697 0.545119
O O2 0.739685 0.295919 0.562933
O O3 0.982968 0.571681 0.462765
O O4 0.914397 0.338364 0.067180
O O5 0.233459 0.859852 0.515127
O O6 0.040265 0.754445 0.411663
O O7 0.876394 0.742129 0.924583
O O8 0.688113 0.787113 0.109032
O O9 0.711364 0.867036 0.473287
O O10 0.000000 0.000000 0.000000
O O11 0.500000 0.500000 0.000000
O O12 0.500635 0.377046 0.067560
O O13 0.500000 0.000000 0.500000
O O14 0.511650 0.857946 0.024138
O O15 0.205833 0.359919 0.583507
O O16 0.873913 0.087247 0.746856
O O17 0.500000 0.500000 0.500000
O O18 0.249656 0.192606 0.411481
#
# Coordination Sequence:
#
# PCOD8037393 Si02
#       8
#     2   2   2   2   2   2   2   2
#     4  12  27  48  78 107 152 198 249 315 374 453
#     4  12  28  50  75 109 150 198 255 311 376 446
#     4  12  26  46  78 109 148 196 252 308 374 447
#     4  12  24  49  73 110 149 193 253 308 373 442
#     4  12  29  49  73 113 153 197 247 311 384 448
#     4  12  27  50  75 112 150 200 251 308 378 450
#     4  12  27  46  76 112 154 195 253 311 374 447
#     4  12  27  47  76 113 151 199 249 310 379 452
#
# _framework density 23.058651999999999
#
# number of rings (size 3 to 8) (size 9 to 14) (size 15 to 20)
#    0.000    0.000    6.250    1.875    7.000    1.500 
#    0.000    0.000    0.000    0.000    0.000    0.000 
#    0.000    0.000    0.000    0.000    0.000    0.000 
#
# Total GULP energy -198382.459698 kJ/mol
# GULP energy per Si atom -12398.903731 kJ/mol
# Density = 2.300617 g / cm^3
# Si number density = 23.058652 Si / 1000 Ang^3
#
#
#
# Elastic Constant Matrix: (Units=GPa)
#
#
# Indices 1 2 3 4 5 6 
#
# 1 134.5545 48.5683 49.3081 -1.0816 -8.0848 28.2062
# 2 48.5683 128.0850 31.1737 9.9624 3.2900 3.8193
# 3 49.3081 31.1737 160.0008 10.6039 -2.4267 18.1205
# 4 -1.0816 9.9624 10.6039 39.0036 -1.2754 -0.6923
# 5 -8.0848 3.2900 -2.4267 -1.2754 41.7017 -6.8182
# 6 28.2062 3.8193 18.1205 -0.6923 -6.8182 49.3412
#
#
#
# Elastic Compliance Matrix: (Units=1/GPa)
#
#
# Indices 1 2 3 4 5 6 
#
# 1 0.010588 -0.003528 -0.002128 0.001737 0.001481 -0.004769
# 2 -0.003528 0.009511 -0.000785 -0.002333 -0.001330 0.001352
# 3 -0.002128 -0.000785 0.007348 -0.001890 -0.000223 -0.001479
# 4 0.001737 -0.002333 -0.001890 0.026847 0.001304 0.000438
# 5 0.001481 -0.001330 -0.000223 0.001304 0.024855 0.002791
# 6 -0.004769 0.001352 -0.001479 0.000438 0.002791 0.023823
#
#
# Mechanical properties :
#
#
# Convention : Reuss Voigt Hill
#
# Bulk Modulus (GPa) = 68.65251 75.63785 72.14518
# Shear Modulus (GPa) = 41.42193 45.58198 43.50196
#
# Velocity S-wave (km/s) = 4.24296 4.45093 4.34819
# Velocity P-wave (km/s) = 7.33766 7.69987 7.52094
#
# Compressibility (1/GPa) = 0.01456611
#
# Stress axis : x y z
#
# Youngs Moduli (GPa) = 94.44855 105.13796 136.09172
#
# Poissons Ratio (x) = 0.37090 0.28962
# Poissons Ratio (y) = 0.33319 0.10678
# Poissons Ratio (z) = 0.20100 0.08249
#
# Static dielectric constant tensor:
#      x y z
#    x 4.478770 0.417520 0.083310 
#    y 0.417520 4.840090 0.716810 
#    z 0.083310 0.716810 5.531430 
# 
# 
# High freq. dielectric constant tensor:
#      x y z
#    x 1.911090 -0.000350 -0.003780 
#    y -0.000350 1.925160 -0.000930 
#    z -0.003780 -0.000930 1.925810 
# 
# From -- ./inp_files/336789.got.cif
#   From: 2010.06.25/outbox.cif.g09.slc.cpg/sg2_169_cif.got.tgz:336789.got - 2010.06.27 13:26:56.
