data_PCOD8037670
_publ_section_title
;
Structure prediction by ZEFSAII (Michael W. Deem and Ramdas Pophale) SiO2 
 PCOD8037670
Probable space group: P -1
;
_chemical_formula_sum "Si O2"
_cell_formula_units_Z 14
_cell_length_a 10.985311
_cell_length_b 5.271327
_cell_length_c 11.911214
_cell_angle_alpha 100.227137
_cell_angle_beta 66.213744
_cell_angle_gamma 117.926796
_cell_volume 557.600272
_symmetry_space_group_name_H-M "P -1"
_symmetry_group_IT_number 2
_symmetry_cell_setting 'triclinic'
loop_
_space_group_symop_operation_xyz
x,y,z
-x,-y,-z
loop_
_atom_site_type_symbol
_atom_site_label
_atom_site_fract_x
_atom_site_fract_y
_atom_site_fract_z
Si Si1 0.335037 0.826121 0.505467
Si Si2 0.152486 0.094237 0.228215
Si Si3 0.301544 0.625952 0.833516
Si Si4 0.379701 0.984790 0.263295
Si Si5 0.905140 0.163249 0.006137
Si Si6 0.183931 0.232493 0.647273
Si Si7 0.368428 0.591668 0.057059
O O1 0.331671 0.763531 0.367974
O O2 0.242317 0.520057 0.573404
O O3 0.500000 0.000000 0.500000
O O4 0.267686 0.046624 0.572002
O O5 0.233484 0.422931 0.182216
O O6 0.246478 0.064934 0.294833
O O7 0.156142 0.915520 0.103233
O O8 0.987262 0.984920 0.327185
O O9 0.202485 0.335674 0.778431
O O10 0.468266 0.745326 0.732959
O O11 0.236508 0.866626 0.866024
O O12 0.293355 0.534877 0.959409
O O13 0.430865 0.903643 0.117479
O O14 0.000000 0.500000 0.000000
O O15 0.000000 0.000000 0.000000
O O16 0.500000 0.500000 0.000000
#
# Coordination Sequence:
#
# PCOD8037670 Si02
#       7
#     2   2   2   2   2   2   2
#     4  12  30  54  83 112 153 208 278 322 389 463
#     4  12  28  47  75 117 161 201 260 321 405 460
#     4  12  25  50  79 119 155 206 266 324 399 480
#     4  12  28  49  78 110 159 206 263 329 388 473
#     4  12  26  44  73 114 159 201 247 315 392 472
#     4  12  31  50  83 116 152 208 268 331 387 459
#     4  12  26  45  79 118 163 207 255 320 405 483
#
# _framework density 25.107590999999999
#
# number of rings (size 3 to 8) (size 9 to 14) (size 15 to 20)
#    0.000    0.000    5.714    2.571    8.000    1.143 
#    0.000    0.000    0.000    0.000    0.000    0.000 
#    0.000    0.000    0.000    0.000    0.000    0.000 
#
# Total GULP energy -173511.225815 kJ/mol
# GULP energy per Si atom -12393.658987 kJ/mol
# Density = 2.505045 g / cm^3
# Si number density = 25.107591 Si / 1000 Ang^3
#
#
#
# Elastic Constant Matrix: (Units=GPa)
#
#
# Indices 1 2 3 4 5 6 
#
# 1 169.2692 39.7701 56.3995 0.7810 6.2622 5.4507
# 2 39.7701 60.4277 11.4775 -9.7859 -3.8066 -13.2669
# 3 56.3995 11.4775 115.8569 -11.0729 4.8089 -12.4852
# 4 0.7810 -9.7859 -11.0729 42.3069 -20.8818 -15.6561
# 5 6.2622 -3.8066 4.8089 -20.8818 3.3814 -24.8320
# 6 5.4507 -13.2669 -12.4852 -15.6561 -24.8320 34.4598
#
#
#
# Elastic Compliance Matrix: (Units=1/GPa)
#
#
# Indices 1 2 3 4 5 6 
#
# 1 0.007545 -0.003435 -0.003290 0.001584 0.005899 0.001263
# 2 -0.003435 0.017029 -0.000089 -0.002839 -0.011780 -0.002711
# 3 -0.003290 -0.000089 0.010524 0.000152 -0.005602 0.000331
# 4 0.001584 -0.002839 0.000152 0.010058 -0.018608 -0.010128
# 5 0.005899 -0.011780 -0.005602 -0.018608 -0.011056 -0.023919
# 6 0.001263 -0.002711 0.000331 -0.010128 -0.023919 0.006058
#
#
# Mechanical properties :
#
#
# Convention : Reuss Voigt Hill
#
# Bulk Modulus (GPa) = 46.57627 62.31646 54.44637
# Shear Modulus (GPa) = 82.04179 31.89006 56.96592
#
# Velocity S-wave (km/s) = 5.72250 3.56776 4.76844
# Velocity P-wave (km/s) = 7.89010 6.46881 7.21454
#
# Compressibility (1/GPa) = 0.02147016
#
# Stress axis : x y z
#
# Youngs Moduli (GPa) = 132.54229 58.72163 95.01662
#
# Poissons Ratio (x) = 0.20172 0.31259
# Poissons Ratio (y) = 0.45530 0.00848
# Poissons Ratio (z) = 0.43604 0.00524
#
# Static dielectric constant tensor:
#      x y z
#    x 6.442270 0.087290 -0.555090 
#    y 0.087290 5.195140 0.139440 
#    z -0.555090 0.139440 4.882240 
# 
# 
# High freq. dielectric constant tensor:
#      x y z
#    x 2.021250 0.014890 -0.002990 
#    y 0.014890 2.002470 -0.004230 
#    z -0.002990 -0.004230 2.005740 
# 
# From -- ./inp_files/410742.got.cif
#   From: 2010.06.25/outbox.cif.g09.slc.cpg/sg2_206_cif.got.tgz:410742.got - 2010.06.27 13:26:56.
