data_PCOD8037193
_publ_section_title
;
Structure prediction by ZEFSAII (Michael W. Deem and Ramdas Pophale) SiO2 
 PCOD8037193
Probable space group: P -1
;
_chemical_formula_sum "Si O2"
_cell_formula_units_Z 16
_cell_length_a 15.105137
_cell_length_b 11.506126
_cell_length_c 8.593366
_cell_angle_alpha 105.192824
_cell_angle_beta 83.245897
_cell_angle_gamma 150.249762
_cell_volume 696.126273
_symmetry_space_group_name_H-M "P -1"
_symmetry_group_IT_number 2
_symmetry_cell_setting 'triclinic'
loop_
_space_group_symop_operation_xyz
x,y,z
-x,-y,-z
loop_
_atom_site_type_symbol
_atom_site_label
_atom_site_fract_x
_atom_site_fract_y
_atom_site_fract_z
Si Si1 0.355853 0.245894 0.852347
Si Si2 0.556914 0.069046 0.330471
Si Si3 0.047131 0.542562 0.679976
Si Si4 0.797129 0.814490 0.449399
Si Si5 0.844827 0.097253 0.741090
Si Si6 0.448448 0.688914 0.746596
Si Si7 0.374990 0.636377 0.099980
Si Si8 0.995418 0.255420 0.082724
O O1 0.255564 0.185335 0.703793
O O2 0.474011 0.263662 0.799767
O O3 0.189952 0.025901 0.925028
O O4 0.500000 0.500000 0.000000
O O5 0.736440 0.213134 0.282940
O O6 0.588441 0.240728 0.328491
O O7 0.500000 0.000000 0.500000
O O8 0.405147 0.815435 0.177871
O O9 0.984791 0.585644 0.803292
O O10 0.000000 0.500000 0.500000
O O11 0.932745 0.291032 0.667379
O O12 0.648733 0.534020 0.406161
O O13 0.777675 0.893505 0.609671
O O14 0.000000 0.000000 0.500000
O O15 0.665905 0.938126 0.805815
O O16 0.998599 0.262099 0.897344
O O17 0.368639 0.598034 0.905113
O O18 0.172468 0.380505 0.129136
#
# Coordination Sequence:
#
# PCOD8037193 Si02
#       8
#     2   2   2   2   2   2   2   2
#     4  12  26  51  76 110 153 193 252 308 368 452
#     4  12  26  45  73 108 146 190 244 310 373 438
#     4  12  24  45  70 108 148 188 252 310 367 444
#     4  12  27  49  73 110 150 197 248 306 374 449
#     4  12  25  45  74 106 150 195 245 311 371 442
#     4  12  25  49  70 108 149 195 247 306 371 444
#     4  12  25  48  75 109 146 194 248 304 375 436
#     4  12  25  47  76 110 144 198 249 307 371 439
#
# _framework density 22.984335999999999
#
# number of rings (size 3 to 8) (size 9 to 14) (size 15 to 20)
#    0.000    0.000    3.750    6.375    1.750    1.500 
#    2.250    0.000    0.000    0.000    0.000    0.000 
#    0.000    0.000    0.000    0.000    0.000    0.000 
#
# Total GULP energy -198277.722420 kJ/mol
# GULP energy per Si atom -12392.357651 kJ/mol
# Density = 2.293202 g / cm^3
# Si number density = 22.984336 Si / 1000 Ang^3
#
#
#
# Elastic Constant Matrix: (Units=GPa)
#
#
# Indices 1 2 3 4 5 6 
#
# 1 129.9040 65.7533 55.1535 -11.1448 14.7589 5.8727
# 2 65.7533 135.0244 25.4054 8.0156 -2.7977 19.9720
# 3 55.1535 25.4054 135.0172 10.2655 -4.8330 -10.2380
# 4 -11.1448 8.0156 10.2655 30.2202 -3.0810 -6.8143
# 5 14.7589 -2.7977 -4.8330 -3.0810 45.2793 5.8817
# 6 5.8727 19.9720 -10.2380 -6.8143 5.8817 55.9682
#
#
#
# Elastic Compliance Matrix: (Units=1/GPa)
#
#
# Indices 1 2 3 4 5 6 
#
# 1 0.015025 -0.007175 -0.005555 0.009142 -0.005527 0.001662
# 2 -0.007175 0.011844 0.000998 -0.006798 0.003294 -0.004465
# 3 -0.005555 0.000998 0.010061 -0.005217 0.002438 0.001176
# 4 0.009142 -0.006798 -0.005217 0.041133 -0.001901 0.005720
# 5 -0.005527 0.003294 0.002438 -0.001901 0.024607 -0.002967
# 6 0.001662 -0.004465 0.001176 0.005720 -0.002967 0.020509
#
#
# Mechanical properties :
#
#
# Convention : Reuss Voigt Hill
#
# Bulk Modulus (GPa) = 74.24879 76.95222 75.60050
# Shear Modulus (GPa) = 33.08388 43.20241 38.14315
#
# Velocity S-wave (km/s) = 3.79807 4.34019 4.07815
# Velocity P-wave (km/s) = 7.18387 7.65959 7.42554
#
# Compressibility (1/GPa) = 0.01346823
#
# Stress axis : x y z
#
# Youngs Moduli (GPa) = 66.55506 84.42829 99.39660
#
# Poissons Ratio (x) = 0.60575 0.55211
# Poissons Ratio (y) = 0.47752 -0.09923
# Poissons Ratio (z) = 0.36969 -0.08429
#
# Static dielectric constant tensor:
#      x y z
#    x 4.577590 0.051360 0.001200 
#    y 0.051360 4.269590 0.097930 
#    z 0.001200 0.097930 4.033290 
# 
# 
# High freq. dielectric constant tensor:
#      x y z
#    x 1.920810 0.008410 -0.004170 
#    y 0.008410 1.926770 0.013060 
#    z -0.004170 0.013060 1.912160 
# 
# From -- ./inp_files/272596.got.cif
#   From: 2010.06.25/outbox.cif.g09.slc.cpg/sg2_137_cif.got.tgz:272596.got - 2010.06.27 13:26:56.
