data_PCOD8037229
_publ_section_title
;
Structure prediction by ZEFSAII (Michael W. Deem and Ramdas Pophale) SiO2 
 PCOD8037229
Probable space group: P -1
;
_chemical_formula_sum "Si O2"
_cell_formula_units_Z 16
_cell_length_a 11.732506
_cell_length_b 6.620424
_cell_length_c 13.235509
_cell_angle_alpha 132.196305
_cell_angle_beta 74.461083
_cell_angle_gamma 98.696655
_cell_volume 733.200454
_symmetry_space_group_name_H-M "P -1"
_symmetry_group_IT_number 2
_symmetry_cell_setting 'triclinic'
loop_
_space_group_symop_operation_xyz
x,y,z
-x,-y,-z
loop_
_atom_site_type_symbol
_atom_site_label
_atom_site_fract_x
_atom_site_fract_y
_atom_site_fract_z
Si Si1 0.492835 0.689861 0.362430
Si Si2 0.082194 0.240166 0.768460
Si Si3 0.732610 0.561179 0.353356
Si Si4 0.495135 0.763381 0.159593
Si Si5 0.757948 0.934460 0.146419
Si Si6 0.065308 0.275831 0.341404
Si Si7 0.672796 0.730991 0.645544
Si Si8 0.063735 0.268084 0.103834
O O1 0.620436 0.539331 0.298476
O O2 0.456462 0.668978 0.247573
O O3 0.392818 0.540552 0.398471
O O4 0.500000 0.000000 0.500000
O O5 0.167584 0.251507 0.654295
O O6 0.165853 0.226344 0.841093
O O7 0.995218 0.504905 0.878978
O O8 0.995006 0.995527 0.701402
O O9 0.691177 0.711867 0.515338
O O10 0.786619 0.254931 0.254806
O O11 0.620442 0.900860 0.184109
O O12 0.402624 0.993255 0.215918
O O13 0.500000 0.500000 0.000000
O O14 0.799052 0.796666 0.983521
O O15 0.204039 0.254043 0.321800
O O16 0.050898 0.345746 0.250119
O O17 0.000000 0.500000 0.500000
O O18 0.000000 0.000000 0.000000
#
# Coordination Sequence:
#
# PCOD8037229 Si02
#       8
#     2   2   2   2   2   2   2   2
#     4  12  25  47  78 103 140 194 243 295 360 430
#     4  12  25  46  77 104 146 196 244 296 363 428
#     4  12  24  45  78 107 140 191 251 303 350 432
#     4  12  29  46  71 112 150 193 237 302 375 429
#     4  12  25  46  73 108 145 189 251 299 357 434
#     4  12  30  49  71 110 152 192 238 300 367 435
#     4  12  28  47  73 109 152 187 244 304 365 430
#     4  12  26  46  73 107 143 193 246 294 354 435
#
# _framework density 21.822137000000001
#
# number of rings (size 3 to 8) (size 9 to 14) (size 15 to 20)
#    0.000    0.000    6.250    3.000    5.250    3.500 
#    0.000    0.000    0.000    0.000    0.000    0.000 
#    0.000    0.000    0.000    0.000    0.000    0.000 
#
# Total GULP energy -198460.941632 kJ/mol
# GULP energy per Si atom -12403.808852 kJ/mol
# Density = 2.177247 g / cm^3
# Si number density = 21.822137 Si / 1000 Ang^3
#
#
#
# Elastic Constant Matrix: (Units=GPa)
#
#
# Indices 1 2 3 4 5 6 
#
# 1 138.1664 51.7510 30.9879 9.3988 -10.9966 -7.2172
# 2 51.7510 132.6498 55.3617 9.3802 -5.3756 -3.0060
# 3 30.9879 55.3617 146.5366 7.4771 -7.9443 -11.8460
# 4 9.3988 9.3802 7.4771 37.6697 -0.2021 -6.6574
# 5 -10.9966 -5.3756 -7.9443 -0.2021 38.4066 -2.7424
# 6 -7.2172 -3.0060 -11.8460 -6.6574 -2.7424 44.1942
#
#
#
# Elastic Compliance Matrix: (Units=1/GPa)
#
#
# Indices 1 2 3 4 5 6 
#
# 1 0.008778 -0.003049 -0.000448 -0.001143 0.002064 0.001062
# 2 -0.003049 0.010125 -0.003196 -0.001281 -0.000186 -0.000870
# 3 -0.000448 -0.003196 0.008377 -0.000399 0.001296 0.001975
# 4 -0.001143 -0.001281 -0.000399 0.027903 -0.000170 0.003812
# 5 0.002064 -0.000186 0.001296 -0.000170 0.027035 0.002324
# 6 0.001062 -0.000870 0.001975 0.003812 0.002324 0.023989
#
#
# Mechanical properties :
#
#
# Convention : Reuss Voigt Hill
#
# Bulk Modulus (GPa) = 71.97395 77.06157 74.51776
# Shear Modulus (GPa) = 40.25005 42.67091 41.46048
#
# Velocity S-wave (km/s) = 4.29938 4.42678 4.36354
# Velocity P-wave (km/s) = 7.59604 7.84339 7.72070
#
# Compressibility (1/GPa) = 0.01389392
#
# Stress axis : x y z
#
# Youngs Moduli (GPa) = 113.92633 98.76423 119.37979
#
# Poissons Ratio (x) = 0.30111 0.05352
# Poissons Ratio (y) = 0.34734 0.38149
# Poissons Ratio (z) = 0.05107 0.31561
#
# Static dielectric constant tensor:
#      x y z
#    x 4.211970 0.069710 -0.384490 
#    y 0.069710 4.509710 -0.594060 
#    z -0.384490 -0.594060 4.518670 
# 
# 
# High freq. dielectric constant tensor:
#      x y z
#    x 1.870930 -0.001110 -0.018910 
#    y -0.001110 1.874860 -0.003500 
#    z -0.018910 -0.003500 1.858910 
# 
# From -- ./inp_files/411240.got.cif
#   From: 2010.06.25/outbox.cif.g09.slc.cpg/sg2_206_cif.got.tgz:411240.got - 2010.06.27 13:26:56.
