data_PCOD8037577
_publ_section_title
;
Structure prediction by ZEFSAII (Michael W. Deem and Ramdas Pophale) SiO2 
 PCOD8037577
Probable space group: P -1
;
_chemical_formula_sum "Si O2"
_cell_formula_units_Z 16
_cell_length_a 9.814187
_cell_length_b 9.564746
_cell_length_c 13.936162
_cell_angle_alpha 70.581555
_cell_angle_beta 95.807811
_cell_angle_gamma 43.611748
_cell_volume 723.998635
_symmetry_space_group_name_H-M "P -1"
_symmetry_group_IT_number 2
_symmetry_cell_setting 'triclinic'
loop_
_space_group_symop_operation_xyz
x,y,z
-x,-y,-z
loop_
_atom_site_type_symbol
_atom_site_label
_atom_site_fract_x
_atom_site_fract_y
_atom_site_fract_z
Si Si1 0.162679 0.445629 0.774036
Si Si2 0.601864 0.472119 0.272026
Si Si3 0.592830 0.002916 0.233998
Si Si4 0.834787 0.512780 0.015190
Si Si5 0.065516 0.997973 0.109289
Si Si6 0.695312 0.237612 0.522451
Si Si7 0.865102 0.044207 0.268490
Si Si8 0.635544 0.943393 0.613184
O O1 0.227823 0.536741 0.699146
O O2 0.304477 0.184724 0.801471
O O3 0.237856 0.406660 0.897888
O O4 0.890184 0.648033 0.699904
O O5 0.666637 0.290330 0.395809
O O6 0.649863 0.346174 0.202911
O O7 0.341326 0.758321 0.195675
O O8 0.791194 0.938574 0.303784
O O9 0.500293 0.980257 0.317451
O O10 0.394465 0.282310 0.112724
O O11 0.974475 0.240902 0.068401
O O12 0.000000 0.500000 0.000000
O O13 0.954791 0.981124 0.180848
O O14 0.000000 0.000000 0.000000
O O15 0.500000 0.500000 0.500000
O O16 0.942143 0.079292 0.612184
O O17 0.659003 0.098545 0.576627
O O18 0.500000 0.000000 0.500000
#
# Coordination Sequence:
#
# PCOD8037577 Si02
#       8
#     2   2   2   2   2   2   2   2
#     4  12  27  47  75 107 147 194 245 296 365 436
#     4  12  25  47  78 103 144 196 240 295 369 428
#     4  12  29  46  76 109 149 193 242 301 368 428
#     4  12  25  50  76 104 149 192 242 301 365 432
#     4  12  28  46  73 108 148 187 244 304 359 432
#     4  12  25  48  78 102 147 194 239 299 365 426
#     4  12  27  48  71 111 146 189 247 297 361 437
#     4  12  28  50  72 111 151 187 247 305 354 437
#
# _framework density 22.099488999999998
#
# number of rings (size 3 to 8) (size 9 to 14) (size 15 to 20)
#    0.000    0.000    5.000    3.750    7.000    2.500 
#    0.000    0.000    0.000    0.000    0.000    0.000 
#    0.000    0.000    0.000    0.000    0.000    0.000 
#
# Total GULP energy -198492.679990 kJ/mol
# GULP energy per Si atom -12405.792499 kJ/mol
# Density = 2.204919 g / cm^3
# Si number density = 22.099489 Si / 1000 Ang^3
#
#
#
# Elastic Constant Matrix: (Units=GPa)
#
#
# Indices 1 2 3 4 5 6 
#
# 1 153.6397 54.6444 46.6162 -1.1592 7.1598 0.7433
# 2 54.6444 161.1664 45.9160 0.4753 4.1690 -2.6457
# 3 46.6162 45.9160 125.3116 8.8179 9.2794 -2.7740
# 4 -1.1592 0.4753 8.8179 29.6598 7.4876 -2.7371
# 5 7.1598 4.1690 9.2794 7.4876 22.7766 5.2562
# 6 0.7433 -2.6457 -2.7740 -2.7371 5.2562 35.8268
#
#
#
# Elastic Compliance Matrix: (Units=1/GPa)
#
#
# Indices 1 2 3 4 5 6 
#
# 1 0.007994 -0.002046 -0.002202 0.001410 -0.001674 -0.000134
# 2 -0.002046 0.007476 -0.001987 0.000486 -0.000192 0.000506
# 3 -0.002202 -0.001987 0.009887 -0.002308 -0.002407 0.000841
# 4 0.001410 0.000486 -0.002308 0.038225 -0.013240 0.004691
# 5 -0.001674 -0.000192 -0.002407 -0.013240 0.051826 -0.008781
# 6 -0.000134 0.000506 0.000841 0.004691 -0.008781 0.029664
#
#
# Mechanical properties :
#
#
# Convention : Reuss Voigt Hill
#
# Bulk Modulus (GPa) = 77.60213 81.60790 79.60502
# Shear Modulus (GPa) = 30.89507 37.18203 34.03855
#
# Velocity S-wave (km/s) = 3.74304 4.10626 3.92885
# Velocity P-wave (km/s) = 7.33973 7.71294 7.52865
#
# Compressibility (1/GPa) = 0.01288624
#
# Stress axis : x y z
#
# Youngs Moduli (GPa) = 125.09483 133.75315 101.14498
#
# Poissons Ratio (x) = 0.27366 0.22275
# Poissons Ratio (y) = 0.25595 0.20099
# Poissons Ratio (z) = 0.27550 0.26578
#
# Static dielectric constant tensor:
#      x y z
#    x 4.523750 0.260080 -0.224090 
#    y 0.260080 4.923150 -0.227190 
#    z -0.224090 -0.227190 4.316040 
# 
# 
# High freq. dielectric constant tensor:
#      x y z
#    x 1.884190 -0.008490 -0.003210 
#    y -0.008490 1.892280 0.001120 
#    z -0.003210 0.001120 1.870440 
# 
# From -- ./inp_files/494680.got.cif
#   From: 2010.06.25/outbox.cif.g09.slc.cpg/sg2_248_cif.got.tgz:494680.got - 2010.06.27 13:26:56.
