data_PCOD8037735
_publ_section_title
;
Structure prediction by ZEFSAII (Michael W. Deem and Ramdas Pophale) SiO2 
 PCOD8037735
Probable space group: P -1
;
_chemical_formula_sum "Si O2"
_cell_formula_units_Z 16
_cell_length_a 8.239532
_cell_length_b 9.532465
_cell_length_c 19.150421
_cell_angle_alpha 29.457255
_cell_angle_beta 95.315434
_cell_angle_gamma 98.915833
_cell_volume 727.979505
_symmetry_space_group_name_H-M "P -1"
_symmetry_group_IT_number 2
_symmetry_cell_setting 'triclinic'
loop_
_space_group_symop_operation_xyz
x,y,z
-x,-y,-z
loop_
_atom_site_type_symbol
_atom_site_label
_atom_site_fract_x
_atom_site_fract_y
_atom_site_fract_z
Si Si1 0.448865 0.291335 0.395181
Si Si2 0.098494 0.173550 0.365445
Si Si3 0.942881 0.217239 0.957285
Si Si4 0.404188 0.222407 0.582054
Si Si5 0.073300 0.214857 0.106942
Si Si6 0.034502 0.197056 0.605513
Si Si7 0.555591 0.832230 0.860466
Si Si8 0.580632 0.933380 0.104064
O O1 0.276312 0.308820 0.343081
O O2 0.458884 0.233730 0.501182
O O3 0.574613 0.585880 0.256736
O O4 0.500000 0.000000 0.500000
O O5 0.027676 0.459927 0.213094
O O6 0.000000 0.000000 0.500000
O O7 0.094840 0.959865 0.390269
O O8 0.073190 0.197583 0.031733
O O9 0.764754 0.109230 0.032079
O O10 0.000000 0.000000 0.000000
O O11 0.500000 0.500000 0.500000
O O12 0.211846 0.230463 0.563948
O O13 0.451207 0.951412 0.743227
O O14 0.253919 0.143131 0.165419
O O15 0.952872 0.978591 0.246975
O O16 0.000000 0.500000 0.000000
O O17 0.000000 0.500000 0.500000
O O18 0.519427 0.970330 0.874465
O O19 0.500000 0.500000 0.000000
O O20 0.500000 0.000000 0.000000
#
# Coordination Sequence:
#
# PCOD8037735 Si02
#       8
#     2   2   2   2   2   2   2   2
#     4  12  30  47  77 109 156 200 252 310 380 454
#     4  12  28  51  73 111 153 193 254 315 377 454
#     4  12  28  47  79 107 152 198 252 312 380 453
#     4  12  26  50  71 111 151 198 254 306 377 452
#     4  12  26  48  72 109 145 195 253 305 377 449
#     4  12  28  46  79 106 153 199 249 314 382 448
#     4  12  28  45  77 106 152 196 251 314 373 449
#     4  12  26  50  74 110 152 199 254 309 383 450
#
# _framework density 21.978639999999999
#
# number of rings (size 3 to 8) (size 9 to 14) (size 15 to 20)
#    0.000    0.000    5.000    3.750    8.750    0.000 
#    0.000    0.000    0.000    0.000    0.000    0.000 
#    0.000    0.000    0.000    0.000    0.000    0.000 
#
# Total GULP energy -198217.747831 kJ/mol
# GULP energy per Si atom -12388.609239 kJ/mol
# Density = 2.192862 g / cm^3
# Si number density = 21.978640 Si / 1000 Ang^3
#
#
#
# Elastic Constant Matrix: (Units=GPa)
#
#
# Indices 1 2 3 4 5 6 
#
# 1 70.4877 12.7061 15.5403 -1.6527 -1.5587 -3.8339
# 2 12.7061 162.8908 73.0780 1.5578 8.9955 -2.5663
# 3 15.5403 73.0780 186.0136 -3.9776 -4.2400 -5.8425
# 4 -1.6527 1.5578 -3.9776 53.1306 4.2770 4.4515
# 5 -1.5587 8.9955 -4.2400 4.2770 38.5077 1.7029
# 6 -3.8339 -2.5663 -5.8425 4.4515 1.7029 39.3634
#
#
#
# Elastic Compliance Matrix: (Units=1/GPa)
#
#
# Indices 1 2 3 4 5 6 
#
# 1 0.014599 -0.000769 -0.000861 0.000265 0.000594 0.001188
# 2 -0.000769 0.007667 -0.002999 -0.000311 -0.002122 0.000107
# 3 -0.000861 -0.002999 0.006684 0.000403 0.001330 0.000610
# 4 0.000265 -0.000311 0.000403 0.019193 -0.001914 -0.002022
# 5 0.000594 -0.002122 0.001330 -0.001914 0.026884 -0.000830
# 6 0.001188 0.000107 0.000610 -0.002022 -0.000830 0.025882
#
#
# Mechanical properties :
#
#
# Convention : Reuss Voigt Hill
#
# Bulk Modulus (GPa) = 50.78402 69.11566 59.94984
# Shear Modulus (GPa) = 42.83313 47.40483 45.11898
#
# Velocity S-wave (km/s) = 4.41937 4.64924 4.53576
# Velocity P-wave (km/s) = 7.01408 7.76760 7.40044
#
# Compressibility (1/GPa) = 0.01969123
#
# Stress axis : x y z
#
# Youngs Moduli (GPa) = 68.49634 130.43684 149.60431
#
# Poissons Ratio (x) = 0.10032 0.12881
# Poissons Ratio (y) = 0.05268 0.44871
# Poissons Ratio (z) = 0.05897 0.39122
#
# Static dielectric constant tensor:
#      x y z
#    x 3.997460 0.089890 -0.225420 
#    y 0.089890 4.065960 -0.043740 
#    z -0.225420 -0.043740 4.207000 
# 
# 
# High freq. dielectric constant tensor:
#      x y z
#    x 1.863300 0.004150 -0.001110 
#    y 0.004150 1.886280 0.006370 
#    z -0.001110 0.006370 1.893320 
# 
# From -- ./inp_files/244802.got.cif
#   From: 2010.06.25/outbox.cif.g09.slc.cpg/sg2_123_cif.got.tgz:244802.got - 2010.06.27 13:26:56.
