data_PCOD8037431
_publ_section_title
;
Structure prediction by ZEFSAII (Michael W. Deem and Ramdas Pophale) SiO2 
 PCOD8037431
Probable space group: P -1
;
_chemical_formula_sum "Si O2"
_cell_formula_units_Z 16
_cell_length_a 16.200996
_cell_length_b 7.999849
_cell_length_c 22.083957
_cell_angle_alpha 63.193027
_cell_angle_beta 162.250712
_cell_angle_gamma 108.000947
_cell_volume 698.261057
_symmetry_space_group_name_H-M "P -1"
_symmetry_group_IT_number 2
_symmetry_cell_setting 'triclinic'
loop_
_space_group_symop_operation_xyz
x,y,z
-x,-y,-z
loop_
_atom_site_type_symbol
_atom_site_label
_atom_site_fract_x
_atom_site_fract_y
_atom_site_fract_z
Si Si1 0.763230 0.712320 0.489738
Si Si2 0.228757 0.214415 0.759318
Si Si3 0.969292 0.221625 0.448677
Si Si4 0.246863 0.690392 0.484286
Si Si5 0.166949 0.054732 0.279380
Si Si6 0.611053 0.454143 0.986500
Si Si7 0.134147 0.055335 0.026432
Si Si8 0.192802 0.461555 0.015049
O O1 0.719831 0.502235 0.505164
O O2 0.791321 0.740786 0.432507
O O3 0.071497 0.695728 0.737398
O O4 0.497158 0.915142 0.301078
O O5 0.026339 0.237117 0.556437
O O6 0.013289 0.287447 0.654750
O O7 0.393412 0.352473 0.834588
O O8 0.500000 0.000000 0.000000
O O9 0.616509 0.359123 0.159899
O O10 0.000000 0.000000 0.500000
O O11 0.567135 0.629010 0.748827
O O12 0.159684 0.906705 0.352886
O O13 0.500000 0.000000 0.500000
O O14 0.029647 0.296766 0.164778
O O15 0.987919 0.011896 0.107097
O O16 0.654064 0.554754 0.939056
O O17 0.037747 0.303750 0.924517
O O18 0.000000 0.000000 0.000000
#
# Coordination Sequence:
#
# PCOD8037431 Si02
#       8
#     2   2   2   2   2   2   2   2
#     4  12  27  46  76 109 155 201 258 313 377 460
#     4  12  26  42  70 105 153 197 247 302 371 451
#     4  12  25  43  68 106 152 199 250 301 373 450
#     4  12  26  50  76 112 153 201 253 313 382 453
#     4  12  30  52  83 114 146 201 258 318 391 451
#     4  12  25  46  69 111 149 202 249 300 378 447
#     4  12  30  53  80 113 150 199 256 324 387 447
#     4  12  27  51  81 110 159 196 253 317 379 460
#
# _framework density 22.914062999999999
#
# number of rings (size 3 to 8) (size 9 to 14) (size 15 to 20)
#    0.000    0.000    3.750    5.250   10.500    1.500 
#    0.000    0.000    0.000    0.000    0.000    0.000 
#    0.000    0.000    0.000    0.000    0.000    0.000 
#
# Total GULP energy -198287.880114 kJ/mol
# GULP energy per Si atom -12392.992507 kJ/mol
# Density = 2.286191 g / cm^3
# Si number density = 22.914063 Si / 1000 Ang^3
#
#
#
# Elastic Constant Matrix: (Units=GPa)
#
#
# Indices 1 2 3 4 5 6 
#
# 1 92.2813 40.8496 15.1540 -4.9777 0.0303 23.9076
# 2 40.8496 181.8744 37.6489 -17.5469 7.6450 5.8155
# 3 15.1540 37.6489 113.4858 -9.8379 3.0431 0.1912
# 4 -4.9777 -17.5469 -9.8379 44.6922 -0.8222 0.8620
# 5 0.0303 7.6450 3.0431 -0.8222 35.1216 -0.4693
# 6 23.9076 5.8155 0.1912 0.8620 -0.4693 40.3198
#
#
#
# Elastic Compliance Matrix: (Units=1/GPa)
#
#
# Indices 1 2 3 4 5 6 
#
# 1 0.014332 -0.002738 -0.000966 0.000475 0.000570 -0.008102
# 2 -0.002738 0.006673 -0.001649 0.001917 -0.001254 0.000613
# 3 -0.000966 -0.001649 0.009614 0.001339 -0.000432 0.000731
# 4 0.000475 0.001917 0.001339 0.023496 0.000002 -0.001067
# 5 0.000570 -0.001254 -0.000432 0.000002 0.028785 0.000180
# 6 -0.008102 0.000613 0.000731 -0.001067 0.000180 0.029539
#
#
# Mechanical properties :
#
#
# Convention : Reuss Voigt Hill
#
# Bulk Modulus (GPa) = 50.22041 63.88295 57.05168
# Shear Modulus (GPa) = 38.52615 43.62598 41.07607
#
# Velocity S-wave (km/s) = 4.10485 4.36810 4.23852
# Velocity P-wave (km/s) = 6.66565 7.30618 6.99325
#
# Compressibility (1/GPa) = 0.01991222
#
# Stress axis : x y z
#
# Youngs Moduli (GPa) = 69.77635 149.86377 104.01244
#
# Poissons Ratio (x) = 0.41033 0.10046
# Poissons Ratio (y) = 0.19105 0.17155
# Poissons Ratio (z) = 0.06739 0.24717
#
# Static dielectric constant tensor:
#      x y z
#    x -34.878360 -44.452230 -10.201380 
#    y -44.452230 -45.391360 -11.543640 
#    z -10.201380 -11.543640 1.722480 
# 
# 
# High freq. dielectric constant tensor:
#      x y z
#    x 1.909130 0.003710 -0.000360 
#    y 0.003710 1.926830 -0.007720 
#    z -0.000360 -0.007720 1.916280 
# 
# From -- ./inp_files/597344.got.cif
#   From: 2010.06.25/outbox.cif.g09.slc.cpg/sg2_299_cif.got.tgz:597344.got - 2010.06.27 13:26:56.
