data_PCOD8037140
_publ_section_title
;
Structure prediction by ZEFSAII (Michael W. Deem and Ramdas Pophale) SiO2 
 PCOD8037140
Probable space group: P -1
;
_chemical_formula_sum "Si O2"
_cell_formula_units_Z 16
_cell_length_a 8.355107
_cell_length_b 16.800002
_cell_length_c 11.756731
_cell_angle_alpha 125.555846
_cell_angle_beta 125.404346
_cell_angle_gamma 34.679256
_cell_volume 745.428247
_symmetry_space_group_name_H-M "P -1"
_symmetry_group_IT_number 2
_symmetry_cell_setting 'triclinic'
loop_
_space_group_symop_operation_xyz
x,y,z
-x,-y,-z
loop_
_atom_site_type_symbol
_atom_site_label
_atom_site_fract_x
_atom_site_fract_y
_atom_site_fract_z
Si Si1 0.588726 0.977050 0.775417
Si Si2 0.921447 0.720319 0.075083
Si Si3 0.324037 0.398620 0.513236
Si Si4 0.457888 0.289344 0.223222
Si Si5 0.301862 0.898435 0.477814
Si Si6 0.922700 0.220362 0.022603
Si Si7 0.485726 0.462276 0.218278
Si Si8 0.089413 0.990504 0.217949
O O1 0.321005 0.142606 0.833063
O O2 0.814886 0.954124 0.773527
O O3 0.488244 0.918823 0.619508
O O4 0.760162 0.878243 0.875302
O O5 0.156643 0.591360 0.150422
O O6 0.796245 0.678717 0.913331
O O7 0.065644 0.749404 0.078065
O O8 0.361486 0.349935 0.359963
O O9 0.528658 0.264184 0.570887
O O10 0.406871 0.481174 0.625691
O O11 0.000000 0.500000 0.500000
O O12 0.517400 0.365193 0.241145
O O13 0.747761 0.119217 0.206598
O O14 0.263911 0.932066 0.357653
O O15 0.000000 0.000000 0.500000
O O16 0.682678 0.370077 0.113215
O O17 0.838575 0.136684 0.922695
#
# Coordination Sequence:
#
# PCOD8037140 Si02
#       8
#     2   2   2   2   2   2   2   2
#     4  12  24  44  69 104 138 178 227 280 341 405
#     4  12  26  42  71 106 135 177 231 281 344 402
#     4  12  27  47  71 101 138 182 230 276 345 410
#     4  12  25  46  71 100 139 181 226 282 344 405
#     4  12  25  45  71 101 137 179 229 283 332 401
#     4  12  24  45  73 100 138 178 228 278 343 405
#     4  12  26  47  68 100 142 181 221 283 344 411
#     4  12  25  44  72 104 135 179 230 283 339 402
#
# _framework density 21.464172000000001
#
# number of rings (size 3 to 8) (size 9 to 14) (size 15 to 20)
#    0.000    0.000    3.750    7.500    0.000    2.000 
#    0.000    0.000    0.000    0.000    0.000    0.000 
#    0.000    0.000    0.000    0.000    0.000    0.000 
#
# Total GULP energy -198572.067573 kJ/mol
# GULP energy per Si atom -12410.754223 kJ/mol
# Density = 2.141532 g / cm^3
# Si number density = 21.464172 Si / 1000 Ang^3
#
#
#
# Elastic Constant Matrix: (Units=GPa)
#
#
# Indices 1 2 3 4 5 6 
#
# 1 75.6855 8.4095 5.4342 6.3579 4.8249 -1.1694
# 2 8.4095 110.4958 13.1605 2.2646 -7.2145 -7.6364
# 3 5.4342 13.1605 88.7546 5.8327 11.8714 3.8506
# 4 6.3579 2.2646 5.8327 38.0061 1.8228 -5.5031
# 5 4.8249 -7.2145 11.8714 1.8228 47.4615 5.5045
# 6 -1.1694 -7.6364 3.8506 -5.5031 5.5045 39.2679
#
#
#
# Elastic Compliance Matrix: (Units=1/GPa)
#
#
# Indices 1 2 3 4 5 6 
#
# 1 0.013618 -0.001031 -0.000365 -0.002073 -0.001387 0.000145
# 2 -0.001031 0.009563 -0.001670 0.000027 0.001772 0.001748
# 3 -0.000365 -0.001670 0.012115 -0.001748 -0.003024 -0.001345
# 4 -0.002073 0.000027 -0.001748 0.027561 -0.000882 0.004101
# 5 -0.001387 0.001772 -0.003024 -0.000882 0.022582 -0.002689
# 6 0.000145 0.001748 -0.001345 0.004101 -0.002689 0.026894
#
#
# Mechanical properties :
#
#
# Convention : Reuss Voigt Hill
#
# Bulk Modulus (GPa) = 34.28869 36.54935 35.41902
# Shear Modulus (GPa) = 39.00549 41.47587 40.24068
#
# Velocity S-wave (km/s) = 4.26753 4.40060 4.33457
# Velocity P-wave (km/s) = 6.34759 6.54869 6.44893
#
# Compressibility (1/GPa) = 0.02916414
#
# Stress axis : x y z
#
# Youngs Moduli (GPa) = 73.43134 104.56504 82.54469
#
# Poissons Ratio (x) = 0.10780 0.03017
# Poissons Ratio (y) = 0.07571 0.13782
# Poissons Ratio (z) = 0.02684 0.17458
#
# Static dielectric constant tensor:
#      x y z
#    x 3.921790 0.182800 -0.070080 
#    y 0.182800 4.857960 -0.561850 
#    z -0.070080 -0.561850 4.438330 
# 
# 
# High freq. dielectric constant tensor:
#      x y z
#    x 1.851790 0.003200 0.003960 
#    y 0.003200 1.856690 -0.000660 
#    z 0.003960 -0.000660 1.859190 
# 
# From -- ./inp_files/187518.got.cif
#   From: 2010.06.25/outbox.cif.g09.slc.cpg/sg2_94_cif.got.tgz:187518.got - 2010.06.27 13:26:56.
