data_PCOD8037524
_publ_section_title
;
Structure prediction by ZEFSAII (Michael W. Deem and Ramdas Pophale) SiO2 
 PCOD8037524
Probable space group: P -1
;
_chemical_formula_sum "Si O2"
_cell_formula_units_Z 14
_cell_length_a 8.782696
_cell_length_b 16.509352
_cell_length_c 9.948109
_cell_angle_alpha 148.050429
_cell_angle_beta 55.197888
_cell_angle_gamma 108.870022
_cell_volume 582.235573
_symmetry_space_group_name_H-M "P -1"
_symmetry_group_IT_number 2
_symmetry_cell_setting 'triclinic'
loop_
_space_group_symop_operation_xyz
x,y,z
-x,-y,-z
loop_
_atom_site_type_symbol
_atom_site_label
_atom_site_fract_x
_atom_site_fract_y
_atom_site_fract_z
Si Si1 0.513750 0.678576 0.220125
Si Si2 0.826351 0.654845 0.520206
Si Si3 0.837324 0.680352 0.846594
Si Si4 0.097900 0.876320 0.080127
Si Si5 0.494415 0.178124 0.297284
Si Si6 0.855672 0.232129 0.620161
Si Si7 0.286678 0.621987 0.834277
O O1 0.588098 0.755818 0.419587
O O2 0.292121 0.803020 0.461742
O O3 0.500000 0.500000 0.000000
O O4 0.661644 0.672345 0.016025
O O5 0.758401 0.742406 0.822277
O O6 0.640804 0.702622 0.579042
O O7 0.877272 0.458630 0.236708
O O8 0.015865 0.682105 0.403189
O O9 0.000000 0.500000 0.500000
O O10 0.926968 0.810441 0.037001
O O11 0.283129 0.818787 0.802336
O O12 0.203034 0.805276 0.069722
O O13 0.002431 0.073690 0.402529
O O14 0.500000 0.000000 0.000000
O O15 0.710632 0.358675 0.979219
O O16 0.500000 0.500000 0.500000
#
# Coordination Sequence:
#
# PCOD8037524 Si02
#       7
#     2   2   2   2   2   2   2
#     4  12  29  51  78 114 154 208 264 317 389 471
#     4  12  25  47  79 109 150 203 259 311 383 460
#     4  12  27  50  78 114 153 206 260 321 385 468
#     4  12  27  47  77 112 160 199 257 318 395 446
#     4  12  27  49  78 112 159 202 256 321 389 462
#     4  12  28  47  77 113 156 201 261 316 394 457
#     4  12  25  46  76 113 154 204 257 321 382 463
#
# _framework density 24.045252000000001
#
# number of rings (size 3 to 8) (size 9 to 14) (size 15 to 20)
#    0.000    0.000    4.286    5.143    4.000    2.857 
#    0.000    0.000    0.000    0.000    0.000    0.000 
#    0.000    0.000    0.000    0.000    0.000    0.000 
#
# Total GULP energy -173535.184843 kJ/mol
# GULP energy per Si atom -12395.370346 kJ/mol
# Density = 2.399052 g / cm^3
# Si number density = 24.045252 Si / 1000 Ang^3
#
#
#
# Elastic Constant Matrix: (Units=GPa)
#
#
# Indices 1 2 3 4 5 6 
#
# 1 128.6691 60.1651 45.3329 -22.5841 -4.2718 -1.1412
# 2 60.1651 156.3327 62.3084 -31.4775 -4.0659 6.0172
# 3 45.3329 62.3084 98.9606 -28.0318 -0.7877 -6.5831
# 4 -22.5841 -31.4775 -28.0318 42.3148 -4.2078 2.4018
# 5 -4.2718 -4.0659 -0.7877 -4.2078 45.9151 -4.8765
# 6 -1.1412 6.0172 -6.5831 2.4018 -4.8765 48.9366
#
#
#
# Elastic Compliance Matrix: (Units=1/GPa)
#
#
# Indices 1 2 3 4 5 6 
#
# 1 0.010213 -0.002513 -0.002511 0.001995 0.000889 0.000200
# 2 -0.002513 0.009801 -0.004195 0.003346 0.000664 -0.001926
# 3 -0.002511 -0.004195 0.015716 0.005863 0.000449 0.002328
# 4 0.001995 0.003346 0.005863 0.031451 0.003382 -0.000783
# 5 0.000889 0.000664 0.000449 0.003382 0.022458 0.002071
# 6 0.000200 -0.001926 0.002328 -0.000783 0.002071 0.021234
#
#
# Mechanical properties :
#
#
# Convention : Reuss Voigt Hill
#
# Bulk Modulus (GPa) = 57.82784 79.95279 68.89031
# Shear Modulus (GPa) = 37.01693 41.84369 39.43031
#
# Velocity S-wave (km/s) = 3.92786 4.17610 4.05388
# Velocity P-wave (km/s) = 6.68376 7.52172 7.11509
#
# Compressibility (1/GPa) = 0.01729271
#
# Stress axis : x y z
#
# Youngs Moduli (GPa) = 97.91575 102.03469 63.63111
#
# Poissons Ratio (x) = 0.25636 0.15977
# Poissons Ratio (y) = 0.24602 0.26692
# Poissons Ratio (z) = 0.24585 0.42801
#
# Static dielectric constant tensor:
#      x y z
#    x 4.576900 0.076230 -0.024570 
#    y 0.076230 5.129580 0.020810 
#    z -0.024570 0.020810 4.189690 
# 
# 
# High freq. dielectric constant tensor:
#      x y z
#    x 1.965570 -0.000990 -0.001690 
#    y -0.000990 1.979520 -0.004790 
#    z -0.001690 -0.004790 1.940160 
# 
# From -- ./inp_files/209163.got.cif
#   From: 2010.06.25/outbox.cif.g09.slc.cpg/sg2_105_cif.got.tgz:209163.got - 2010.06.27 13:26:56.
