data_PCOD8037429
_publ_section_title
;
Structure prediction by ZEFSAII (Michael W. Deem and Ramdas Pophale) SiO2 
 PCOD8037429
Probable space group: P -1
;
_chemical_formula_sum "Si O2"
_cell_formula_units_Z 12
_cell_length_a 5.201808
_cell_length_b 13.773265
_cell_length_c 9.056404
_cell_angle_alpha 57.308324
_cell_angle_beta 68.487884
_cell_angle_gamma 62.924687
_cell_volume 479.859011
_symmetry_space_group_name_H-M "P -1"
_symmetry_group_IT_number 2
_symmetry_cell_setting 'triclinic'
loop_
_space_group_symop_operation_xyz
x,y,z
-x,-y,-z
loop_
_atom_site_type_symbol
_atom_site_label
_atom_site_fract_x
_atom_site_fract_y
_atom_site_fract_z
Si Si1 0.335180 0.971358 0.917202
Si Si2 0.390792 0.485920 0.871302
Si Si3 0.187663 0.757419 0.676723
Si Si4 0.780333 0.722747 0.014489
Si Si5 0.239116 0.175501 0.540469
Si Si6 0.960872 0.376012 0.663378
O O1 0.473565 0.828958 0.963601
O O2 0.366981 0.050073 0.705373
O O3 0.500000 0.000000 0.000000
O O4 0.000000 0.000000 0.000000
O O5 0.258511 0.618481 0.716594
O O6 0.643239 0.404321 0.776930
O O7 0.500000 0.500000 0.000000
O O8 0.178531 0.402646 0.985503
O O9 0.483087 0.789485 0.602000
O O10 0.043020 0.768738 0.861256
O O11 0.949475 0.844140 0.543048
O O12 0.801426 0.691472 0.208204
O O13 0.012670 0.281982 0.595801
O O14 0.000000 0.500000 0.500000
#
# Coordination Sequence:
#
# PCOD8037429 Si02
#       6
#     2   2   2   2   2   2
#     4  12  27  50  79 110 151 194 252 313 367 443
#     4  12  25  46  73 110 153 196 249 306 380 444
#     4  12  27  47  74 109 155 194 248 309 374 442
#     4  12  28  46  76 107 148 205 246 303 385 443
#     4  12  27  48  74 113 147 198 252 312 362 441
#     4  12  25  42  74 109 144 193 248 304 371 444
#
# _framework density 25.007345000000001
#
# number of rings (size 3 to 8) (size 9 to 14) (size 15 to 20)
#    0.000    0.000    5.000    4.500    2.333    2.667 
#    0.000    0.000    0.000    0.000    0.000    0.000 
#    0.000    0.000    0.000    0.000    0.000    0.000 
#
# Total GULP energy -148852.965972 kJ/mol
# GULP energy per Si atom -12404.413831 kJ/mol
# Density = 2.495043 g / cm^3
# Si number density = 25.007345 Si / 1000 Ang^3
#
#
#
# Elastic Constant Matrix: (Units=GPa)
#
#
# Indices 1 2 3 4 5 6 
#
# 1 97.1884 -9.4223 26.6911 8.5335 4.2526 -12.0807
# 2 -9.4223 71.7539 17.6993 -14.4046 3.1999 -23.1254
# 3 26.6911 17.6993 139.7951 -8.4422 9.6781 -13.9738
# 4 8.5335 -14.4046 -8.4422 46.7198 -10.4607 4.9924
# 5 4.2526 3.1999 9.6781 -10.4607 47.5588 3.7234
# 6 -12.0807 -23.1254 -13.9738 4.9924 3.7234 40.2270
#
#
#
# Elastic Compliance Matrix: (Units=1/GPa)
#
#
# Indices 1 2 3 4 5 6 
#
# 1 0.012218 0.003458 -0.002261 -0.002561 -0.001848 0.005360
# 2 0.003458 0.019160 -0.001665 0.003475 -0.001370 0.011170
# 3 -0.002261 -0.001665 0.008053 0.000962 -0.001203 0.001153
# 4 -0.002561 0.003475 0.000962 0.024526 0.005349 -0.001976
# 5 -0.001848 -0.001370 -0.001203 0.005349 0.023062 -0.004559
# 6 0.005360 0.011170 0.001153 -0.001976 -0.004559 0.033958
#
#
# Mechanical properties :
#
#
# Convention : Reuss Voigt Hill
#
# Bulk Modulus (GPa) = 25.97824 42.07486 34.02655
# Shear Modulus (GPa) = 37.10753 45.15240 41.12996
#
# Velocity S-wave (km/s) = 3.85628 4.25380 4.05991
# Velocity P-wave (km/s) = 5.49897 6.40219 5.96769
#
# Compressibility (1/GPa) = 0.03849375
#
# Stress axis : x y z
#
# Youngs Moduli (GPa) = 81.84917 52.19218 124.18450
#
# Poissons Ratio (x) = -0.18049 0.28083
# Poissons Ratio (y) = -0.28304 0.20675
# Poissons Ratio (z) = 0.18510 0.08689
#
# Static dielectric constant tensor:
#      x y z
#    x 4.338260 -0.263190 -0.037300 
#    y -0.263190 4.765790 -0.140240 
#    z -0.037300 -0.140240 4.842310 
# 
# 
# High freq. dielectric constant tensor:
#      x y z
#    x 1.993480 -0.019030 -0.002370 
#    y -0.019030 2.001460 -0.004100 
#    z -0.002370 -0.004100 2.017150 
# 
# From -- ./inp_files/20312.got.cif
#   From: 2010.06.25/outbox.cif.g09.slc.cpg/sg2_11_cif.got.tgz:20312.got - 2010.06.27 13:26:56.
