data_PCOD8037456
_publ_section_title
;
Structure prediction by ZEFSAII (Michael W. Deem and Ramdas Pophale) SiO2 
 PCOD8037456
Probable space group: P -1
;
_chemical_formula_sum "Si O2"
_cell_formula_units_Z 16
_cell_length_a 13.607972
_cell_length_b 11.265506
_cell_length_c 6.112233
_cell_angle_alpha 92.213226
_cell_angle_beta 119.428495
_cell_angle_gamma 59.450676
_cell_volume 674.410630
_symmetry_space_group_name_H-M "P -1"
_symmetry_group_IT_number 2
_symmetry_cell_setting 'triclinic'
loop_
_space_group_symop_operation_xyz
x,y,z
-x,-y,-z
loop_
_atom_site_type_symbol
_atom_site_label
_atom_site_fract_x
_atom_site_fract_y
_atom_site_fract_z
Si Si1 0.899359 0.978649 0.521184
Si Si2 0.219485 0.789345 0.268589
Si Si3 0.415385 0.140597 0.771126
Si Si4 0.483799 0.567842 0.736768
Si Si5 0.310943 0.919620 0.048757
Si Si6 0.051395 0.683763 0.865681
Si Si7 0.217848 0.204066 0.203947
Si Si8 0.284384 0.377544 0.984873
O O1 0.968469 0.809420 0.607145
O O2 0.885541 0.049119 0.747229
O O3 0.000000 0.000000 0.500000
O O4 0.749721 0.055742 0.258620
O O5 0.326680 0.700676 0.574585
O O6 0.290281 0.805243 0.135307
O O7 0.146954 0.709736 0.121719
O O8 0.527014 0.156492 0.774402
O O9 0.323620 0.116106 0.509382
O O10 0.307071 0.288760 0.784758
O O11 0.500000 0.000000 0.000000
O O12 0.500000 0.500000 0.500000
O O13 0.500000 0.500000 0.000000
O O14 0.585626 0.617170 0.836874
O O15 0.226488 0.080213 0.063408
O O16 0.144859 0.535194 0.826005
O O17 0.939324 0.682936 0.891103
O O18 0.271612 0.292575 0.161784
#
# Coordination Sequence:
#
# PCOD8037456 Si02
#       8
#     2   2   2   2   2   2   2   2
#     4  12  25  44  75 112 150 200 259 322 395 469
#     4  12  26  48  78 111 153 199 260 326 391 471
#     4  12  27  47  75 108 145 201 258 318 385 463
#     4  12  30  53  80 119 160 205 261 332 405 475
#     4  12  25  47  79 112 148 196 263 321 388 461
#     4  12  26  50  73 111 156 203 258 318 401 469
#     4  12  27  50  73 107 153 200 258 318 392 475
#     4  12  29  49  75 111 154 203 253 322 396 474
#
# _framework density 23.724421
#
# number of rings (size 3 to 8) (size 9 to 14) (size 15 to 20)
#    0.000    0.000    5.000    4.125    8.750    0.500 
#    2.250    0.000    0.000    0.000    0.000    0.000 
#    0.000    0.000    0.000    0.000    0.000    0.000 
#
# Total GULP energy -198275.124219 kJ/mol
# GULP energy per Si atom -12392.195264 kJ/mol
# Density = 2.367042 g / cm^3
# Si number density = 23.724421 Si / 1000 Ang^3
#
#
#
# Elastic Constant Matrix: (Units=GPa)
#
#
# Indices 1 2 3 4 5 6 
#
# 1 158.3176 25.8358 36.9035 -1.5480 6.4849 6.5570
# 2 25.8358 115.7076 30.3628 -0.9980 -6.3818 -19.0635
# 3 36.9035 30.3628 114.6708 -8.7993 1.5063 2.8502
# 4 -1.5480 -0.9980 -8.7993 38.3914 -0.7993 -3.1584
# 5 6.4849 -6.3818 1.5063 -0.7993 39.6949 -2.8178
# 6 6.5570 -19.0635 2.8502 -3.1584 -2.8178 47.7559
#
#
#
# Elastic Compliance Matrix: (Units=1/GPa)
#
#
# Indices 1 2 3 4 5 6 
#
# 1 0.007107 -0.001430 -0.001877 -0.000338 -0.001436 -0.001542
# 2 -0.001430 0.010510 -0.002463 0.000085 0.002351 0.004683
# 3 -0.001877 -0.002463 0.010174 0.002080 -0.000521 -0.001226
# 4 -0.000338 0.000085 0.002080 0.026671 0.000652 0.001759
# 5 -0.001436 0.002351 -0.000521 0.000652 0.026033 0.002746
# 6 -0.001542 0.004683 -0.001226 0.001759 0.002746 0.023373
#
#
# Mechanical properties :
#
#
# Convention : Reuss Voigt Hill
#
# Bulk Modulus (GPa) = 61.54123 63.87781 62.70952
# Shear Modulus (GPa) = 41.38203 44.87469 43.12836
#
# Velocity S-wave (km/s) = 4.18099 4.35385 4.26830
# Velocity P-wave (km/s) = 7.02167 7.22898 7.12608
#
# Compressibility (1/GPa) = 0.01624927
#
# Stress axis : x y z
#
# Youngs Moduli (GPa) = 140.71095 95.14481 98.29066
#
# Poissons Ratio (x) = 0.13610 0.18450
# Poissons Ratio (y) = 0.20127 0.24212
# Poissons Ratio (z) = 0.26413 0.23438
#
# Static dielectric constant tensor:
#      x y z
#    x 4.721820 -0.145470 -0.097370 
#    y -0.145470 4.390020 0.116770 
#    z -0.097370 0.116770 4.646720 
# 
# 
# High freq. dielectric constant tensor:
#      x y z
#    x 1.961740 -0.002170 0.007630 
#    y -0.002170 1.944710 0.002110 
#    z 0.007630 0.002110 1.941310 
# 
# From -- ./inp_files/95055.got.cif
#   From: 2010.06.25/outbox.cif.g09.slc.cpg/sg2_48_cif.got.tgz:95055.got - 2010.06.27 13:26:56.
