data_PCOD8037255
_publ_section_title
;
Structure prediction by ZEFSAII (Michael W. Deem and Ramdas Pophale) SiO2 
 PCOD8037255
Probable space group: P -1
;
_chemical_formula_sum "Si O2"
_cell_formula_units_Z 16
_cell_length_a 17.124609
_cell_length_b 11.481497
_cell_length_c 9.185687
_cell_angle_alpha 55.761627
_cell_angle_beta 31.407929
_cell_angle_gamma 53.329807
_cell_volume 748.834074
_symmetry_space_group_name_H-M "P -1"
_symmetry_group_IT_number 2
_symmetry_cell_setting 'triclinic'
loop_
_space_group_symop_operation_xyz
x,y,z
-x,-y,-z
loop_
_atom_site_type_symbol
_atom_site_label
_atom_site_fract_x
_atom_site_fract_y
_atom_site_fract_z
Si Si1 0.189372 0.827857 0.090134
Si Si2 0.803778 0.424232 0.230046
Si Si3 0.139184 0.312716 0.686080
Si Si4 0.326077 0.074500 0.771980
Si Si5 0.336834 0.263947 0.901302
Si Si6 0.859144 0.856447 0.478052
Si Si7 0.314816 0.540859 0.277742
Si Si8 0.693569 0.180985 0.412419
O O1 0.237534 0.685329 0.211025
O O2 0.005352 0.874799 0.323430
O O3 0.283420 0.803082 0.807134
O O4 0.232040 0.953998 0.027885
O O5 0.724852 0.566632 0.161283
O O6 0.734020 0.442509 0.488604
O O7 0.776388 0.280789 0.301595
O O8 0.989855 0.401796 0.953876
O O9 0.245801 0.181685 0.698517
O O10 0.078406 0.246836 0.686795
O O11 0.248011 0.416696 0.397763
O O12 0.321561 0.159377 0.868210
O O13 0.500000 0.000000 0.500000
O O14 0.511958 0.233875 0.698985
O O15 0.240265 0.228028 0.213292
O O16 0.758089 0.014283 0.476928
O O17 0.500000 0.500000 0.000000
#
# Coordination Sequence:
#
# PCOD8037255 Si02
#       8
#     2   2   2   2   2   2   2   2
#     4  12  25  45  72 101 137 182 231 281 347 405
#     4  12  27  47  71 103 142 184 227 287 350 409
#     4  12  25  48  73  95 148 182 230 287 343 412
#     4  12  24  46  73  98 138 188 231 284 343 409
#     4  12  27  45  72 104 138 184 234 280 348 413
#     4  12  27  46  71 106 135 185 233 286 342 407
#     4  12  28  45  71 105 141 182 231 285 347 412
#     4  12  25  48  70 102 143 181 230 287 344 410
#
# _framework density 21.36655
#
# number of rings (size 3 to 8) (size 9 to 14) (size 15 to 20)
#    0.000    0.000    5.000    4.500    7.000    1.500 
#    0.000    0.000    0.000    0.000    0.000    0.000 
#    0.000    0.000    0.000    0.000    0.000    0.000 
#
# Total GULP energy -198517.511690 kJ/mol
# GULP energy per Si atom -12407.344481 kJ/mol
# Density = 2.131792 g / cm^3
# Si number density = 21.366550 Si / 1000 Ang^3
#
#
#
# Elastic Constant Matrix: (Units=GPa)
#
#
# Indices 1 2 3 4 5 6 
#
# 1 87.3021 51.3304 35.7005 0.2393 -11.2956 -17.5086
# 2 51.3304 202.8613 49.5661 -2.2569 -23.1480 -24.2318
# 3 35.7005 49.5661 146.1363 -0.6143 -11.2953 -19.6147
# 4 0.2393 -2.2569 -0.6143 55.7342 -8.4252 -6.6246
# 5 -11.2956 -23.1480 -11.2953 -8.4252 57.1140 -0.1617
# 6 -17.5086 -24.2318 -19.6147 -6.6246 -0.1617 54.8651
#
#
#
# Elastic Compliance Matrix: (Units=1/GPa)
#
#
# Indices 1 2 3 4 5 6 
#
# 1 0.014663 -0.002677 -0.002191 0.000350 0.001441 0.002760
# 2 -0.002677 0.006300 -0.001113 0.000737 0.001917 0.001625
# 3 -0.002191 -0.001113 0.008050 0.000375 0.000768 0.001734
# 4 0.000350 0.000737 0.000375 0.018801 0.003224 0.002851
# 5 0.001441 0.001917 0.000768 0.003224 0.019204 0.002027
# 6 0.002760 0.001625 0.001734 0.002851 0.002027 0.020795
#
#
# Mechanical properties :
#
#
# Convention : Reuss Voigt Hill
#
# Bulk Modulus (GPa) = 58.64989 78.83264 68.74127
# Shear Modulus (GPa) = 47.41169 53.52283 50.46726
#
# Velocity S-wave (km/s) = 4.71570 5.01041 4.86529
# Velocity P-wave (km/s) = 7.56039 8.39331 7.98771
#
# Compressibility (1/GPa) = 0.01705033
#
# Stress axis : x y z
#
# Youngs Moduli (GPa) = 68.19671 158.73238 124.23095
#
# Poissons Ratio (x) = 0.42491 0.27218
# Poissons Ratio (y) = 0.18256 0.13833
# Poissons Ratio (z) = 0.14941 0.17674
#
# Static dielectric constant tensor:
#      x y z
#    x 4.302730 0.198030 -0.127260 
#    y 0.198030 4.174650 -0.048940 
#    z -0.127260 -0.048940 4.044180 
# 
# 
# High freq. dielectric constant tensor:
#      x y z
#    x 1.853030 -0.000780 -0.010550 
#    y -0.000780 1.857880 -0.004730 
#    z -0.010550 -0.004730 1.852290 
# 
# From -- ./inp_files/159608.got.cif
#   From: 2010.06.25/outbox.cif.g09.slc.cpg/sg2_80_cif.got.tgz:159608.got - 2010.06.27 13:26:56.
