data_PCOD8037158
_publ_section_title
;
Structure prediction by ZEFSAII (Michael W. Deem and Ramdas Pophale) SiO2 
 PCOD8037158
Probable space group: P -1
;
_chemical_formula_sum "Si O2"
_cell_formula_units_Z 14
_cell_length_a 16.947025
_cell_length_b 5.133489
_cell_length_c 9.417996
_cell_angle_alpha 76.139603
_cell_angle_beta 129.379874
_cell_angle_gamma 118.887249
_cell_volume 551.793480
_symmetry_space_group_name_H-M "P -1"
_symmetry_group_IT_number 2
_symmetry_cell_setting 'triclinic'
loop_
_space_group_symop_operation_xyz
x,y,z
-x,-y,-z
loop_
_atom_site_type_symbol
_atom_site_label
_atom_site_fract_x
_atom_site_fract_y
_atom_site_fract_z
Si Si1 0.050377 0.368631 0.346244
Si Si2 0.355015 0.378291 0.432056
Si Si3 0.905697 0.000859 0.787071
Si Si4 0.619561 0.007269 0.720988
Si Si5 0.212983 0.951718 0.884209
Si Si6 0.252321 0.575854 0.752929
Si Si7 0.552357 0.398884 0.204902
O O1 0.081203 0.664043 0.249969
O O2 0.126725 0.453733 0.561665
O O3 0.920756 0.228795 0.264219
O O4 0.075177 0.120929 0.325331
O O5 0.399014 0.732103 0.410588
O O6 0.390412 0.345969 0.639454
O O7 0.220305 0.207504 0.275320
O O8 0.414139 0.254825 0.400261
O O9 0.000000 0.000000 0.000000
O O10 0.545562 0.890470 0.795195
O O11 0.749702 0.123030 0.909763
O O12 0.273894 0.855148 0.841087
O O13 0.258150 0.308313 0.884630
O O14 0.349379 0.687165 0.728389
O O15 0.500000 0.500000 0.000000
#
# Coordination Sequence:
#
# PCOD8037158 Si02
#       7
#     2   2   2   2   2   2   2
#     4  12  24  44  72 108 150 193 249 311 372 440
#     4  12  27  51  75 110 151 195 253 306 377 445
#     4  12  24  44  74 106 149 199 246 304 372 451
#     4  12  27  50  77 109 150 198 246 312 374 446
#     4  12  25  46  74 112 152 193 247 306 378 453
#     4  12  26  46  73 109 152 199 249 308 379 443
#     4  12  28  52  79 111 152 199 258 314 373 444
#
# _framework density 25.371813
#
# number of rings (size 3 to 8) (size 9 to 14) (size 15 to 20)
#    0.000    0.000    2.857    7.286    0.000    1.714 
#    0.000    0.000    0.000    0.000    0.000    0.000 
#    0.000    0.000    0.000    0.000    0.000    0.000 
#
# Total GULP energy -173685.598981 kJ/mol
# GULP energy per Si atom -12406.114213 kJ/mol
# Density = 2.531407 g / cm^3
# Si number density = 25.371813 Si / 1000 Ang^3
#
#
#
# Elastic Constant Matrix: (Units=GPa)
#
#
# Indices 1 2 3 4 5 6 
#
# 1 135.0049 45.0391 32.9578 -1.2335 -2.6372 2.1685
# 2 45.0391 105.5536 15.8707 -7.7946 1.5551 3.3360
# 3 32.9578 15.8707 161.7337 -0.5609 3.9237 -2.2779
# 4 -1.2335 -7.7946 -0.5609 37.9992 2.9539 1.9111
# 5 -2.6372 1.5551 3.9237 2.9539 38.2668 2.6133
# 6 2.1685 3.3360 -2.2779 1.9111 2.6133 39.5373
#
#
#
# Elastic Compliance Matrix: (Units=1/GPa)
#
#
# Indices 1 2 3 4 5 6 
#
# 1 0.009018 -0.003666 -0.001508 -0.000543 0.000988 -0.000311
# 2 -0.003666 0.011298 -0.000346 0.002297 -0.000797 -0.000830
# 3 -0.001508 -0.000346 0.006551 0.000012 -0.000800 0.000542
# 4 -0.000543 0.002297 0.000012 0.027002 -0.002126 -0.001328
# 5 0.000988 -0.000797 -0.000800 -0.002126 0.026594 -0.001688
# 6 -0.000311 -0.000830 0.000542 -0.001328 -0.001688 0.025587
#
#
# Mechanical properties :
#
#
# Convention : Reuss Voigt Hill
#
# Bulk Modulus (GPa) = 63.18407 65.55859 64.37133
# Shear Modulus (GPa) = 40.86135 43.72228 42.29182
#
# Velocity S-wave (km/s) = 4.01746 4.15572 4.08718
# Velocity P-wave (km/s) = 6.81743 6.99442 6.90649
#
# Compressibility (1/GPa) = 0.01582677
#
# Stress axis : x y z
#
# Youngs Moduli (GPa) = 110.89430 88.51383 152.64048
#
# Poissons Ratio (x) = 0.32447 0.23020
# Poissons Ratio (y) = 0.40652 0.05282
# Poissons Ratio (z) = 0.16724 0.03063
#
# Static dielectric constant tensor:
#      x y z
#    x 4.905220 -0.138760 0.178130 
#    y -0.138760 4.643670 0.230410 
#    z 0.178130 0.230410 4.919830 
# 
# 
# High freq. dielectric constant tensor:
#      x y z
#    x 2.026540 0.001880 0.015040 
#    y 0.001880 2.010170 0.015230 
#    z 0.015040 0.015230 2.037400 
# 
# From -- ./inp_files/323482.got.cif
#   From: 2010.06.25/outbox.cif.g09.slc.cpg/sg2_162_cif.got.tgz:323482.got - 2010.06.27 13:26:56.
