data_PCOD8037108
_publ_section_title
;
Structure prediction by ZEFSAII (Michael W. Deem and Ramdas Pophale) SiO2 
 PCOD8037108
Probable space group: P -1
;
_chemical_formula_sum "Si O2"
_cell_formula_units_Z 14
_cell_length_a 8.141764
_cell_length_b 9.018496
_cell_length_c 21.381066
_cell_angle_alpha 43.691059
_cell_angle_beta 52.486185
_cell_angle_gamma 31.671367
_cell_volume 569.304288
_symmetry_space_group_name_H-M "P -1"
_symmetry_group_IT_number 2
_symmetry_cell_setting 'triclinic'
loop_
_space_group_symop_operation_xyz
x,y,z
-x,-y,-z
loop_
_atom_site_type_symbol
_atom_site_label
_atom_site_fract_x
_atom_site_fract_y
_atom_site_fract_z
Si Si1 0.944734 0.637254 0.402549
Si Si2 0.782200 0.370859 0.437400
Si Si3 0.413127 0.571948 0.893479
Si Si4 0.801896 0.885697 0.992873
Si Si5 0.697537 0.730768 0.849609
Si Si6 0.487396 0.642315 0.714182
Si Si7 0.747087 0.542991 0.256399
O O1 0.927348 0.461907 0.410060
O O2 0.000000 0.500000 0.500000
O O3 0.200792 0.602508 0.325891
O O4 0.634044 0.019639 0.363649
O O5 0.500000 0.500000 0.500000
O O6 0.663921 0.527721 0.348887
O O7 0.000000 0.000000 0.500000
O O8 0.467487 0.719164 0.885675
O O9 0.531326 0.542530 0.806232
O O10 0.042879 0.797371 0.911820
O O11 0.640872 0.199061 0.976231
O O12 0.020907 0.557724 0.081701
O O13 0.500000 0.000000 0.000000
O O14 0.889348 0.664656 0.764513
O O15 0.488202 0.079983 0.822938
O O16 0.264564 0.639984 0.735041
#
# Coordination Sequence:
#
# PCOD8037108 Si02
#       7
#     2   2   2   2   2   2   2
#     4  12  24  43  67  98 135 178 226 281 340 408
#     4  12  24  43  68  99 136 180 228 284 344 411
#     4  12  25  46  71 102 138 182 232 289 349 417
#     4  12  26  45  71 104 139 181 232 291 351 416
#     4  12  25  46  71 101 138 183 232 287 348 416
#     4  12  25  43  67  99 135 178 226 282 342 407
#     4  12  25  44  68 101 138 182 231 286 346 415
#
# _framework density 24.591418000000001
#
# number of rings (size 3 to 8) (size 9 to 14) (size 15 to 20)
#    0.000    0.000    0.000   11.143    0.000    2.286 
#    0.000    0.000    0.000    0.000    0.000    0.000 
#    0.000    0.000    0.000    0.000    0.000    0.000 
#
# Total GULP energy -173592.919262 kJ/mol
# GULP energy per Si atom -12399.494233 kJ/mol
# Density = 2.453545 g / cm^3
# Si number density = 24.591418 Si / 1000 Ang^3
#
#
#
# Elastic Constant Matrix: (Units=GPa)
#
#
# Indices 1 2 3 4 5 6 
#
# 1 133.1663 42.9500 53.3415 -9.1230 -5.4238 7.9798
# 2 42.9500 132.3318 23.3485 -12.0570 -19.5088 -4.6681
# 3 53.3415 23.3485 93.2441 -12.3061 -9.0905 4.7624
# 4 -9.1230 -12.0570 -12.3061 61.5199 -1.4159 -17.3158
# 5 -5.4238 -19.5088 -9.0905 -1.4159 38.2288 2.5016
# 6 7.9798 -4.6681 4.7624 -17.3158 2.5016 49.9084
#
#
#
# Elastic Compliance Matrix: (Units=1/GPa)
#
#
# Indices 1 2 3 4 5 6 
#
# 1 0.010598 -0.002741 -0.005475 -0.000524 -0.001115 -0.001554
# 2 -0.002741 0.009359 -0.000185 0.001999 0.004299 0.001809
# 3 -0.005475 -0.000185 0.014436 0.002124 0.002635 0.000086
# 4 -0.000524 0.001999 0.002124 0.018871 0.001723 0.006529
# 5 -0.001115 0.004299 0.002635 0.001723 0.028918 -0.000523
# 6 -0.001554 0.001809 0.000086 0.006529 -0.000523 0.022738
#
#
# Mechanical properties :
#
#
# Convention : Reuss Voigt Hill
#
# Bulk Modulus (GPa) = 56.84700 66.44693 61.64696
# Shear Modulus (GPa) = 39.18945 45.87157 42.53051
#
# Velocity S-wave (km/s) = 3.99635 4.32365 4.16322
# Velocity P-wave (km/s) = 6.66792 7.21140 6.94498
#
# Compressibility (1/GPa) = 0.01759108
#
# Stress axis : x y z
#
# Youngs Moduli (GPa) = 94.35462 106.85342 69.27236
#
# Poissons Ratio (x) = 0.29285 0.37927
# Poissons Ratio (y) = 0.25860 0.01282
# Poissons Ratio (z) = 0.51660 0.01978
#
# Static dielectric constant tensor:
#      x y z
#    x 4.238600 -0.120400 -0.227750 
#    y -0.120400 4.654870 0.109730 
#    z -0.227750 0.109730 4.753040 
# 
# 
# High freq. dielectric constant tensor:
#      x y z
#    x 1.970630 0.001520 -0.015020 
#    y 0.001520 2.006510 0.006220 
#    z -0.015020 0.006220 1.999090 
# 
# From -- ./inp_files/606612.got.cif
#   From: 2010.06.25/outbox.cif.g09.slc.cpg/sg2_304_cif.got.tgz:606612.got - 2010.06.27 13:26:56.
