data_PCOD8037025
_publ_section_title
;
Structure prediction by ZEFSAII (Michael W. Deem and Ramdas Pophale) SiO2 
 PCOD8037025
Probable space group: P -1
;
_chemical_formula_sum "Si O2"
_cell_formula_units_Z 16
_cell_length_a 15.016508
_cell_length_b 14.027347
_cell_length_c 13.611465
_cell_angle_alpha 31.286294
_cell_angle_beta 139.159710
_cell_angle_gamma 150.899393
_cell_volume 723.594074
_symmetry_space_group_name_H-M "P -1"
_symmetry_group_IT_number 2
_symmetry_cell_setting 'triclinic'
loop_
_space_group_symop_operation_xyz
x,y,z
-x,-y,-z
loop_
_atom_site_type_symbol
_atom_site_label
_atom_site_fract_x
_atom_site_fract_y
_atom_site_fract_z
Si Si1 0.329446 0.911675 0.995656
Si Si2 0.149126 0.223082 0.857374
Si Si3 0.591334 0.715932 0.584434
Si Si4 0.233182 0.509040 0.389990
Si Si5 0.636133 0.255775 0.325226
Si Si6 0.093236 0.778604 0.493666
Si Si7 0.438109 0.235507 0.989590
Si Si8 0.796896 0.869164 0.418875
O O1 0.383228 0.043390 0.029366
O O2 0.206928 0.933292 0.807001
O O3 0.225982 0.629757 0.181590
O O4 0.500000 0.000000 0.000000
O O5 0.304040 0.500519 0.786447
O O6 0.255283 0.151878 0.958495
O O7 0.030012 0.214623 0.685449
O O8 0.000000 0.000000 0.000000
O O9 0.410621 0.684821 0.455146
O O10 0.561483 0.503004 0.807245
O O11 0.663291 0.734810 0.518677
O O12 0.737373 0.957321 0.556029
O O13 0.261299 0.323194 0.545274
O O14 0.042584 0.396777 0.377811
O O15 0.828862 0.327664 0.403887
O O16 0.500000 0.000000 0.500000
O O17 0.546986 0.225852 0.173299
O O18 0.000000 0.000000 0.500000
#
# Coordination Sequence:
#
# PCOD8037025 Si02
#       8
#     2   2   2   2   2   2   2   2
#     4  12  26  44  77 112 150 203 250 305 382 451
#     4  12  26  48  73 106 149 192 257 317 382 457
#     4  12  23  47  75 104 153 196 248 309 378 443
#     4  12  25  47  74 107 154 197 252 309 373 451
#     4  12  28  48  75 112 151 195 257 322 386 455
#     4  12  26  45  75 108 141 193 247 315 381 447
#     4  12  26  46  79 106 148 203 249 306 387 453
#     4  12  25  46  71 110 153 201 251 308 369 454
#
# _framework density 22.111844999999999
#
# number of rings (size 3 to 8) (size 9 to 14) (size 15 to 20)
#    0.000    0.000    5.000    4.875    3.500    1.500 
#    0.000    0.000    0.000    0.000    0.000    0.000 
#    0.000    0.000    0.000    0.000    0.000    0.000 
#
# Total GULP energy -198378.409181 kJ/mol
# GULP energy per Si atom -12398.650574 kJ/mol
# Density = 2.206152 g / cm^3
# Si number density = 22.111845 Si / 1000 Ang^3
#
#
#
# Elastic Constant Matrix: (Units=GPa)
#
#
# Indices 1 2 3 4 5 6 
#
# 1 5607.6316 3404.8687 3353.9723 1791.0474 -846.7154 2382.6416
# 2 3404.8687 2182.9843 2067.9107 1114.5363 -528.2088 1475.7834
# 3 3353.9723 2067.9107 2169.2268 1113.0840 -531.6777 1458.2028
# 4 1791.0474 1114.5363 1113.0840 636.7304 -267.6869 765.7987
# 5 -846.7154 -528.2088 -531.6777 -267.6869 178.1579 -369.1042
# 6 2382.6416 1475.7834 1458.2028 765.7987 -369.1042 1064.2356
#
#
#
# Elastic Compliance Matrix: (Units=1/GPa)
#
#
# Indices 1 2 3 4 5 6 
#
# 1 0.005893 -0.002863 -0.001246 -0.002563 0.000706 -0.005427
# 2 -0.002863 0.011424 0.000668 -0.004886 0.002709 -0.005892
# 3 -0.001246 0.000668 0.009205 -0.006047 0.004221 -0.004933
# 4 -0.002563 -0.004886 -0.006047 0.021345 -0.004875 0.003750
# 5 0.000706 0.002709 0.004221 -0.004875 0.023094 0.000395
# 6 -0.005427 -0.005892 -0.004933 0.003750 0.000395 0.025457
#
#
# Mechanical properties :
#
#
# Convention : Reuss Voigt Hill
#
# Bulk Modulus (GPa) = 50.91715 3068.14957 1559.53336
# Shear Modulus (GPa) = 45.51770 451.36417 248.44094
#
# Velocity S-wave (km/s) = 4.54202 14.30283 10.61133
# Velocity P-wave (km/s) = 7.11222 40.78398 29.27385
#
# Compressibility (1/GPa) = 0.01963975
#
# Stress axis : x y z
#
# Youngs Moduli (GPa) = 169.69665 87.53216 108.64239
#
# Poissons Ratio (x) = 0.25060 0.13534
# Poissons Ratio (y) = 0.48584 -0.07254
# Poissons Ratio (z) = 0.21139 -0.05845
#
# Static dielectric constant tensor:
#      x y z
#    x 4.299590 -0.023240 -0.057870 
#    y -0.023240 4.155600 0.110210 
#    z -0.057870 0.110210 4.091850 
# 
# 
# High freq. dielectric constant tensor:
#      x y z
#    x 1.889010 0.004610 -0.003720 
#    y 0.004610 1.875940 0.004990 
#    z -0.003720 0.004990 1.888630 
# 
# From -- ./inp_files/534145.got.cif
#   From: 2010.06.25/outbox.cif.g09.slc.cpg/sg2_268_cif.got.tgz:534145.got - 2010.06.27 13:26:56.
