data_PCOD8037659
_publ_section_title
;
Structure prediction by ZEFSAII (Michael W. Deem and Ramdas Pophale) SiO2 
 PCOD8037659
Probable space group: P -1
;
_chemical_formula_sum "Si O2"
_cell_formula_units_Z 14
_cell_length_a 8.713605
_cell_length_b 8.627610
_cell_length_c 18.162338
_cell_angle_alpha 30.409734
_cell_angle_beta 120.582650
_cell_angle_gamma 113.951828
_cell_volume 593.309093
_symmetry_space_group_name_H-M "P -1"
_symmetry_group_IT_number 2
_symmetry_cell_setting 'triclinic'
loop_
_space_group_symop_operation_xyz
x,y,z
-x,-y,-z
loop_
_atom_site_type_symbol
_atom_site_label
_atom_site_fract_x
_atom_site_fract_y
_atom_site_fract_z
Si Si1 0.994921 0.362178 0.853789
Si Si2 0.394288 0.353360 0.966928
Si Si3 0.499489 0.330398 0.722385
Si Si4 0.904707 0.684475 0.834723
Si Si5 0.270017 0.288508 0.462937
Si Si6 0.132256 0.224014 0.620902
Si Si7 0.511952 0.706203 0.719238
O O1 0.875186 0.436538 0.865947
O O2 0.903635 0.553008 0.685630
O O3 0.189433 0.490068 0.861060
O O4 0.000000 0.000000 0.000000
O O5 0.380535 0.988103 0.113348
O O6 0.500000 0.500000 0.000000
O O7 0.487161 0.429776 0.882161
O O8 0.567577 0.489453 0.599040
O O9 0.299225 0.233812 0.711532
O O10 0.518845 0.573782 0.692826
O O11 0.702860 0.837673 0.736701
O O12 0.034271 0.921918 0.736096
O O13 0.000000 0.500000 0.000000
O O14 0.207453 0.245007 0.548417
O O15 0.345670 0.960888 0.581926
O O16 0.000000 0.500000 0.500000
#
# Coordination Sequence:
#
# PCOD8037659 Si02
#       7
#     2   2   2   2   2   2   2
#     4  12  26  48  77 109 145 200 252 305 373 444
#     4  12  26  47  74 109 152 202 251 305 371 446
#     4  12  25  50  74 111 149 201 246 305 377 446
#     4  12  27  49  75 111 152 196 249 304 368 444
#     4  12  27  50  78 107 153 196 249 312 380 444
#     4  12  30  47  76 113 149 193 248 310 377 444
#     4  12  26  48  77 109 153 196 253 308 372 446
#
# _framework density 23.59647
#
# number of rings (size 3 to 8) (size 9 to 14) (size 15 to 20)
#    0.000    0.000    2.857    6.429    6.000    2.286 
#    0.000    0.000    0.000    0.000    0.000    0.000 
#    0.000    0.000    0.000    0.000    0.000    0.000 
#
# Total GULP energy -173518.651153 kJ/mol
# GULP energy per Si atom -12394.189368 kJ/mol
# Density = 2.354276 g / cm^3
# Si number density = 23.596470 Si / 1000 Ang^3
#
#
#
# Elastic Constant Matrix: (Units=GPa)
#
#
# Indices 1 2 3 4 5 6 
#
# 1 149.1076 53.0958 62.9661 -0.5668 -1.3950 3.4534
# 2 53.0958 96.9265 55.2384 -7.2931 6.1938 -1.6339
# 3 62.9661 55.2384 144.1548 -8.1062 -2.5487 -5.0446
# 4 -0.5668 -7.2931 -8.1062 43.9059 5.0289 9.2679
# 5 -1.3950 6.1938 -2.5487 5.0289 60.9358 8.4985
# 6 3.4534 -1.6339 -5.0446 9.2679 8.4985 40.8971
#
#
#
# Elastic Compliance Matrix: (Units=1/GPa)
#
#
# Indices 1 2 3 4 5 6 
#
# 1 0.009161 -0.003608 -0.002694 -0.000802 0.000699 -0.001213
# 2 -0.003608 0.014865 -0.004038 0.001818 -0.001968 0.000397
# 3 -0.002694 -0.004038 0.009751 0.000827 0.000554 0.000966
# 4 -0.000802 0.001818 0.000827 0.024444 -0.001490 -0.004987
# 5 0.000699 -0.001968 0.000554 -0.001490 0.017235 -0.003313
# 6 -0.001213 0.000397 0.000966 -0.004987 -0.003313 0.026508
#
#
# Mechanical properties :
#
#
# Convention : Reuss Voigt Hill
#
# Bulk Modulus (GPa) = 76.36462 81.42104 78.89283
# Shear Modulus (GPa) = 39.36713 43.74034 41.55374
#
# Velocity S-wave (km/s) = 4.08897 4.31011 4.20100
# Velocity P-wave (km/s) = 7.39770 7.70389 7.55235
#
# Compressibility (1/GPa) = 0.01309507
#
# Stress axis : x y z
#
# Youngs Moduli (GPa) = 109.16227 67.27416 102.55108
#
# Poissons Ratio (x) = 0.24276 0.27626
# Poissons Ratio (y) = 0.39391 0.41414
# Poissons Ratio (z) = 0.29407 0.27168
#
# Static dielectric constant tensor:
#      x y z
#    x 4.973470 0.225300 0.328350 
#    y 0.225300 4.238220 0.200540 
#    z 0.328350 0.200540 4.500290 
# 
# 
# High freq. dielectric constant tensor:
#      x y z
#    x 1.962980 0.006740 0.007490 
#    y 0.006740 1.931820 -0.003750 
#    z 0.007490 -0.003750 1.950860 
# 
# From -- ./inp_files/184432.got.cif
#   From: 2010.06.25/outbox.cif.g09.slc.cpg/sg2_93_cif.got.tgz:184432.got - 2010.06.27 13:26:56.
