data_PCOD8037451
_publ_section_title
;
Structure prediction by ZEFSAII (Michael W. Deem and Ramdas Pophale) SiO2 
 PCOD8037451
Probable space group: P -1
;
_chemical_formula_sum "Si O2"
_cell_formula_units_Z 12
_cell_length_a 9.115776
_cell_length_b 14.944432
_cell_length_c 18.536477
_cell_angle_alpha 157.406381
_cell_angle_beta 35.204907
_cell_angle_gamma 134.851663
_cell_volume 545.383739
_symmetry_space_group_name_H-M "P -1"
_symmetry_group_IT_number 2
_symmetry_cell_setting 'triclinic'
loop_
_space_group_symop_operation_xyz
x,y,z
-x,-y,-z
loop_
_atom_site_type_symbol
_atom_site_label
_atom_site_fract_x
_atom_site_fract_y
_atom_site_fract_z
Si Si1 0.672604 0.645019 0.925283
Si Si2 0.244244 0.902139 0.524654
Si Si3 0.049197 0.683698 0.675665
Si Si4 0.850665 0.005395 0.638978
Si Si5 0.401730 0.440556 0.573109
Si Si6 0.972598 0.886333 0.086061
O O1 0.669768 0.372117 0.738278
O O2 0.911880 0.652311 0.781972
O O3 0.733041 0.770659 0.068912
O O4 0.399093 0.775687 0.098085
O O5 0.046566 0.051743 0.657051
O O6 0.500000 0.000000 0.500000
O O7 0.109593 0.935005 0.681324
O O8 0.359460 0.642084 0.530306
O O9 0.000000 0.500000 0.500000
O O10 0.942516 0.954518 0.893242
O O11 0.765760 0.761196 0.511552
O O12 0.000000 0.000000 0.500000
O O13 0.500000 0.500000 0.500000
O O14 0.218187 0.680574 0.857093
#
# Coordination Sequence:
#
# PCOD8037451 Si02
#       6
#     2   2   2   2   2   2
#     4  12  25  50  74 103 153 190 237 305 363 429
#     4  12  29  47  72 109 142 194 248 293 364 435
#     4  12  25  44  73 113 145 188 244 297 362 430
#     4  12  28  48  76 107 145 195 243 298 370 432
#     4  12  25  47  76 107 147 194 243 295 368 432
#     4  12  25  45  75 103 147 189 239 301 358 430
#
# _framework density 22.002855
#
# number of rings (size 3 to 8) (size 9 to 14) (size 15 to 20)
#    0.000    0.000    6.667    2.500    4.667    2.667 
#    0.000    0.000    0.000    0.000    0.000    0.000 
#    0.000    0.000    0.000    0.000    0.000    0.000 
#
# Total GULP energy -148876.452128 kJ/mol
# GULP energy per Si atom -12406.371011 kJ/mol
# Density = 2.195278 g / cm^3
# Si number density = 22.002855 Si / 1000 Ang^3
#
#
#
# Elastic Constant Matrix: (Units=GPa)
#
#
# Indices 1 2 3 4 5 6 
#
# 1 146.9478 31.5778 42.3976 -0.9148 -7.8327 14.7557
# 2 31.5778 109.3238 17.7510 3.4673 0.1927 4.6219
# 3 42.3976 17.7510 110.2698 14.8405 -16.6391 7.7167
# 4 -0.9148 3.4673 14.8405 24.1210 5.2914 -2.7452
# 5 -7.8327 0.1927 -16.6391 5.2914 49.2534 -2.9779
# 6 14.7557 4.6219 7.7167 -2.7452 -2.9779 35.7813
#
#
#
# Elastic Compliance Matrix: (Units=1/GPa)
#
#
# Indices 1 2 3 4 5 6 
#
# 1 0.008336 -0.001883 -0.003044 0.002206 -0.000076 -0.002375
# 2 -0.001883 0.009868 -0.000787 -0.000940 -0.000530 -0.000445
# 3 -0.003044 -0.000787 0.012343 -0.008773 0.004534 -0.001601
# 4 0.002206 -0.000940 -0.008773 0.049234 -0.007642 0.004245
# 5 -0.000076 -0.000530 0.004534 -0.007642 0.022672 0.000422
# 6 -0.002375 -0.000445 -0.001601 0.004245 0.000422 0.029690
#
#
# Mechanical properties :
#
#
# Convention : Reuss Voigt Hill
#
# Bulk Modulus (GPa) = 52.30370 61.11045 56.70708
# Shear Modulus (GPa) = 33.34568 40.15213 36.74891
#
# Velocity S-wave (km/s) = 3.89719 4.27647 4.09123
# Velocity P-wave (km/s) = 6.63880 7.22623 6.93874
#
# Compressibility (1/GPa) = 0.01911911
#
# Stress axis : x y z
#
# Youngs Moduli (GPa) = 119.95738 101.33396 81.01916
#
# Poissons Ratio (x) = 0.19082 0.24664
# Poissons Ratio (y) = 0.22588 0.06375
# Poissons Ratio (z) = 0.36518 0.07973
#
# Static dielectric constant tensor:
#      x y z
#    x 4.334380 0.103910 0.087550 
#    y 0.103910 3.943940 -0.109780 
#    z 0.087550 -0.109780 3.876570 
# 
# 
# High freq. dielectric constant tensor:
#      x y z
#    x 1.878740 0.002570 -0.007500 
#    y 0.002570 1.870210 0.006160 
#    z -0.007500 0.006160 1.874580 
# 
# From -- ./inp_files/138283.got.cif
#   From: 2010.06.25/outbox.cif.g09.slc.cpg/sg2_70_cif.got.tgz:138283.got - 2010.06.27 13:26:56.
