data_PCOD8037348
_publ_section_title
;
Structure prediction by ZEFSAII (Michael W. Deem and Ramdas Pophale) SiO2 
 PCOD8037348
Probable space group: P -1
;
_chemical_formula_sum "Si O2"
_cell_formula_units_Z 16
_cell_length_a 22.658605
_cell_length_b 12.423226
_cell_length_c 9.714006
_cell_angle_alpha 136.016353
_cell_angle_beta 26.570504
_cell_angle_gamma 143.454143
_cell_volume 728.311916
_symmetry_space_group_name_H-M "P -1"
_symmetry_group_IT_number 2
_symmetry_cell_setting 'triclinic'
loop_
_space_group_symop_operation_xyz
x,y,z
-x,-y,-z
loop_
_atom_site_type_symbol
_atom_site_label
_atom_site_fract_x
_atom_site_fract_y
_atom_site_fract_z
Si Si1 0.867884 0.028215 0.246373
Si Si2 0.402824 0.504340 0.579834
Si Si3 0.595007 0.131172 0.543846
Si Si4 0.922342 0.564379 0.830841
Si Si5 0.841997 0.836769 0.623831
Si Si6 0.669872 0.856517 0.247560
Si Si7 0.137196 0.509440 0.806332
Si Si8 0.665461 0.845395 0.748131
O O1 0.947026 0.232189 0.217777
O O2 0.782372 0.892346 0.173885
O O3 0.745169 0.983219 0.582186
O O4 0.000000 0.000000 0.000000
O O5 0.500000 0.500000 0.500000
O O6 0.494234 0.704852 0.508938
O O7 0.385265 0.359330 0.370700
O O8 0.231960 0.457078 0.935945
O O9 0.706566 0.326048 0.426588
O O10 0.500000 0.000000 0.500000
O O11 0.684782 0.047401 0.356557
O O12 0.485471 0.148579 0.897175
O O13 0.000000 0.500000 0.500000
O O14 0.878958 0.456630 0.966996
O O15 0.861371 0.673755 0.383428
O O16 0.784991 0.909430 0.683943
O O17 0.718111 0.773822 0.946133
O O18 0.000000 0.000000 0.500000
O O19 0.000000 0.500000 0.000000
#
# Coordination Sequence:
#
# PCOD8037348 Si02
#       8
#     2   2   2   2   2   2   2   2
#     4  12  24  48  71 107 143 187 242 297 361 440
#     4  12  25  49  72 110 144 194 243 299 367 440
#     4  12  27  45  72 110 146 191 243 301 365 429
#     4  12  28  45  74 104 147 192 242 302 366 431
#     4  12  25  46  77 108 142 194 246 301 369 433
#     4  12  26  45  76 107 146 189 244 298 367 438
#     4  12  27  49  71 107 150 188 246 301 366 438
#     4  12  26  46  77 103 148 192 243 301 366 433
#
# _framework density 21.968610000000002
#
# number of rings (size 3 to 8) (size 9 to 14) (size 15 to 20)
#    0.000    0.000    5.000    4.500    3.500    5.500 
#    0.000    0.000    0.000    0.000    0.000    0.000 
#    0.000    0.000    0.000    0.000    0.000    0.000 
#
# Total GULP energy -198481.015389 kJ/mol
# GULP energy per Si atom -12405.063462 kJ/mol
# Density = 2.191861 g / cm^3
# Si number density = 21.968610 Si / 1000 Ang^3
#
#
#
# Elastic Constant Matrix: (Units=GPa)
#
#
# Indices 1 2 3 4 5 6 
#
# 1 140.3760 12.7139 50.3919 -2.5648 2.4905 6.0695
# 2 12.7139 96.0951 36.7390 -20.0726 3.9164 3.4540
# 3 50.3919 36.7390 162.8507 7.5807 12.7365 -1.9419
# 4 -2.5648 -20.0726 7.5807 39.4308 -3.1575 2.6336
# 5 2.4905 3.9164 12.7365 -3.1575 37.7276 -4.3510
# 6 6.0695 3.4540 -1.9419 2.6336 -4.3510 37.6950
#
#
#
# Elastic Compliance Matrix: (Units=1/GPa)
#
#
# Indices 1 2 3 4 5 6 
#
# 1 0.008148 0.000263 -0.002681 0.001304 0.000272 -0.001534
# 2 0.000263 0.013364 -0.003490 0.007637 0.000187 -0.001959
# 3 -0.002681 -0.003490 0.008134 -0.003783 -0.002390 0.001159
# 4 0.001304 0.007637 -0.003783 0.030465 0.002610 -0.002932
# 5 0.000272 0.000187 -0.002390 0.002610 0.027822 0.002845
# 6 -0.001534 -0.001959 0.001159 -0.002932 0.002845 0.027548
#
#
# Mechanical properties :
#
#
# Convention : Reuss Voigt Hill
#
# Bulk Modulus (GPa) = 56.08215 66.55681 61.31948
# Shear Modulus (GPa) = 37.52655 42.93580 40.23117
#
# Velocity S-wave (km/s) = 4.13751 4.42567 4.28401
# Velocity P-wave (km/s) = 6.95766 7.51515 7.24177
#
# Compressibility (1/GPa) = 0.01783099
#
# Stress axis : x y z
#
# Youngs Moduli (GPa) = 122.73656 74.82953 122.93685
#
# Poissons Ratio (x) = -0.01970 0.32957
# Poissons Ratio (y) = -0.03232 0.42902
# Poissons Ratio (z) = 0.32903 0.26114
#
# Static dielectric constant tensor:
#      x y z
#    x 4.142560 -0.588420 0.212690 
#    y -0.588420 3.894560 0.335440 
#    z 0.212690 0.335440 3.974990 
# 
# 
# High freq. dielectric constant tensor:
#      x y z
#    x 1.878250 0.003980 0.001220 
#    y 0.003980 1.871390 -0.012580 
#    z 0.001220 -0.012580 1.874920 
# 
# From -- ./inp_files/223390.got.cif
#   From: 2010.06.25/outbox.cif.g09.slc.cpg/sg2_112_cif.got.tgz:223390.got - 2010.06.27 13:26:56.
