data_PCOD8037643
_publ_section_title
;
Structure prediction by ZEFSAII (Michael W. Deem and Ramdas Pophale) SiO2 
 PCOD8037643
Probable space group: P -1
;
_chemical_formula_sum "Si O2"
_cell_formula_units_Z 16
_cell_length_a 8.874460
_cell_length_b 16.590285
_cell_length_c 12.226612
_cell_angle_alpha 127.402715
_cell_angle_beta 51.618267
_cell_angle_gamma 149.910772
_cell_volume 696.079719
_symmetry_space_group_name_H-M "P -1"
_symmetry_group_IT_number 2
_symmetry_cell_setting 'triclinic'
loop_
_space_group_symop_operation_xyz
x,y,z
-x,-y,-z
loop_
_atom_site_type_symbol
_atom_site_label
_atom_site_fract_x
_atom_site_fract_y
_atom_site_fract_z
Si Si1 0.857904 0.235326 0.814402
Si Si2 0.858609 0.739779 0.824005
Si Si3 0.196005 0.157972 0.270589
Si Si4 0.196974 0.998515 0.473140
Si Si5 0.708634 0.523386 0.008359
Si Si6 0.316332 0.998510 0.004262
Si Si7 0.090674 0.488598 0.739590
Si Si8 0.095939 0.644783 0.523187
O O1 0.790738 0.099324 0.680635
O O2 0.075374 0.309483 0.884047
O O3 0.998453 0.377222 0.788256
O O4 0.533360 0.141418 0.932168
O O5 0.948040 0.859199 0.791048
O O6 0.509000 0.617682 0.918202
O O7 0.058516 0.827870 0.916790
O O8 0.891728 0.642842 0.676517
O O9 0.541602 0.341484 0.288176
O O10 0.966067 0.098200 0.419797
O O11 0.175008 0.027843 0.167623
O O12 0.540579 0.183196 0.487015
O O13 0.000000 0.000000 0.500000
O O14 0.500000 0.500000 0.000000
O O15 0.912610 0.522050 0.855441
O O16 0.500000 0.000000 0.000000
O O17 0.993038 0.390812 0.593080
O O18 0.000000 0.500000 0.500000
#
# Coordination Sequence:
#
# PCOD8037643 Si02
#       8
#     2   2   2   2   2   2   2   2
#     4  12  25  49  75 102 152 190 240 295 360 426
#     4  12  27  47  74 108 144 195 241 295 362 424
#     4  12  27  48  75 108 148 190 242 293 363 428
#     4  12  29  47  76 107 144 192 239 297 364 429
#     4  12  26  45  75 110 146 193 242 295 359 426
#     4  12  26  47  74 105 149 191 240 304 356 422
#     4  12  27  47  75 109 147 191 237 302 356 428
#     4  12  29  49  74 107 146 186 243 301 358 431
#
# _framework density 22.985873999999999
#
# number of rings (size 3 to 8) (size 9 to 14) (size 15 to 20)
#    0.000    0.000    3.750    5.250   10.500    2.000 
#    0.000    0.000    0.000    0.000    0.000    0.000 
#    0.000    0.000    0.000    0.000    0.000    0.000 
#
# Total GULP energy -198460.476234 kJ/mol
# GULP energy per Si atom -12403.779765 kJ/mol
# Density = 2.293356 g / cm^3
# Si number density = 22.985874 Si / 1000 Ang^3
#
#
#
# Elastic Constant Matrix: (Units=GPa)
#
#
# Indices 1 2 3 4 5 6 
#
# 1 85.1814 17.9180 18.2119 24.0374 -2.9281 8.0136
# 2 17.9180 126.7361 55.4725 5.9361 -0.4128 11.1940
# 3 18.2119 55.4725 107.5605 21.2590 11.8205 16.7560
# 4 24.0374 5.9361 21.2590 49.5065 2.8071 4.6394
# 5 -2.9281 -0.4128 11.8205 2.8071 31.0035 6.4650
# 6 8.0136 11.1940 16.7560 4.6394 6.4650 38.4820
#
#
#
# Elastic Compliance Matrix: (Units=1/GPa)
#
#
# Indices 1 2 3 4 5 6 
#
# 1 0.014225 -0.001353 -0.000376 -0.006534 0.002485 -0.002035
# 2 -0.001353 0.010570 -0.005676 0.001787 0.002204 -0.000907
# 3 -0.000376 -0.005676 0.014191 -0.004685 -0.004443 -0.003139
# 4 -0.006534 0.001787 -0.004685 0.025229 -0.001096 0.000023
# 5 0.002485 0.002204 -0.004443 -0.001096 0.035361 -0.005033
# 6 -0.002035 -0.000907 -0.003139 0.000023 -0.005033 0.028883
#
#
# Mechanical properties :
#
#
# Convention : Reuss Voigt Hill
#
# Bulk Modulus (GPa) = 41.36207 55.85366 48.60787
# Shear Modulus (GPa) = 33.04082 38.99009 36.01545
#
# Velocity S-wave (km/s) = 3.79547 4.12304 3.96264
# Velocity P-wave (km/s) = 6.10255 6.85695 6.49072
#
# Compressibility (1/GPa) = 0.02417674
#
# Stress axis : x y z
#
# Youngs Moduli (GPa) = 70.29836 94.60910 70.46565
#
# Poissons Ratio (x) = 0.12800 0.02646
# Poissons Ratio (y) = 0.09511 0.39998
# Poissons Ratio (z) = 0.02640 0.53703
#
# Static dielectric constant tensor:
#      x y z
#    x 4.284540 0.086750 -0.076720 
#    y 0.086750 4.502920 -0.171240 
#    z -0.076720 -0.171240 4.670990 
# 
# 
# High freq. dielectric constant tensor:
#      x y z
#    x 1.914570 0.001280 0.010030 
#    y 0.001280 1.925200 -0.002450 
#    z 0.010030 -0.002450 1.927900 
# 
# From -- ./inp_files/208371.got.cif
#   From: 2010.06.25/outbox.cif.g09.slc.cpg/sg2_105_cif.got.tgz:208371.got - 2010.06.27 13:26:56.
