data_PCOD8037099
_publ_section_title
;
Structure prediction by ZEFSAII (Michael W. Deem and Ramdas Pophale) SiO2 
 PCOD8037099
Probable space group: P -1
;
_chemical_formula_sum "Si O2"
_cell_formula_units_Z 14
_cell_length_a 15.057022
_cell_length_b 11.972724
_cell_length_c 9.090044
_cell_angle_alpha 61.946204
_cell_angle_beta 150.022442
_cell_angle_gamma 128.743419
_cell_volume 627.686319
_symmetry_space_group_name_H-M "P -1"
_symmetry_group_IT_number 2
_symmetry_cell_setting 'triclinic'
loop_
_space_group_symop_operation_xyz
x,y,z
-x,-y,-z
loop_
_atom_site_type_symbol
_atom_site_label
_atom_site_fract_x
_atom_site_fract_y
_atom_site_fract_z
Si Si1 0.367700 0.265207 0.302953
Si Si2 0.382215 0.790431 0.779339
Si Si3 0.692877 0.802627 0.433975
Si Si4 0.979865 0.748770 0.668685
Si Si5 0.575151 0.077146 0.713567
Si Si6 0.938183 0.137949 0.608504
Si Si7 0.367240 0.554215 0.686697
O O1 0.338996 0.304677 0.405836
O O2 0.439089 0.148587 0.511626
O O3 0.535634 0.399082 0.365675
O O4 0.157174 0.192833 0.959286
O O5 0.163832 0.774082 0.517732
O O6 0.358173 0.685278 0.674428
O O7 0.542405 0.956669 0.862661
O O8 0.471962 0.753458 0.075230
O O9 0.831112 0.788374 0.517925
O O10 0.800426 0.967349 0.545327
O O11 0.865241 0.575352 0.584096
O O12 0.033677 0.833678 0.541005
O O13 0.186441 0.799567 0.026100
O O14 0.500000 0.000000 0.500000
O O15 0.500000 0.500000 0.000000
#
# Coordination Sequence:
#
# PCOD8037099 Si02
#       7
#     2   2   2   2   2   2   2
#     4  12  26  44  73 106 149 181 245 298 353 423
#     4  12  25  46  76 105 146 184 242 297 362 423
#     4  12  24  42  73 111 140 186 244 304 354 418
#     4  12  27  46  75 101 151 194 234 288 371 425
#     4  12  25  46  75 110 139 186 245 309 348 420
#     4  12  24  44  75 110 137 191 243 301 358 418
#     4  12  26  52  69 105 149 199 231 289 359 444
#
# _framework density 22.304134999999999
#
# number of rings (size 3 to 8) (size 9 to 14) (size 15 to 20)
#    0.000    0.000    7.143    3.000    2.000    1.714 
#    0.000    0.000    0.000    0.000    0.000    0.000 
#    0.000    0.000    0.000    0.000    0.000    0.000 
#
# Total GULP energy -173642.326338 kJ/mol
# GULP energy per Si atom -12403.023310 kJ/mol
# Density = 2.225337 g / cm^3
# Si number density = 22.304135 Si / 1000 Ang^3
#
#
#
# Elastic Constant Matrix: (Units=GPa)
#
#
# Indices 1 2 3 4 5 6 
#
# 1 59.2861 16.6994 -26.4950 -13.1658 -13.4228 17.5895
# 2 16.6994 71.7448 21.0186 9.6734 2.1327 9.8780
# 3 -26.4950 21.0186 98.6530 15.8345 -5.0980 3.3389
# 4 -13.1658 9.6734 15.8345 34.6018 -2.7589 2.4138
# 5 -13.4228 2.1327 -5.0980 -2.7589 36.2131 -16.3705
# 6 17.5895 9.8780 3.3389 2.4138 -16.3705 38.6756
#
#
#
# Elastic Compliance Matrix: (Units=1/GPa)
#
#
# Indices 1 2 3 4 5 6 
#
# 1 0.032333 -0.011226 0.009956 0.012377 0.011007 -0.008811
# 2 -0.011226 0.019976 -0.006413 -0.007386 -0.007843 -0.002302
# 3 0.009956 -0.006413 0.014599 -0.000551 0.005219 -0.001907
# 4 0.012377 -0.007386 -0.000551 0.036656 0.006224 -0.003348
# 5 0.011007 -0.007843 0.005219 0.006224 0.039113 0.012714
# 6 -0.008811 -0.002302 -0.001907 -0.003348 0.012714 0.036206
#
#
# Mechanical properties :
#
#
# Convention : Reuss Voigt Hill
#
# Bulk Modulus (GPa) = 19.40106 28.01441 23.70773
# Shear Modulus (GPa) = 23.64850 36.46217 30.05534
#
# Velocity S-wave (km/s) = 3.25972 4.04762 3.67484
# Velocity P-wave (km/s) = 4.78382 5.86786 5.35335
#
# Compressibility (1/GPa) = 0.05154359
#
# Stress axis : x y z
#
# Youngs Moduli (GPa) = 30.92769 50.06059 68.49663
#
# Poissons Ratio (x) = 0.56196 -0.68194
# Poissons Ratio (y) = 0.34718 0.43925
# Poissons Ratio (z) = -0.30791 0.32102
#
# Static dielectric constant tensor:
#      x y z
#    x 4.002930 0.109090 0.024710 
#    y 0.109090 4.107180 -0.015550 
#    z 0.024710 -0.015550 4.094950 
# 
# 
# High freq. dielectric constant tensor:
#      x y z
#    x 1.899930 0.006170 -0.003690 
#    y 0.006170 1.866580 -0.002510 
#    z -0.003690 -0.002510 1.886610 
# 
# From -- ./inp_files/156685.got.cif
#   From: 2010.06.25/outbox.cif.g09.slc.cpg/sg2_79_cif.got.tgz:156685.got - 2010.06.27 13:26:56.
