data_PCOD8037295
_publ_section_title
;
Structure prediction by ZEFSAII (Michael W. Deem and Ramdas Pophale) SiO2 
 PCOD8037295
Probable space group: P -1
;
_chemical_formula_sum "Si O2"
_cell_formula_units_Z 14
_cell_length_a 8.579359
_cell_length_b 9.164568
_cell_length_c 12.129749
_cell_angle_alpha 112.784407
_cell_angle_beta 65.874166
_cell_angle_gamma 67.591969
_cell_volume 615.838071
_symmetry_space_group_name_H-M "P -1"
_symmetry_group_IT_number 2
_symmetry_cell_setting 'triclinic'
loop_
_space_group_symop_operation_xyz
x,y,z
-x,-y,-z
loop_
_atom_site_type_symbol
_atom_site_label
_atom_site_fract_x
_atom_site_fract_y
_atom_site_fract_z
Si Si1 0.165294 0.406440 0.824355
Si Si2 0.210253 0.019817 0.650849
Si Si3 0.343323 0.795381 0.322633
Si Si4 0.601720 0.594406 0.795692
Si Si5 0.030324 0.360650 0.265536
Si Si6 0.561238 0.632333 0.570757
Si Si7 0.793181 0.074999 0.840208
O O1 0.394469 0.341694 0.780458
O O2 0.067126 0.582144 0.812771
O O3 0.197924 0.214967 0.705877
O O4 0.000000 0.500000 0.000000
O O5 0.210126 0.954862 0.507564
O O6 0.435966 0.841048 0.598131
O O7 0.001635 0.069452 0.790323
O O8 0.285447 0.643968 0.293434
O O9 0.266132 0.922245 0.269085
O O10 0.795806 0.603501 0.759895
O O11 0.490374 0.682390 0.733449
O O12 0.414491 0.722721 0.979936
O O13 0.826535 0.501984 0.451069
O O14 0.154253 0.122054 0.176199
O O15 0.500000 0.500000 0.500000
#
# Coordination Sequence:
#
# PCOD8037295 Si02
#       7
#     2   2   2   2   2   2   2
#     4  12  27  47  74 105 145 185 236 293 354 421
#     4  12  26  46  74 103 143 189 237 287 358 418
#     4  12  25  49  70 105 145 187 240 286 351 430
#     4  12  26  45  73 104 148 185 235 294 356 414
#     4  12  26  47  70 106 142 187 237 291 352 419
#     4  12  24  47  71 108 140 185 238 294 347 423
#     4  12  27  45  74 106 144 186 237 295 355 411
#
# _framework density 22.733250000000002
#
# number of rings (size 3 to 8) (size 9 to 14) (size 15 to 20)
#    0.000    0.000    4.286    4.714    4.000    1.714 
#    0.000    0.000    0.000    0.000    0.000    0.000 
#    0.000    0.000    0.000    0.000    0.000    0.000 
#
# Total GULP energy -173747.944914 kJ/mol
# GULP energy per Si atom -12410.567494 kJ/mol
# Density = 2.268151 g / cm^3
# Si number density = 22.733250 Si / 1000 Ang^3
#
#
#
# Elastic Constant Matrix: (Units=GPa)
#
#
# Indices 1 2 3 4 5 6 
#
# 1 78.0935 7.9084 2.3290 3.0197 -20.0461 -0.0065
# 2 7.9084 133.1290 13.2538 3.1667 13.7079 -9.8610
# 3 2.3290 13.2538 116.0181 -4.5176 -4.3660 -3.4345
# 4 3.0197 3.1667 -4.5176 30.7428 1.8240 -0.0228
# 5 -20.0461 13.7079 -4.3660 1.8240 34.9016 -8.4203
# 6 -0.0065 -9.8610 -3.4345 -0.0228 -8.4203 35.4697
#
#
#
# Elastic Compliance Matrix: (Units=1/GPa)
#
#
# Indices 1 2 3 4 5 6 
#
# 1 0.015717 -0.001835 0.000267 -0.001929 0.010359 0.001977
# 2 -0.001835 0.008251 -0.001047 -0.000579 -0.004101 0.001218
# 3 0.000267 -0.001047 0.008883 0.001278 0.001853 0.001010
# 4 -0.001929 -0.000579 0.001278 0.033119 -0.002604 -0.000635
# 5 0.010359 -0.004101 0.001853 -0.002604 0.038557 0.008193
# 6 0.001977 0.001218 0.001010 -0.000635 0.008193 0.030574
#
#
# Mechanical properties :
#
#
# Convention : Reuss Voigt Hill
#
# Bulk Modulus (GPa) = 36.20182 41.58033 38.89107
# Shear Modulus (GPa) = 33.43674 40.47276 36.95475
#
# Velocity S-wave (km/s) = 3.83930 4.22398 4.03622
# Velocity P-wave (km/s) = 5.96765 6.48996 6.23428
#
# Compressibility (1/GPa) = 0.02762292
#
# Stress axis : x y z
#
# Youngs Moduli (GPa) = 63.62643 121.19773 112.57580
#
# Poissons Ratio (x) = 0.22235 -0.03009
# Poissons Ratio (y) = 0.11673 0.11782
# Poissons Ratio (z) = -0.01701 0.12684
#
# Static dielectric constant tensor:
#      x y z
#    x 4.211230 0.009840 -0.109850 
#    y 0.009840 4.160280 -0.131950 
#    z -0.109850 -0.131950 4.239370 
# 
# 
# High freq. dielectric constant tensor:
#      x y z
#    x 1.910170 -0.001680 -0.009080 
#    y -0.001680 1.911140 -0.007550 
#    z -0.009080 -0.007550 1.906230 
# 
# From -- ./inp_files/156756.got.cif
#   From: 2010.06.25/outbox.cif.g09.slc.cpg/sg2_79_cif.got.tgz:156756.got - 2010.06.27 13:26:56.
