data_PCOD8037666
_publ_section_title
;
Structure prediction by ZEFSAII (Michael W. Deem and Ramdas Pophale) SiO2 
 PCOD8037666
Probable space group: P -1
;
_chemical_formula_sum "Si O2"
_cell_formula_units_Z 12
_cell_length_a 9.324683
_cell_length_b 11.483639
_cell_length_c 9.287357
_cell_angle_alpha 79.767507
_cell_angle_beta 45.718139
_cell_angle_gamma 51.476841
_cell_volume 494.813044
_symmetry_space_group_name_H-M "P -1"
_symmetry_group_IT_number 2
_symmetry_cell_setting 'triclinic'
loop_
_space_group_symop_operation_xyz
x,y,z
-x,-y,-z
loop_
_atom_site_type_symbol
_atom_site_label
_atom_site_fract_x
_atom_site_fract_y
_atom_site_fract_z
Si Si1 0.632898 0.068209 0.351807
Si Si2 0.163528 0.461385 0.536787
Si Si3 0.882000 0.829948 0.981668
Si Si4 0.457572 0.491926 0.697020
Si Si5 0.940358 0.003728 0.708374
Si Si6 0.634812 0.712297 0.052301
O O1 0.400189 0.268252 0.460430
O O2 0.500000 0.000000 0.500000
O O3 0.867417 0.996513 0.323899
O O4 0.769898 0.989383 0.116266
O O5 0.307821 0.527000 0.382607
O O6 0.000000 0.500000 0.500000
O O7 0.943994 0.561094 0.801614
O O8 0.142698 0.665688 0.923567
O O9 0.984080 0.846708 0.754792
O O10 0.650503 0.824274 0.115274
O O11 0.500000 0.500000 0.500000
O O12 0.476470 0.345929 0.753132
O O13 0.603715 0.173173 0.929181
O O14 0.000000 0.000000 0.500000
#
# Coordination Sequence:
#
# PCOD8037666 Si02
#       6
#     2   2   2   2   2   2
#     4  12  28  49  77 111 155 200 254 315 381 450
#     4  12  29  50  77 112 154 198 256 317 379 450
#     4  12  25  50  78 108 153 203 257 312 379 454
#     4  12  26  48  78 110 153 199 257 312 380 452
#     4  12  27  47  77 116 155 199 251 316 384 452
#     4  12  28  47  80 112 149 201 257 311 379 455
#
# _framework density 24.251586
#
# number of rings (size 3 to 8) (size 9 to 14) (size 15 to 20)
#    0.000    0.000    3.333    5.500    7.000    0.667 
#    0.000    0.000    0.000    0.000    0.000    0.000 
#    0.000    0.000    0.000    0.000    0.000    0.000 
#
# Total GULP energy -148801.806275 kJ/mol
# GULP energy per Si atom -12400.150523 kJ/mol
# Density = 2.419639 g / cm^3
# Si number density = 24.251586 Si / 1000 Ang^3
#
#
#
# Elastic Constant Matrix: (Units=GPa)
#
#
# Indices 1 2 3 4 5 6 
#
# 1 229.4401 88.2256 68.2805 -6.8746 -29.1494 1.6956
# 2 88.2256 115.1369 30.1930 -14.1002 -13.4774 7.4175
# 3 68.2805 30.1930 76.3602 -8.0162 -10.0167 6.4448
# 4 -6.8746 -14.1002 -8.0162 58.6936 7.3688 -14.7877
# 5 -29.1494 -13.4774 -10.0167 7.3688 47.4237 -2.7102
# 6 1.6956 7.4175 6.4448 -14.7877 -2.7102 46.5366
#
#
#
# Elastic Compliance Matrix: (Units=1/GPa)
#
#
# Indices 1 2 3 4 5 6 
#
# 1 0.007974 -0.004631 -0.005130 -0.000965 0.002709 0.001009
# 2 -0.004631 0.012740 -0.000545 0.002135 0.000265 -0.001092
# 3 -0.005130 -0.000545 0.018217 0.001264 0.000238 -0.001833
# 4 -0.000965 0.002135 0.001264 0.019301 -0.002403 0.005513
# 5 0.002709 0.000265 0.000238 -0.002403 0.023275 0.000418
# 6 0.001009 -0.001092 -0.001833 0.005513 0.000418 0.023656
#
#
# Mechanical properties :
#
#
# Convention : Reuss Voigt Hill
#
# Bulk Modulus (GPa) = 54.59036 88.25949 71.42492
# Shear Modulus (GPa) = 37.91322 46.14665 42.02993
#
# Velocity S-wave (km/s) = 3.95819 4.36688 4.16754
# Velocity P-wave (km/s) = 6.59155 7.86756 7.25765
#
# Compressibility (1/GPa) = 0.01831825
#
# Stress axis : x y z
#
# Youngs Moduli (GPa) = 125.41525 78.49587 54.89250
#
# Poissons Ratio (x) = 0.36349 0.28160
# Poissons Ratio (y) = 0.58076 0.02994
# Poissons Ratio (z) = 0.64338 0.04282
#
# Static dielectric constant tensor:
#      x y z
#    x 5.143090 0.008780 -0.393140 
#    y 0.008780 4.756490 0.216090 
#    z -0.393140 0.216090 5.299550 
# 
# 
# High freq. dielectric constant tensor:
#      x y z
#    x 1.973270 -0.000410 -0.020650 
#    y -0.000410 1.975170 0.001570 
#    z -0.020650 0.001570 1.976340 
# 
# From -- ./inp_files/149656.got.cif
#   From: 2010.06.25/outbox.cif.g09.slc.cpg/sg2_75_cif.got.tgz:149656.got - 2010.06.27 13:26:56.
