data_PCOD8037918
_publ_section_title
;
Structure prediction by ZEFSAII (Michael W. Deem and Ramdas Pophale) SiO2 
 PCOD8037918
Probable space group: P -1
;
_chemical_formula_sum "Si O2"
_cell_formula_units_Z 16
_cell_length_a 14.551885
_cell_length_b 11.654232
_cell_length_c 7.870262
_cell_angle_alpha 50.287198
_cell_angle_beta 60.324769
_cell_angle_gamma 87.638216
_cell_volume 813.002429
_symmetry_space_group_name_H-M "P -1"
_symmetry_group_IT_number 2
_symmetry_cell_setting 'triclinic'
loop_
_space_group_symop_operation_xyz
x,y,z
-x,-y,-z
loop_
_atom_site_type_symbol
_atom_site_label
_atom_site_fract_x
_atom_site_fract_y
_atom_site_fract_z
Si Si1 0.580749 0.341156 0.149590
Si Si2 0.944969 0.524593 0.357892
Si Si3 0.680991 0.396948 0.667499
Si Si4 0.891953 0.888348 0.316921
Si Si5 0.655114 0.665868 0.601382
Si Si6 0.736543 0.335657 0.314514
Si Si7 0.089492 0.828731 0.745063
Si Si8 0.940794 0.666789 0.737804
O O1 0.443311 0.263845 0.389978
O O2 0.645760 0.289527 0.287110
O O3 0.602221 0.276244 0.004518
O O4 0.627821 0.540303 0.906810
O O5 0.809731 0.462937 0.563044
O O6 0.000000 0.500000 0.500000
O O7 0.970845 0.419294 0.287502
O O8 0.006858 0.714941 0.075036
O O9 0.653118 0.559684 0.533208
O O10 0.666404 0.307167 0.584848
O O11 0.778991 0.816738 0.368591
O O12 0.916443 0.740736 0.516104
O O13 0.864519 0.987147 0.402007
O O14 0.000000 0.000000 0.000000
O O15 0.802169 0.216176 0.353898
O O16 0.822252 0.528020 0.051775
O O17 0.006725 0.810443 0.675674
#
# Coordination Sequence:
#
# PCOD8037918 Si02
#       8
#     2   2   2   2   2   2   2   2
#     4   9  20  37  60  86 111 148 197 251 276 322
#     4  11  18  31  56  84 114 149 194 235 275 340
#     4  10  17  32  59  85 111 140 198 237 281 331
#     4  12  24  38  59  82 119 158 184 228 306 354
#     4   9  20  40  54  87 116 144 196 246 281 332
#     4  11  19  36  64  86 113 152 196 241 287 330
#     4  11  22  35  50  88 122 150 184 236 294 344
#     4  11  20  36  53  84 120 152 188 240 283 336
#
# _framework density 19.680136999999998
#
# number of rings (size 3 to 8) (size 9 to 14) (size 15 to 20)
#    0.750    0.750    3.750    4.875    0.000    0.500 
#    0.000    0.625    0.000    0.750    0.000    0.000 
#    0.000    0.000    0.000    0.000    0.000    0.000 
#
# Total GULP energy -198296.852074 kJ/mol
# GULP energy per Si atom -12393.553255 kJ/mol
# Density = 1.963534 g / cm^3
# Si number density = 19.680137 Si / 1000 Ang^3
#
#
#
# Elastic Constant Matrix: (Units=GPa)
#
#
# Indices 1 2 3 4 5 6 
#
# 1 88.8559 14.5670 28.3315 17.1176 -8.3744 -5.1174
# 2 14.5670 78.8724 16.7386 13.5392 -5.1240 -2.5458
# 3 28.3315 16.7386 46.3836 13.9954 -9.7719 -3.2954
# 4 17.1176 13.5392 13.9954 32.4198 0.2499 0.4296
# 5 -8.3744 -5.1240 -9.7719 0.2499 27.8956 6.4712
# 6 -5.1174 -2.5458 -3.2954 0.4296 6.4712 27.7039
#
#
#
# Elastic Compliance Matrix: (Units=1/GPa)
#
#
# Indices 1 2 3 4 5 6 
#
# 1 0.014668 -0.000271 -0.007021 -0.004633 0.001575 0.001553
# 2 -0.000271 0.014298 -0.003357 -0.004397 0.001261 0.000638
# 3 -0.007021 -0.003357 0.031394 -0.008512 0.008273 0.000328
# 4 -0.004633 -0.004397 -0.008512 0.038864 -0.005140 -0.001674
# 5 0.001575 0.001261 0.008273 -0.005140 0.041399 -0.008200
# 6 0.001553 0.000638 0.000328 -0.001674 -0.008200 0.038422
#
#
# Mechanical properties :
#
#
# Convention : Reuss Voigt Hill
#
# Bulk Modulus (GPa) = 25.60031 37.04292 31.32162
# Shear Modulus (GPa) = 23.43423 27.90219 25.66821
#
# Velocity S-wave (km/s) = 3.45448 3.76943 3.61539
# Velocity P-wave (km/s) = 5.38030 6.14884 5.77736
#
# Compressibility (1/GPa) = 0.03906203
#
# Stress axis : x y z
#
# Youngs Moduli (GPa) = 68.17677 69.93757 31.85352
#
# Poissons Ratio (x) = 0.01897 0.22365
# Poissons Ratio (y) = 0.01849 0.10692
# Poissons Ratio (z) = 0.47868 0.23475
#
# Static dielectric constant tensor:
#      x y z
#    x 3.483080 -0.157770 -0.050560 
#    y -0.157770 3.558140 0.187800 
#    z -0.050560 0.187800 3.253240 
# 
# 
# High freq. dielectric constant tensor:
#      x y z
#    x 1.765550 -0.005640 -0.003650 
#    y -0.005640 1.765290 0.023820 
#    z -0.003650 0.023820 1.729710 
# 
# From -- ./inp_files/302307.got.cif
#   From: 2010.06.25/outbox.cif.g09.slc.cpg/sg2_152_cif.got.tgz:302307.got - 2010.06.27 13:26:56.
