data_PCOD8037719
_publ_section_title
;
Structure prediction by ZEFSAII (Michael W. Deem and Ramdas Pophale) SiO2 
 PCOD8037719
Probable space group: P -1
;
_chemical_formula_sum "Si O2"
_cell_formula_units_Z 16
_cell_length_a 23.572660
_cell_length_b 17.644874
_cell_length_c 13.972174
_cell_angle_alpha 158.683913
_cell_angle_beta 148.527921
_cell_angle_gamma 19.809769
_cell_volume 702.724954
_symmetry_space_group_name_H-M "P -1"
_symmetry_group_IT_number 2
_symmetry_cell_setting 'triclinic'
loop_
_space_group_symop_operation_xyz
x,y,z
-x,-y,-z
loop_
_atom_site_type_symbol
_atom_site_label
_atom_site_fract_x
_atom_site_fract_y
_atom_site_fract_z
Si Si1 0.129962 0.283252 0.018497
Si Si2 0.751549 0.543729 0.013956
Si Si3 0.192810 0.741376 0.442504
Si Si4 0.455811 0.698551 0.262486
Si Si5 0.618043 0.729482 0.667461
Si Si6 0.221055 0.767668 0.130856
Si Si7 0.313615 0.221568 0.534455
Si Si8 0.984117 0.496543 0.677247
O O1 0.266848 0.261041 0.198463
O O2 0.021304 0.440850 0.144892
O O3 0.000000 0.500000 0.000000
O O4 0.240549 0.912699 0.724401
O O5 0.901955 0.488844 0.189270
O O6 0.578541 0.923349 0.193791
O O7 0.792325 0.351806 0.753376
O O8 0.728019 0.402571 0.894218
O O9 0.316960 0.428888 0.321432
O O10 0.000000 0.000000 0.500000
O O11 0.624707 0.538911 0.370927
O O12 0.369144 0.690632 0.210172
O O13 0.338953 0.065826 0.489689
O O14 0.500000 0.500000 0.000000
O O15 0.201388 0.597028 0.831267
O O16 0.056696 0.156820 0.363522
O O17 0.206485 0.226326 0.316274
O O18 0.500000 0.000000 0.500000
#
# Coordination Sequence:
#
# PCOD8037719 Si02
#       8
#     2   2   2   2   2   2   2   2
#     4  12  26  47  75 112 148 194 252 306 378 449
#     4  12  27  50  73 113 150 194 250 313 380 443
#     4  12  26  48  77 109 148 197 253 308 375 450
#     4  12  27  47  76 111 151 194 252 303 369 450
#     4  12  27  48  77 109 152 195 251 312 376 448
#     4  12  26  48  74 109 152 192 253 303 380 430
#     4  12  26  49  75 111 149 198 254 302 370 448
#     4  12  27  46  78 104 155 196 247 313 370 444
#
# _framework density 22.768511
#
# number of rings (size 3 to 8) (size 9 to 14) (size 15 to 20)
#    0.000    0.000    6.250    2.250    3.500    3.500 
#    0.000    0.000    0.000    0.000    0.000    0.000 
#    0.000    0.000    0.000    0.000    0.000    0.000 
#
# Total GULP energy -198392.998468 kJ/mol
# GULP energy per Si atom -12399.562404 kJ/mol
# Density = 2.271669 g / cm^3
# Si number density = 22.768511 Si / 1000 Ang^3
#
#
#
# Elastic Constant Matrix: (Units=GPa)
#
#
# Indices 1 2 3 4 5 6 
#
# 1 157.5769 65.7354 54.2619 -11.9920 11.5816 5.1199
# 2 65.7354 131.7316 33.1808 -22.4042 7.6224 -4.1506
# 3 54.2619 33.1808 131.2438 -14.2132 4.1831 -5.6834
# 4 -11.9920 -22.4042 -14.2132 38.2879 1.2958 1.1395
# 5 11.5816 7.6224 4.1831 1.2958 49.8674 0.0457
# 6 5.1199 -4.1506 -5.6834 1.1395 0.0457 32.5685
#
#
#
# Elastic Compliance Matrix: (Units=1/GPa)
#
#
# Indices 1 2 3 4 5 6 
#
# 1 0.009103 -0.003882 -0.002887 -0.000378 -0.001266 -0.002414
# 2 -0.003882 0.010552 -0.000447 0.004769 -0.000799 0.001711
# 3 -0.002887 -0.000447 0.009253 0.002215 -0.000097 0.001934
# 4 -0.000378 0.004769 0.002215 0.029666 -0.001598 0.000018
# 5 -0.001266 -0.000799 -0.000097 -0.001598 0.020519 0.000107
# 6 -0.002414 0.001711 0.001934 0.000018 0.000107 0.031639
#
#
# Mechanical properties :
#
#
# Convention : Reuss Voigt Hill
#
# Bulk Modulus (GPa) = 69.08098 80.76760 74.92429
# Shear Modulus (GPa) = 38.46508 41.96972 40.21740
#
# Velocity S-wave (km/s) = 4.11469 4.29805 4.20737
# Velocity P-wave (km/s) = 7.27878 7.75767 7.52204
#
# Compressibility (1/GPa) = 0.01447576
#
# Stress axis : x y z
#
# Youngs Moduli (GPa) = 109.85991 94.76736 108.07713
#
# Poissons Ratio (x) = 0.36789 0.31202
# Poissons Ratio (y) = 0.42648 0.04828
# Poissons Ratio (z) = 0.31717 0.04233
#
# Static dielectric constant tensor:
#      x y z
#    x 4.265910 0.152600 0.089910 
#    y 0.152600 4.287080 0.114410 
#    z 0.089910 0.114410 5.202210 
# 
# 
# High freq. dielectric constant tensor:
#      x y z
#    x 1.911280 0.005580 0.000560 
#    y 0.005580 1.892070 -0.010570 
#    z 0.000560 -0.010570 1.922720 
# 
# From -- ./inp_files/543199.got.cif
#   From: 2010.06.25/outbox.cif.g09.slc.cpg/sg2_272_cif.got.tgz:543199.got - 2010.06.27 13:26:56.
