data_PCOD8037844
_publ_section_title
;
Structure prediction by ZEFSAII (Michael W. Deem and Ramdas Pophale) SiO2 
 PCOD8037844
Probable space group: P -1
;
_chemical_formula_sum "Si O2"
_cell_formula_units_Z 16
_cell_length_a 7.769495
_cell_length_b 15.531228
_cell_length_c 18.155434
_cell_angle_alpha 150.515990
_cell_angle_beta 113.994088
_cell_angle_gamma 84.724530
_cell_volume 800.539727
_symmetry_space_group_name_H-M "P -1"
_symmetry_group_IT_number 2
_symmetry_cell_setting 'triclinic'
loop_
_space_group_symop_operation_xyz
x,y,z
-x,-y,-z
loop_
_atom_site_type_symbol
_atom_site_label
_atom_site_fract_x
_atom_site_fract_y
_atom_site_fract_z
Si Si1 0.307257 0.537947 0.509786
Si Si2 0.671261 0.542872 0.814437
Si Si3 0.730776 0.699213 0.540010
Si Si4 0.997777 0.049778 0.740086
Si Si5 0.447221 0.058573 0.220423
Si Si6 0.994396 0.599139 0.788684
Si Si7 0.813017 0.137100 0.450612
Si Si8 0.503630 0.920086 0.520888
O O1 0.500000 0.500000 0.500000
O O2 0.194127 0.416806 0.477673
O O3 0.439592 0.797596 0.727446
O O4 0.118195 0.438768 0.338881
O O5 0.440150 0.479390 0.684030
O O6 0.868188 0.644230 0.862083
O O7 0.615561 0.332776 0.689667
O O8 0.768553 0.719116 0.027009
O O9 0.611610 0.805659 0.636078
O O10 0.959077 0.887689 0.678075
O O11 0.043696 0.966814 0.610326
O O12 0.770942 0.051288 0.693187
O O13 0.636013 0.044910 0.283565
O O14 0.246367 0.816993 0.985332
O O15 0.990521 0.397163 0.667324
O O16 0.658396 0.048208 0.431431
O O17 0.500000 0.000000 0.500000
#
# Coordination Sequence:
#
# PCOD8037844 Si02
#       8
#     2   2   2   2   2   2   2   2
#     4   9  17  28  48  85 114 143 199 243 273 327
#     4  10  18  35  57  82 110 149 190 223 276 342
#     4  10  18  33  52  83 116 143 196 242 272 324
#     4  11  22  37  61  84 112 153 185 224 285 332
#     4  10  17  32  53  79 112 150 191 234 277 324
#     4  10  17  32  57  79 112 158 190 233 289 319
#     4  10  21  39  57  85 117 144 189 231 268 345
#     4  10  22  42  62  86 117 140 177 233 279 339
#
# _framework density 19.986515000000001
#
# number of rings (size 3 to 8) (size 9 to 14) (size 15 to 20)
#    0.000    2.000    7.500    0.000    0.000    6.000 
#    0.000    3.125    0.000    4.500    0.000    0.000 
#    0.000    0.000    0.000    0.000    0.000    0.000 
#
# Total GULP energy -198222.978122 kJ/mol
# GULP energy per Si atom -12388.936133 kJ/mol
# Density = 1.994102 g / cm^3
# Si number density = 19.986515 Si / 1000 Ang^3
#
#
#
# Elastic Constant Matrix: (Units=GPa)
#
#
# Indices 1 2 3 4 5 6 
#
# 1 53.6417 21.2492 25.0327 2.6332 -7.5782 11.6522
# 2 21.2492 125.4047 30.8963 1.6582 5.9737 22.8461
# 3 25.0327 30.8963 130.7013 5.5281 15.2025 3.6919
# 4 2.6332 1.6582 5.5281 13.0570 4.2732 3.2731
# 5 -7.5782 5.9737 15.2025 4.2732 25.6659 -0.3788
# 6 11.6522 22.8461 3.6919 3.2731 -0.3788 15.2569
#
#
#
# Elastic Compliance Matrix: (Units=1/GPa)
#
#
# Indices 1 2 3 4 5 6 
#
# 1 0.027220 -0.000423 -0.005874 -0.002288 0.011731 -0.017951
# 2 -0.000423 0.011944 -0.002119 0.004916 -0.002737 -0.018171
# 3 -0.005874 -0.002119 0.009989 -0.001942 -0.006754 0.005490
# 4 -0.002288 0.004916 -0.001942 0.088560 -0.015776 -0.024535
# 5 0.011731 -0.002737 -0.006754 -0.015776 0.049710 0.001392
# 6 -0.017951 -0.018171 0.005490 -0.024535 0.001392 0.110434
#
#
# Mechanical properties :
#
#
# Convention : Reuss Voigt Hill
#
# Bulk Modulus (GPa) = 30.93910 51.56714 41.25312
# Shear Modulus (GPa) = 15.36274 26.30060 20.83167
#
# Velocity S-wave (km/s) = 2.77547 3.63149 3.23195
# Velocity P-wave (km/s) = 5.07785 6.59095 5.88325
#
# Compressibility (1/GPa) = 0.03232156
#
# Stress axis : x y z
#
# Youngs Moduli (GPa) = 36.73755 83.72633 100.10520
#
# Poissons Ratio (x) = 0.03544 0.58801
# Poissons Ratio (y) = 0.01555 0.21208
# Poissons Ratio (z) = 0.21579 0.17738
#
# Static dielectric constant tensor:
#      x y z
#    x 3.542170 0.206480 0.109330 
#    y 0.206480 3.713120 0.149230 
#    z 0.109330 0.149230 3.540230 
# 
# 
# High freq. dielectric constant tensor:
#      x y z
#    x 1.762590 0.010450 0.014410 
#    y 0.010450 1.764900 0.011290 
#    z 0.014410 0.011290 1.773790 
# 
# From -- ./inp_files/208516.got.cif
#   From: 2010.06.25/outbox.cif.g09.slc.cpg/sg2_105_cif.got.tgz:208516.got - 2010.06.27 13:26:56.
