data_PCOD8037804
_publ_section_title
;
Structure prediction by ZEFSAII (Michael W. Deem and Ramdas Pophale) SiO2 
 PCOD8037804
Probable space group: P -1
;
_chemical_formula_sum "Si O2"
_cell_formula_units_Z 14
_cell_length_a 11.981650
_cell_length_b 12.044371
_cell_length_c 5.355968
_cell_angle_alpha 68.473238
_cell_angle_beta 49.711344
_cell_angle_gamma 68.074793
_cell_volume 538.274397
_symmetry_space_group_name_H-M "P -1"
_symmetry_group_IT_number 2
_symmetry_cell_setting 'triclinic'
loop_
_space_group_symop_operation_xyz
x,y,z
-x,-y,-z
loop_
_atom_site_type_symbol
_atom_site_label
_atom_site_fract_x
_atom_site_fract_y
_atom_site_fract_z
Si Si1 0.575790 0.083159 0.641429
Si Si2 0.650490 0.498866 0.426636
Si Si3 0.023993 0.164423 0.471063
Si Si4 0.810334 0.893814 0.228486
Si Si5 0.068921 0.436133 0.205022
Si Si6 0.403180 0.269539 0.397757
Si Si7 0.706219 0.227482 0.703435
O O1 0.442421 0.190130 0.658187
O O2 0.703770 0.145802 0.529497
O O3 0.662797 0.001308 0.357813
O O4 0.500000 0.000000 0.000000
O O5 0.500000 0.500000 0.500000
O O6 0.620902 0.585838 0.640865
O O7 0.729814 0.363515 0.498578
O O8 0.757125 0.556077 0.040857
O O9 0.086987 0.093876 0.689242
O O10 0.054003 0.298540 0.328884
O O11 0.846263 0.166491 0.721571
O O12 0.099794 0.098287 0.165033
O O13 0.749987 0.766085 0.450971
O O14 0.000000 0.500000 0.500000
O O15 0.000000 0.500000 0.000000
O O16 0.545361 0.230295 0.051218
#
# Coordination Sequence:
#
# PCOD8037804 Si02
#       7
#     2   2   2   2   2   2   2
#     4  12  27  51  79 113 154 205 269 325 383 459
#     4  12  27  48  78 120 153 203 257 325 394 470
#     4  12  29  50  77 118 157 203 260 321 394 463
#     4  12  28  50  81 109 154 210 264 311 386 465
#     4  12  27  48  78 109 159 206 247 315 394 465
#     4  12  27  50  81 112 154 206 263 324 392 466
#     4  12  29  48  79 116 157 202 258 330 393 464
#
# _framework density 26.009039999999999
#
# number of rings (size 3 to 8) (size 9 to 14) (size 15 to 20)
#    0.000    0.000    5.714    2.571    8.000    1.143 
#    0.000    0.000    0.000    0.000    0.000    0.000 
#    0.000    0.000    0.000    0.000    0.000    0.000 
#
# Total GULP energy -173646.397957 kJ/mol
# GULP energy per Si atom -12403.314140 kJ/mol
# Density = 2.594984 g / cm^3
# Si number density = 26.009040 Si / 1000 Ang^3
#
#
#
# Elastic Constant Matrix: (Units=GPa)
#
#
# Indices 1 2 3 4 5 6 
#
# 1 124.1742 13.4281 28.2752 19.7727 -3.4291 9.3826
# 2 13.4281 113.9160 0.4881 14.2031 12.2944 16.2845
# 3 28.2752 0.4881 109.8410 27.4141 1.6217 5.3205
# 4 19.7727 14.2031 27.4141 46.4455 1.9609 0.3668
# 5 -3.4291 12.2944 1.6217 1.9609 48.8003 3.0782
# 6 9.3826 16.2845 5.3205 0.3668 3.0782 31.5831
#
#
#
# Elastic Compliance Matrix: (Units=1/GPa)
#
#
# Indices 1 2 3 4 5 6 
#
# 1 0.009112 -0.000506 -0.001540 -0.002843 0.001076 -0.002258
# 2 -0.000506 0.010234 0.001240 -0.003513 -0.002193 -0.005081
# 3 -0.001540 0.001240 0.011163 -0.006279 -0.000416 -0.001949
# 4 -0.002843 -0.003513 -0.006279 0.027512 -0.000428 0.003436
# 5 0.001076 -0.002193 -0.000416 -0.000428 0.021225 -0.001182
# 6 -0.002258 -0.005081 -0.001949 0.003436 -0.001182 0.035357
#
#
# Mechanical properties :
#
#
# Convention : Reuss Voigt Hill
#
# Bulk Modulus (GPa) = 34.60772 48.03488 41.32130
# Shear Modulus (GPa) = 39.73069 45.74844 42.73957
#
# Velocity S-wave (km/s) = 3.91266 4.19853 4.05811
# Velocity P-wave (km/s) = 5.80920 6.48168 6.15463
#
# Compressibility (1/GPa) = 0.02889529
#
# Stress axis : x y z
#
# Youngs Moduli (GPa) = 109.74948 97.71546 89.58333
#
# Poissons Ratio (x) = 0.04948 0.13799
# Poissons Ratio (y) = 0.05557 -0.11110
# Poissons Ratio (z) = 0.16905 -0.12118
#
# Static dielectric constant tensor:
#      x y z
#    x 4.939290 0.020670 -0.083050 
#    y 0.020670 5.161400 -0.073660 
#    z -0.083050 -0.073660 4.738880 
# 
# 
# High freq. dielectric constant tensor:
#      x y z
#    x 2.051500 0.010290 -0.014070 
#    y 0.010290 2.061700 -0.001190 
#    z -0.014070 -0.001190 2.039490 
# 
# From -- ./inp_files/28507.got.cif
#   From: 2010.06.25/outbox.cif.g09.slc.cpg/sg2_15_cif.got.tgz:28507.got - 2010.06.27 13:26:56.
