data_PCOD8037740
_publ_section_title
;
Structure prediction by ZEFSAII (Michael W. Deem and Ramdas Pophale) SiO2 
 PCOD8037740
Probable space group: P -1
;
_chemical_formula_sum "Si O2"
_cell_formula_units_Z 16
_cell_length_a 9.399882
_cell_length_b 9.221589
_cell_length_c 11.591872
_cell_angle_alpha 92.617225
_cell_angle_beta 53.356679
_cell_angle_gamma 78.428657
_cell_volume 772.157010
_symmetry_space_group_name_H-M "P -1"
_symmetry_group_IT_number 2
_symmetry_cell_setting 'triclinic'
loop_
_space_group_symop_operation_xyz
x,y,z
-x,-y,-z
loop_
_atom_site_type_symbol
_atom_site_label
_atom_site_fract_x
_atom_site_fract_y
_atom_site_fract_z
Si Si1 0.685707 0.037463 0.388857
Si Si2 0.118578 0.612518 0.437892
Si Si3 0.849800 0.920981 0.541596
Si Si4 0.036472 0.397852 0.092453
Si Si5 0.303117 0.627171 0.594269
Si Si6 0.662923 0.558682 0.874051
Si Si7 0.827364 0.936824 0.081258
Si Si8 0.467354 0.097609 0.133848
O O1 0.663552 0.214006 0.377723
O O2 0.500000 0.000000 0.500000
O O3 0.799770 0.990773 0.444961
O O4 0.780033 0.924532 0.236974
O O5 0.215908 0.642313 0.509319
O O6 0.273723 0.558403 0.264936
O O7 0.000000 0.500000 0.500000
O O8 0.954445 0.747927 0.475416
O O9 0.681745 0.950274 0.715279
O O10 0.000000 0.000000 0.500000
O O11 0.175125 0.452463 0.111428
O O12 0.840723 0.414818 0.250152
O O13 0.133463 0.223805 0.006609
O O14 0.000000 0.500000 0.000000
O O15 0.500000 0.500000 0.500000
O O16 0.595593 0.726607 0.861032
O O17 0.500000 0.500000 0.000000
O O18 0.659839 0.061114 0.106527
O O19 0.000000 0.000000 0.000000
O O20 0.500000 0.000000 0.000000
#
# Coordination Sequence:
#
# PCOD8037740 Si02
#       8
#     2   2   2   2   2   2   2   2
#     4  12  28  47  73 110 144 192 243 290 361 430
#     4  12  26  48  76 105 146 192 242 297 359 427
#     4  12  27  47  76 106 144 190 244 301 356 423
#     4  12  29  51  71 109 148 190 242 300 359 431
#     4  12  29  49  75 106 150 189 240 302 358 429
#     4  12  30  48  76 108 145 193 243 295 366 427
#     4  12  28  47  77 104 148 194 238 295 362 427
#     4  12  27  49  74 104 149 188 242 304 355 424
#
# _framework density 20.721174999999999
#
# number of rings (size 3 to 8) (size 9 to 14) (size 15 to 20)
#    0.000    0.000    7.500    0.000   14.000    0.000 
#    0.000    0.000    0.000    0.000    0.000    0.000 
#    0.000    0.000    0.000    0.000    0.000    0.000 
#
# Total GULP energy -198333.685342 kJ/mol
# GULP energy per Si atom -12395.855334 kJ/mol
# Density = 2.067401 g / cm^3
# Si number density = 20.721175 Si / 1000 Ang^3
#
#
#
# Elastic Constant Matrix: (Units=GPa)
#
#
# Indices 1 2 3 4 5 6 
#
# 1 134.8985 40.9765 60.8312 -12.7044 -11.6902 -4.8002
# 2 40.9765 90.6481 35.7286 0.0862 -6.9548 -8.5565
# 3 60.8312 35.7286 180.6408 -1.9023 -4.4426 0.5409
# 4 -12.7044 0.0862 -1.9023 41.2001 5.2288 -1.8536
# 5 -11.6902 -6.9548 -4.4426 5.2288 45.7537 -2.8470
# 6 -4.8002 -8.5565 0.5409 -1.8536 -2.8470 45.6328
#
#
#
# Elastic Compliance Matrix: (Units=1/GPa)
#
#
# Indices 1 2 3 4 5 6 
#
# 1 0.010040 -0.003312 -0.002661 0.002817 0.001524 0.000676
# 2 -0.003312 0.013445 -0.001531 -0.001188 0.001323 0.002225
# 3 -0.002661 -0.001531 0.006725 -0.000507 -0.000244 -0.000682
# 4 0.002817 -0.001188 -0.000507 0.025463 -0.002360 0.000967
# 5 0.001524 0.001323 -0.000244 -0.002360 0.022801 0.001738
# 6 0.000676 0.002225 -0.000682 0.000967 0.001738 0.022558
#
#
# Mechanical properties :
#
#
# Convention : Reuss Voigt Hill
#
# Bulk Modulus (GPa) = 65.77327 75.69554 70.73440
# Shear Modulus (GPa) = 41.28610 44.42742 42.85676
#
# Velocity S-wave (km/s) = 4.46854 4.63542 4.55275
# Velocity P-wave (km/s) = 7.64426 8.07833 7.86429
#
# Compressibility (1/GPa) = 0.01520375
#
# Stress axis : x y z
#
# Youngs Moduli (GPa) = 99.59872 74.37902 148.69076
#
# Poissons Ratio (x) = 0.24632 0.39566
# Poissons Ratio (y) = 0.32985 0.22758
# Poissons Ratio (z) = 0.26503 0.11384
#
# Static dielectric constant tensor:
#      x y z
#    x 3.911760 0.020610 -0.024450 
#    y 0.020610 4.091620 0.184610 
#    z -0.024450 0.184610 4.205210 
# 
# 
# High freq. dielectric constant tensor:
#      x y z
#    x 1.833300 0.001880 -0.000800 
#    y 0.001880 1.823130 -0.000160 
#    z -0.000800 -0.000160 1.834420 
# 
# From -- ./inp_files/187807.got.cif
#   From: 2010.06.25/outbox.cif.g09.slc.cpg/sg2_94_cif.got.tgz:187807.got - 2010.06.27 13:26:56.
