data_PCOD8037821
_publ_section_title
;
Structure prediction by ZEFSAII (Michael W. Deem and Ramdas Pophale) SiO2 
 PCOD8037821
Probable space group: P -1
;
_chemical_formula_sum "Si O2"
_cell_formula_units_Z 14
_cell_length_a 10.061174
_cell_length_b 12.246524
_cell_length_c 12.209642
_cell_angle_alpha 52.452598
_cell_angle_beta 81.905234
_cell_angle_gamma 123.589226
_cell_volume 685.725418
_symmetry_space_group_name_H-M "P -1"
_symmetry_group_IT_number 2
_symmetry_cell_setting 'triclinic'
loop_
_space_group_symop_operation_xyz
x,y,z
-x,-y,-z
loop_
_atom_site_type_symbol
_atom_site_label
_atom_site_fract_x
_atom_site_fract_y
_atom_site_fract_z
Si Si1 0.736784 0.801742 0.525453
Si Si2 0.198149 0.186836 0.724731
Si Si3 0.345173 0.672974 0.121293
Si Si4 0.929265 0.157881 0.459785
Si Si5 0.327761 0.276637 0.890648
Si Si6 0.179317 0.488928 0.498647
Si Si7 0.302146 0.868885 0.312594
O O1 0.718387 0.824209 0.385772
O O2 0.934573 0.848054 0.485217
O O3 0.483802 0.536706 0.751746
O O4 0.798241 0.986990 0.475014
O O5 0.349308 0.265985 0.763268
O O6 0.243135 0.388021 0.586606
O O7 0.935907 0.918324 0.932033
O O8 0.123576 0.428838 0.229785
O O9 0.572340 0.767093 0.026381
O O10 0.269535 0.614154 0.292309
O O11 0.443433 0.892848 0.917680
O O12 0.737589 0.073276 0.608697
O O13 0.284844 0.689347 0.449433
O O14 0.900710 0.265495 0.668840
#
# Coordination Sequence:
#
# PCOD8037821 Si02
#       7
#     2   2   2   2   2   2   2
#     4  10  18  33  48  71 100 127 158 199 235 288
#     4  11  19  33  48  77  98 124 160 198 237 291
#     4  10  17  32  49  76  96 126 158 197 241 284
#     4   9  19  31  49  71  98 129 160 191 242 282
#     4  10  20  30  52  73  98 126 158 197 246 277
#     4  10  19  29  49  71 102 125 159 193 241 283
#     4  10  18  32  47  72 102 127 154 200 233 288
#
# _framework density 20.416335
#
# number of rings (size 3 to 8) (size 9 to 14) (size 15 to 20)
#    0.000    2.000    5.714    0.857    0.000    1.143 
#    0.000    4.286    0.000    0.857    0.000    3.000 
#    0.000    0.000    0.000    0.000    0.000    0.000 
#
# Total GULP energy -173451.851619 kJ/mol
# GULP energy per Si atom -12389.417973 kJ/mol
# Density = 2.036987 g / cm^3
# Si number density = 20.416335 Si / 1000 Ang^3
#
#
#
# Elastic Constant Matrix: (Units=GPa)
#
#
# Indices 1 2 3 4 5 6 
#
# 1 16.0200 18.1627 15.0233 -3.7926 0.0182 -7.6728
# 2 18.1627 118.2753 53.5716 -20.1714 6.2787 -23.0274
# 3 15.0233 53.5716 123.9891 -21.6416 -3.5647 -9.0379
# 4 -3.7926 -20.1714 -21.6416 28.0714 2.5359 -0.9010
# 5 0.0182 6.2787 -3.5647 2.5359 20.0076 -3.9445
# 6 -7.6728 -23.0274 -9.0379 -0.9010 -3.9445 25.2554
#
#
#
# Elastic Compliance Matrix: (Units=1/GPa)
#
#
# Indices 1 2 3 4 5 6 
#
# 1 0.084556 -0.006743 -0.005413 0.002601 0.004368 0.018378
# 2 -0.006743 0.014425 -0.003559 0.007396 -0.004232 0.009433
# 3 -0.005413 -0.003559 0.011197 0.005116 0.002404 -0.000324
# 4 0.002601 0.007396 0.005116 0.046034 -0.005238 0.010189
# 5 0.004368 -0.004232 0.002404 -0.005238 0.053684 0.006526
# 6 0.018378 0.009433 -0.000324 0.010189 0.006526 0.055047
#
#
# Mechanical properties :
#
#
# Convention : Reuss Voigt Hill
#
# Bulk Modulus (GPa) = 12.69856 47.97774 30.33815
# Shear Modulus (GPa) = 15.49805 26.10200 20.80003
#
# Velocity S-wave (km/s) = 2.75817 3.57947 3.19532
# Velocity P-wave (km/s) = 4.04680 6.37449 5.33905
#
# Compressibility (1/GPa) = 0.07874911
#
# Stress axis : x y z
#
# Youngs Moduli (GPa) = 11.82648 69.32538 89.30842
#
# Poissons Ratio (x) = 0.46748 0.48339
# Poissons Ratio (y) = 0.07975 0.31781
# Poissons Ratio (z) = 0.06401 0.24670
#
# Static dielectric constant tensor:
#      x y z
#    x 3.368570 -0.108790 -0.042070 
#    y -0.108790 3.675150 -0.246420 
#    z -0.042070 -0.246420 3.842770 
# 
# 
# High freq. dielectric constant tensor:
#      x y z
#    x 1.752780 -0.012630 -0.015320 
#    y -0.012630 1.778840 -0.023380 
#    z -0.015320 -0.023380 1.813350 
# 
# From -- ./inp_files/423446.got.cif
#   From: 2010.06.25/outbox.cif.g09.slc.cpg/sg2_212_cif.got.tgz:423446.got - 2010.06.27 13:26:56.
