data_PCOD8037372
_publ_section_title
;
Structure prediction by ZEFSAII (Michael W. Deem and Ramdas Pophale) SiO2 
 PCOD8037372
Probable space group: P -1
;
_chemical_formula_sum "Si O2"
_cell_formula_units_Z 16
_cell_length_a 23.886888
_cell_length_b 8.892219
_cell_length_c 9.149100
_cell_angle_alpha 45.417460
_cell_angle_beta 133.433470
_cell_angle_gamma 146.932691
_cell_volume 730.155805
_symmetry_space_group_name_H-M "P -1"
_symmetry_group_IT_number 2
_symmetry_cell_setting 'triclinic'
loop_
_space_group_symop_operation_xyz
x,y,z
-x,-y,-z
loop_
_atom_site_type_symbol
_atom_site_label
_atom_site_fract_x
_atom_site_fract_y
_atom_site_fract_z
Si Si1 0.995704 0.213949 0.929019
Si Si2 0.635652 0.260475 0.816063
Si Si3 0.447885 0.588684 0.935124
Si Si4 0.274386 0.351279 0.563089
Si Si5 0.601055 0.603395 0.695218
Si Si6 0.180043 0.788902 0.389328
Si Si7 0.078523 0.266299 0.352581
Si Si8 0.192901 0.741173 0.766497
O O1 0.082673 0.535522 0.796856
O O2 0.880627 0.101739 0.775509
O O3 0.013209 0.224417 0.125334
O O4 0.000000 0.000000 0.000000
O O5 0.651622 0.392380 0.596034
O O6 0.632677 0.430449 0.819226
O O7 0.524104 0.932558 0.843101
O O8 0.732390 0.288309 0.003640
O O9 0.337398 0.453109 0.758266
O O10 0.500000 0.500000 0.000000
O O11 0.425194 0.451129 0.145409
O O12 0.167373 0.274528 0.451119
O O13 0.247597 0.071453 0.643169
O O14 0.500000 0.500000 0.500000
O O15 0.697548 0.944900 0.610454
O O16 0.128521 0.560428 0.322322
O O17 0.172788 0.645178 0.626247
O O18 0.000000 0.000000 0.500000
#
# Coordination Sequence:
#
# PCOD8037372 Si02
#       8
#     2   2   2   2   2   2   2   2
#     4  12  25  48  78 108 148 199 246 299 375 443
#     4  12  25  50  73 106 148 196 249 303 368 438
#     4  12  27  45  76 108 147 193 247 308 367 438
#     4  12  26  47  74 109 146 196 245 305 372 435
#     4  12  28  48  75 111 149 196 251 302 372 441
#     4  12  27  45  75 108 151 195 248 307 365 443
#     4  12  28  46  72 113 155 190 247 309 369 441
#     4  12  24  48  75 107 147 193 246 299 366 442
#
# _framework density 21.913132000000001
#
# number of rings (size 3 to 8) (size 9 to 14) (size 15 to 20)
#    0.000    0.000    3.750    6.000    8.750    0.000 
#    0.000    0.000    0.000    0.000    0.000    0.000 
#    0.000    0.000    0.000    0.000    0.000    0.000 
#
# Total GULP energy -198563.604141 kJ/mol
# GULP energy per Si atom -12410.225259 kJ/mol
# Density = 2.186326 g / cm^3
# Si number density = 21.913132 Si / 1000 Ang^3
#
#
#
# Elastic Constant Matrix: (Units=GPa)
#
#
# Indices 1 2 3 4 5 6 
#
# 1 98.5006 25.7734 36.4681 -4.4631 -12.6084 3.0084
# 2 25.7734 114.2019 41.1368 -0.6067 -12.3804 8.4702
# 3 36.4681 41.1368 143.5246 6.3296 -26.8595 11.2671
# 4 -4.4631 -0.6067 6.3296 39.3323 2.9829 -2.2095
# 5 -12.6084 -12.3804 -26.8595 2.9829 54.0718 -2.4769
# 6 3.0084 8.4702 11.2671 -2.2095 -2.4769 48.4114
#
#
#
# Elastic Compliance Matrix: (Units=1/GPa)
#
#
# Indices 1 2 3 4 5 6 
#
# 1 0.011673 -0.001671 -0.002375 0.001613 0.001082 0.000249
# 2 -0.001671 0.010109 -0.002258 0.000212 0.000742 -0.001092
# 3 -0.002375 -0.002258 0.009081 -0.002114 0.003489 -0.001489
# 4 0.001613 0.000212 -0.002114 0.026184 -0.002004 0.001447
# 5 0.001082 0.000742 0.003489 -0.002004 0.020758 -0.000038
# 6 0.000249 -0.001092 -0.001489 0.001447 -0.000038 0.021242
#
#
# Mechanical properties :
#
#
# Convention : Reuss Voigt Hill
#
# Bulk Modulus (GPa) = 54.78004 62.55374 58.66689
# Shear Modulus (GPa) = 42.46616 45.21970 43.84293
#
# Velocity S-wave (km/s) = 4.40697 4.54760 4.47784
# Velocity P-wave (km/s) = 7.13780 7.49550 7.31883
#
# Compressibility (1/GPa) = 0.01825482
#
# Stress axis : x y z
#
# Youngs Moduli (GPa) = 85.66878 98.91793 110.12033
#
# Poissons Ratio (x) = 0.16534 0.26155
# Poissons Ratio (y) = 0.14319 0.24861
# Poissons Ratio (z) = 0.20347 0.22332
#
# Static dielectric constant tensor:
#      x y z
#    x 3.880980 -0.145130 0.045390 
#    y -0.145130 4.081200 0.118640 
#    z 0.045390 0.118640 4.063370 
# 
# 
# High freq. dielectric constant tensor:
#      x y z
#    x 1.873110 0.003240 -0.003990 
#    y 0.003240 1.877210 0.002750 
#    z -0.003990 0.002750 1.880540 
# 
# From -- ./inp_files/91031.got.cif
#   From: 2010.06.25/outbox.cif.g09.slc.cpg/sg2_46_cif.got.tgz:91031.got - 2010.06.27 13:26:56.
