data_PCOD8037511
_publ_section_title
;
Structure prediction by ZEFSAII (Michael W. Deem and Ramdas Pophale) SiO2 
 PCOD8037511
Probable space group: P -1
;
_chemical_formula_sum "Si O2"
_cell_formula_units_Z 12
_cell_length_a 8.851650
_cell_length_b 8.428474
_cell_length_c 9.505292
_cell_angle_alpha 78.826717
_cell_angle_beta 69.055943
_cell_angle_gamma 53.861598
_cell_volume 534.731441
_symmetry_space_group_name_H-M "P -1"
_symmetry_group_IT_number 2
_symmetry_cell_setting 'triclinic'
loop_
_space_group_symop_operation_xyz
x,y,z
-x,-y,-z
loop_
_atom_site_type_symbol
_atom_site_label
_atom_site_fract_x
_atom_site_fract_y
_atom_site_fract_z
Si Si1 0.716142 0.437112 0.474988
Si Si2 0.919749 0.236145 0.719499
Si Si3 0.316769 0.167982 0.617897
Si Si4 0.969165 0.179667 0.182714
Si Si5 0.697526 0.454296 0.009170
Si Si6 0.321980 0.178137 0.944790
O O1 0.500000 0.500000 0.500000
O O2 0.765210 0.339144 0.628024
O O3 0.722995 0.625067 0.441110
O O4 0.885618 0.273812 0.345799
O O5 0.137096 0.166034 0.615598
O O6 0.851293 0.392398 0.841817
O O7 0.916815 0.053687 0.806200
O O8 0.343976 0.122486 0.782825
O O9 0.500000 0.000000 0.500000
O O10 0.784792 0.273068 0.120713
O O11 0.116974 0.231771 0.066406
O O12 0.666542 0.636025 0.073958
O O13 0.500000 0.500000 0.000000
O O14 0.500000 0.000000 0.000000
#
# Coordination Sequence:
#
# PCOD8037511 Si02
#       6
#     2   2   2   2   2   2
#     4  12  27  48  73 104 147 192 241 294 358 424
#     4  12  27  45  75 107 143 192 237 296 358 427
#     4  12  28  49  72 105 148 189 241 295 359 428
#     4  12  25  49  74 106 147 184 244 294 358 425
#     4  12  25  46  74 106 143 184 239 297 355 425
#     4  12  28  46  76 107 143 190 240 300 357 421
#
# _framework density 22.441172000000002
#
# number of rings (size 3 to 8) (size 9 to 14) (size 15 to 20)
#    0.000    0.000    3.333    6.000    9.333    0.000 
#    0.000    0.000    0.000    0.000    0.000    0.000 
#    0.000    0.000    0.000    0.000    0.000    0.000 
#
# Total GULP energy -148890.914892 kJ/mol
# GULP energy per Si atom -12407.576241 kJ/mol
# Density = 2.239009 g / cm^3
# Si number density = 22.441172 Si / 1000 Ang^3
#
#
#
# Elastic Constant Matrix: (Units=GPa)
#
#
# Indices 1 2 3 4 5 6 
#
# 1 112.0180 39.2136 20.8840 -13.9095 4.8369 -1.6650
# 2 39.2136 110.1845 50.6736 -15.8703 14.7936 -11.5564
# 3 20.8840 50.6736 116.8367 1.7497 17.8669 1.5346
# 4 -13.9095 -15.8703 1.7497 58.1899 -9.0509 6.4694
# 5 4.8369 14.7936 17.8669 -9.0509 43.1155 -7.4555
# 6 -1.6650 -11.5564 1.5346 6.4694 -7.4555 35.3509
#
#
#
# Elastic Compliance Matrix: (Units=1/GPa)
#
#
# Indices 1 2 3 4 5 6 
#
# 1 0.010380 -0.003369 -0.000472 0.001731 0.000408 -0.000823
# 2 -0.003369 0.013564 -0.005227 0.002479 -0.000923 0.003854
# 3 -0.000472 -0.005227 0.011569 -0.002193 -0.003866 -0.002647
# 4 0.001731 0.002479 -0.002193 0.019091 0.003568 -0.001754
# 5 0.000408 -0.000923 -0.003866 0.003568 0.026655 0.004854
# 6 -0.000823 0.003854 -0.002647 -0.001754 0.004854 0.030969
#
#
# Mechanical properties :
#
#
# Convention : Reuss Voigt Hill
#
# Bulk Modulus (GPa) = 57.54714 62.28685 59.91700
# Shear Modulus (GPa) = 36.72288 42.54911 39.63600
#
# Velocity S-wave (km/s) = 4.04964 4.35907 4.20720
# Velocity P-wave (km/s) = 6.89676 7.29048 7.09635
#
# Compressibility (1/GPa) = 0.01737706
#
# Stress axis : x y z
#
# Youngs Moduli (GPa) = 96.34375 73.72564 86.43632
#
# Poissons Ratio (x) = 0.24836 0.04078
# Poissons Ratio (y) = 0.32455 0.45182
# Poissons Ratio (z) = 0.04545 0.38538
#
# Static dielectric constant tensor:
#      x y z
#    x 4.106880 -0.090130 0.090920 
#    y -0.090130 4.233050 -0.023170 
#    z 0.090920 -0.023170 4.240130 
# 
# 
# High freq. dielectric constant tensor:
#      x y z
#    x 1.893360 -0.009790 0.003750 
#    y -0.009790 1.900090 0.001760 
#    z 0.003750 0.001760 1.901070 
# 
# From -- ./inp_files/148591.got.cif
#   From: 2010.06.25/outbox.cif.g09.slc.cpg/sg2_75_cif.got.tgz:148591.got - 2010.06.27 13:26:56.
