data_PCOD8037650
_publ_section_title
;
Structure prediction by ZEFSAII (Michael W. Deem and Ramdas Pophale) SiO2 
 PCOD8037650
Probable space group: P -1
;
_chemical_formula_sum "Si O2"
_cell_formula_units_Z 14
_cell_length_a 18.839973
_cell_length_b 12.365643
_cell_length_c 9.431040
_cell_angle_alpha 46.182499
_cell_angle_beta 142.966159
_cell_angle_gamma 154.114209
_cell_volume 574.934102
_symmetry_space_group_name_H-M "P -1"
_symmetry_group_IT_number 2
_symmetry_cell_setting 'triclinic'
loop_
_space_group_symop_operation_xyz
x,y,z
-x,-y,-z
loop_
_atom_site_type_symbol
_atom_site_label
_atom_site_fract_x
_atom_site_fract_y
_atom_site_fract_z
Si Si1 0.651579 0.491970 0.022564
Si Si2 0.227693 0.119066 0.960352
Si Si3 0.315286 0.873725 0.242186
Si Si4 0.229403 0.124528 0.649791
Si Si5 0.189422 0.334638 0.182320
Si Si6 0.691363 0.210553 0.017698
Si Si7 0.945127 0.594747 0.566946
O O1 0.631872 0.616023 0.982453
O O2 0.770333 0.468514 0.296740
O O3 0.425432 0.217346 0.881600
O O4 0.758865 0.654372 0.905171
O O5 0.171416 0.129300 0.707623
O O6 0.042991 0.910139 0.956328
O O7 0.318792 0.049181 0.140352
O O8 0.130462 0.588532 0.260066
O O9 0.500000 0.000000 0.500000
O O10 0.328940 0.880925 0.087926
O O11 0.286247 0.315205 0.461397
O O12 0.039048 0.842330 0.550352
O O13 0.270942 0.577095 0.136687
O O14 0.875088 0.317576 0.296169
O O15 0.500000 0.000000 0.000000
#
# Coordination Sequence:
#
# PCOD8037650 Si02
#       7
#     2   2   2   2   2   2   2
#     4  12  29  48  76 117 152 200 253 314 385 451
#     4  12  25  49  76 111 153 199 255 309 385 455
#     4  12  28  50  79 116 153 204 260 314 380 457
#     4  12  26  49  77 112 151 201 253 313 379 456
#     4  12  27  49  75 111 157 198 252 316 386 448
#     4  12  28  50  78 111 156 208 253 315 387 446
#     4  12  26  50  82 109 158 196 261 315 373 461
#
# _framework density 24.350617
#
# number of rings (size 3 to 8) (size 9 to 14) (size 15 to 20)
#    0.000    0.000    4.286    4.714    6.000    1.714 
#    0.000    0.000    0.000    0.000    0.000    0.000 
#    0.000    0.000    0.000    0.000    0.000    0.000 
#
# Total GULP energy -173561.466760 kJ/mol
# GULP energy per Si atom -12397.247626 kJ/mol
# Density = 2.429519 g / cm^3
# Si number density = 24.350617 Si / 1000 Ang^3
#
#
#
# Elastic Constant Matrix: (Units=GPa)
#
#
# Indices 1 2 3 4 5 6 
#
# 1 76.2267 23.8692 -43.2321 -29.6964 2.2219 -34.2055
# 2 23.8692 53.4344 87.4782 -22.6414 6.5231 18.5399
# 3 -43.2321 87.4782 -44.6960 -32.6180 16.5455 -96.8677
# 4 -29.6964 -22.6414 -32.6180 46.1740 10.0215 -3.8916
# 5 2.2219 6.5231 16.5455 10.0215 40.7777 -5.1546
# 6 -34.2055 18.5399 -96.8677 -3.8916 -5.1546 -1.3375
#
#
#
# Elastic Compliance Matrix: (Units=1/GPa)
#
#
# Indices 1 2 3 4 5 6 
#
# 1 0.011717 0.004699 -0.003397 0.007718 -0.002211 -0.002395
# 2 0.004699 0.018722 0.001554 0.015405 -0.006686 0.007764
# 3 -0.003397 0.001554 0.001723 -0.000542 -0.001679 -0.008303
# 4 0.007718 0.015405 -0.000542 0.036098 -0.011977 -0.003483
# 5 -0.002211 -0.006686 -0.001679 -0.011977 0.029954 0.004873
# 6 -0.002395 0.007764 -0.008303 -0.003483 0.004873 0.013916
#
#
# Mechanical properties :
#
#
# Convention : Reuss Voigt Hill
#
# Bulk Modulus (GPa) = 26.40451 24.57734 25.49092
# Shear Modulus (GPa) = 42.00127 18.24616 30.12372
#
# Velocity S-wave (km/s) = 4.15764 2.74032 3.52103
# Velocity P-wave (km/s) = 5.82366 4.48637 5.19820
#
# Compressibility (1/GPa) = 0.03787232
#
# Stress axis : x y z
#
# Youngs Moduli (GPa) = 85.34540 53.41315 580.44897
#
# Poissons Ratio (x) = -0.25099 1.97206
# Poissons Ratio (y) = -0.40104 -0.90182
# Poissons Ratio (z) = 0.28996 -0.08299
#
# Static dielectric constant tensor:
#      x y z
#    x 4.449700 0.044010 0.050110 
#    y 0.044010 4.832090 -0.628270 
#    z 0.050110 -0.628270 4.641800 
# 
# 
# High freq. dielectric constant tensor:
#      x y z
#    x 1.971000 0.010850 0.012380 
#    y 0.010850 1.991710 -0.010060 
#    z 0.012380 -0.010060 1.975750 
# 
# From -- ./inp_files/332975.got.cif
#   From: 2010.06.25/outbox.cif.g09.slc.cpg/sg2_167_cif.got.tgz:332975.got - 2010.06.27 13:26:56.
