data_PCOD8037871
_publ_section_title
;
Structure prediction by ZEFSAII (Michael W. Deem and Ramdas Pophale) SiO2 
 PCOD8037871
Probable space group: P -1
;
_chemical_formula_sum "Si O2"
_cell_formula_units_Z 14
_cell_length_a 12.276922
_cell_length_b 6.294359
_cell_length_c 15.001147
_cell_angle_alpha 100.608301
_cell_angle_beta 41.730715
_cell_angle_gamma 96.425489
_cell_volume 757.848516
_symmetry_space_group_name_H-M "P -1"
_symmetry_group_IT_number 2
_symmetry_cell_setting 'triclinic'
loop_
_space_group_symop_operation_xyz
x,y,z
-x,-y,-z
loop_
_atom_site_type_symbol
_atom_site_label
_atom_site_fract_x
_atom_site_fract_y
_atom_site_fract_z
Si Si1 0.543186 0.440092 0.109925
Si Si2 0.336830 0.081879 0.287948
Si Si3 0.716720 0.294082 0.825227
Si Si4 0.437536 0.842684 0.600535
Si Si5 0.336183 0.533552 0.504598
Si Si6 0.058080 0.383326 0.544745
Si Si7 0.460537 0.204427 0.732373
O O1 0.468658 0.267631 0.210433
O O2 0.390537 0.531083 0.152031
O O3 0.628950 0.631426 0.129111
O O4 0.681978 0.328946 0.954149
O O5 0.160191 0.171830 0.433962
O O6 0.324200 0.952527 0.192371
O O7 0.386051 0.908109 0.319421
O O8 0.906931 0.323615 0.693464
O O9 0.310294 0.674362 0.623256
O O10 0.595875 0.709192 0.534011
O O11 0.500000 0.000000 0.500000
O O12 0.357198 0.005598 0.738771
O O13 0.169630 0.532389 0.550068
O O14 0.476492 0.648707 0.373695
O O15 0.000000 0.500000 0.500000
#
# Coordination Sequence:
#
# PCOD8037871 Si02
#       7
#     2   2   2   2   2   2   2
#     4  10  19  35  49  73 107 144 184 216 250 319
#     4  11  19  34  53  74 106 143 181 213 264 316
#     4  10  22  32  49  74 108 146 179 215 261 313
#     4   9  18  32  54  80 106 138 175 227 264 308
#     4  10  19  33  52  82 111 133 178 223 266 310
#     4  12  20  35  53  80 114 142 169 222 269 316
#     4  10  17  32  56  78 103 136 180 220 264 308
#
# _framework density 18.473348000000001
#
# number of rings (size 3 to 8) (size 9 to 14) (size 15 to 20)
#    0.000    1.714    4.286    1.714    0.000    0.000 
#    0.000    0.000    0.000    0.857    0.000   14.000 
#    0.000    0.000    0.000    0.000    0.000    0.000 
#
# Total GULP energy -173444.904017 kJ/mol
# GULP energy per Si atom -12388.921715 kJ/mol
# Density = 1.843130 g / cm^3
# Si number density = 18.473348 Si / 1000 Ang^3
#
#
#
# Elastic Constant Matrix: (Units=GPa)
#
#
# Indices 1 2 3 4 5 6 
#
# 1 98.3182 39.5294 24.3168 13.6988 13.0068 21.2892
# 2 39.5294 99.4537 37.6639 16.3213 10.5785 17.2414
# 3 24.3168 37.6639 97.6376 19.3894 9.5943 10.2945
# 4 13.6988 16.3213 19.3894 29.5247 9.0580 18.1937
# 5 13.0068 10.5785 9.5943 9.0580 19.3373 8.7448
# 6 21.2892 17.2414 10.2945 18.1937 8.7448 46.8687
#
#
#
# Elastic Compliance Matrix: (Units=1/GPa)
#
#
# Indices 1 2 3 4 5 6 
#
# 1 0.013354 -0.003811 -0.001062 0.000362 -0.004885 -0.003660
# 2 -0.003811 0.013689 -0.003619 -0.002084 -0.001512 -0.001419
# 3 -0.001062 -0.003619 0.013218 -0.006876 -0.001483 0.001856
# 4 0.000362 -0.002084 -0.006876 0.053422 -0.013426 -0.016120
# 5 -0.004885 -0.001512 -0.001483 -0.013426 0.064537 -0.003729
# 6 -0.003660 -0.001419 0.001856 -0.016120 -0.003729 0.030066
#
#
# Mechanical properties :
#
#
# Convention : Reuss Voigt Hill
#
# Bulk Modulus (GPa) = 42.96094 55.38108 49.17101
# Shear Modulus (GPa) = 23.47081 32.07277 27.77179
#
# Velocity S-wave (km/s) = 3.56831 4.17125 3.88150
# Velocity P-wave (km/s) = 6.34690 7.29679 6.83836
#
# Compressibility (1/GPa) = 0.02327696
#
# Stress axis : x y z
#
# Youngs Moduli (GPa) = 74.88259 73.05043 75.65416
#
# Poissons Ratio (x) = 0.27840 0.08032
# Poissons Ratio (y) = 0.28538 0.27383
# Poissons Ratio (z) = 0.07950 0.26440
#
# Static dielectric constant tensor:
#      x y z
#    x 3.660460 0.361360 0.472840 
#    y 0.361360 3.833450 0.303000 
#    z 0.472840 0.303000 3.214640 
# 
# 
# High freq. dielectric constant tensor:
#      x y z
#    x 1.707340 0.010090 0.042370 
#    y 0.010090 1.741410 0.012840 
#    z 0.042370 0.012840 1.671010 
# 
# From -- ./inp_files/37221.got.cif
#   From: 2010.06.25/outbox.cif.g09.slc.cpg/sg2_19_cif.got.tgz:37221.got - 2010.06.27 13:26:56.
