data_PCOD8037336
_publ_section_title
;
Structure prediction by ZEFSAII (Michael W. Deem and Ramdas Pophale) SiO2 
 PCOD8037336
Probable space group: P -1
;
_chemical_formula_sum "Si O2"
_cell_formula_units_Z 14
_cell_length_a 8.653986
_cell_length_b 15.014079
_cell_length_c 9.263486
_cell_angle_alpha 55.387901
_cell_angle_beta 104.666439
_cell_angle_gamma 141.723134
_cell_volume 568.108607
_symmetry_space_group_name_H-M "P -1"
_symmetry_group_IT_number 2
_symmetry_cell_setting 'triclinic'
loop_
_space_group_symop_operation_xyz
x,y,z
-x,-y,-z
loop_
_atom_site_type_symbol
_atom_site_label
_atom_site_fract_x
_atom_site_fract_y
_atom_site_fract_z
Si Si1 0.728081 0.741665 0.992684
Si Si2 0.951475 0.358648 0.192975
Si Si3 0.816127 0.068246 0.279896
Si Si4 0.584734 0.364490 0.735477
Si Si5 0.717821 0.513559 0.332386
Si Si6 0.492313 0.226869 0.327546
Si Si7 0.335632 0.820599 0.207834
O O1 0.539087 0.700007 0.871902
O O2 0.027293 0.898880 0.850398
O O3 0.697027 0.786354 0.099535
O O4 0.621086 0.562191 0.168362
O O5 0.943956 0.254709 0.173371
O O6 0.656344 0.210776 0.328888
O O7 0.182382 0.457613 0.271918
O O8 0.000000 0.500000 0.000000
O O9 0.801512 0.978894 0.497401
O O10 0.497411 0.896690 0.325300
O O11 0.555087 0.419347 0.532221
O O12 0.668904 0.289122 0.788298
O O13 0.660873 0.373875 0.360414
O O14 0.032798 0.693639 0.281968
O O15 0.500000 0.000000 0.000000
#
# Coordination Sequence:
#
# PCOD8037336 Si02
#       7
#     2   2   2   2   2   2   2
#     4  12  28  46  71 108 152 197 231 298 365 446
#     4  12  24  47  79 108 140 191 251 300 352 432
#     4  12  27  48  73 109 148 190 241 300 365 427
#     4  12  26  48  76 108 145 190 246 299 359 429
#     4  12  25  49  75 107 144 194 243 301 362 426
#     4  12  25  48  76 106 147 191 245 297 364 430
#     4  12  24  48  78 103 146 188 242 308 358 420
#
# _framework density 24.643177000000001
#
# number of rings (size 3 to 8) (size 9 to 14) (size 15 to 20)
#    0.000    0.000    5.714    4.714    2.000    0.571 
#    0.000    0.000    0.000    0.000    0.000    0.000 
#    0.000    0.000    0.000    0.000    0.000    0.000 
#
# Total GULP energy -173520.907147 kJ/mol
# GULP energy per Si atom -12394.350511 kJ/mol
# Density = 2.458709 g / cm^3
# Si number density = 24.643177 Si / 1000 Ang^3
#
#
#
# Elastic Constant Matrix: (Units=GPa)
#
#
# Indices 1 2 3 4 5 6 
#
# 1 112.3356 28.5645 52.2517 4.9428 -12.5047 -2.9013
# 2 28.5645 88.3231 21.7567 4.1043 -1.2265 -6.9129
# 3 52.2517 21.7567 186.5753 -0.1658 -17.7204 -3.2180
# 4 4.9428 4.1043 -0.1658 31.1622 -8.4410 -0.1403
# 5 -12.5047 -1.2265 -17.7204 -8.4410 38.3794 1.9837
# 6 -2.9013 -6.9129 -3.2180 -0.1403 1.9837 26.4839
#
#
#
# Elastic Compliance Matrix: (Units=1/GPa)
#
#
# Indices 1 2 3 4 5 6 
#
# 1 0.011109 -0.002893 -0.002569 -0.000809 0.002164 -0.000017
# 2 -0.002893 0.012734 -0.000756 -0.001585 -0.001389 0.003011
# 3 -0.002569 -0.000756 0.006393 0.001176 0.002343 0.000129
# 4 -0.000809 -0.001585 0.001176 0.034562 0.007870 -0.000766
# 5 0.002164 -0.001389 0.002343 0.007870 0.029633 -0.002019
# 6 -0.000017 0.003011 0.000129 -0.000766 -0.002019 0.038706
#
#
# Mechanical properties :
#
#
# Convention : Reuss Voigt Hill
#
# Bulk Modulus (GPa) = 56.18396 65.81999 61.00197
# Shear Modulus (GPa) = 33.00185 38.18249 35.59217
#
# Velocity S-wave (km/s) = 3.66346 3.94053 3.80452
# Velocity P-wave (km/s) = 6.38303 6.88991 6.64131
#
# Compressibility (1/GPa) = 0.01779867
#
# Stress axis : x y z
#
# Youngs Moduli (GPa) = 90.01988 78.52943 156.41621
#
# Poissons Ratio (x) = 0.22722 0.40186
# Poissons Ratio (y) = 0.26047 0.11825
# Poissons Ratio (z) = 0.23127 0.05937
#
# Static dielectric constant tensor:
#      x y z
#    x 0.000000 0.000000 0.000000 
#    y 0.000000 0.000000 0.000000 
#    z 0.000000 0.000000 0.000000 
# 
# 
# High freq. dielectric constant tensor:
#      x y z
#    x 1.985900 -0.001910 -0.002580 
#    y -0.001910 1.952450 0.004030 
#    z -0.002580 0.004030 2.011190 
# 
# From -- ./inp_files/206011.got.cif
#   From: 2010.06.25/outbox.cif.g09.slc.cpg/sg2_104_cif.got.tgz:206011.got - 2010.06.27 13:26:56.
