data_PCOD8037797
_publ_section_title
;
Structure prediction by ZEFSAII (Michael W. Deem and Ramdas Pophale) SiO2 
 PCOD8037797
Probable space group: P -1
;
_chemical_formula_sum "Si O2"
_cell_formula_units_Z 12
_cell_length_a 13.578931
_cell_length_b 8.001850
_cell_length_c 5.227057
_cell_angle_alpha 56.459707
_cell_angle_beta 102.879233
_cell_angle_gamma 108.070973
_cell_volume 449.085681
_symmetry_space_group_name_H-M "P -1"
_symmetry_group_IT_number 2
_symmetry_cell_setting 'triclinic'
loop_
_space_group_symop_operation_xyz
x,y,z
-x,-y,-z
loop_
_atom_site_type_symbol
_atom_site_label
_atom_site_fract_x
_atom_site_fract_y
_atom_site_fract_z
Si Si1 0.112663 0.148499 0.414397
Si Si2 0.240856 0.886967 0.488808
Si Si3 0.932608 0.512172 0.205663
Si Si4 0.266382 0.238410 0.818379
Si Si5 0.518782 0.773604 0.208914
Si Si6 0.400110 0.636122 0.763367
O O1 0.162424 0.286377 0.573851
O O2 0.201127 0.016773 0.576946
O O3 0.109810 0.280083 0.041568
O O4 0.000000 0.000000 0.500000
O O5 0.164419 0.667601 0.645680
O O6 0.354499 0.840796 0.618402
O O7 0.233304 0.014449 0.120359
O O8 0.000000 0.500000 0.500000
O O9 0.000000 0.500000 0.000000
O O10 0.360098 0.222898 0.690146
O O11 0.308951 0.426336 0.883846
O O12 0.454526 0.650509 0.507332
O O13 0.482209 0.644551 0.032850
O O14 0.500000 0.000000 0.000000
#
# Coordination Sequence:
#
# PCOD8037797 Si02
#       6
#     2   2   2   2   2   2
#     4  12  28  51  81 116 161 212 272 335 402 476
#     4  12  28  47  81 111 162 209 270 323 410 464
#     4  12  29  51  79 111 158 208 270 335 402 471
#     4  12  29  48  83 118 161 216 272 330 404 479
#     4  12  26  53  81 119 165 212 265 332 399 478
#     4  12  29  49  82 119 166 210 269 329 400 478
#
# _framework density 26.720958
#
# number of rings (size 3 to 8) (size 9 to 14) (size 15 to 20)
#    0.000    0.000    3.333    4.500   11.667    1.333 
#    0.000    0.000    0.000    0.000    0.000    0.000 
#    0.000    0.000    0.000    0.000    0.000    0.000 
#
# Total GULP energy -148696.750892 kJ/mol
# GULP energy per Si atom -12391.395908 kJ/mol
# Density = 2.666014 g / cm^3
# Si number density = 26.720958 Si / 1000 Ang^3
#
#
#
# Elastic Constant Matrix: (Units=GPa)
#
#
# Indices 1 2 3 4 5 6 
#
# 1 127.6864 38.5763 52.2253 5.2741 0.3592 16.9470
# 2 38.5763 126.3749 77.8169 3.6406 2.0925 32.8070
# 3 52.2253 77.8169 194.3892 -2.5175 -0.4323 34.5642
# 4 5.2741 3.6406 -2.5175 62.2873 4.0640 6.2289
# 5 0.3592 2.0925 -0.4323 4.0640 58.3966 -1.7470
# 6 16.9470 32.8070 34.5642 6.2289 -1.7470 44.8983
#
#
#
# Elastic Compliance Matrix: (Units=1/GPa)
#
#
# Indices 1 2 3 4 5 6 
#
# 1 0.009127 -0.001468 -0.001700 -0.000659 0.000001 -0.000972
# 2 -0.001468 0.011898 -0.003386 -0.000115 -0.000600 -0.005540
# 3 -0.001700 -0.003386 0.007458 0.000916 0.000041 -0.002751
# 4 -0.000659 -0.000115 0.000916 0.016504 -0.001215 -0.002709
# 5 0.000001 -0.000600 0.000041 -0.001215 0.017268 0.001247
# 6 -0.000972 -0.005540 -0.002751 -0.002709 0.001247 0.029230
#
#
# Mechanical properties :
#
#
# Convention : Reuss Voigt Hill
#
# Bulk Modulus (GPa) = 65.04543 87.29861 76.17202
# Shear Modulus (GPa) = 45.57203 51.77191 48.67197
#
# Velocity S-wave (km/s) = 4.13422 4.40648 4.27252
# Velocity P-wave (km/s) = 6.86909 7.65708 7.27376
#
# Compressibility (1/GPa) = 0.01537387
#
# Stress axis : x y z
#
# Youngs Moduli (GPa) = 109.56828 84.05106 134.09069
#
# Poissons Ratio (x) = 0.12336 0.22797
# Poissons Ratio (y) = 0.16082 0.45405
# Poissons Ratio (z) = 0.18628 0.28461
#
# Static dielectric constant tensor:
#      x y z
#    x 5.342890 -0.339260 0.191710 
#    y -0.339260 4.804880 -0.293690 
#    z 0.191710 -0.293690 4.963200 
# 
# 
# High freq. dielectric constant tensor:
#      x y z
#    x 2.107630 -0.004290 0.008550 
#    y -0.004290 2.081330 -0.014840 
#    z 0.008550 -0.014840 2.082050 
# 
# From -- ./inp_files/89594.got.cif
#   From: 2010.06.25/outbox.cif.g09.slc.cpg/sg2_45_cif.got.tgz:89594.got - 2010.06.27 13:26:56.
