data_PCOD8037502
_publ_section_title
;
Structure prediction by ZEFSAII (Michael W. Deem and Ramdas Pophale) SiO2 
 PCOD8037502
Probable space group: P -1
;
_chemical_formula_sum "Si O2"
_cell_formula_units_Z 14
_cell_length_a 10.969195
_cell_length_b 9.553881
_cell_length_c 16.954272
_cell_angle_alpha 129.722347
_cell_angle_beta 34.062091
_cell_angle_gamma 107.244409
_cell_volume 643.837480
_symmetry_space_group_name_H-M "P -1"
_symmetry_group_IT_number 2
_symmetry_cell_setting 'triclinic'
loop_
_space_group_symop_operation_xyz
x,y,z
-x,-y,-z
loop_
_atom_site_type_symbol
_atom_site_label
_atom_site_fract_x
_atom_site_fract_y
_atom_site_fract_z
Si Si1 0.729054 0.717535 0.435465
Si Si2 0.660300 0.426160 0.648920
Si Si3 0.165099 0.546447 0.871106
Si Si4 0.949419 0.378053 0.327698
Si Si5 0.504974 0.815137 0.980692
Si Si6 0.978311 0.991687 0.415658
Si Si7 0.126441 0.969831 0.837466
O O1 0.833537 0.532526 0.246496
O O2 0.783536 0.599725 0.448050
O O3 0.881575 0.836271 0.387132
O O4 0.424551 0.894466 0.657375
O O5 0.458687 0.416490 0.696445
O O6 0.874383 0.422521 0.476403
O O7 0.779666 0.229170 0.574598
O O8 0.511156 0.644715 0.856634
O O9 0.000000 0.500000 0.000000
O O10 0.035702 0.802265 0.037130
O O11 0.895891 0.200749 0.262701
O O12 0.250733 0.293920 0.130158
O O13 0.257094 0.905868 0.200224
O O14 0.500000 0.000000 0.000000
O O15 0.000000 0.000000 0.500000
O O16 0.000000 0.000000 0.000000
#
# Coordination Sequence:
#
# PCOD8037502 Si02
#       7
#     2   2   2   2   2   2   2
#     4  12  27  47  70 110 148 185 241 300 361 423
#     4  12  26  48  73 107 143 188 245 292 359 431
#     4  12  26  43  73 104 147 188 236 298 360 428
#     4  12  25  46  77 105 144 191 243 297 355 432
#     4  12  27  48  76 105 143 191 246 292 358 430
#     4  12  30  49  74 108 146 191 239 303 363 424
#     4  12  25  46  72 107 144 189 239 291 361 425
#
# _framework density 21.744617000000002
#
# number of rings (size 3 to 8) (size 9 to 14) (size 15 to 20)
#    0.000    0.000    4.286    5.143    6.000    4.571 
#    0.000    0.000    0.000    0.000    0.000    0.000 
#    0.000    0.000    0.000    0.000    0.000    0.000 
#
# Total GULP energy -173717.424116 kJ/mol
# GULP energy per Si atom -12408.387437 kJ/mol
# Density = 2.169513 g / cm^3
# Si number density = 21.744617 Si / 1000 Ang^3
#
#
#
# Elastic Constant Matrix: (Units=GPa)
#
#
# Indices 1 2 3 4 5 6 
#
# 1 116.1980 48.5863 45.7560 0.8467 -9.3453 -4.6129
# 2 48.5863 141.2998 59.8385 -0.2079 2.6996 -11.4371
# 3 45.7560 59.8385 126.8998 -7.7768 -5.5669 -1.7688
# 4 0.8467 -0.2079 -7.7768 41.9536 1.2273 -7.6831
# 5 -9.3453 2.6996 -5.5669 1.2273 41.9446 -4.0462
# 6 -4.6129 -11.4371 -1.7688 -7.6831 -4.0462 44.3074
#
#
#
# Elastic Compliance Matrix: (Units=1/GPa)
#
#
# Indices 1 2 3 4 5 6 
#
# 1 0.010967 -0.002666 -0.002632 -0.000710 0.002329 0.000438
# 2 -0.002666 0.009737 -0.003681 -0.000185 -0.001519 0.001918
# 3 -0.002632 -0.003681 0.010721 0.001925 0.000981 -0.000373
# 4 -0.000710 -0.000185 0.001925 0.024994 -0.000210 0.004270
# 5 0.002329 -0.001519 0.000981 -0.000210 0.024798 0.002118
# 6 0.000438 0.001918 -0.000373 0.004270 0.002118 0.024029
#
#
# Mechanical properties :
#
#
# Convention : Reuss Voigt Hill
#
# Bulk Modulus (GPa) = 74.26483 76.97324 75.61904
# Shear Modulus (GPa) = 39.15560 40.98890 40.07225
#
# Velocity S-wave (km/s) = 4.24807 4.34638 4.29751
# Velocity P-wave (km/s) = 7.63471 7.78869 7.71209
#
# Compressibility (1/GPa) = 0.01346532
#
# Stress axis : x y z
#
# Youngs Moduli (GPa) = 91.17950 102.70172 93.27471
#
# Poissons Ratio (x) = 0.27385 0.24554
# Poissons Ratio (y) = 0.24313 0.34336
# Poissons Ratio (z) = 0.24002 0.37806
#
# Static dielectric constant tensor:
#      x y z
#    x 3.743440 0.186120 -0.173410 
#    y 0.186120 3.965730 -0.110210 
#    z -0.173410 -0.110210 3.936590 
# 
# 
# High freq. dielectric constant tensor:
#      x y z
#    x 1.869420 0.000810 -0.003760 
#    y 0.000810 1.869160 -0.000450 
#    z -0.003760 -0.000450 1.871050 
# 
# From -- ./inp_files/24255.got.cif
#   From: 2010.06.25/outbox.cif.g09.slc.cpg/sg2_13_cif.got.tgz:24255.got - 2010.06.27 13:26:56.
