data_PCOD8037854
_publ_section_title
;
Structure prediction by ZEFSAII (Michael W. Deem and Ramdas Pophale) SiO2 
 PCOD8037854
Probable space group: P -1
;
_chemical_formula_sum "Si O2"
_cell_formula_units_Z 16
_cell_length_a 13.857264
_cell_length_b 25.319317
_cell_length_c 19.682820
_cell_angle_alpha 158.124620
_cell_angle_beta 31.447743
_cell_angle_gamma 159.870536
_cell_volume 876.532328
_symmetry_space_group_name_H-M "P -1"
_symmetry_group_IT_number 2
_symmetry_cell_setting 'triclinic'
loop_
_space_group_symop_operation_xyz
x,y,z
-x,-y,-z
loop_
_atom_site_type_symbol
_atom_site_label
_atom_site_fract_x
_atom_site_fract_y
_atom_site_fract_z
Si Si1 0.703821 0.091063 0.922860
Si Si2 0.675593 0.964263 0.277447
Si Si3 0.784297 0.582071 0.565714
Si Si4 0.142717 0.183510 0.079599
Si Si5 0.788489 0.856745 0.654741
Si Si6 0.368625 0.062360 0.568255
Si Si7 0.190487 0.917101 0.968044
Si Si8 0.084906 0.465758 0.231726
O O1 0.779608 0.967984 0.731270
O O2 0.508192 0.030555 0.905256
O O3 0.981531 0.348337 0.078846
O O4 0.500000 0.000000 0.000000
O O5 0.623992 0.919843 0.334447
O O6 0.461729 0.956873 0.365277
O O7 0.622552 0.777421 0.053481
O O8 0.999931 0.199851 0.348881
O O9 0.728859 0.611504 0.710165
O O10 0.483594 0.403273 0.494646
O O11 0.898895 0.490603 0.396096
O O12 0.908094 0.105063 0.074646
O O13 0.000000 0.000000 0.000000
O O14 0.060815 0.916403 0.549181
O O15 0.800985 0.935812 0.815904
O O16 0.585896 0.303732 0.695387
O O17 0.959043 0.679058 0.857449
#
# Coordination Sequence:
#
# PCOD8037854 Si02
#       8
#     2   2   2   2   2   2   2   2
#     4   8  15  29  51  80 115 117 168 229 258 303
#     4   9  20  36  48  78 107 143 178 212 258 309
#     4  10  18  34  57  76 109 135 178 220 258 308
#     4  10  21  36  51  77 109 142 174 216 257 314
#     4  10  17  32  54  85 104 132 175 224 261 303
#     4  10  19  32  55  77 111 135 176 219 258 314
#     4  10  17  33  57  81 109 129 176 221 262 307
#     4   9  17  32  54  87 104 136 168 220 269 304
#
# _framework density 18.253747000000001
#
# number of rings (size 3 to 8) (size 9 to 14) (size 15 to 20)
#    0.000    2.750    5.000    0.000    0.000    3.000 
#    0.000    0.625    0.000    3.750    0.000    0.000 
#    0.000    0.000    0.000    0.000    0.000    0.000 
#
# Total GULP energy -198243.094761 kJ/mol
# GULP energy per Si atom -12390.193423 kJ/mol
# Density = 1.821220 g / cm^3
# Si number density = 18.253747 Si / 1000 Ang^3
#
#
#
# Elastic Constant Matrix: (Units=GPa)
#
#
# Indices 1 2 3 4 5 6 
#
# 1 96.7746 35.3992 29.0774 3.8022 -9.5860 7.0139
# 2 35.3992 83.6293 31.5531 0.1621 -2.8286 24.1253
# 3 29.0774 31.5531 83.3787 -1.8236 -0.0580 4.4505
# 4 3.8022 0.1621 -1.8236 21.1515 6.0744 -1.5052
# 5 -9.5860 -2.8286 -0.0580 6.0744 23.0925 -7.0691
# 6 7.0139 24.1253 4.4505 -1.5052 -7.0691 26.3588
#
#
#
# Elastic Compliance Matrix: (Units=1/GPa)
#
#
# Indices 1 2 3 4 5 6 
#
# 1 0.013922 -0.005514 -0.003055 -0.004594 0.007401 0.003581
# 2 -0.005514 0.021476 -0.005192 0.000648 -0.005589 -0.018774
# 3 -0.003055 -0.005192 0.014933 0.002560 -0.001703 0.002733
# 4 -0.004594 0.000648 0.002560 0.052854 -0.016058 -0.001091
# 5 0.007401 -0.005589 -0.001703 -0.016058 0.055215 0.017325
# 6 0.003581 -0.018774 0.002733 -0.001091 0.017325 0.058291
#
#
# Mechanical properties :
#
#
# Convention : Reuss Voigt Hill
#
# Bulk Modulus (GPa) = 43.84220 50.64910 47.24565
# Shear Modulus (GPa) = 19.85575 25.30408 22.57992
#
# Velocity S-wave (km/s) = 3.30170 3.72726 3.52092
# Velocity P-wave (km/s) = 6.21332 6.80667 6.51675
#
# Compressibility (1/GPa) = 0.02280907
#
# Stress axis : x y z
#
# Youngs Moduli (GPa) = 71.82702 46.56318 66.96782
#
# Poissons Ratio (x) = 0.25676 0.20459
# Poissons Ratio (y) = 0.39607 0.34769
# Poissons Ratio (z) = 0.21943 0.24175
#
# Static dielectric constant tensor:
#      x y z
#    x 3.605130 0.386870 -0.104590 
#    y 0.386870 3.434660 -0.126030 
#    z -0.104590 -0.126030 3.956960 
# 
# 
# High freq. dielectric constant tensor:
#      x y z
#    x 1.688900 0.016730 -0.021910 
#    y 0.016730 1.681900 0.001070 
#    z -0.021910 0.001070 1.708760 
# 
# From -- ./inp_files/508844.got.cif
#   From: 2010.06.25/outbox.cif.g09.slc.cpg/sg2_255_cif.got.tgz:508844.got - 2010.06.27 13:26:56.
