data_PCOD8037228
_publ_section_title
;
Structure prediction by ZEFSAII (Michael W. Deem and Ramdas Pophale) SiO2 
 PCOD8037228
Probable space group: P -1
;
_chemical_formula_sum "Si O2"
_cell_formula_units_Z 14
_cell_length_a 11.881639
_cell_length_b 8.426968
_cell_length_c 17.493644
_cell_angle_alpha 111.986295
_cell_angle_beta 159.348080
_cell_angle_gamma 71.510077
_cell_volume 569.876378
_symmetry_space_group_name_H-M "P -1"
_symmetry_group_IT_number 2
_symmetry_cell_setting 'triclinic'
loop_
_space_group_symop_operation_xyz
x,y,z
-x,-y,-z
loop_
_atom_site_type_symbol
_atom_site_label
_atom_site_fract_x
_atom_site_fract_y
_atom_site_fract_z
Si Si1 0.247576 0.833076 0.808542
Si Si2 0.237650 0.431324 0.379800
Si Si3 0.156785 0.068676 0.294371
Si Si4 0.556844 0.506222 0.914459
Si Si5 0.192514 0.146479 0.599818
Si Si6 0.262706 0.071677 0.120026
Si Si7 0.642428 0.550473 0.794412
O O1 0.407584 0.657011 0.894720
O O2 0.959731 0.872030 0.687468
O O3 0.082349 0.791138 0.615609
O O4 0.500000 0.000000 0.000000
O O5 0.500000 0.500000 0.500000
O O6 0.167224 0.232691 0.274901
O O7 0.374218 0.431660 0.554312
O O8 0.915424 0.521931 0.178959
O O9 0.500000 0.000000 0.500000
O O10 0.886287 0.933380 0.061464
O O11 0.365190 0.320199 0.780824
O O12 0.556689 0.538349 0.827925
O O13 0.460439 0.050258 0.710062
O O14 0.000000 0.000000 0.500000
O O15 0.393885 0.270918 0.241514
O O16 0.000000 0.000000 0.000000
O O17 0.000000 0.500000 0.000000
#
# Coordination Sequence:
#
# PCOD8037228 Si02
#       7
#     2   2   2   2   2   2   2
#     4  12  29  49  78 113 152 206 254 323 396 465
#     4  12  26  46  80 116 153 202 258 319 389 460
#     4  12  26  49  75 109 152 195 257 317 384 464
#     4  12  27  52  77 113 162 204 266 319 394 470
#     4  12  26  50  75 108 153 205 255 319 392 461
#     4  12  25  47  76 111 150 197 259 320 384 461
#     4  12  24  45  77 114 157 207 255 322 393 463
#
# _framework density 24.566731000000001
#
# number of rings (size 3 to 8) (size 9 to 14) (size 15 to 20)
#    0.000    0.000    2.857    7.286    4.000    1.714 
#    2.571    0.000    0.000    0.000    0.000    0.000 
#    0.000    0.000    0.000    0.000    0.000    0.000 
#
# Total GULP energy -173489.704927 kJ/mol
# GULP energy per Si atom -12392.121781 kJ/mol
# Density = 2.451082 g / cm^3
# Si number density = 24.566731 Si / 1000 Ang^3
#
#
#
# Elastic Constant Matrix: (Units=GPa)
#
#
# Indices 1 2 3 4 5 6 
#
# 1 105.9874 29.6227 35.0914 0.7805 16.9130 -0.7445
# 2 29.6227 157.0966 45.9757 -9.3655 33.0020 -5.9589
# 3 35.0914 45.9757 172.1485 -17.1243 4.5280 -13.2514
# 4 0.7805 -9.3655 -17.1243 53.6071 0.1033 13.0184
# 5 16.9130 33.0020 4.5280 0.1033 49.7037 -0.6536
# 6 -0.7445 -5.9589 -13.2514 13.0184 -0.6536 41.0405
#
#
#
# Elastic Compliance Matrix: (Units=1/GPa)
#
#
# Indices 1 2 3 4 5 6 
#
# 1 0.010818 -0.000911 -0.001999 -0.000864 -0.002897 -0.000354
# 2 -0.000911 0.008148 -0.001759 0.000821 -0.004938 0.000259
# 3 -0.001999 -0.001759 0.006923 0.001576 0.001233 0.001464
# 4 -0.000864 0.000821 0.001576 0.020768 -0.000517 -0.005984
# 5 -0.002897 -0.004938 0.001233 -0.000517 0.024275 0.000179
# 6 -0.000354 0.000259 0.001464 -0.005984 0.000179 0.026771
#
#
# Mechanical properties :
#
#
# Convention : Reuss Voigt Hill
#
# Bulk Modulus (GPa) = 60.41779 72.95691 66.68735
# Shear Modulus (GPa) = 44.42186 50.50643 47.46414
#
# Velocity S-wave (km/s) = 4.25692 4.53911 4.40028
# Velocity P-wave (km/s) = 6.98631 7.56527 7.28155
#
# Compressibility (1/GPa) = 0.01655142
#
# Stress axis : x y z
#
# Youngs Moduli (GPa) = 92.44165 122.72511 144.44536
#
# Poissons Ratio (x) = 0.11183 0.28870
# Poissons Ratio (y) = 0.08424 0.25406
# Poissons Ratio (z) = 0.18476 0.21585
#
# Static dielectric constant tensor:
#      x y z
#    x 4.450740 -0.052760 -0.207100 
#    y -0.052760 4.471260 0.189010 
#    z -0.207100 0.189010 3.937850 
# 
# 
# High freq. dielectric constant tensor:
#      x y z
#    x 1.973760 0.002190 0.006870 
#    y 0.002190 1.996430 0.004000 
#    z 0.006870 0.004000 1.999940 
# 
# From -- ./inp_files/566832.got.cif
#   From: 2010.06.25/outbox.cif.g09.slc.cpg/sg2_284_cif.got.tgz:566832.got - 2010.06.27 13:26:56.
