data_PCOD8037134
_publ_section_title
;
Structure prediction by ZEFSAII (Michael W. Deem and Ramdas Pophale) SiO2 
 PCOD8037134
Probable space group: P -1
;
_chemical_formula_sum "Si O2"
_cell_formula_units_Z 14
_cell_length_a 9.375079
_cell_length_b 9.517026
_cell_length_c 11.035551
_cell_angle_alpha 72.290987
_cell_angle_beta 62.218401
_cell_angle_gamma 114.753135
_cell_volume 619.745241
_symmetry_space_group_name_H-M "P -1"
_symmetry_group_IT_number 2
_symmetry_cell_setting 'triclinic'
loop_
_space_group_symop_operation_xyz
x,y,z
-x,-y,-z
loop_
_atom_site_type_symbol
_atom_site_label
_atom_site_fract_x
_atom_site_fract_y
_atom_site_fract_z
Si Si1 0.639343 0.620532 0.676328
Si Si2 0.937344 0.932776 0.292321
Si Si3 0.364457 0.068213 0.041270
Si Si4 0.377228 0.678126 0.913518
Si Si5 0.579671 0.063190 0.586436
Si Si6 0.409438 0.240234 0.724274
Si Si7 0.054003 0.300170 0.261471
O O1 0.797317 0.833615 0.495294
O O2 0.440470 0.588619 0.819137
O O3 0.556446 0.469406 0.638198
O O4 0.762112 0.607300 0.735188
O O5 0.799755 0.840427 0.248007
O O6 0.115272 0.908117 0.227131
O O7 0.045011 0.159714 0.206138
O O8 0.482067 0.249823 0.039047
O O9 0.335766 0.122789 0.908524
O O10 0.500000 0.000000 0.000000
O O11 0.428573 0.868823 0.783562
O O12 0.128461 0.490977 0.102421
O O13 0.554667 0.215777 0.597248
O O14 0.833715 0.185257 0.454237
O O15 0.500000 0.000000 0.500000
#
# Coordination Sequence:
#
# PCOD8037134 Si02
#       7
#     2   2   2   2   2   2   2
#     4  12  24  45  76 104 144 193 247 297 354 441
#     4  12  25  46  72 107 145 198 237 296 375 421
#     4  12  25  44  72 105 147 186 245 304 352 433
#     4  12  24  46  73 106 144 190 246 299 355 432
#     4  12  26  48  70 107 153 186 240 306 361 425
#     4  12  26  46  71 106 152 184 243 305 357 430
#     4  12  24  43  78 105 138 200 242 290 364 434
#
# _framework density 22.589925999999998
#
# number of rings (size 3 to 8) (size 9 to 14) (size 15 to 20)
#    0.000    0.000    7.143    3.429    0.000    2.286 
#    0.000    0.000    0.000    0.000    0.000    0.000 
#    0.000    0.000    0.000    0.000    0.000    0.000 
#
# Total GULP energy -173537.601458 kJ/mol
# GULP energy per Si atom -12395.542961 kJ/mol
# Density = 2.253851 g / cm^3
# Si number density = 22.589926 Si / 1000 Ang^3
#
#
#
# Elastic Constant Matrix: (Units=GPa)
#
#
# Indices 1 2 3 4 5 6 
#
# 1 89.7731 45.1940 28.9295 -3.8352 -8.6648 5.2491
# 2 45.1940 149.4211 31.7854 10.7221 -12.1650 6.7824
# 3 28.9295 31.7854 124.1771 -14.7019 8.7018 -2.5941
# 4 -3.8352 10.7221 -14.7019 38.2147 -0.3644 2.5644
# 5 -8.6648 -12.1650 8.7018 -0.3644 32.8377 8.0466
# 6 5.2491 6.7824 -2.5941 2.5644 8.0466 39.5330
#
#
#
# Elastic Compliance Matrix: (Units=1/GPa)
#
#
# Indices 1 2 3 4 5 6 
#
# 1 0.014283 -0.003482 -0.002556 0.001619 0.003746 -0.002334
# 2 -0.003482 0.008783 -0.002112 -0.003486 0.003253 -0.001619
# 3 -0.002556 -0.002112 0.010027 0.004014 -0.004566 0.002029
# 4 0.001619 -0.003486 0.004014 0.028903 -0.001375 -0.000949
# 5 0.003746 0.003253 -0.004566 -0.001375 0.035944 -0.008582
# 6 -0.002334 -0.001619 0.002029 -0.000949 -0.008582 0.027824
#
#
# Mechanical properties :
#
#
# Convention : Reuss Voigt Hill
#
# Bulk Modulus (GPa) = 59.54367 63.90988 61.72677
# Shear Modulus (GPa) = 33.86139 39.28124 36.57132
#
# Velocity S-wave (km/s) = 3.87584 4.17452 4.02795
# Velocity P-wave (km/s) = 6.81507 7.18249 7.00119
#
# Compressibility (1/GPa) = 0.01679440
#
# Stress axis : x y z
#
# Youngs Moduli (GPa) = 70.01445 113.85350 99.73532
#
# Poissons Ratio (x) = 0.39638 0.25491
# Poissons Ratio (y) = 0.24376 0.21061
# Poissons Ratio (z) = 0.17895 0.24042
#
# Static dielectric constant tensor:
#      x y z
#    x 3.768820 0.266870 0.375160 
#    y 0.266870 4.116720 -0.229890 
#    z 0.375160 -0.229890 4.070160 
# 
# 
# High freq. dielectric constant tensor:
#      x y z
#    x 1.880410 0.010890 0.005980 
#    y 0.010890 1.899130 0.008090 
#    z 0.005980 0.008090 1.904950 
# 
# From -- ./inp_files/157243.got.cif
#   From: 2010.06.25/outbox.cif.g09.slc.cpg/sg2_79_cif.got.tgz:157243.got - 2010.06.27 13:26:56.
