data_PCOD8037223
_publ_section_title
;
Structure prediction by ZEFSAII (Michael W. Deem and Ramdas Pophale) SiO2 
 PCOD8037223
Probable space group: P -1
;
_chemical_formula_sum "Si O2"
_cell_formula_units_Z 14
_cell_length_a 9.387357
_cell_length_b 11.371738
_cell_length_c 9.801604
_cell_angle_alpha 122.359040
_cell_angle_beta 44.495175
_cell_angle_gamma 103.709767
_cell_volume 600.633056
_symmetry_space_group_name_H-M "P -1"
_symmetry_group_IT_number 2
_symmetry_cell_setting 'triclinic'
loop_
_space_group_symop_operation_xyz
x,y,z
-x,-y,-z
loop_
_atom_site_type_symbol
_atom_site_label
_atom_site_fract_x
_atom_site_fract_y
_atom_site_fract_z
Si Si1 0.483244 0.636445 0.496269
Si Si2 0.071530 0.368164 0.766824
Si Si3 0.577661 0.361476 0.770691
Si Si4 0.858679 0.110935 0.765182
Si Si5 0.191026 0.935172 0.929304
Si Si6 0.424099 0.162496 0.945465
Si Si7 0.968727 0.638628 0.517753
O O1 0.500000 0.500000 0.500000
O O2 0.683679 0.703088 0.418997
O O3 0.481774 0.586790 0.310172
O O4 0.277250 0.763992 0.742649
O O5 0.056244 0.418389 0.652057
O O6 0.928564 0.258384 0.818479
O O7 0.000000 0.500000 0.000000
O O8 0.460687 0.244084 0.832858
O O9 0.827264 0.296156 0.573838
O O10 0.500000 0.500000 0.000000
O O11 0.890396 0.036812 0.844127
O O12 0.619354 0.139325 0.899382
O O13 0.000000 0.000000 0.500000
O O14 0.377963 0.015312 0.830299
O O15 0.000000 0.000000 0.000000
O O16 0.229345 0.243728 0.220587
O O17 0.000000 0.500000 0.500000
#
# Coordination Sequence:
#
# PCOD8037223 Si02
#       7
#     2   2   2   2   2   2   2
#     4  12  28  50  77 112 160 203 256 328 402 459
#     4  12  26  44  75 113 153 200 263 325 387 460
#     4  12  26  47  79 115 156 207 262 314 388 475
#     4  12  27  51  75 107 154 209 263 313 393 477
#     4  12  29  50  79 116 155 202 260 331 395 460
#     4  12  27  49  81 111 157 208 263 317 395 471
#     4  12  24  45  76 111 155 203 259 316 383 472
#
# _framework density 23.308741000000001
#
# number of rings (size 3 to 8) (size 9 to 14) (size 15 to 20)
#    0.000    0.000    2.857    6.429    6.000    0.571 
#    0.000    0.000    0.000    0.000    0.000    0.000 
#    0.000    0.000    0.000    0.000    0.000    0.000 
#
# Total GULP energy -173647.511973 kJ/mol
# GULP energy per Si atom -12403.393712 kJ/mol
# Density = 2.325569 g / cm^3
# Si number density = 23.308741 Si / 1000 Ang^3
#
#
#
# Elastic Constant Matrix: (Units=GPa)
#
#
# Indices 1 2 3 4 5 6 
#
# 1 190.1809 69.6823 76.7775 -8.3627 -1.0454 -9.1111
# 2 69.6823 143.4940 93.9866 8.6919 8.6678 -1.7649
# 3 76.7775 93.9866 132.6172 -16.8216 4.2504 -11.2977
# 4 -8.3627 8.6919 -16.8216 36.8697 -5.8518 3.7404
# 5 -1.0454 8.6678 4.2504 -5.8518 54.9520 -10.0686
# 6 -9.1111 -1.7649 -11.2977 3.7404 -10.0686 51.1698
#
#
#
# Elastic Compliance Matrix: (Units=1/GPa)
#
#
# Indices 1 2 3 4 5 6 
#
# 1 0.007070 -0.001748 -0.002715 0.000839 0.000838 0.000703
# 2 -0.001748 0.016465 -0.012023 -0.010037 -0.003189 -0.002292
# 3 -0.002715 -0.012023 0.019215 0.011015 0.002072 0.002947
# 4 0.000839 -0.010037 0.011015 0.035381 0.004617 0.000557
# 5 0.000838 -0.003189 0.002072 0.004617 0.019791 0.004053
# 6 0.000703 -0.002292 0.002947 0.000557 0.004053 0.020996
#
#
# Mechanical properties :
#
#
# Convention : Reuss Voigt Hill
#
# Bulk Modulus (GPa) = 102.26955 105.24276 103.75615
# Shear Modulus (GPa) = 32.22694 43.65467 37.94081
#
# Velocity S-wave (km/s) = 3.72238 4.33238 4.03892
# Velocity P-wave (km/s) = 7.90229 8.38306 8.14622
#
# Compressibility (1/GPa) = 0.00977808
#
# Stress axis : x y z
#
# Youngs Moduli (GPa) = 141.44869 60.73414 52.04194
#
# Poissons Ratio (x) = 0.10614 0.14130
# Poissons Ratio (y) = 0.24720 0.62572
# Poissons Ratio (z) = 0.38404 0.73023
#
# Static dielectric constant tensor:
#      x y z
#    x 3.588070 0.375270 -1.661840 
#    y 0.375270 4.077490 0.296030 
#    z -1.661840 0.296030 1.484030 
# 
# 
# High freq. dielectric constant tensor:
#      x y z
#    x 1.939770 -0.000800 -0.000880 
#    y -0.000800 1.931530 -0.010000 
#    z -0.000880 -0.010000 1.935930 
# 
# From -- ./inp_files/189640.got.cif
#   From: 2010.06.25/outbox.cif.g09.slc.cpg/sg2_95_cif.got.tgz:189640.got - 2010.06.27 13:26:56.
