data_PCOD8037837
_publ_section_title
;
Structure prediction by ZEFSAII (Michael W. Deem and Ramdas Pophale) SiO2 
 PCOD8037837
Probable space group: P -1
;
_chemical_formula_sum "Si O2"
_cell_formula_units_Z 16
_cell_length_a 16.773584
_cell_length_b 9.889978
_cell_length_c 14.521691
_cell_angle_alpha 38.476129
_cell_angle_beta 40.918502
_cell_angle_gamma 39.036333
_cell_volume 874.521699
_symmetry_space_group_name_H-M "P -1"
_symmetry_group_IT_number 2
_symmetry_cell_setting 'triclinic'
loop_
_space_group_symop_operation_xyz
x,y,z
-x,-y,-z
loop_
_atom_site_type_symbol
_atom_site_label
_atom_site_fract_x
_atom_site_fract_y
_atom_site_fract_z
Si Si1 0.180906 0.960453 0.440261
Si Si2 0.496699 0.056742 0.260769
Si Si3 0.621225 0.300631 0.441017
Si Si4 0.402690 0.124459 0.104186
Si Si5 0.637344 0.387414 0.179123
Si Si6 0.369633 0.398091 0.342734
Si Si7 0.108473 0.642376 0.534084
Si Si8 0.719873 0.880044 0.301261
O O1 0.294777 0.016809 0.262428
O O2 0.046308 0.214856 0.441860
O O3 0.238045 0.821996 0.559766
O O4 0.140290 0.785879 0.509932
O O5 0.495127 0.069595 0.144974
O O6 0.407889 0.323273 0.242537
O O7 0.423747 0.900084 0.443987
O O8 0.651791 0.940739 0.226249
O O9 0.500000 0.500000 0.500000
O O10 0.652168 0.410198 0.263629
O O11 0.320464 0.416918 0.007053
O O12 0.500000 0.000000 0.000000
O O13 0.477618 0.480161 0.246137
O O14 0.734682 0.115567 0.199936
O O15 0.213844 0.613111 0.373752
O O16 0.381702 0.166612 0.516054
O O17 0.137027 0.371755 0.691341
#
# Coordination Sequence:
#
# PCOD8037837 Si02
#       8
#     2   2   2   2   2   2   2   2
#     4  10  21  35  54  79 103 140 174 218 261 318
#     4  10  17  32  51  81 105 133 180 215 254 308
#     4  11  17  28  52  75  99 132 179 215 255 302
#     4  11  24  34  48  78 118 139 162 216 280 314
#     4  11  18  33  51  80 109 135 169 220 266 305
#     4   9  16  31  57  80 100 130 174 226 247 294
#     4   9  18  35  56  78 100 133 184 222 257 298
#     4   9  17  31  58  80 100 133 175 227 249 297
#
# _framework density 18.295715000000001
#
# number of rings (size 3 to 8) (size 9 to 14) (size 15 to 20)
#    0.750    1.250    2.500    4.500    0.000    2.000 
#    0.000    6.250    0.000    8.250    0.000    0.000 
#    0.000    0.000    0.000    0.000    0.000    0.000 
#
# Total GULP energy -198237.142412 kJ/mol
# GULP energy per Si atom -12389.821401 kJ/mol
# Density = 1.825407 g / cm^3
# Si number density = 18.295715 Si / 1000 Ang^3
#
#
#
# Elastic Constant Matrix: (Units=GPa)
#
#
# Indices 1 2 3 4 5 6 
#
# 1 104.0697 54.3593 19.8258 4.9470 17.1412 -0.6445
# 2 54.3593 115.2883 8.6611 -2.3792 8.3379 -15.4904
# 3 19.8258 8.6611 55.6822 -8.2323 10.9497 3.8017
# 4 4.9470 -2.3792 -8.2323 23.4903 3.5764 0.3665
# 5 17.1412 8.3379 10.9497 3.5764 22.9169 2.2501
# 6 -0.6445 -15.4904 3.8017 0.3665 2.2501 30.7463
#
#
#
# Elastic Compliance Matrix: (Units=1/GPa)
#
#
# Indices 1 2 3 4 5 6 
#
# 1 0.015006 -0.006730 -0.003529 -0.004095 -0.006241 -0.002134
# 2 -0.006730 0.012774 0.000617 0.002980 -0.000988 0.006255
# 3 -0.003529 0.000617 0.022714 0.010296 -0.009851 -0.001973
# 4 -0.004095 0.002980 0.010296 0.048954 -0.010614 0.000336
# 5 -0.006241 -0.000988 -0.009851 -0.010614 0.055354 -0.003335
# 6 -0.002134 0.006255 -0.001973 0.000336 -0.003335 0.036115
#
#
# Mechanical properties :
#
#
# Convention : Reuss Voigt Hill
#
# Bulk Modulus (GPa) = 32.04049 48.97028 40.50538
# Shear Modulus (GPa) = 22.66508 28.24363 25.45436
#
# Velocity S-wave (km/s) = 3.52350 3.93329 3.73403
# Velocity P-wave (km/s) = 5.83987 6.88853 6.38576
#
# Compressibility (1/GPa) = 0.03121051
#
# Stress axis : x y z
#
# Youngs Moduli (GPa) = 66.64011 78.28194 44.02659
#
# Poissons Ratio (x) = 0.52686 0.15535
# Poissons Ratio (y) = 0.44851 -0.02717
# Poissons Ratio (z) = 0.23514 -0.04831
#
# Static dielectric constant tensor:
#      x y z
#    x 3.214070 -0.208820 0.417530 
#    y -0.208820 2.767620 0.649740 
#    z 0.417530 0.649740 1.897570 
# 
# 
# High freq. dielectric constant tensor:
#      x y z
#    x 1.701560 0.017070 0.008010 
#    y 0.017070 1.708230 -0.025010 
#    z 0.008010 -0.025010 1.677680 
# 
# From -- ./inp_files/528076.got.cif
#   From: 2010.06.25/outbox.cif.g09.slc.cpg/sg2_265_cif.got.tgz:528076.got - 2010.06.27 13:26:56.
