data_PCOD8037627
_publ_section_title
;
Structure prediction by ZEFSAII (Michael W. Deem and Ramdas Pophale) SiO2 
 PCOD8037627
Probable space group: P -1
;
_chemical_formula_sum "Si O2"
_cell_formula_units_Z 14
_cell_length_a 17.418202
_cell_length_b 8.595190
_cell_length_c 9.854494
_cell_angle_alpha 66.674921
_cell_angle_beta 124.792758
_cell_angle_gamma 148.814031
_cell_volume 612.453868
_symmetry_space_group_name_H-M "P -1"
_symmetry_group_IT_number 2
_symmetry_cell_setting 'triclinic'
loop_
_space_group_symop_operation_xyz
x,y,z
-x,-y,-z
loop_
_atom_site_type_symbol
_atom_site_label
_atom_site_fract_x
_atom_site_fract_y
_atom_site_fract_z
Si Si1 0.808488 0.705262 0.260236
Si Si2 0.099015 0.102916 0.200656
Si Si3 0.347669 0.765103 0.315859
Si Si4 0.460999 0.088480 0.036474
Si Si5 0.173660 0.601005 0.442843
Si Si6 0.803113 0.044099 0.289638
Si Si7 0.319714 0.156705 0.474864
O O1 0.634510 0.457104 0.086577
O O2 0.792613 0.534918 0.416181
O O3 0.836747 0.932211 0.270319
O O4 0.966607 0.899945 0.259197
O O5 0.265761 0.466051 0.282013
O O6 0.174582 0.028250 0.281805
O O7 0.000000 0.000000 0.000000
O O8 0.194135 0.626146 0.290651
O O9 0.500000 0.000000 0.500000
O O10 0.413870 0.960093 0.183826
O O11 0.500000 0.000000 0.000000
O O12 0.307428 0.974244 0.877698
O O13 0.992953 0.404928 0.375097
O O14 0.314146 0.944699 0.525081
O O15 0.714260 0.844547 0.404055
O O16 0.500000 0.500000 0.500000
#
# Coordination Sequence:
#
# PCOD8037627 Si02
#       7
#     2   2   2   2   2   2   2
#     4  12  25  50  74 108 151 206 254 314 384 459
#     4  12  28  48  78 112 158 203 263 320 382 459
#     4  12  26  49  80 112 153 208 258 314 387 461
#     4  12  29  47  78 111 159 201 256 320 389 457
#     4  12  25  48  79 105 151 202 256 313 384 460
#     4  12  27  49  75 110 151 203 257 311 392 462
#     4  12  29  45  74 115 155 198 259 318 391 460
#
# _framework density 22.858865999999999
#
# number of rings (size 3 to 8) (size 9 to 14) (size 15 to 20)
#    0.000    0.000    4.286    4.714   10.000    1.714 
#    0.000    0.000    0.000    0.000    0.000    0.000 
#    0.000    0.000    0.000    0.000    0.000    0.000 
#
# Total GULP energy -173545.169793 kJ/mol
# GULP energy per Si atom -12396.083557 kJ/mol
# Density = 2.280684 g / cm^3
# Si number density = 22.858866 Si / 1000 Ang^3
#
#
#
# Elastic Constant Matrix: (Units=GPa)
#
#
# Indices 1 2 3 4 5 6 
#
# 1 130.7381 43.8475 51.0583 -16.9839 2.3983 9.4132
# 2 43.8475 142.7891 43.4550 3.3339 -3.7118 11.5368
# 3 51.0583 43.4550 135.7323 -6.1947 6.5106 9.8443
# 4 -16.9839 3.3339 -6.1947 33.5435 2.2532 -3.6773
# 5 2.3983 -3.7118 6.5106 2.2532 44.2719 -3.4745
# 6 9.4132 11.5368 9.8443 -3.6773 -3.4745 42.7650
#
#
#
# Elastic Compliance Matrix: (Units=1/GPa)
#
#
# Indices 1 2 3 4 5 6 
#
# 1 0.010222 -0.002372 -0.002789 0.004873 -0.000638 -0.000601
# 2 -0.002372 0.008521 -0.001904 -0.002638 0.001142 -0.001472
# 3 -0.002789 -0.001904 0.009195 0.000457 -0.001468 -0.001069
# 4 0.004873 -0.002638 0.000457 0.033006 -0.002059 0.002205
# 5 -0.000638 0.001142 -0.001468 -0.002059 0.023186 0.001877
# 6 -0.000601 -0.001472 -0.001069 0.002205 0.001877 0.024501
#
#
# Mechanical properties :
#
#
# Convention : Reuss Voigt Hill
#
# Bulk Modulus (GPa) = 72.42395 76.22014 74.32204
# Shear Modulus (GPa) = 39.25747 42.17599 40.71673
#
# Velocity S-wave (km/s) = 4.14863 4.30008 4.22503
# Velocity P-wave (km/s) = 7.39595 7.62039 7.50901
#
# Compressibility (1/GPa) = 0.01380759
#
# Stress axis : x y z
#
# Youngs Moduli (GPa) = 97.83169 117.35108 108.75378
#
# Poissons Ratio (x) = 0.27834 0.30333
# Poissons Ratio (y) = 0.23204 0.20710
# Poissons Ratio (z) = 0.27287 0.22347
#
# Static dielectric constant tensor:
#      x y z
#    x 4.441240 0.116900 0.037350 
#    y 0.116900 4.428550 0.087250 
#    z 0.037350 0.087250 4.314110 
# 
# 
# High freq. dielectric constant tensor:
#      x y z
#    x 1.919530 0.016270 -0.003150 
#    y 0.016270 1.928200 0.006030 
#    z -0.003150 0.006030 1.894460 
# 
# From -- ./inp_files/218373.got.cif
#   From: 2010.06.25/outbox.cif.g09.slc.cpg/sg2_110_cif.got.tgz:218373.got - 2010.06.27 13:26:56.
