data_PCOD8037671
_publ_section_title
;
Structure prediction by ZEFSAII (Michael W. Deem and Ramdas Pophale) SiO2 
 PCOD8037671
Probable space group: P -1
;
_chemical_formula_sum "Si O2"
_cell_formula_units_Z 14
_cell_length_a 14.705913
_cell_length_b 20.054925
_cell_length_c 11.379444
_cell_angle_alpha 29.834840
_cell_angle_beta 31.012301
_cell_angle_gamma 21.471033
_cell_volume 587.856674
_symmetry_space_group_name_H-M "P -1"
_symmetry_group_IT_number 2
_symmetry_cell_setting 'triclinic'
loop_
_space_group_symop_operation_xyz
x,y,z
-x,-y,-z
loop_
_atom_site_type_symbol
_atom_site_label
_atom_site_fract_x
_atom_site_fract_y
_atom_site_fract_z
Si Si1 0.003297 0.926492 0.915578
Si Si2 0.671296 0.793829 0.182957
Si Si3 0.457022 0.275453 0.340710
Si Si4 0.179564 0.644582 0.955759
Si Si5 0.380338 0.618481 0.331337
Si Si6 0.924271 0.462192 0.256043
Si Si7 0.231707 0.201545 0.523890
O O1 0.241402 0.868759 0.807366
O O2 0.087375 0.837566 0.823004
O O3 0.744798 0.163372 0.845516
O O4 0.955615 0.816336 0.208215
O O5 0.525139 0.790251 0.448170
O O6 0.687814 0.677203 0.239064
O O7 0.937817 0.708332 0.064546
O O8 0.500000 0.000000 0.000000
O O9 0.284150 0.265877 0.477377
O O10 0.295555 0.501873 0.158844
O O11 0.408530 0.516005 0.800783
O O12 0.500000 0.500000 0.500000
O O13 0.138239 0.656908 0.516990
O O14 0.138915 0.344911 0.299581
O O15 0.000000 0.500000 0.000000
O O16 0.500000 0.000000 0.500000
#
# Coordination Sequence:
#
# PCOD8037671 Si02
#       7
#     2   2   2   2   2   2   2
#     4  12  28  49  83 119 155 206 270 323 390 473
#     4  12  28  47  80 113 152 208 261 321 396 468
#     4  12  25  50  81 117 155 205 267 324 391 466
#     4  12  25  52  82 112 158 207 263 328 393 465
#     4  12  30  49  76 117 163 206 260 328 398 470
#     4  12  28  50  74 112 160 201 257 326 396 463
#     4  12  26  47  82 114 156 205 262 327 386 468
#
# _framework density 23.815328000000001
#
# number of rings (size 3 to 8) (size 9 to 14) (size 15 to 20)
#    0.000    0.000    2.857    6.000   10.000    2.286 
#    0.000    0.000    0.000    0.000    0.000    0.000 
#    0.000    0.000    0.000    0.000    0.000    0.000 
#
# Total GULP energy -173455.725118 kJ/mol
# GULP energy per Si atom -12389.694651 kJ/mol
# Density = 2.376112 g / cm^3
# Si number density = 23.815328 Si / 1000 Ang^3
#
#
#
# Elastic Constant Matrix: (Units=GPa)
#
#
# Indices 1 2 3 4 5 6 
#
# 1 109.1417 47.6008 64.2391 -5.6351 15.0032 8.6521
# 2 47.6008 147.5858 60.3945 -12.7731 15.6569 11.4128
# 3 64.2391 60.3945 150.7195 7.1211 17.2119 -4.3209
# 4 -5.6351 -12.7731 7.1211 44.4413 -6.5801 -5.6018
# 5 15.0032 15.6569 17.2119 -6.5801 49.7356 0.4227
# 6 8.6521 11.4128 -4.3209 -5.6018 0.4227 45.0036
#
#
#
# Elastic Compliance Matrix: (Units=1/GPa)
#
#
# Indices 1 2 3 4 5 6 
#
# 1 0.013317 -0.001816 -0.004908 0.001425 -0.001538 -0.002379
# 2 -0.001816 0.009005 -0.002896 0.002443 -0.000945 -0.001900
# 3 -0.004908 -0.002896 0.010279 -0.003047 -0.001587 0.002301
# 4 0.001425 0.002443 -0.003047 0.024562 0.003089 0.001842
# 5 -0.001538 -0.000945 -0.001587 0.003089 0.021821 0.000563
# 6 -0.002379 -0.001900 0.002301 0.001842 0.000563 0.023604
#
#
# Mechanical properties :
#
#
# Convention : Reuss Voigt Hill
#
# Bulk Modulus (GPa) = 74.85206 83.54620 79.19913
# Shear Modulus (GPa) = 39.59363 43.51695 41.55529
#
# Velocity S-wave (km/s) = 4.08183 4.27929 4.18173
# Velocity P-wave (km/s) = 7.32896 7.71838 7.52619
#
# Compressibility (1/GPa) = 0.01335969
#
# Stress axis : x y z
#
# Youngs Moduli (GPa) = 75.09247 111.04562 97.29046
#
# Poissons Ratio (x) = 0.20167 0.47751
# Poissons Ratio (y) = 0.13638 0.28179
# Poissons Ratio (z) = 0.36856 0.32163
#
# Static dielectric constant tensor:
#      x y z
#    x 4.998500 0.308600 0.334120 
#    y 0.308600 4.614900 0.058050 
#    z 0.334120 0.058050 4.374770 
# 
# 
# High freq. dielectric constant tensor:
#      x y z
#    x 1.956330 0.005180 -0.003920 
#    y 0.005180 1.957340 -0.000120 
#    z -0.003920 -0.000120 1.952600 
# 
# From -- ./inp_files/457594.got.cif
#   From: 2010.06.25/outbox.cif.g09.slc.cpg/sg2_229_cif.got.tgz:457594.got - 2010.06.27 13:26:56.
