data_PCOD8037832
_publ_section_title
;
Structure prediction by ZEFSAII (Michael W. Deem and Ramdas Pophale) SiO2 
 PCOD8037832
Probable space group: P -1
;
_chemical_formula_sum "Si O2"
_cell_formula_units_Z 16
_cell_length_a 15.689476
_cell_length_b 9.820525
_cell_length_c 8.314740
_cell_angle_alpha 106.224656
_cell_angle_beta 36.122947
_cell_angle_gamma 101.156917
_cell_volume 723.996533
_symmetry_space_group_name_H-M "P -1"
_symmetry_group_IT_number 2
_symmetry_cell_setting 'triclinic'
loop_
_space_group_symop_operation_xyz
x,y,z
-x,-y,-z
loop_
_atom_site_type_symbol
_atom_site_label
_atom_site_fract_x
_atom_site_fract_y
_atom_site_fract_z
Si Si1 0.587596 0.351541 0.287998
Si Si2 0.616149 0.854894 0.608586
Si Si3 0.048210 0.387831 0.254858
Si Si4 0.835334 0.418838 0.140699
Si Si5 0.264124 0.297465 0.139295
Si Si6 0.732034 0.374405 0.735473
Si Si7 0.860224 0.693524 0.341367
Si Si8 0.532782 0.168525 0.826805
O O1 0.500000 0.500000 0.500000
O O2 0.471819 0.230205 0.419522
O O3 0.698713 0.332982 0.263500
O O4 0.685201 0.336188 0.975007
O O5 0.781741 0.789686 0.352218
O O6 0.616216 0.018473 0.609649
O O7 0.546783 0.836838 0.882997
O O8 0.112050 0.470734 0.037305
O O9 0.174352 0.280418 0.104549
O O10 0.000000 0.500000 0.500000
O O11 0.897652 0.315764 0.424152
O O12 0.967028 0.308108 0.952700
O O13 0.801084 0.531076 0.375065
O O14 0.300621 0.458340 0.172618
O O15 0.169521 0.243649 0.415248
O O16 0.416207 0.204316 0.874166
O O17 0.643604 0.293370 0.707969
#
# Coordination Sequence:
#
# PCOD8037832 Si02
#       8
#     2   2   2   2   2   2   2   2
#     4  11  19  32  53  78 104 136 169 214 263 307
#     4   9  19  34  49  73 108 139 171 210 259 305
#     4  10  17  32  51  76 109 132 162 218 264 300
#     4  11  19  32  51  82 105 133 167 216 264 304
#     4  10  17  32  53  81 104 131 174 217 259 299
#     4  10  18  32  54  80 104 132 174 217 258 304
#     4  10  19  31  53  77 105 132 173 212 257 306
#     4   9  19  32  50  75 106 138 171 214 255 304
#
# _framework density 22.099556
#
# number of rings (size 3 to 8) (size 9 to 14) (size 15 to 20)
#    0.000    2.000    6.250    0.375    0.000    0.000 
#    0.000    1.250    0.000    9.750    0.000    0.000 
#    0.000    0.000    0.000    0.000    0.000    0.000 
#
# Total GULP energy -198252.458635 kJ/mol
# GULP energy per Si atom -12390.778665 kJ/mol
# Density = 2.204926 g / cm^3
# Si number density = 22.099556 Si / 1000 Ang^3
#
#
#
# Elastic Constant Matrix: (Units=GPa)
#
#
# Indices 1 2 3 4 5 6 
#
# 1 112.4612 22.6365 42.6735 13.4170 -47.9492 -5.9531
# 2 22.6365 70.1219 17.1534 23.2653 -30.5207 -2.8798
# 3 42.6735 17.1534 51.1399 9.5972 -32.3918 -2.3771
# 4 13.4170 23.2653 9.5972 26.8769 -13.2996 -4.4575
# 5 -47.9492 -30.5207 -32.3918 -13.2996 52.4072 6.9808
# 6 -5.9531 -2.8798 -2.3771 -4.4575 6.9808 23.7596
#
#
#
# Elastic Compliance Matrix: (Units=1/GPa)
#
#
# Indices 1 2 3 4 5 6 
#
# 1 0.015998 0.001921 -0.006516 -0.001743 0.011294 -0.000056
# 2 0.001921 0.024363 0.001483 -0.016665 0.013085 -0.003388
# 3 -0.006516 0.001483 0.035288 -0.003079 0.016372 -0.003310
# 4 -0.001743 -0.016665 -0.003079 0.054696 -0.000335 0.007595
# 5 0.011294 0.013085 0.016372 -0.000335 0.048156 -0.008158
# 6 -0.000056 -0.003388 -0.003310 0.007595 -0.008158 0.045154
#
#
# Mechanical properties :
#
#
# Convention : Reuss Voigt Hill
#
# Bulk Modulus (GPa) = 14.40391 44.29443 29.34917
# Shear Modulus (GPa) = 19.76123 30.69272 25.22698
#
# Velocity S-wave (km/s) = 2.99355 3.73076 3.38230
# Velocity P-wave (km/s) = 4.29887 6.21649 5.34439
#
# Compressibility (1/GPa) = 0.06942559
#
# Stress axis : x y z
#
# Youngs Moduli (GPa) = 62.50817 41.04541 28.33814
#
# Poissons Ratio (x) = -0.07886 0.18465
# Poissons Ratio (y) = -0.12009 -0.04202
# Poissons Ratio (z) = 0.40730 -0.06086
#
# Static dielectric constant tensor:
#      x y z
#    x 4.799980 0.139930 -0.242230 
#    y 0.139930 3.572340 0.063860 
#    z -0.242230 0.063860 5.920180 
# 
# 
# High freq. dielectric constant tensor:
#      x y z
#    x 1.890330 -0.002300 -0.010140 
#    y -0.002300 1.800250 0.000340 
#    z -0.010140 0.000340 1.869980 
# 
# From -- ./inp_files/305488.got.cif
#   From: 2010.06.25/outbox.cif.g09.slc.cpg/sg2_153_cif.got.tgz:305488.got - 2010.06.27 13:26:56.
