data_PCOD8037342
_publ_section_title
;
Structure prediction by ZEFSAII (Michael W. Deem and Ramdas Pophale) SiO2 
 PCOD8037342
Probable space group: P -1
;
_chemical_formula_sum "Si O2"
_cell_formula_units_Z 10
_cell_length_a 8.048941
_cell_length_b 8.052261
_cell_length_c 9.159670
_cell_angle_alpha 100.172902
_cell_angle_beta 65.813595
_cell_angle_gamma 60.992577
_cell_volume 417.935254
_symmetry_space_group_name_H-M "P -1"
_symmetry_group_IT_number 2
_symmetry_cell_setting 'triclinic'
loop_
_space_group_symop_operation_xyz
x,y,z
-x,-y,-z
loop_
_atom_site_type_symbol
_atom_site_label
_atom_site_fract_x
_atom_site_fract_y
_atom_site_fract_z
Si Si1 0.618943 0.629405 0.269443
Si Si2 0.137027 0.817710 0.040566
Si Si3 0.552002 0.791448 0.014068
Si Si4 0.884085 0.120656 0.413257
Si Si5 0.013590 0.566804 0.665316
O O1 0.789704 0.400480 0.090247
O O2 0.387369 0.685156 0.434057
O O3 0.757950 0.624312 0.356916
O O4 0.547200 0.803302 0.195533
O O5 0.374854 0.757379 0.009206
O O6 0.000000 0.000000 0.000000
O O7 0.945380 0.925061 0.256496
O O8 0.808119 0.599579 0.836521
O O9 0.500000 0.000000 0.000000
O O10 0.998531 0.221874 0.313685
O O11 0.000000 0.000000 0.500000
O O12 0.000000 0.500000 0.500000
#
# Coordination Sequence:
#
# PCOD8037342 Si02
#       5
#     2   2   2   2   2
#     4  12  26  49  73 103 145 192 237 290 352 429
#     4  12  25  45  77 103 141 191 238 287 353 430
#     4  12  24  48  70 106 145 182 234 297 357 417
#     4  12  25  48  72 105 140 188 242 287 350 432
#     4  12  27  45  70 105 144 185 234 298 357 408
#
# _framework density 23.927152
#
# number of rings (size 3 to 8) (size 9 to 14) (size 15 to 20)
#    0.000    0.000    6.000    3.000    5.600    0.000 
#    0.000    2.000    0.000    0.000    0.000    0.000 
#    0.000    0.000    0.000    0.000    0.000    0.000 
#
# Total GULP energy -123917.063427 kJ/mol
# GULP energy per Si atom -12391.706343 kJ/mol
# Density = 2.387269 g / cm^3
# Si number density = 23.927152 Si / 1000 Ang^3
#
#
#
# Elastic Constant Matrix: (Units=GPa)
#
#
# Indices 1 2 3 4 5 6 
#
# 1 101.2950 43.5200 45.2995 -18.1271 9.1742 -42.4881
# 2 43.5200 113.9203 27.6310 -18.1223 5.5109 -30.8382
# 3 45.2995 27.6310 167.9311 -3.2201 2.3167 -14.0653
# 4 -18.1271 -18.1223 -3.2201 47.2458 -3.0310 11.7973
# 5 9.1742 5.5109 2.3167 -3.0310 41.3068 -4.5356
# 6 -42.4881 -30.8382 -14.0653 11.7973 -4.5356 45.9745
#
#
#
# Elastic Compliance Matrix: (Units=1/GPa)
#
#
# Indices 1 2 3 4 5 6 
#
# 1 0.018893 -0.002027 -0.003499 0.002566 -0.001985 0.014176
# 2 -0.002027 0.011486 -0.000881 0.002315 -0.000321 0.004936
# 3 -0.003499 -0.000881 0.006900 -0.000824 0.000285 -0.001474
# 4 0.002566 0.002315 -0.000824 0.023603 0.000645 -0.002321
# 5 -0.001985 -0.000321 0.000285 0.000645 0.024759 0.000315
# 6 0.014176 0.004936 -0.001474 -0.002321 0.000315 0.038338
#
#
# Mechanical properties :
#
#
# Convention : Reuss Voigt Hill
#
# Bulk Modulus (GPa) = 40.87445 68.44970 54.66208
# Shear Modulus (GPa) = 34.49512 44.68515 39.59014
#
# Velocity S-wave (km/s) = 3.80106 4.32620 4.07210
# Velocity P-wave (km/s) = 6.03191 7.32287 6.70852
#
# Compressibility (1/GPa) = 0.02446516
#
# Stress axis : x y z
#
# Youngs Moduli (GPa) = 52.93065 87.06208 144.91904
#
# Poissons Ratio (x) = 0.17650 0.50705
# Poissons Ratio (y) = 0.10731 0.12765
# Poissons Ratio (z) = 0.18520 0.07669
#
# Static dielectric constant tensor:
#      x y z
#    x 4.701780 -0.143080 -0.297220 
#    y -0.143080 4.415180 -0.475740 
#    z -0.297220 -0.475740 4.749040 
# 
# 
# High freq. dielectric constant tensor:
#      x y z
#    x 1.938740 -0.032330 -0.005690 
#    y -0.032330 1.961310 -0.012490 
#    z -0.005690 -0.012490 1.969620 
# 
# From -- ./inp_files/143884.got.cif
#   From: 2010.06.25/outbox.cif.g09.slc.cpg/sg2_72_cif.got.tgz:143884.got - 2010.06.27 13:26:56.
