data_PCOD8037733
_publ_section_title
;
Structure prediction by ZEFSAII (Michael W. Deem and Ramdas Pophale) SiO2 
 PCOD8037733
Probable space group: P -1
;
_chemical_formula_sum "Si O2"
_cell_formula_units_Z 10
_cell_length_a 8.510814
_cell_length_b 12.793810
_cell_length_c 12.231778
_cell_angle_alpha 158.158664
_cell_angle_beta 58.593337
_cell_angle_gamma 121.316898
_cell_volume 420.170818
_symmetry_space_group_name_H-M "P -1"
_symmetry_group_IT_number 2
_symmetry_cell_setting 'triclinic'
loop_
_space_group_symop_operation_xyz
x,y,z
-x,-y,-z
loop_
_atom_site_type_symbol
_atom_site_label
_atom_site_fract_x
_atom_site_fract_y
_atom_site_fract_z
Si Si1 0.353536 0.703138 0.461299
Si Si2 0.470204 0.720684 0.129400
Si Si3 0.912366 0.045990 0.461634
Si Si4 0.620389 0.260204 0.258411
Si Si5 0.014154 0.436317 0.190507
O O1 0.352113 0.785212 0.667180
O O2 0.159210 0.532758 0.328087
O O3 0.387228 0.988590 0.650986
O O4 0.509992 0.483279 0.180424
O O5 0.276353 0.832468 0.322471
O O6 0.500000 0.500000 0.000000
O O7 0.040573 0.287122 0.583689
O O8 0.000000 0.000000 0.500000
O O9 0.888020 0.761486 0.121988
O O10 0.500000 0.500000 0.500000
O O11 0.826203 0.280650 0.155122
O O12 0.500000 0.000000 0.000000
#
# Coordination Sequence:
#
# PCOD8037733 Si02
#       5
#     2   2   2   2   2
#     4  12  27  48  82 110 151 202 254 315 369 455
#     4  12  26  47  78 115 155 194 255 303 382 457
#     4  12  28  46  76 116 157 198 241 319 380 448
#     4  12  29  52  77 110 151 200 256 321 381 441
#     4  12  27  50  77 111 153 198 259 304 380 452
#
# _framework density 23.799845000000001
#
# number of rings (size 3 to 8) (size 9 to 14) (size 15 to 20)
#    0.000    0.000    2.000    6.600    8.400    0.000 
#    0.000    6.000    0.000    0.000    0.000    0.000 
#    0.000    0.000    0.000    0.000    0.000    0.000 
#
# Total GULP energy -123930.459071 kJ/mol
# GULP energy per Si atom -12393.045907 kJ/mol
# Density = 2.374568 g / cm^3
# Si number density = 23.799845 Si / 1000 Ang^3
#
#
#
# Elastic Constant Matrix: (Units=GPa)
#
#
# Indices 1 2 3 4 5 6 
#
# 1 170.5167 97.0250 81.0072 -6.6851 13.9857 -16.1054
# 2 97.0250 129.7927 61.5399 0.8482 16.7244 3.5370
# 3 81.0072 61.5399 180.6105 4.4132 16.3782 -11.1070
# 4 -6.6851 0.8482 4.4132 44.3789 0.3573 0.2897
# 5 13.9857 16.7244 16.3782 0.3573 48.6167 5.0565
# 6 -16.1054 3.5370 -11.1070 0.2897 5.0565 33.5405
#
#
#
# Elastic Compliance Matrix: (Units=1/GPa)
#
#
# Indices 1 2 3 4 5 6 
#
# 1 0.012398 -0.008247 -0.002377 0.002226 -0.000580 0.006104
# 2 -0.008247 0.015001 -0.001589 -0.001320 -0.001639 -0.005809
# 3 -0.002377 -0.001589 0.007405 -0.001064 -0.001434 0.001704
# 4 0.002226 -0.001320 -0.001064 0.022996 -0.000066 0.000667
# 5 -0.000580 -0.001639 -0.001434 -0.000066 0.022191 -0.003925
# 6 0.006104 -0.005809 0.001704 0.000667 -0.003925 0.034508
#
#
# Mechanical properties :
#
#
# Convention : Reuss Voigt Hill
#
# Bulk Modulus (GPa) = 96.35651 106.67379 101.51515
# Shear Modulus (GPa) = 35.11639 41.39709 38.25674
#
# Velocity S-wave (km/s) = 3.84538 4.17512 4.01363
# Velocity P-wave (km/s) = 7.76466 8.25595 8.01407
#
# Compressibility (1/GPa) = 0.01037813
#
# Stress axis : x y z
#
# Youngs Moduli (GPa) = 80.66070 66.66310 135.04260
#
# Poissons Ratio (x) = 0.54976 0.32101
# Poissons Ratio (y) = 0.66519 0.21456
# Poissons Ratio (z) = 0.19174 0.10592
#
# Static dielectric constant tensor:
#      x y z
#    x 3.687000 -0.044130 0.735100 
#    y -0.044130 4.582080 0.236060 
#    z 0.735100 0.236060 3.879010 
# 
# 
# High freq. dielectric constant tensor:
#      x y z
#    x 1.941280 0.001720 -0.002360 
#    y 0.001720 1.952000 0.005120 
#    z -0.002360 0.005120 1.978960 
# 
# From -- ./inp_files/254836.got.cif
#   From: 2010.06.25/outbox.cif.g09.slc.cpg/sg2_128_cif.got.tgz:254836.got - 2010.06.27 13:26:56.
