data_PCOD8037072
_publ_section_title
;
Structure prediction by ZEFSAII (Michael W. Deem and Ramdas Pophale) SiO2 
 PCOD8037072
Probable space group: P -1
;
_chemical_formula_sum "Si O2"
_cell_formula_units_Z 16
_cell_length_a 15.293794
_cell_length_b 11.903634
_cell_length_c 15.782105
_cell_angle_alpha 61.289801
_cell_angle_beta 37.749362
_cell_angle_gamma 31.804430
_cell_volume 745.873367
_symmetry_space_group_name_H-M "P -1"
_symmetry_group_IT_number 2
_symmetry_cell_setting 'triclinic'
loop_
_space_group_symop_operation_xyz
x,y,z
-x,-y,-z
loop_
_atom_site_type_symbol
_atom_site_label
_atom_site_fract_x
_atom_site_fract_y
_atom_site_fract_z
Si Si1 0.224478 0.492181 0.035075
Si Si2 0.209125 0.779627 0.669097
Si Si3 0.743549 0.978902 0.513290
Si Si4 0.163441 0.107277 0.194674
Si Si5 0.930234 0.531301 0.137246
Si Si6 0.878410 0.386450 0.485580
Si Si7 0.813716 0.738334 0.399755
Si Si8 0.728969 0.272231 0.160061
O O1 0.969080 0.635328 0.118034
O O2 0.070439 0.617040 0.199595
O O3 0.338634 0.539241 0.899560
O O4 0.500460 0.180407 0.933830
O O5 0.500000 0.500000 0.500000
O O6 0.210812 0.752355 0.778005
O O7 0.932558 0.923525 0.788673
O O8 0.146075 0.979234 0.631867
O O9 0.815526 0.795349 0.471374
O O10 0.886051 0.852962 0.541739
O O11 0.394804 0.270242 0.680149
O O12 0.153490 0.253872 0.106645
O O13 0.953821 0.266577 0.380266
O O14 0.000000 0.500000 0.000000
O O15 0.899418 0.522702 0.415907
O O16 0.549805 0.602075 0.685190
O O17 0.500000 0.000000 0.500000
O O18 0.000000 0.000000 0.000000
#
# Coordination Sequence:
#
# PCOD8037072 Si02
#       8
#     2   2   2   2   2   2   2   2
#     4  12  26  42  73 105 139 181 233 298 351 416
#     4  12  24  46  72 101 142 189 235 286 360 423
#     4  12  26  44  72 102 139 191 239 285 352 435
#     4  12  25  45  71 106 143 181 237 299 357 421
#     4  12  24  41  67 101 140 181 228 290 355 416
#     4  12  26  46  73 105 142 188 238 292 355 427
#     4  12  24  49  71  99 145 190 232 287 361 425
#     4  12  27  48  73 104 143 192 241 291 357 427
#
# _framework density 21.451362
#
# number of rings (size 3 to 8) (size 9 to 14) (size 15 to 20)
#    0.000    0.000    5.000    5.250    3.500    2.000 
#    0.000    2.500    0.000    0.000    0.000    0.000 
#    0.000    0.000    0.000    0.000    0.000    0.000 
#
# Total GULP energy -198484.183544 kJ/mol
# GULP energy per Si atom -12405.261472 kJ/mol
# Density = 2.140254 g / cm^3
# Si number density = 21.451362 Si / 1000 Ang^3
#
#
#
# Elastic Constant Matrix: (Units=GPa)
#
#
# Indices 1 2 3 4 5 6 
#
# 1 116.9504 31.4363 33.6786 -7.2087 7.5511 -1.0863
# 2 31.4363 123.0621 45.1303 -10.0230 10.7814 -6.4578
# 3 33.6786 45.1303 110.2976 -9.8116 16.3969 -0.6281
# 4 -7.2087 -10.0230 -9.8116 39.0701 1.9616 0.8306
# 5 7.5511 10.7814 16.3969 1.9616 37.8810 -2.8072
# 6 -1.0863 -6.4578 -0.6281 0.8306 -2.8072 30.2566
#
#
#
# Elastic Compliance Matrix: (Units=1/GPa)
#
#
# Indices 1 2 3 4 5 6 
#
# 1 0.009683 -0.001567 -0.002147 0.000878 -0.000608 -0.000112
# 2 -0.001567 0.010061 -0.003343 0.001465 -0.001041 0.001885
# 3 -0.002147 -0.003343 0.011839 0.001936 -0.003917 -0.000961
# 4 0.000878 0.001465 0.001936 0.026776 -0.002862 -0.000616
# 5 -0.000608 -0.001041 -0.003917 -0.002862 0.028839 0.002429
# 6 -0.000112 0.001885 -0.000961 -0.000616 0.002429 0.033671
#
#
# Mechanical properties :
#
#
# Convention : Reuss Voigt Hill
#
# Bulk Modulus (GPa) = 57.24495 63.42227 60.33361
# Shear Modulus (GPa) = 35.50971 37.44587 36.47779
#
# Velocity S-wave (km/s) = 4.07302 4.18259 4.12817
# Velocity P-wave (km/s) = 6.99022 7.27703 7.13507
#
# Compressibility (1/GPa) = 0.01746879
#
# Stress axis : x y z
#
# Youngs Moduli (GPa) = 103.27792 99.38894 84.46789
#
# Poissons Ratio (x) = 0.15574 0.18139
# Poissons Ratio (y) = 0.16183 0.28235
# Poissons Ratio (z) = 0.22178 0.33222
#
# Static dielectric constant tensor:
#      x y z
#    x 4.025280 -0.024420 0.001330 
#    y -0.024420 3.890620 -0.142930 
#    z 0.001330 -0.142930 3.910360 
# 
# 
# High freq. dielectric constant tensor:
#      x y z
#    x 1.854920 0.000850 -0.001680 
#    y 0.000850 1.848330 -0.007050 
#    z -0.001680 -0.007050 1.851010 
# 
# From -- ./inp_files/522264.got.cif
#   From: 2010.06.25/outbox.cif.g09.slc.cpg/sg2_262_cif.got.tgz:522264.got - 2010.06.27 13:26:56.
