data_PCOD8037517
_publ_section_title
;
Structure prediction by ZEFSAII (Michael W. Deem and Ramdas Pophale) SiO2 
 PCOD8037517
Probable space group: P -1
;
_chemical_formula_sum "Si O2"
_cell_formula_units_Z 12
_cell_length_a 10.839319
_cell_length_b 12.775283
_cell_length_c 11.580703
_cell_angle_alpha 23.261241
_cell_angle_beta 49.379003
_cell_angle_gamma 51.757925
_cell_volume 479.543561
_symmetry_space_group_name_H-M "P -1"
_symmetry_group_IT_number 2
_symmetry_cell_setting 'triclinic'
loop_
_space_group_symop_operation_xyz
x,y,z
-x,-y,-z
loop_
_atom_site_type_symbol
_atom_site_label
_atom_site_fract_x
_atom_site_fract_y
_atom_site_fract_z
Si Si1 0.892594 0.770856 0.758829
Si Si2 0.583502 0.958958 0.370046
Si Si3 0.912993 0.853951 0.396506
Si Si4 0.430470 0.493117 0.309726
Si Si5 0.869922 0.653394 0.249707
Si Si6 0.388368 0.240281 0.888673
O O1 0.856814 0.788294 0.626436
O O2 0.710063 0.829976 0.862981
O O3 0.000000 0.000000 0.500000
O O4 0.000000 0.500000 0.000000
O O5 0.500000 0.000000 0.500000
O O6 0.768460 0.872293 0.375605
O O7 0.480618 0.729786 0.601772
O O8 0.583849 0.218915 0.028023
O O9 0.029894 0.619205 0.515136
O O10 0.013667 0.111739 0.065354
O O11 0.262130 0.341787 0.572270
O O12 0.500191 0.524984 0.367298
O O13 0.764520 0.643197 0.208254
O O14 0.500000 0.000000 0.000000
#
# Coordination Sequence:
#
# PCOD8037517 Si02
#       6
#     2   2   2   2   2   2
#     4  12  25  46  75 111 148 194 252 312 386 449
#     4  12  28  51  75 106 150 202 261 311 376 463
#     4  12  25  47  75 108 148 196 250 321 368 459
#     4  12  28  47  76 109 153 205 250 311 387 456
#     4  12  26  46  74 113 149 191 255 310 393 443
#     4  12  26  49  80 114 160 199 256 322 385 458
#
# _framework density 25.023795
#
# number of rings (size 3 to 8) (size 9 to 14) (size 15 to 20)
#    0.000    0.000    3.333    6.000    0.000   10.667 
#    0.000    0.000    0.000    0.000    0.000    0.000 
#    0.000    0.000    0.000    0.000    0.000    0.000 
#
# Total GULP energy -148665.812801 kJ/mol
# GULP energy per Si atom -12388.817733 kJ/mol
# Density = 2.496684 g / cm^3
# Si number density = 25.023795 Si / 1000 Ang^3
#
#
#
# Elastic Constant Matrix: (Units=GPa)
#
#
# Indices 1 2 3 4 5 6 
#
# 1 128.0583 30.1857 57.3571 -20.5163 -7.7076 16.5351
# 2 30.1857 111.5376 26.7749 -22.8382 -21.6104 5.7022
# 3 57.3571 26.7749 160.4327 -36.7429 -9.1612 0.5700
# 4 -20.5163 -22.8382 -36.7429 38.4976 0.1962 -8.7191
# 5 -7.7076 -21.6104 -9.1612 0.1962 44.9086 -1.2783
# 6 16.5351 5.7022 0.5700 -8.7191 -1.2783 51.7818
#
#
#
# Elastic Compliance Matrix: (Units=1/GPa)
#
#
# Indices 1 2 3 4 5 6 
#
# 1 0.010110 -0.001635 -0.003144 0.000764 0.000222 -0.002880
# 2 -0.001635 0.011667 0.000446 0.006554 0.005409 0.000469
# 3 -0.003144 0.000446 0.009155 0.007820 0.001571 0.002209
# 4 0.000764 0.006554 0.007820 0.038985 0.004870 0.005633
# 5 0.000222 0.005409 0.001571 0.004870 0.025229 0.000759
# 6 -0.002880 0.000469 0.002209 0.005633 0.000759 0.021122
#
#
# Mechanical properties :
#
#
# Convention : Reuss Voigt Hill
#
# Bulk Modulus (GPa) = 44.90974 69.85154 57.38064
# Shear Modulus (GPa) = 37.77648 46.08501 41.93074
#
# Velocity S-wave (km/s) = 3.88960 4.29610 4.09789
# Velocity P-wave (km/s) = 6.17720 7.25143 6.73576
#
# Compressibility (1/GPa) = 0.02226689
#
# Stress axis : x y z
#
# Youngs Moduli (GPa) = 98.91241 85.71097 109.22492
#
# Poissons Ratio (x) = 0.14011 0.34337
# Poissons Ratio (y) = 0.16169 -0.04867
# Poissons Ratio (z) = 0.31095 -0.03819
#
# Static dielectric constant tensor:
#      x y z
#    x 4.205610 -0.053640 -0.066880 
#    y -0.053640 5.123760 0.413790 
#    z -0.066880 0.413790 4.710410 
# 
# 
# High freq. dielectric constant tensor:
#      x y z
#    x 2.017050 0.011200 -0.001010 
#    y 0.011200 2.023110 0.009370 
#    z -0.001010 0.009370 2.009740 
# 
# From -- ./inp_files/424738.got.cif
#   From: 2010.06.25/outbox.cif.g09.slc.cpg/sg2_213_cif.got.tgz:424738.got - 2010.06.27 13:26:56.
