data_PCOD8037323
_publ_section_title
;
Structure prediction by ZEFSAII (Michael W. Deem and Ramdas Pophale) SiO2 
 PCOD8037323
Probable space group: P -1
;
_chemical_formula_sum "Si O2"
_cell_formula_units_Z 16
_cell_length_a 14.711252
_cell_length_b 8.838200
_cell_length_c 20.485379
_cell_angle_alpha 60.863233
_cell_angle_beta 160.705630
_cell_angle_gamma 109.411952
_cell_volume 690.045701
_symmetry_space_group_name_H-M "P -1"
_symmetry_group_IT_number 2
_symmetry_cell_setting 'triclinic'
loop_
_space_group_symop_operation_xyz
x,y,z
-x,-y,-z
loop_
_atom_site_type_symbol
_atom_site_label
_atom_site_fract_x
_atom_site_fract_y
_atom_site_fract_z
Si Si1 0.807799 0.726264 0.516593
Si Si2 0.218550 0.205556 0.767237
Si Si3 0.937008 0.204092 0.442939
Si Si4 0.246647 0.638429 0.465371
Si Si5 0.543518 0.659381 0.540520
Si Si6 0.598849 0.440437 0.971959
Si Si7 0.330457 0.993322 0.228184
Si Si8 0.227900 0.428943 0.071887
O O1 0.797249 0.528423 0.567949
O O2 0.509999 0.912050 0.299441
O O3 0.828492 0.737749 0.449828
O O4 0.118200 0.716075 0.762455
O O5 0.342872 0.362759 0.803651
O O6 0.984798 0.210953 0.551228
O O7 0.041072 0.234735 0.710090
O O8 0.500000 0.000000 0.000000
O O9 0.585284 0.356479 0.157016
O O10 0.000000 0.000000 0.500000
O O11 0.293365 0.750657 0.410596
O O12 0.559290 0.533476 0.740012
O O13 0.500000 0.500000 0.500000
O O14 0.523014 0.842363 0.446865
O O15 0.871759 0.554515 0.820888
O O16 0.722960 0.492463 0.979981
O O17 0.315430 0.202130 0.183043
O O18 0.000000 0.000000 0.000000
#
# Coordination Sequence:
#
# PCOD8037323 Si02
#       8
#     2   2   2   2   2   2   2   2
#     4  12  25  44  74 106 146 195 248 302 376 443
#     4  12  28  47  71 111 154 197 254 306 367 454
#     4  12  25  44  71 107 145 195 251 301 375 445
#     4  12  26  46  75 104 152 199 242 306 382 436
#     4  12  24  50  76 107 146 194 249 312 373 442
#     4  12  24  47  76 105 154 198 242 313 376 441
#     4  12  26  46  76 110 143 191 254 309 372 451
#     4  12  25  46  78 106 149 193 245 313 381 441
#
# _framework density 23.186869000000002
#
# number of rings (size 3 to 8) (size 9 to 14) (size 15 to 20)
#    0.000    0.000    6.250    3.375    3.500    1.500 
#    0.000    1.250    0.000    0.000    0.000    0.000 
#    0.000    0.000    0.000    0.000    0.000    0.000 
#
# Total GULP energy -198369.142353 kJ/mol
# GULP energy per Si atom -12398.071397 kJ/mol
# Density = 2.313409 g / cm^3
# Si number density = 23.186869 Si / 1000 Ang^3
#
#
#
# Elastic Constant Matrix: (Units=GPa)
#
#
# Indices 1 2 3 4 5 6 
#
# 1 144.8313 28.9210 24.8133 -9.7174 23.5807 6.5931
# 2 28.9210 77.7135 24.8824 -7.2367 8.6917 0.8729
# 3 24.8133 24.8824 118.0352 -5.7158 20.9086 -10.1138
# 4 -9.7174 -7.2367 -5.7158 41.2362 -1.2590 -2.7835
# 5 23.5807 8.6917 20.9086 -1.2590 38.0223 -2.3657
# 6 6.5931 0.8729 -10.1138 -2.7835 -2.3657 32.2799
#
#
#
# Elastic Compliance Matrix: (Units=1/GPa)
#
#
# Indices 1 2 3 4 5 6 
#
# 1 0.008359 -0.002286 -0.000611 0.001210 -0.004413 -0.002056
# 2 -0.002286 0.014742 -0.002501 0.001643 -0.000561 -0.000615
# 3 -0.000611 -0.002501 0.010230 0.000912 -0.004448 0.003150
# 4 0.001210 0.001643 0.000912 0.025072 -0.000667 0.002107
# 5 -0.004413 -0.000561 -0.004448 -0.000667 0.031701 0.001789
# 6 -0.002056 -0.000615 0.003150 0.002107 0.001789 0.032715
#
#
# Mechanical properties :
#
#
# Convention : Reuss Voigt Hill
#
# Bulk Modulus (GPa) = 44.37510 55.31259 49.84384
# Shear Modulus (GPa) = 35.42906 39.77188 37.60047
#
# Velocity S-wave (km/s) = 3.91318 4.14608 4.03131
# Velocity P-wave (km/s) = 6.29260 6.84302 6.57358
#
# Compressibility (1/GPa) = 0.02253516
#
# Stress axis : x y z
#
# Youngs Moduli (GPa) = 119.62991 67.83438 97.75359
#
# Poissons Ratio (x) = 0.15505 0.05974
# Poissons Ratio (y) = 0.27344 0.24447
# Poissons Ratio (z) = 0.07312 0.16965
#
# Static dielectric constant tensor:
#      x y z
#    x 0.996860 -1.227530 -2.223780 
#    y -1.227530 3.648410 -0.957670 
#    z -2.223780 -0.957670 2.841040 
# 
# 
# High freq. dielectric constant tensor:
#      x y z
#    x 1.937410 0.010750 0.012730 
#    y 0.010750 1.910420 -0.000900 
#    z 0.012730 -0.000900 1.919900 
# 
# From -- ./inp_files/319435.got.cif
#   From: 2010.06.25/outbox.cif.g09.slc.cpg/sg2_160_cif.got.tgz:319435.got - 2010.06.27 13:26:56.
