data_PCOD8037455
_publ_section_title
;
Structure prediction by ZEFSAII (Michael W. Deem and Ramdas Pophale) SiO2 
 PCOD8037455
Probable space group: P -1
;
_chemical_formula_sum "Si O2"
_cell_formula_units_Z 14
_cell_length_a 12.481476
_cell_length_b 5.172467
_cell_length_c 11.903966
_cell_angle_alpha 74.155830
_cell_angle_beta 125.113738
_cell_angle_gamma 78.128411
_cell_volume 536.682992
_symmetry_space_group_name_H-M "P -1"
_symmetry_group_IT_number 2
_symmetry_cell_setting 'triclinic'
loop_
_space_group_symop_operation_xyz
x,y,z
-x,-y,-z
loop_
_atom_site_type_symbol
_atom_site_label
_atom_site_fract_x
_atom_site_fract_y
_atom_site_fract_z
Si Si1 0.831939 0.408822 0.633532
Si Si2 0.167684 0.179657 0.807370
Si Si3 0.677179 0.783040 0.884958
Si Si4 0.100670 0.647349 0.076647
Si Si5 0.623299 0.167095 0.587377
Si Si6 0.634577 0.036847 0.370283
Si Si7 0.168024 0.783058 0.660174
O O1 0.811552 0.524375 0.737418
O O2 0.769071 0.167847 0.619769
O O3 0.001513 0.250920 0.722274
O O4 0.746093 0.682979 0.461676
O O5 0.184264 0.452547 0.726765
O O6 0.225324 0.896781 0.790072
O O7 0.258831 0.106412 0.986324
O O8 0.782943 0.432922 0.948906
O O9 0.512216 0.840368 0.810250
O O10 0.675203 0.984967 0.754551
O O11 0.000000 0.500000 0.000000
O O12 0.000000 0.000000 0.000000
O O13 0.500000 0.500000 0.500000
O O14 0.570379 0.051187 0.458403
O O15 0.722546 0.229356 0.373312
O O16 0.000000 0.000000 0.500000
#
# Coordination Sequence:
#
# PCOD8037455 Si02
#       7
#     2   2   2   2   2   2   2
#     4  12  25  44  75 110 151 203 266 314 399 461
#     4  12  30  48  81 115 154 208 267 333 392 463
#     4  12  27  51  74 125 161 202 266 331 405 475
#     4  12  26  44  73 112 159 204 247 318 394 472
#     4  12  25  45  78 116 160 208 257 323 405 482
#     4  12  27  48  78 110 157 210 264 331 388 467
#     4  12  28  53  82 111 152 210 278 321 389 471
#
# _framework density 26.086165000000001
#
# number of rings (size 3 to 8) (size 9 to 14) (size 15 to 20)
#    0.000    0.000    5.714    3.429    4.000    2.286 
#    0.000    0.000    0.000    0.000    0.000    0.000 
#    0.000    0.000    0.000    0.000    0.000    0.000 
#
# Total GULP energy -173549.602916 kJ/mol
# GULP energy per Si atom -12396.400208 kJ/mol
# Density = 2.602679 g / cm^3
# Si number density = 26.086165 Si / 1000 Ang^3
#
#
#
# Elastic Constant Matrix: (Units=GPa)
#
#
# Indices 1 2 3 4 5 6 
#
# 1 118.7987 -9.9007 34.7684 -5.6572 7.9990 3.7916
# 2 -9.9007 69.3146 29.8521 16.9755 -0.6196 -2.2190
# 3 34.7684 29.8521 117.1722 11.9959 11.9190 -14.7610
# 4 -5.6572 16.9755 11.9959 29.3053 -11.1309 -16.2640
# 5 7.9990 -0.6196 11.9190 -11.1309 51.1330 0.5487
# 6 3.7916 -2.2190 -14.7610 -16.2640 0.5487 35.5514
#
#
#
# Elastic Compliance Matrix: (Units=1/GPa)
#
#
# Indices 1 2 3 4 5 6 
#
# 1 0.009962 0.002986 -0.003999 0.000320 -0.000495 -0.002382
# 2 0.002986 0.020342 -0.005407 -0.013971 -0.001919 -0.007656
# 3 -0.003999 -0.005407 0.012038 -0.000897 -0.002492 0.004715
# 4 0.000320 -0.013971 -0.000897 0.062865 0.013382 0.027274
# 5 -0.000495 -0.001919 -0.002492 0.013382 0.023055 0.004664
# 6 -0.002382 -0.007656 0.004715 0.027274 0.004664 0.042268
#
#
# Mechanical properties :
#
#
# Convention : Reuss Voigt Hill
#
# Bulk Modulus (GPa) = 33.89800 46.08055 39.98927
# Shear Modulus (GPa) = 25.87951 39.90234 32.89093
#
# Velocity S-wave (km/s) = 3.15314 3.91530 3.55471
# Velocity P-wave (km/s) = 5.12633 6.17596 5.67546
#
# Compressibility (1/GPa) = 0.02950026
#
# Stress axis : x y z
#
# Youngs Moduli (GPa) = 100.38646 49.16005 83.06934
#
# Poissons Ratio (x) = -0.14680 0.33221
# Poissons Ratio (y) = -0.29977 0.44919
# Poissons Ratio (z) = 0.40147 0.26583
#
# Static dielectric constant tensor:
#      x y z
#    x 4.874810 0.223040 0.006380 
#    y 0.223040 4.224000 0.273950 
#    z 0.006380 0.273950 5.017630 
# 
# 
# High freq. dielectric constant tensor:
#      x y z
#    x 2.056720 0.005550 0.005510 
#    y 0.005550 2.045630 0.014770 
#    z 0.005510 0.014770 2.053830 
# 
# From -- ./inp_files/410141.got.cif
#   From: 2010.06.25/outbox.cif.g09.slc.cpg/sg2_206_cif.got.tgz:410141.got - 2010.06.27 13:26:56.
