data_PCOD8037364
_publ_section_title
;
Structure prediction by ZEFSAII (Michael W. Deem and Ramdas Pophale) SiO2 
 PCOD8037364
Probable space group: P -1
;
_chemical_formula_sum "Si O2"
_cell_formula_units_Z 14
_cell_length_a 9.064803
_cell_length_b 9.552515
_cell_length_c 8.558881
_cell_angle_alpha 115.136543
_cell_angle_beta 112.219289
_cell_angle_gamma 73.211942
_cell_volume 613.809394
_symmetry_space_group_name_H-M "P -1"
_symmetry_group_IT_number 2
_symmetry_cell_setting 'triclinic'
loop_
_space_group_symop_operation_xyz
x,y,z
-x,-y,-z
loop_
_atom_site_type_symbol
_atom_site_label
_atom_site_fract_x
_atom_site_fract_y
_atom_site_fract_z
Si Si1 0.022191 0.247547 0.275975
Si Si2 0.333527 0.323200 0.569658
Si Si3 0.598523 0.777035 0.104243
Si Si4 0.064101 0.319030 0.970621
Si Si5 0.408900 0.892812 0.614101
Si Si6 0.334962 0.664184 0.731642
Si Si7 0.909953 0.050933 0.648202
O O1 0.142357 0.324989 0.473676
O O2 0.841396 0.332442 0.265122
O O3 0.030871 0.065237 0.240437
O O4 0.074200 0.272189 0.132581
O O5 0.377769 0.304431 0.758686
O O6 0.425353 0.183690 0.434744
O O7 0.390418 0.485114 0.616347
O O8 0.755699 0.728646 0.040617
O O9 0.558521 0.964429 0.195946
O O10 0.448795 0.718138 0.934487
O O11 0.942090 0.223286 0.787117
O O12 0.000000 0.500000 0.000000
O O13 0.329838 0.770363 0.627553
O O14 0.280544 0.950799 0.453725
O O15 0.000000 0.000000 0.500000
#
# Coordination Sequence:
#
# PCOD8037364 Si02
#       7
#     2   2   2   2   2   2   2
#     4  12  26  47  74 108 142 192 239 289 356 430
#     4  12  27  47  74 106 142 188 240 293 358 421
#     4  12  26  50  68 108 144 188 235 297 353 425
#     4  12  28  45  75 108 148 184 241 297 356 419
#     4  12  26  46  75 102 145 187 239 288 358 429
#     4  12  27  45  75 105 147 180 238 299 359 414
#     4  12  24  48  74 106 143 192 237 292 354 426
#
# _framework density 22.808382999999999
#
# number of rings (size 3 to 8) (size 9 to 14) (size 15 to 20)
#    0.000    0.000    4.286    4.286    6.000    1.143 
#    0.000    0.000    0.000    0.000    0.000    0.000 
#    0.000    0.000    0.000    0.000    0.000    0.000 
#
# Total GULP energy -173711.322606 kJ/mol
# GULP energy per Si atom -12407.951615 kJ/mol
# Density = 2.275647 g / cm^3
# Si number density = 22.808383 Si / 1000 Ang^3
#
#
#
# Elastic Constant Matrix: (Units=GPa)
#
#
# Indices 1 2 3 4 5 6 
#
# 1 130.9445 50.8534 49.4285 5.0016 3.3913 -15.5423
# 2 50.8534 142.9465 58.1910 8.3204 -9.9281 12.3030
# 3 49.4285 58.1910 101.9335 -2.4241 7.4520 -8.9093
# 4 5.0016 8.3204 -2.4241 34.9185 6.9215 1.0847
# 5 3.3913 -9.9281 7.4520 6.9215 47.5596 -4.8986
# 6 -15.5423 12.3030 -8.9093 1.0847 -4.8986 36.6541
#
#
#
# Elastic Compliance Matrix: (Units=1/GPa)
#
#
# Indices 1 2 3 4 5 6 
#
# 1 0.010501 -0.002831 -0.003081 -0.001147 -0.000210 0.004660
# 2 -0.002831 0.011351 -0.005946 -0.003194 0.003359 -0.005912
# 3 -0.003081 -0.005946 0.015378 0.003509 -0.003545 0.003849
# 4 -0.001147 -0.003194 0.003509 0.030936 -0.005661 -0.000233
# 5 -0.000210 0.003359 -0.003545 -0.005661 0.023245 0.001196
# 6 0.004660 -0.005912 0.003849 -0.000233 0.001196 0.032345
#
#
# Mechanical properties :
#
#
# Convention : Reuss Voigt Hill
#
# Bulk Modulus (GPa) = 73.98843 76.97448 75.48146
# Shear Modulus (GPa) = 32.89995 38.31654 35.60825
#
# Velocity S-wave (km/s) = 3.80208 4.10314 3.95548
# Velocity P-wave (km/s) = 7.19611 7.50129 7.35028
#
# Compressibility (1/GPa) = 0.01351563
#
# Stress axis : x y z
#
# Youngs Moduli (GPa) = 95.22488 88.09774 65.02982
#
# Poissons Ratio (x) = 0.24937 0.20035
# Poissons Ratio (y) = 0.26955 0.38664
# Poissons Ratio (z) = 0.29338 0.52380
#
# Static dielectric constant tensor:
#      x y z
#    x 4.198830 -0.032110 0.117130 
#    y -0.032110 4.484230 -0.076850 
#    z 0.117130 -0.076850 4.249270 
# 
# 
# High freq. dielectric constant tensor:
#      x y z
#    x 1.910570 0.006620 0.004090 
#    y 0.006620 1.919470 -0.002350 
#    z 0.004090 -0.002350 1.905980 
# 
# From -- ./inp_files/157708.got.cif
#   From: 2010.06.25/outbox.cif.g09.slc.cpg/sg2_79_cif.got.tgz:157708.got - 2010.06.27 13:26:56.
