data_PCOD8037952
_publ_section_title
;
Structure prediction by ZEFSAII (Michael W. Deem and Ramdas Pophale) SiO2 
 PCOD8037952
Probable space group: P -1
;
_chemical_formula_sum "Si O2"
_cell_formula_units_Z 16
_cell_length_a 16.541270
_cell_length_b 17.288868
_cell_length_c 10.074267
_cell_angle_alpha 33.604555
_cell_angle_beta 45.724503
_cell_angle_gamma 34.595926
_cell_volume 904.634927
_symmetry_space_group_name_H-M "P -1"
_symmetry_group_IT_number 2
_symmetry_cell_setting 'triclinic'
loop_
_space_group_symop_operation_xyz
x,y,z
-x,-y,-z
loop_
_atom_site_type_symbol
_atom_site_label
_atom_site_fract_x
_atom_site_fract_y
_atom_site_fract_z
Si Si1 0.476615 0.172008 0.225852
Si Si2 0.808187 0.560338 0.713875
Si Si3 0.493358 0.209708 0.607626
Si Si4 0.668705 0.170154 0.217168
Si Si5 0.896043 0.772874 0.164142
Si Si6 0.750450 0.429199 0.714724
Si Si7 0.951304 0.881963 0.200307
Si Si8 0.392320 0.978806 0.985361
O O1 0.308297 0.337212 0.182393
O O2 0.557268 0.220285 0.158007
O O3 0.500000 0.000000 0.500000
O O4 0.533491 0.144968 0.050651
O O5 0.840728 0.689290 0.438480
O O6 0.737706 0.520408 0.737161
O O7 0.953912 0.380129 0.859507
O O8 0.606458 0.189937 0.405175
O O9 0.357071 0.414624 0.487189
O O10 0.567580 0.144260 0.758517
O O11 0.444654 0.097085 0.770759
O O12 0.809056 0.964839 0.332210
O O13 0.707588 0.302534 0.969796
O O14 0.916734 0.888256 0.074463
O O15 0.779334 0.896572 0.009681
O O16 0.913567 0.319431 0.628962
O O17 0.000000 0.000000 0.000000
#
# Coordination Sequence:
#
# PCOD8037952 Si02
#       8
#     2   2   2   2   2   2   2   2
#     4  12  18  33  54  83 102 134 187 225 255 311
#     4  10  19  29  55  82 103 130 185 225 260 304
#     4  11  22  36  53  82 111 147 171 220 277 318
#     4  11  19  33  60  80 104 142 185 221 264 316
#     4  10  17  33  53  78 106 140 171 224 268 312
#     4  10  19  35  54  83 109 136 182 225 264 318
#     4   9  19  31  55  84 106 133 180 230 263 306
#     4  11  22  36  54  78 117 140 177 220 272 324
#
# _framework density 17.686693999999999
#
# number of rings (size 3 to 8) (size 9 to 14) (size 15 to 20)
#    0.000    1.500    6.250    0.375    0.000    0.000 
#    0.000    1.875    0.000    9.750    0.000    0.000 
#    0.000    0.000    0.000    0.000    0.000    0.000 
#
# Total GULP energy -198339.028132 kJ/mol
# GULP energy per Si atom -12396.189258 kJ/mol
# Density = 1.764644 g / cm^3
# Si number density = 17.686694 Si / 1000 Ang^3
#
#
#
# Elastic Constant Matrix: (Units=GPa)
#
#
# Indices 1 2 3 4 5 6 
#
# 1 101.4056 44.9751 37.4775 -1.4932 10.5186 -11.1671
# 2 44.9751 143.4113 31.9874 1.5812 22.0616 -30.1781
# 3 37.4775 31.9874 57.2686 -2.4174 13.0925 -5.4100
# 4 -1.4932 1.5812 -2.4174 21.3748 -0.0989 0.4184
# 5 10.5186 22.0616 13.0925 -0.0989 32.4818 -9.3803
# 6 -11.1671 -30.1781 -5.4100 0.4184 -9.3803 38.1002
#
#
#
# Elastic Compliance Matrix: (Units=1/GPa)
#
#
# Indices 1 2 3 4 5 6 
#
# 1 0.013884 -0.002490 -0.007722 0.000261 0.000642 0.001156
# 2 -0.002490 0.010185 -0.002802 -0.001380 -0.003205 0.006165
# 3 -0.007722 -0.002802 0.025453 0.002565 -0.006575 -0.002515
# 4 0.000261 -0.001380 0.002565 0.047218 -0.000405 -0.001270
# 5 0.000642 -0.003205 -0.006575 -0.000405 0.037095 0.005853
# 6 0.001156 0.006165 -0.002515 -0.001270 0.005853 0.032566
#
#
# Mechanical properties :
#
#
# Convention : Reuss Voigt Hill
#
# Bulk Modulus (GPa) = 42.56345 58.99617 50.77981
# Shear Modulus (GPa) = 24.96755 30.90105 27.93430
#
# Velocity S-wave (km/s) = 3.76128 4.18441 3.97847
# Velocity P-wave (km/s) = 6.55595 7.53488 7.06239
#
# Compressibility (1/GPa) = 0.02349434
#
# Stress axis : x y z
#
# Youngs Moduli (GPa) = 72.02435 98.18808 39.28740
#
# Poissons Ratio (x) = 0.24453 0.30336
# Poissons Ratio (y) = 0.17937 0.11008
# Poissons Ratio (z) = 0.55615 0.27511
#
# Static dielectric constant tensor:
#      x y z
#    x 3.555050 -0.249090 -0.167830 
#    y -0.249090 3.960470 -0.113890 
#    z -0.167830 -0.113890 2.920390 
# 
# 
# High freq. dielectric constant tensor:
#      x y z
#    x 1.693460 -0.011520 -0.026360 
#    y -0.011520 1.708050 -0.013470 
#    z -0.026360 -0.013470 1.632050 
# 
# From -- ./inp_files/257102.got.cif
#   From: 2010.06.25/outbox.cif.g09.slc.cpg/sg2_129_cif.got.tgz:257102.got - 2010.06.27 13:26:56.
