data_PCOD8037869
_publ_section_title
;
Structure prediction by ZEFSAII (Michael W. Deem and Ramdas Pophale) SiO2 
 PCOD8037869
Probable space group: P -1
;
_chemical_formula_sum "Si O2"
_cell_formula_units_Z 16
_cell_length_a 12.998951
_cell_length_b 16.622164
_cell_length_c 10.672130
_cell_angle_alpha 120.946976
_cell_angle_beta 138.572728
_cell_angle_gamma 34.063496
_cell_volume 818.275136
_symmetry_space_group_name_H-M "P -1"
_symmetry_group_IT_number 2
_symmetry_cell_setting 'triclinic'
loop_
_space_group_symop_operation_xyz
x,y,z
-x,-y,-z
loop_
_atom_site_type_symbol
_atom_site_label
_atom_site_fract_x
_atom_site_fract_y
_atom_site_fract_z
Si Si1 0.075881 0.613781 0.849860
Si Si2 0.844020 0.393454 0.499012
Si Si3 0.694524 0.308386 0.827040
Si Si4 0.176189 0.329091 0.554683
Si Si5 0.853209 0.175706 0.374276
Si Si6 0.690216 0.172233 0.482007
Si Si7 0.556044 0.292860 0.941485
Si Si8 0.861661 0.568042 0.800868
O O1 0.330937 0.472471 0.894951
O O2 0.837454 0.728205 0.629569
O O3 0.036810 0.546776 0.855296
O O4 0.106267 0.700716 0.012310
O O5 0.583760 0.518931 0.288425
O O6 0.892671 0.267864 0.495801
O O7 0.831151 0.473794 0.662750
O O8 0.076120 0.312162 0.560671
O O9 0.746645 0.215204 0.683852
O O10 0.729028 0.242319 0.941439
O O11 0.449506 0.239005 0.766364
O O12 0.000000 0.500000 0.500000
O O13 0.704629 0.216410 0.395842
O O14 0.710660 0.213567 0.147595
O O15 0.122421 0.002105 0.479292
O O16 0.414387 0.258013 0.308020
O O17 0.000000 0.500000 0.000000
#
# Coordination Sequence:
#
# PCOD8037869 Si02
#       8
#     2   2   2   2   2   2   2   2
#     4  11  19  34  60  94 123 150 190 260 307 345
#     4  11  20  35  63  92 115 158 200 251 294 362
#     4  11  21  36  65  96 120 151 211 256 295 346
#     4  10  17  32  55  94 124 147 186 254 305 344
#     4  11  24  43  63  82 125 168 207 237 307 369
#     4  10  26  45  57  87 127 164 197 258 299 357
#     4  11  19  36  65  94 119 160 199 248 303 362
#     4  11  23  37  61  91 120 152 202 254 304 350
#
# _framework density 19.553325999999998
#
# number of rings (size 3 to 8) (size 9 to 14) (size 15 to 20)
#    0.000    1.250    6.250    2.625    1.750    1.500 
#    0.000    1.875    0.000    3.000    0.000    0.000 
#    0.000    0.000    0.000    0.000    0.000    0.000 
#
# Total GULP energy -198332.378748 kJ/mol
# GULP energy per Si atom -12395.773672 kJ/mol
# Density = 1.950882 g / cm^3
# Si number density = 19.553326 Si / 1000 Ang^3
#
#
#
# Elastic Constant Matrix: (Units=GPa)
#
#
# Indices 1 2 3 4 5 6 
#
# 1 89.7077 44.3540 59.4372 7.0550 -5.5478 14.3996
# 2 44.3540 63.5156 27.6625 0.7371 0.7524 4.7160
# 3 59.4372 27.6625 137.7359 9.3135 -3.9842 2.5879
# 4 7.0550 0.7371 9.3135 17.3743 4.5044 -3.7796
# 5 -5.5478 0.7524 -3.9842 4.5044 41.0317 6.2730
# 6 14.3996 4.7160 2.5879 -3.7796 6.2730 21.7663
#
#
#
# Elastic Compliance Matrix: (Units=1/GPa)
#
#
# Indices 1 2 3 4 5 6 
#
# 1 0.028046 -0.014775 -0.007704 -0.012695 0.007587 -0.018828
# 2 -0.014775 0.025286 0.000565 0.007172 -0.004216 0.006689
# 3 -0.007704 0.000565 0.010505 -0.001652 -0.000394 0.003552
# 4 -0.012695 0.007172 -0.001652 0.071878 -0.013477 0.023406
# 5 0.007587 -0.004216 -0.000394 -0.013477 0.029180 -0.014809
# 6 -0.018828 0.006689 0.003552 0.023406 -0.014809 0.064859
#
#
# Mechanical properties :
#
#
# Convention : Reuss Voigt Hill
#
# Bulk Modulus (GPa) = 49.97650 61.54073 55.75861
# Shear Modulus (GPa) = 17.84110 26.66817 22.25463
#
# Velocity S-wave (km/s) = 3.02393 3.69707 3.37731
# Velocity P-wave (km/s) = 6.14872 7.05450 6.61713
#
# Compressibility (1/GPa) = 0.02000941
#
# Stress axis : x y z
#
# Youngs Moduli (GPa) = 35.65509 39.54820 95.19322
#
# Poissons Ratio (x) = 0.58431 0.73337
# Poissons Ratio (y) = 0.52679 -0.05376
# Poissons Ratio (z) = 0.27469 -0.02234
#
# Static dielectric constant tensor:
#      x y z
#    x 4.418850 -0.114320 0.182220 
#    y -0.114320 3.128990 0.103180 
#    z 0.182220 0.103180 3.939450 
# 
# 
# High freq. dielectric constant tensor:
#      x y z
#    x 1.770230 0.006660 -0.002230 
#    y 0.006660 1.716760 0.017350 
#    z -0.002230 0.017350 1.779560 
# 
# From -- ./inp_files/225368.got.cif
#   From: 2010.06.25/outbox.cif.g09.slc.cpg/sg2_113_cif.got.tgz:225368.got - 2010.06.27 13:26:56.
