data_PCOD8037448
_publ_section_title
;
Structure prediction by ZEFSAII (Michael W. Deem and Ramdas Pophale) SiO2 
 PCOD8037448
Probable space group: P -1
;
_chemical_formula_sum "Si O2"
_cell_formula_units_Z 12
_cell_length_a 9.852397
_cell_length_b 12.812201
_cell_length_c 14.675903
_cell_angle_alpha 28.259013
_cell_angle_beta 119.142770
_cell_angle_gamma 135.782203
_cell_volume 550.187306
_symmetry_space_group_name_H-M "P -1"
_symmetry_group_IT_number 2
_symmetry_cell_setting 'triclinic'
loop_
_space_group_symop_operation_xyz
x,y,z
-x,-y,-z
loop_
_atom_site_type_symbol
_atom_site_label
_atom_site_fract_x
_atom_site_fract_y
_atom_site_fract_z
Si Si1 0.626457 0.840684 0.309105
Si Si2 0.748358 0.793689 0.575621
Si Si3 0.423448 0.106827 0.037620
Si Si4 0.305442 0.184154 0.129465
Si Si5 0.723253 0.095581 0.492329
Si Si6 0.039045 0.786150 0.023436
O O1 0.500000 0.500000 0.500000
O O2 0.690037 0.890124 0.397246
O O3 0.472537 0.898323 0.199145
O O4 0.845909 0.078793 0.140113
O O5 0.677589 0.843912 0.605974
O O6 0.621215 0.437503 0.803720
O O7 0.000000 0.000000 0.500000
O O8 0.395256 0.131232 0.115762
O O9 0.206857 0.958158 0.028509
O O10 0.200928 0.912250 0.377261
O O11 0.500000 0.500000 0.000000
O O12 0.124418 0.174341 0.043632
O O13 0.910547 0.430163 0.254148
O O14 0.500000 0.000000 0.500000
#
# Coordination Sequence:
#
# PCOD8037448 Si02
#       6
#     2   2   2   2   2   2
#     4  12  28  47  73 105 144 188 240 292 357 423
#     4  12  26  44  74 104 141 185 239 291 355 419
#     4  12  27  48  72 106 144 188 239 291 356 425
#     4  12  25  47  74 105 143 187 240 291 354 423
#     4  12  25  44  72 106 143 183 235 295 349 416
#     4  12  27  46  74 104 147 188 236 294 354 420
#
# _framework density 21.810753999999999
#
# number of rings (size 3 to 8) (size 9 to 14) (size 15 to 20)
#    0.000    0.000    5.000    4.000    4.667    2.000 
#    0.000    0.000    0.000    0.000    0.000    0.000 
#    0.000    0.000    0.000    0.000    0.000    0.000 
#
# Total GULP energy -148908.241732 kJ/mol
# GULP energy per Si atom -12409.020144 kJ/mol
# Density = 2.176111 g / cm^3
# Si number density = 21.810754 Si / 1000 Ang^3
#
#
#
# Elastic Constant Matrix: (Units=GPa)
#
#
# Indices 1 2 3 4 5 6 
#
# 1 137.4016 44.7782 46.3850 -6.6387 8.8972 9.3837
# 2 44.7782 122.5609 45.8735 2.9414 -0.3285 12.6595
# 3 46.3850 45.8735 158.8756 0.1985 -0.2446 5.4952
# 4 -6.6387 2.9414 0.1985 41.9251 -1.9436 -5.9744
# 5 8.8972 -0.3285 -0.2446 -1.9436 39.2162 6.9539
# 6 9.3837 12.6595 5.4952 -5.9744 6.9539 47.1985
#
#
#
# Elastic Compliance Matrix: (Units=1/GPa)
#
#
# Indices 1 2 3 4 5 6 
#
# 1 0.008971 -0.002578 -0.001866 0.001463 -0.001924 -0.000406
# 2 -0.002578 0.010159 -0.002098 -0.001391 0.000994 -0.002291
# 3 -0.001866 -0.002098 0.007446 -0.000166 0.000447 -0.000020
# 4 0.001463 -0.001391 -0.000166 0.024649 0.000314 0.003175
# 5 -0.001924 0.000994 0.000447 0.000314 0.026640 -0.003822
# 6 -0.000406 -0.002291 -0.000020 0.003175 -0.003822 0.022850
#
#
# Mechanical properties :
#
#
# Convention : Reuss Voigt Hill
#
# Bulk Modulus (GPa) = 74.11088 76.99017 75.55053
# Shear Modulus (GPa) = 42.26694 44.45473 43.36083
#
# Velocity S-wave (km/s) = 4.40693 4.51954 4.46359
# Velocity P-wave (km/s) = 7.74258 7.91270 7.82810
#
# Compressibility (1/GPa) = 0.01349330
#
# Stress axis : x y z
#
# Youngs Moduli (GPa) = 111.47338 98.43552 134.29411
#
# Poissons Ratio (x) = 0.25372 0.25054
# Poissons Ratio (y) = 0.28733 0.28178
# Poissons Ratio (z) = 0.20796 0.20654
#
# Static dielectric constant tensor:
#      x y z
#    x 4.073730 0.144830 0.524530 
#    y 0.144830 4.082990 0.516510 
#    z 0.524530 0.516510 6.127150 
# 
# 
# High freq. dielectric constant tensor:
#      x y z
#    x 1.868480 0.000570 -0.002980 
#    y 0.000570 1.867500 0.009650 
#    z -0.002980 0.009650 1.875540 
# 
# From -- ./inp_files/16997.got.cif
#   From: 2010.06.25/outbox.cif.g09.slc.cpg/sg2_9_cif.got.tgz:16997.got - 2010.06.27 13:26:56.
