data_PCOD8037598
_publ_section_title
;
Structure prediction by ZEFSAII (Michael W. Deem and Ramdas Pophale) SiO2 
 PCOD8037598
Probable space group: P -1
;
_chemical_formula_sum "Si O2"
_cell_formula_units_Z 16
_cell_length_a 16.368995
_cell_length_b 9.141828
_cell_length_c 9.097890
_cell_angle_alpha 70.350565
_cell_angle_beta 61.645865
_cell_angle_gamma 38.190835
_cell_volume 739.049056
_symmetry_space_group_name_H-M "P -1"
_symmetry_group_IT_number 2
_symmetry_cell_setting 'triclinic'
loop_
_space_group_symop_operation_xyz
x,y,z
-x,-y,-z
loop_
_atom_site_type_symbol
_atom_site_label
_atom_site_fract_x
_atom_site_fract_y
_atom_site_fract_z
Si Si1 0.631531 0.646116 0.294924
Si Si2 0.900800 0.754611 0.436075
Si Si3 0.629876 0.524224 0.661692
Si Si4 0.374276 0.979993 0.905200
Si Si5 0.626698 0.159620 0.728061
Si Si6 0.904811 0.720221 0.112932
Si Si7 0.068327 0.846682 0.351100
Si Si8 0.945799 0.179870 0.104676
O O1 0.608449 0.647771 0.487814
O O2 0.516570 0.696176 0.285162
O O3 0.780832 0.377884 0.218694
O O4 0.628021 0.833104 0.193833
O O5 0.866341 0.729437 0.311366
O O6 0.000000 0.500000 0.500000
O O7 0.981357 0.817392 0.358088
O O8 0.755970 0.948585 0.584827
O O9 0.509646 0.724225 0.810102
O O10 0.631126 0.337297 0.699321
O O11 0.771064 0.402550 0.666480
O O12 0.241572 0.061746 0.917388
O O13 0.369086 0.953870 0.092502
O O14 0.000000 0.500000 0.000000
O O15 0.019392 0.706467 0.041108
O O16 0.000000 0.000000 0.500000
O O17 0.050998 0.019561 0.205535
O O18 0.000000 0.000000 0.000000
#
# Coordination Sequence:
#
# PCOD8037598 Si02
#       8
#     2   2   2   2   2   2   2   2
#     4  12  27  47  73 105 149 189 245 298 364 432
#     4  12  28  44  74 106 144 193 236 302 361 429
#     4  12  27  47  76 104 148 195 240 297 361 437
#     4  12  28  46  74 107 147 195 239 302 363 429
#     4  12  27  49  71 109 148 190 245 298 363 434
#     4  12  26  48  72 104 145 185 245 295 364 429
#     4  12  25  48  73 107 144 188 246 297 361 431
#     4  12  26  45  75 106 140 191 243 302 361 427
#
# _framework density 21.649442000000001
#
# number of rings (size 3 to 8) (size 9 to 14) (size 15 to 20)
#    0.000    0.000    5.000    3.750    8.750    0.000 
#    0.000    0.000    0.000    0.000    0.000    0.000 
#    0.000    0.000    0.000    0.000    0.000    0.000 
#
# Total GULP energy -198212.085189 kJ/mol
# GULP energy per Si atom -12388.255324 kJ/mol
# Density = 2.160017 g / cm^3
# Si number density = 21.649442 Si / 1000 Ang^3
#
#
#
# Elastic Constant Matrix: (Units=GPa)
#
#
# Indices 1 2 3 4 5 6 
#
# 1 106.6854 48.6156 48.3358 9.3442 5.6597 -15.6123
# 2 48.6156 126.0589 75.9832 9.2353 14.3841 -8.4204
# 3 48.3358 75.9832 174.1191 9.7932 20.0291 -7.5921
# 4 9.3442 9.2353 9.7932 49.3049 4.9754 2.8239
# 5 5.6597 14.3841 20.0291 4.9754 38.4116 -3.5734
# 6 -15.6123 -8.4204 -7.5921 2.8239 -3.5734 57.7679
#
#
#
# Elastic Compliance Matrix: (Units=1/GPa)
#
#
# Indices 1 2 3 4 5 6 
#
# 1 0.012240 -0.003447 -0.001788 -0.001562 0.000874 0.002701
# 2 -0.003447 0.011938 -0.004004 -0.000620 -0.001775 0.000203
# 3 -0.001788 -0.004004 0.008290 -0.000295 -0.002532 -0.000120
# 4 -0.001562 -0.000620 -0.000295 0.021081 -0.002275 -0.001722
# 5 0.000874 -0.001775 -0.002532 -0.002275 0.028325 0.001508
# 6 0.002701 0.000203 -0.000120 -0.001722 0.001508 0.018232
#
#
# Mechanical properties :
#
#
# Convention : Reuss Voigt Hill
#
# Bulk Modulus (GPa) = 71.49472 83.63695 77.56583
# Shear Modulus (GPa) = 40.56843 44.69214 42.63028
#
# Velocity S-wave (km/s) = 4.33353 4.54845 4.44229
# Velocity P-wave (km/s) = 7.62462 8.14253 7.88782
#
# Compressibility (1/GPa) = 0.01398705
#
# Stress axis : x y z
#
# Youngs Moduli (GPa) = 81.69758 83.76922 120.62952
#
# Poissons Ratio (x) = 0.28879 0.21573
# Poissons Ratio (y) = 0.28165 0.48306
# Poissons Ratio (z) = 0.14611 0.33545
#
# Static dielectric constant tensor:
#      x y z
#    x -5.517430 -4.810440 -2.976360 
#    y -4.810440 1.535730 -1.581320 
#    z -2.976360 -1.581320 3.274470 
# 
# 
# High freq. dielectric constant tensor:
#      x y z
#    x 1.862120 -0.003870 0.005640 
#    y -0.003870 1.866780 0.003410 
#    z 0.005640 0.003410 1.875900 
# 
# From -- ./inp_files/298205.got.cif
#   From: 2010.06.25/outbox.cif.g09.slc.cpg/sg2_150_cif.got.tgz:298205.got - 2010.06.27 13:26:56.
