data_PCOD8037934
_publ_section_title
;
Structure prediction by ZEFSAII (Michael W. Deem and Ramdas Pophale) SiO2 
 PCOD8037934
Probable space group: P -1
;
_chemical_formula_sum "Si O2"
_cell_formula_units_Z 16
_cell_length_a 17.914648
_cell_length_b 20.600954
_cell_length_c 8.301266
_cell_angle_alpha 129.136136
_cell_angle_beta 142.761194
_cell_angle_gamma 25.027175
_cell_volume 734.002167
_symmetry_space_group_name_H-M "P -1"
_symmetry_group_IT_number 2
_symmetry_cell_setting 'triclinic'
loop_
_space_group_symop_operation_xyz
x,y,z
-x,-y,-z
loop_
_atom_site_type_symbol
_atom_site_label
_atom_site_fract_x
_atom_site_fract_y
_atom_site_fract_z
Si Si1 0.851852 0.278193 0.500756
Si Si2 0.517030 0.364097 0.620373
Si Si3 0.005234 0.839428 0.773562
Si Si4 0.517845 0.391419 0.312837
Si Si5 0.827067 0.558250 0.661612
Si Si6 0.469399 0.894870 0.439314
Si Si7 0.059829 0.634457 0.707802
Si Si8 0.238325 0.126734 0.152288
O O1 0.630167 0.463114 0.341215
O O2 0.026451 0.148221 0.453765
O O3 0.752046 0.253212 0.381066
O O4 0.000816 0.247973 0.833018
O O5 0.546570 0.321771 0.416607
O O6 0.377239 0.373875 0.490023
O O7 0.789042 0.211538 0.917876
O O8 0.102413 0.697385 0.792618
O O9 0.740668 0.015040 0.661845
O O10 0.500000 0.500000 0.500000
O O11 0.300196 0.476406 0.975174
O O12 0.694939 0.701488 0.541756
O O13 0.983180 0.410154 0.574566
O O14 0.000000 0.500000 0.000000
O O15 0.571949 0.928660 0.711942
O O16 0.358093 0.970852 0.185172
O O17 0.835864 0.772002 0.661663
#
# Coordination Sequence:
#
# PCOD8037934 Si02
#       8
#     2   2   2   2   2   2   2   2
#     4  11  18  34  67 102 120 154 218 269 304 363
#     4  11  20  38  66  96 130 159 212 265 314 362
#     4  11  21  38  68  99 123 167 214 265 316 366
#     4  10  17  32  62 103 123 151 212 270 306 358
#     4  12  27  44  62  94 133 168 210 259 324 385
#     4  10  25  44  58  93 129 172 209 257 323 379
#     4  11  20  38  68  96 122 168 211 264 314 371
#     4  10  21  43  66  89 126 168 216 267 302 377
#
# _framework density 21.798300999999999
#
# number of rings (size 3 to 8) (size 9 to 14) (size 15 to 20)
#    0.000    1.250    6.250    2.625    0.000    1.500 
#    4.500    0.000    0.000    3.000    0.000    0.000 
#    0.000    0.000    0.000    0.000    0.000    0.000 
#
# Total GULP energy -198258.890889 kJ/mol
# GULP energy per Si atom -12391.180681 kJ/mol
# Density = 2.174869 g / cm^3
# Si number density = 21.798301 Si / 1000 Ang^3
#
#
#
# Elastic Constant Matrix: (Units=GPa)
#
#
# Indices 1 2 3 4 5 6 
#
# 1 91.0407 11.1610 18.0713 0.0303 -1.4597 -3.1082
# 2 11.1610 38.8497 31.6195 -5.3302 -3.7762 4.1531
# 3 18.0713 31.6195 115.4316 0.3323 3.0549 -10.8817
# 4 0.0303 -5.3302 0.3323 26.5334 -8.1373 -1.4439
# 5 -1.4597 -3.7762 3.0549 -8.1373 32.0169 -0.6211
# 6 -3.1082 4.1531 -10.8817 -1.4439 -0.6211 22.4365
#
#
#
# Elastic Compliance Matrix: (Units=1/GPa)
#
#
# Indices 1 2 3 4 5 6 
#
# 1 0.011566 -0.002818 -0.000885 -0.000414 0.000207 0.001674
# 2 -0.002818 0.039677 -0.011857 0.009872 0.007946 -0.012630
# 3 -0.000885 -0.011857 0.012904 -0.003119 -0.003307 0.008038
# 4 -0.000414 0.009872 -0.003119 0.043532 0.012502 -0.000250
# 5 0.000207 0.007946 -0.003307 0.012502 0.035649 -0.001255
# 6 0.001674 -0.012630 0.008038 -0.000250 -0.001255 0.050988
#
#
# Mechanical properties :
#
#
# Convention : Reuss Voigt Hill
#
# Bulk Modulus (GPa) = 30.27826 40.78064 35.52945
# Shear Modulus (GPa) = 21.14677 28.49539 24.82108
#
# Velocity S-wave (km/s) = 3.11804 3.61949 3.37808
# Velocity P-wave (km/s) = 5.18491 6.01800 5.61692
#
# Compressibility (1/GPa) = 0.03302700
#
# Stress axis : x y z
#
# Youngs Moduli (GPa) = 86.46138 25.20371 77.49643
#
# Poissons Ratio (x) = 0.07102 0.06861
# Poissons Ratio (y) = 0.24362 0.91885
# Poissons Ratio (z) = 0.07655 0.29883
#
# Static dielectric constant tensor:
#      x y z
#    x 4.485840 -0.191120 -0.066460 
#    y -0.191120 3.498380 -0.159640 
#    z -0.066460 -0.159640 3.849950 
# 
# 
# High freq. dielectric constant tensor:
#      x y z
#    x 1.877670 -0.012430 0.001690 
#    y -0.012430 1.802480 -0.020120 
#    z 0.001690 -0.020120 1.857740 
# 
# From -- ./inp_files/337775.got.cif
#   From: 2010.06.25/outbox.cif.g09.slc.cpg/sg2_169_cif.got.tgz:337775.got - 2010.06.27 13:26:56.
