data_PCOD8037447
_publ_section_title
;
Structure prediction by ZEFSAII (Michael W. Deem and Ramdas Pophale) SiO2 
 PCOD8037447
Probable space group: P -1
;
_chemical_formula_sum "Si O2"
_cell_formula_units_Z 14
_cell_length_a 12.725827
_cell_length_b 13.706480
_cell_length_c 9.015560
_cell_angle_alpha 122.652570
_cell_angle_beta 79.625562
_cell_angle_gamma 146.635464
_cell_volume 590.952584
_symmetry_space_group_name_H-M "P -1"
_symmetry_group_IT_number 2
_symmetry_cell_setting 'triclinic'
loop_
_space_group_symop_operation_xyz
x,y,z
-x,-y,-z
loop_
_atom_site_type_symbol
_atom_site_label
_atom_site_fract_x
_atom_site_fract_y
_atom_site_fract_z
Si Si1 0.388716 0.268670 0.301143
Si Si2 0.508497 0.119967 0.490766
Si Si3 0.965533 0.927027 0.283277
Si Si4 0.766334 0.439649 0.413232
Si Si5 0.017157 0.402400 0.815569
Si Si6 0.356241 0.583826 0.070687
Si Si7 0.156140 0.988025 0.826020
O O1 0.500000 0.500000 0.500000
O O2 0.574269 0.344325 0.320774
O O3 0.180726 0.047317 0.291618
O O4 0.257940 0.146548 0.076254
O O5 0.633299 0.221760 0.381420
O O6 0.671169 0.376136 0.733809
O O7 0.500000 0.000000 0.500000
O O8 0.240446 0.903945 0.366475
O O9 0.976547 0.046695 0.269989
O O10 0.718430 0.622522 0.068558
O O11 0.000000 0.000000 0.500000
O O12 0.886346 0.482461 0.282989
O O13 0.967756 0.703913 0.669110
O O14 0.197809 0.486099 0.904055
O O15 0.000000 0.500000 0.000000
O O16 0.628844 0.860984 0.192086
#
# Coordination Sequence:
#
# PCOD8037447 Si02
#       7
#     2   2   2   2   2   2   2
#     4  12  25  44  71 109 156 197 254 303 376 466
#     4  12  28  50  75 110 146 198 261 318 386 453
#     4  12  26  44  74 111 157 203 249 310 380 461
#     4  12  27  48  80 108 154 203 250 321 388 449
#     4  12  26  53  76 109 151 196 261 324 378 452
#     4  12  25  47  73 107 154 197 251 316 377 449
#     4  12  25  47  73 110 156 199 252 307 383 468
#
# _framework density 23.690564999999999
#
# number of rings (size 3 to 8) (size 9 to 14) (size 15 to 20)
#    0.000    0.000    5.714    4.286    4.000    1.143 
#    0.000    0.000    0.000    0.000    0.000    0.000 
#    0.000    0.000    0.000    0.000    0.000    0.000 
#
# Total GULP energy -173571.510896 kJ/mol
# GULP energy per Si atom -12397.965064 kJ/mol
# Density = 2.363664 g / cm^3
# Si number density = 23.690565 Si / 1000 Ang^3
#
#
#
# Elastic Constant Matrix: (Units=GPa)
#
#
# Indices 1 2 3 4 5 6 
#
# 1 76.4855 41.5568 28.6325 1.9461 -4.2511 3.9828
# 2 41.5568 178.8801 57.5104 -10.8741 -2.5990 10.5310
# 3 28.6325 57.5104 159.0602 -14.3288 -9.1168 1.4514
# 4 1.9461 -10.8741 -14.3288 45.5176 11.9668 -0.6668
# 5 -4.2511 -2.5990 -9.1168 11.9668 32.9719 3.1618
# 6 3.9828 10.5310 1.4514 -0.6668 3.1618 38.3187
#
#
#
# Elastic Compliance Matrix: (Units=1/GPa)
#
#
# Indices 1 2 3 4 5 6 
#
# 1 0.015693 -0.003142 -0.001782 -0.002606 0.002318 -0.000937
# 2 -0.003142 0.007092 -0.001901 0.001403 -0.000741 -0.001465
# 3 -0.001782 -0.001901 0.007506 0.001718 0.001037 0.000368
# 4 -0.002606 0.001403 0.001718 0.025350 -0.009048 0.001008
# 5 0.002318 -0.000741 0.001037 -0.009048 0.034435 -0.003075
# 6 -0.000937 -0.001465 0.000368 0.001008 -0.003075 0.026854
#
#
# Mechanical properties :
#
#
# Convention : Reuss Voigt Hill
#
# Bulk Modulus (GPa) = 60.09719 74.42503 67.26111
# Shear Modulus (GPa) = 36.72997 42.47673 39.60335
#
# Velocity S-wave (km/s) = 3.94179 4.23895 4.09307
# Velocity P-wave (km/s) = 6.79261 7.44594 7.12677
#
# Compressibility (1/GPa) = 0.01663971
#
# Stress axis : x y z
#
# Youngs Moduli (GPa) = 63.72376 140.99491 133.22692
#
# Poissons Ratio (x) = 0.44305 0.23741
# Poissons Ratio (y) = 0.20024 0.25331
# Poissons Ratio (z) = 0.11356 0.26808
#
# Static dielectric constant tensor:
#      x y z
#    x 4.427240 0.212730 0.041910 
#    y 0.212730 4.561950 0.098480 
#    z 0.041910 0.098480 4.682300 
# 
# 
# High freq. dielectric constant tensor:
#      x y z
#    x 1.926580 0.018630 0.009820 
#    y 0.018630 1.950230 0.001100 
#    z 0.009820 0.001100 1.957630 
# 
# From -- ./inp_files/313858.got.cif
#   From: 2010.06.25/outbox.cif.g09.slc.cpg/sg2_157_cif.got.tgz:313858.got - 2010.06.27 13:26:56.
