data_PCOD8037907
_publ_section_title
;
Structure prediction by ZEFSAII (Michael W. Deem and Ramdas Pophale) SiO2 
 PCOD8037907
Probable space group: P -1
;
_chemical_formula_sum "Si O2"
_cell_formula_units_Z 16
_cell_length_a 11.594983
_cell_length_b 6.299545
_cell_length_c 14.282450
_cell_angle_alpha 88.861990
_cell_angle_beta 106.769217
_cell_angle_gamma 54.570258
_cell_volume 790.151382
_symmetry_space_group_name_H-M "P -1"
_symmetry_group_IT_number 2
_symmetry_cell_setting 'triclinic'
loop_
_space_group_symop_operation_xyz
x,y,z
-x,-y,-z
loop_
_atom_site_type_symbol
_atom_site_label
_atom_site_fract_x
_atom_site_fract_y
_atom_site_fract_z
Si Si1 0.439485 0.404212 0.768817
Si Si2 0.906149 0.688035 0.065382
Si Si3 0.600953 0.281615 0.407265
Si Si4 0.360209 0.313206 0.947586
Si Si5 0.291990 0.835793 0.375016
Si Si6 0.423154 0.085791 0.315807
Si Si7 0.841207 0.337989 0.795191
Si Si8 0.275096 0.744120 0.068183
O O1 0.345230 0.684527 0.682855
O O2 0.361332 0.436525 0.848580
O O3 0.610285 0.303144 0.823913
O O4 0.460379 0.160423 0.722090
O O5 0.806586 0.610024 0.088182
O O6 0.013387 0.662365 0.174846
O O7 0.000000 0.500000 0.000000
O O8 0.784033 0.997074 0.007425
O O9 0.464178 0.586347 0.396528
O O10 0.734262 0.158701 0.518541
O O11 0.539369 0.106602 0.402395
O O12 0.368215 0.481166 0.028101
O O13 0.500000 0.000000 0.000000
O O14 0.167783 0.823384 0.291178
O O15 0.300075 0.075145 0.344818
O O16 0.314952 0.363478 0.231896
O O17 0.863587 0.202411 0.903465
#
# Coordination Sequence:
#
# PCOD8037907 Si02
#       8
#     2   2   2   2   2   2   2   2
#     4  11  21  35  57  84 119 155 192 244 295 351
#     4  12  26  39  61  87 121 163 206 240 294 353
#     4   9  18  31  52  83 116 149 191 241 297 349
#     4  12  26  39  61  87 121 163 206 240 294 353
#     4   9  18  31  52  83 116 149 191 241 297 349
#     4  10  17  32  58  82 120 148 192 238 301 342
#     4  11  21  35  57  84 119 155 192 244 295 351
#     4  12  22  40  59  86 125 160 192 248 296 352
#
# _framework density 20.249283999999999
#
# number of rings (size 3 to 8) (size 9 to 14) (size 15 to 20)
#    0.000    1.250    6.250    2.625    0.000    1.000 
#    0.000    0.000    0.000    0.750    0.000    2.625 
#    0.000    0.000    0.000    0.000    0.000    0.000 
#
# Total GULP energy -198223.370386 kJ/mol
# GULP energy per Si atom -12388.960649 kJ/mol
# Density = 2.020320 g / cm^3
# Si number density = 20.249284 Si / 1000 Ang^3
#
#
#
# Elastic Constant Matrix: (Units=GPa)
#
#
# Indices 1 2 3 4 5 6 
#
# 1 94.1382 15.7709 43.7277 5.9530 -0.3293 14.3918
# 2 15.7709 76.9038 27.1043 8.6616 6.5390 16.7338
# 3 43.7277 27.1043 127.8652 8.9160 -0.3647 13.6137
# 4 5.9530 8.6616 8.9160 16.0224 8.8172 0.8033
# 5 -0.3293 6.5390 -0.3647 8.8172 25.9048 3.0900
# 6 14.3918 16.7338 13.6137 0.8033 3.0900 25.0304
#
#
#
# Elastic Compliance Matrix: (Units=1/GPa)
#
#
# Indices 1 2 3 4 5 6 
#
# 1 0.013497 0.000091 -0.003729 -0.003856 0.002116 -0.005931
# 2 0.000091 0.016684 -0.002035 -0.007063 -0.000667 -0.009791
# 3 -0.003729 -0.002035 0.010057 -0.004280 0.002317 -0.002114
# 4 -0.003856 -0.007063 -0.004280 0.085248 -0.028541 0.010055
# 5 0.002116 -0.000667 0.002317 -0.028541 0.049406 -0.007214
# 6 -0.005931 -0.009791 -0.002114 0.010055 -0.007214 0.051625
#
#
# Mechanical properties :
#
#
# Convention : Reuss Voigt Hill
#
# Bulk Modulus (GPa) = 34.60887 52.45702 43.53295
# Shear Modulus (GPa) = 20.20248 27.54514 23.87381
#
# Velocity S-wave (km/s) = 3.16205 3.69223 3.43738
# Velocity P-wave (km/s) = 5.51905 6.64369 6.10731
#
# Compressibility (1/GPa) = 0.02889432
#
# Stress axis : x y z
#
# Youngs Moduli (GPa) = 74.08801 59.93631 99.42867
#
# Poissons Ratio (x) = -0.00547 0.37075
# Poissons Ratio (y) = -0.00676 0.20232
# Poissons Ratio (z) = 0.27626 0.12196
#
# Static dielectric constant tensor:
#      x y z
#    x 3.575430 0.441650 -0.080410 
#    y 0.441650 3.589370 0.027510 
#    z -0.080410 0.027510 4.006540 
# 
# 
# High freq. dielectric constant tensor:
#      x y z
#    x 1.765780 0.046070 -0.001680 
#    y 0.046070 1.778080 0.005530 
#    z -0.001680 0.005530 1.794400 
# 
# From -- ./inp_files/76046.got.cif
#   From: 2010.06.25/outbox.cif.g09.slc.cpg/sg2_39_cif.got.tgz:76046.got - 2010.06.27 13:26:56.
