data_PCOD8037852
_publ_section_title
;
Structure prediction by ZEFSAII (Michael W. Deem and Ramdas Pophale) SiO2 
 PCOD8037852
Probable space group: P -1
;
_chemical_formula_sum "Si O2"
_cell_formula_units_Z 16
_cell_length_a 17.955972
_cell_length_b 7.542030
_cell_length_c 14.395776
_cell_angle_alpha 40.445571
_cell_angle_beta 30.590484
_cell_angle_gamma 43.523007
_cell_volume 628.982381
_symmetry_space_group_name_H-M "P -1"
_symmetry_group_IT_number 2
_symmetry_cell_setting 'triclinic'
loop_
_space_group_symop_operation_xyz
x,y,z
-x,-y,-z
loop_
_atom_site_type_symbol
_atom_site_label
_atom_site_fract_x
_atom_site_fract_y
_atom_site_fract_z
Si Si1 0.120690 0.114585 0.533356
Si Si2 0.627918 0.961123 0.192030
Si Si3 0.152896 0.615482 0.815236
Si Si4 0.359905 0.852174 0.639865
Si Si5 0.357187 0.502241 0.942622
Si Si6 0.914771 0.756133 0.162080
Si Si7 0.963850 0.533604 0.681224
Si Si8 0.551146 0.768213 0.878152
O O1 0.040884 0.189036 0.488016
O O2 0.275572 0.224195 0.331240
O O3 0.009572 0.266118 0.671910
O O4 0.139759 0.782733 0.664240
O O5 0.761378 0.699389 0.166901
O O6 0.492943 0.965839 0.407131
O O7 0.685032 0.241668 0.040159
O O8 0.559662 0.967151 0.157008
O O9 0.252198 0.773946 0.708982
O O10 0.989525 0.619083 0.038777
O O11 0.430655 0.585605 0.735592
O O12 0.261352 0.094738 0.716254
O O13 0.199564 0.434696 0.110823
O O14 0.464504 0.246494 0.985925
O O15 0.928909 0.517616 0.322840
O O16 0.000000 0.000000 0.000000
O O17 0.500000 0.500000 0.000000
#
# Coordination Sequence:
#
# PCOD8037852 Si02
#       8
#     2   2   2   2   2   2   2   2
#     4  10  18  30  54  80 105 138 183 225 259 313
#     4  11  22  35  54  82 113 143 172 227 275 314
#     4  11  20  34  55  85 109 138 179 225 276 309
#     4  11  19  35  57  79 105 143 186 220 256 327
#     4  10  20  35  54  79 109 141 184 219 262 323
#     4  10  17  33  56  77 107 136 185 222 256 317
#     4  10  17  32  54  81 100 140 188 223 249 315
#     4   9  19  34  51  77 109 143 178 216 267 323
#
# _framework density 25.437916000000001
#
# number of rings (size 3 to 8) (size 9 to 14) (size 15 to 20)
#    0.000    1.750    6.250    0.750    0.000    0.000 
#    0.000    4.375    0.000    0.000    0.000   17.500 
#    0.000    0.000    0.000    0.000    0.000    0.000 
#
# Total GULP energy -198233.950376 kJ/mol
# GULP energy per Si atom -12389.621898 kJ/mol
# Density = 2.538002 g / cm^3
# Si number density = 25.437916 Si / 1000 Ang^3
#
#
#
# Elastic Constant Matrix: (Units=GPa)
#
#
# Indices 1 2 3 4 5 6 
#
# 1 70.4077 20.6428 49.8016 -6.7686 27.5637 -31.9467
# 2 20.6428 94.5109 42.6573 5.9835 18.6658 -13.8602
# 3 49.8016 42.6573 115.8312 -10.7909 18.6171 -27.3828
# 4 -6.7686 5.9835 -10.7909 35.6973 -16.9830 11.2554
# 5 27.5637 18.6658 18.6171 -16.9830 54.4559 -17.2104
# 6 -31.9467 -13.8602 -27.3828 11.2554 -17.2104 35.1400
#
#
#
# Elastic Compliance Matrix: (Units=1/GPa)
#
#
# Indices 1 2 3 4 5 6 
#
# 1 0.032902 0.002723 -0.009207 -0.008716 -0.010353 0.021534
# 2 0.002723 0.014569 -0.005474 -0.007404 -0.005691 0.003541
# 3 -0.009207 -0.005474 0.014775 0.004898 0.003346 0.001054
# 4 -0.008716 -0.007404 0.004898 0.039636 0.013491 -0.013116
# 5 -0.010353 -0.005691 0.003346 0.013491 0.028859 0.000764
# 6 0.021534 0.003541 0.001054 -0.013116 0.000764 0.054828
#
#
# Mechanical properties :
#
#
# Convention : Reuss Voigt Hill
#
# Bulk Modulus (GPa) = 26.08830 56.32814 41.20822
# Shear Modulus (GPa) = 22.49599 36.23518 29.36559
#
# Velocity S-wave (km/s) = 2.97703 3.77829 3.40134
# Velocity P-wave (km/s) = 4.70052 6.42070 5.62673
#
# Compressibility (1/GPa) = 0.03833135
#
# Stress axis : x y z
#
# Youngs Moduli (GPa) = 30.39295 68.64041 67.67981
#
# Poissons Ratio (x) = -0.18693 0.62311
# Poissons Ratio (y) = -0.08277 0.37049
# Poissons Ratio (z) = 0.27982 0.37575
#
# Static dielectric constant tensor:
#      x y z
#    x 5.069020 -0.635290 0.422220 
#    y -0.635290 4.551060 -0.201070 
#    z 0.422220 -0.201070 4.744590 
# 
# 
# High freq. dielectric constant tensor:
#      x y z
#    x 2.036110 -0.031390 0.016130 
#    y -0.031390 1.988560 -0.014690 
#    z 0.016130 -0.014690 2.014900 
# 
# From -- ./inp_files/508104.got.cif
#   From: 2010.06.25/outbox.cif.g09.slc.cpg/sg2_255_cif.got.tgz:508104.got - 2010.06.27 13:26:56.
