data_PCOD8037922
_publ_section_title
;
Structure prediction by ZEFSAII (Michael W. Deem and Ramdas Pophale) SiO2 
 PCOD8037922
Probable space group: P -1
;
_chemical_formula_sum "Si O2"
_cell_formula_units_Z 16
_cell_length_a 24.000000
_cell_length_b 12.000000
_cell_length_c 27.000000
_cell_angle_alpha 40.000000
_cell_angle_beta 170.000000
_cell_angle_gamma 140.000000
_cell_volume 863.217841
_symmetry_space_group_name_H-M "P -1"
_symmetry_group_IT_number 2
_symmetry_cell_setting 'triclinic'
loop_
_space_group_symop_operation_xyz
x,y,z
-x,-y,-z
loop_
_atom_site_type_symbol
_atom_site_label
_atom_site_fract_x
_atom_site_fract_y
_atom_site_fract_z
Si Si1 0.694106 0.591407 0.185013
Si Si2 0.378490 0.407225 0.056338
Si Si3 0.104739 0.762702 0.054391
Si Si4 0.383905 0.639265 0.610863
Si Si5 0.368111 0.018153 0.496669
Si Si6 0.185267 0.887804 0.484800
Si Si7 0.634659 0.741908 0.445534
Si Si8 0.762264 0.449503 0.922387
O O1 0.471105 0.576155 0.044336
O O2 0.000000 0.500000 0.500000
O O3 0.835385 0.788592 0.227229
O O4 0.500000 0.500000 0.000000
O O5 0.531194 0.439330 0.234097
O O6 0.523821 0.237838 0.217335
O O7 0.992372 0.384104 0.725507
O O8 0.304398 0.869055 0.236731
O O9 0.352511 0.695829 0.254385
O O10 0.847117 0.877021 0.764072
O O11 0.909600 0.593749 0.963975
O O12 0.580234 0.543316 0.774535
O O13 0.481814 0.848346 0.626168
O O14 0.150845 0.960737 0.374141
O O15 0.272021 0.048089 0.544158
O O16 0.496568 0.680944 0.291059
O O17 0.953279 0.649849 0.770567
#
# Coordination Sequence:
#
# PCOD8037922 Si02
#       8
#     2   2   2   2   2   2   2   2
#     4  10  19  32  58  92 117 137 172 226 287 335
#     4  10  20  37  60  86 115 142 175 231 283 327
#     4  11  22  38  58  82 108 139 188 242 286 315
#     4  11  22  38  56  80 114 151 187 219 275 336
#     4  10  20  35  58  83 111 140 174 236 290 327
#     4   9  20  36  60  88 113 140 180 227 285 333
#     4  11  22  38  57  80 111 146 187 232 275 320
#     4  12  25  38  56  78 110 156 193 223 264 334
#
# _framework density 18.535298000000001
#
# number of rings (size 3 to 8) (size 9 to 14) (size 15 to 20)
#    0.000    1.500    0.000    8.250    0.000    6.000 
#    0.000    0.000    0.000    4.500    0.000    0.000 
#    0.000    0.000    0.000    0.000    0.000    0.000 
#
# Total GULP energy -198315.716556 kJ/mol
# GULP energy per Si atom -12394.732285 kJ/mol
# Density = 1.849311 g / cm^3
# Si number density = 18.535298 Si / 1000 Ang^3
#
#
#
# Elastic Constant Matrix: (Units=GPa)
#
#
# Indices 1 2 3 4 5 6 
#
# 1 101.5274 55.3464 54.9808 -0.2921 -11.0766 -20.7155
# 2 55.3464 119.0755 45.3770 12.3091 1.6878 -11.4107
# 3 54.9808 45.3770 145.1064 -0.4592 -23.3952 -12.6399
# 4 -0.2921 12.3091 -0.4592 34.6541 -5.7506 0.5629
# 5 -11.0766 1.6878 -23.3952 -5.7506 42.2265 -1.5058
# 6 -20.7155 -11.4107 -12.6399 0.5629 -1.5058 41.1290
#
#
#
# Elastic Compliance Matrix: (Units=1/GPa)
#
#
# Indices 1 2 3 4 5 6 
#
# 1 0.016560 -0.006237 -0.003278 0.002776 0.003358 0.005688
# 2 -0.006237 0.012764 -0.002355 -0.005306 -0.004188 -0.000405
# 3 -0.003278 -0.002355 0.009739 0.001737 0.004896 0.000844
# 4 0.002776 -0.005306 0.001737 0.031820 0.006245 0.000253
# 5 0.003358 -0.004188 0.004896 0.006245 0.028400 0.002988
# 6 0.005688 -0.000405 0.000844 0.000253 0.002988 0.027431
#
#
# Mechanical properties :
#
#
# Convention : Reuss Voigt Hill
#
# Bulk Modulus (GPa) = 65.27417 75.23529 70.25473
# Shear Modulus (GPa) = 32.14134 37.60227 34.87181
#
# Velocity S-wave (km/s) = 4.16872 4.50898 4.34219
# Velocity P-wave (km/s) = 7.64615 8.23324 7.94512
#
# Compressibility (1/GPa) = 0.01532000
#
# Stress axis : x y z
#
# Youngs Moduli (GPa) = 60.38646 78.34654 102.68270
#
# Poissons Ratio (x) = 0.48867 0.33664
# Poissons Ratio (y) = 0.37665 0.24187
# Poissons Ratio (z) = 0.19798 0.18454
#
# Static dielectric constant tensor:
#      x y z
#    x 3.669120 0.112790 -0.121960 
#    y 0.112790 3.868840 0.159720 
#    z -0.121960 0.159720 3.733250 
# 
# 
# High freq. dielectric constant tensor:
#      x y z
#    x 1.722840 -0.000190 -0.023210 
#    y -0.000190 1.724350 0.008290 
#    z -0.023210 0.008290 1.747450 
# 
# From -- ./inp_files/477119.got.cif
#   From: 2010.06.25/outbox.ucp.g09.slc.cvg/sg2_239_cif.got.tgz:477119.got - 2010.06.28 11:54:26.
