data_PCOD8037493
_publ_section_title
;
Structure prediction by ZEFSAII (Michael W. Deem and Ramdas Pophale) SiO2 
 PCOD8037493
Probable space group: P -1
;
_chemical_formula_sum "Si O2"
_cell_formula_units_Z 14
_cell_length_a 17.280255
_cell_length_b 8.873606
_cell_length_c 13.787695
_cell_angle_alpha 129.346664
_cell_angle_beta 154.593223
_cell_angle_gamma 43.201806
_cell_volume 618.801559
_symmetry_space_group_name_H-M "P -1"
_symmetry_group_IT_number 2
_symmetry_cell_setting 'triclinic'
loop_
_space_group_symop_operation_xyz
x,y,z
-x,-y,-z
loop_
_atom_site_type_symbol
_atom_site_label
_atom_site_fract_x
_atom_site_fract_y
_atom_site_fract_z
Si Si1 0.208059 0.365989 0.062801
Si Si2 0.855255 0.143265 0.809878
Si Si3 0.554749 0.793753 0.547649
Si Si4 0.796813 0.371384 0.534615
Si Si5 0.101146 0.061963 0.424148
Si Si6 0.510994 0.004643 0.899493
Si Si7 0.704720 0.308229 0.194013
O O1 0.161414 0.617479 0.119860
O O2 0.266450 0.252618 0.190114
O O3 0.385625 0.238508 0.132099
O O4 0.006469 0.362753 0.798532
O O5 0.633920 0.165272 0.582145
O O6 0.951561 0.005297 0.765776
O O7 0.000000 0.000000 0.000000
O O8 0.609632 0.582795 0.456532
O O9 0.500000 0.000000 0.500000
O O10 0.770591 0.390705 0.397773
O O11 0.793217 0.149797 0.472363
O O12 0.276016 0.142425 0.649732
O O13 0.888110 0.247154 0.300844
O O14 0.659354 0.104584 0.077001
O O15 0.500000 0.000000 0.000000
O O16 0.500000 0.500000 0.000000
#
# Coordination Sequence:
#
# PCOD8037493 Si02
#       7
#     2   2   2   2   2   2   2
#     4  12  25  47  74 110 148 196 246 301 380 437
#     4  12  28  45  74 112 146 196 246 307 373 444
#     4  12  27  45  74 112 149 190 246 308 375 440
#     4  12  25  45  77 107 146 196 242 303 374 439
#     4  12  25  50  74 106 148 192 253 298 370 448
#     4  12  25  45  77 104 145 197 245 299 365 443
#     4  12  30  48  74 111 147 193 251 310 367 435
#
# _framework density 22.624379000000001
#
# number of rings (size 3 to 8) (size 9 to 14) (size 15 to 20)
#    0.000    0.000    5.714    3.857    6.000    1.714 
#    0.000    0.000    0.000    0.000    0.000    0.000 
#    0.000    0.000    0.000    0.000    0.000    0.000 
#
# Total GULP energy -173646.393012 kJ/mol
# GULP energy per Si atom -12403.313787 kJ/mol
# Density = 2.257288 g / cm^3
# Si number density = 22.624379 Si / 1000 Ang^3
#
#
#
# Elastic Constant Matrix: (Units=GPa)
#
#
# Indices 1 2 3 4 5 6 
#
# 1 125.4353 39.4195 51.4464 -4.0692 -22.6331 -33.6384
# 2 39.4195 81.3081 33.3471 -14.4005 -21.7888 -15.1291
# 3 51.4464 33.3471 150.7552 -0.1798 -17.4303 -4.7738
# 4 -4.0692 -14.4005 -0.1798 37.2253 1.8939 -2.2483
# 5 -22.6331 -21.7888 -17.4303 1.8939 56.3154 0.1547
# 6 -33.6384 -15.1291 -4.7738 -2.2483 0.1547 51.6477
#
#
#
# Elastic Compliance Matrix: (Units=1/GPa)
#
#
# Indices 1 2 3 4 5 6 
#
# 1 0.012548 -0.002529 -0.003142 0.000656 0.003050 0.007161
# 2 -0.002529 0.017596 -0.002350 0.006488 0.004836 0.003558
# 3 -0.003142 -0.002350 0.008208 -0.001357 0.000420 -0.002037
# 4 0.000656 0.006488 -0.001357 0.029580 0.001349 0.003486
# 5 0.003050 0.004836 0.000420 0.001349 0.020929 0.003438
# 6 0.007161 0.003558 -0.002037 0.003486 0.003438 0.025021
#
#
# Mechanical properties :
#
#
# Convention : Reuss Voigt Hill
#
# Bulk Modulus (GPa) = 44.82361 67.32497 56.07429
# Shear Modulus (GPa) = 36.40071 44.59004 40.49537
#
# Velocity S-wave (km/s) = 4.01548 4.44428 4.23531
# Velocity P-wave (km/s) = 6.43070 7.49385 6.98254
#
# Compressibility (1/GPa) = 0.02230967
#
# Stress axis : x y z
#
# Youngs Moduli (GPa) = 79.69614 56.83212 121.83510
#
# Poissons Ratio (x) = 0.14371 0.38286
# Poissons Ratio (y) = 0.20152 0.28627
# Poissons Ratio (z) = 0.25044 0.13354
#
# Static dielectric constant tensor:
#      x y z
#    x 4.397630 -0.247060 0.090380 
#    y -0.247060 4.323890 0.151850 
#    z 0.090380 0.151850 4.506260 
# 
# 
# High freq. dielectric constant tensor:
#      x y z
#    x 1.906270 -0.019180 0.001070 
#    y -0.019180 1.885940 0.002790 
#    z 0.001070 0.002790 1.914490 
# 
# From -- ./inp_files/314704.got.cif
#   From: 2010.06.25/outbox.cif.g09.slc.cpg/sg2_158_cif.got.tgz:314704.got - 2010.06.27 13:26:56.
