data_PCOD8037097
_publ_section_title
;
Structure prediction by ZEFSAII (Michael W. Deem and Ramdas Pophale) SiO2 
 PCOD8037097
Probable space group: P -1
;
_chemical_formula_sum "Si O2"
_cell_formula_units_Z 16
_cell_length_a 13.741234
_cell_length_b 8.742345
_cell_length_c 9.386863
_cell_angle_alpha 107.893169
_cell_angle_beta 83.377925
_cell_angle_gamma 136.012063
_cell_volume 735.679971
_symmetry_space_group_name_H-M "P -1"
_symmetry_group_IT_number 2
_symmetry_cell_setting 'triclinic'
loop_
_space_group_symop_operation_xyz
x,y,z
-x,-y,-z
loop_
_atom_site_type_symbol
_atom_site_label
_atom_site_fract_x
_atom_site_fract_y
_atom_site_fract_z
Si Si1 0.642707 0.760968 0.530936
Si Si2 0.118975 0.390183 0.907557
Si Si3 0.234902 0.436798 0.205364
Si Si4 0.455869 0.098329 0.630186
Si Si5 0.794336 0.973648 0.856907
Si Si6 0.994168 0.339408 0.357004
Si Si7 0.120855 0.103842 0.618552
Si Si8 0.761918 0.172740 0.152040
O O1 0.500000 0.500000 0.500000
O O2 0.629308 0.887265 0.456335
O O3 0.709285 0.908314 0.707672
O O4 0.735903 0.724756 0.446245
O O5 0.131816 0.235625 0.784632
O O6 0.214289 0.632331 0.877997
O O7 0.188584 0.450124 0.065815
O O8 0.952223 0.238153 0.895654
O O9 0.402733 0.650842 0.260423
O O10 0.192666 0.199964 0.160518
O O11 0.148962 0.443638 0.335872
O O12 0.500000 0.000000 0.500000
O O13 0.352814 0.934344 0.733691
O O14 0.710153 0.970999 0.994212
O O15 0.000000 0.500000 0.500000
O O16 0.916730 0.299538 0.214473
O O17 0.894514 0.094001 0.379954
O O18 0.000000 0.000000 0.500000
#
# Coordination Sequence:
#
# PCOD8037097 Si02
#       8
#     2   2   2   2   2   2   2   2
#     4  12  27  48  75 108 144 195 246 306 369 437
#     4  12  26  44  76 111 148 188 249 304 369 434
#     4  12  26  47  74 105 151 192 239 315 367 430
#     4  12  30  51  71 107 154 196 245 302 370 440
#     4  12  25  49  76 109 147 185 251 311 367 433
#     4  12  24  42  72 106 141 191 247 305 363 430
#     4  12  24  44  73 107 144 193 246 300 364 438
#     4  12  28  46  74 108 146 199 244 300 374 438
#
# _framework density 21.748587000000001
#
# number of rings (size 3 to 8) (size 9 to 14) (size 15 to 20)
#    0.000    0.000    6.250    3.000    3.500    2.000 
#    0.000    0.000    0.000    0.000    0.000    0.000 
#    0.000    0.000    0.000    0.000    0.000    0.000 
#
# Total GULP energy -198415.807581 kJ/mol
# GULP energy per Si atom -12400.987974 kJ/mol
# Density = 2.169909 g / cm^3
# Si number density = 21.748587 Si / 1000 Ang^3
#
#
#
# Elastic Constant Matrix: (Units=GPa)
#
#
# Indices 1 2 3 4 5 6 
#
# 1 117.8851 60.6058 60.6315 -6.0223 -1.7121 6.3169
# 2 60.6058 126.1839 54.0996 -13.6219 -3.9560 -5.5511
# 3 60.6315 54.0996 152.0947 -4.4418 -3.2872 1.8504
# 4 -6.0223 -13.6219 -4.4418 33.1128 0.3020 -3.2608
# 5 -1.7121 -3.9560 -3.2872 0.3020 60.1800 1.1088
# 6 6.3169 -5.5511 1.8504 -3.2608 1.1088 43.8923
#
#
#
# Elastic Compliance Matrix: (Units=1/GPa)
#
#
# Indices 1 2 3 4 5 6 
#
# 1 0.012817 -0.004856 -0.003366 -0.000348 -0.000094 -0.002340
# 2 -0.004856 0.011723 -0.002141 0.003899 0.000449 0.002550
# 3 -0.003366 -0.002141 0.008675 -0.000350 0.000243 -0.000184
# 4 -0.000348 0.003899 -0.000350 0.031982 0.000013 0.002934
# 5 -0.000094 0.000449 0.000243 0.000013 0.016663 -0.000360
# 6 -0.002340 0.002550 -0.000184 0.002934 -0.000360 0.023677
#
#
# Mechanical properties :
#
#
# Convention : Reuss Voigt Hill
#
# Bulk Modulus (GPa) = 80.07393 82.98195 81.52794
# Shear Modulus (GPa) = 38.33554 42.15880 40.24717
#
# Velocity S-wave (km/s) = 4.20297 4.40757 4.30649
# Velocity P-wave (km/s) = 7.77504 8.00876 7.89276
#
# Compressibility (1/GPa) = 0.01248846
#
# Stress axis : x y z
#
# Youngs Moduli (GPa) = 78.02213 85.30516 115.26794
#
# Poissons Ratio (x) = 0.41427 0.38795
# Poissons Ratio (y) = 0.37890 0.24681
# Poissons Ratio (z) = 0.26260 0.18265
#
# Static dielectric constant tensor:
#      x y z
#    x 4.409900 0.122830 0.287060 
#    y 0.122830 4.012700 -0.093280 
#    z 0.287060 -0.093280 4.218690 
# 
# 
# High freq. dielectric constant tensor:
#      x y z
#    x 1.866880 -0.002240 -0.001480 
#    y -0.002240 1.858650 -0.006070 
#    z -0.001480 -0.006070 1.872820 
# 
# From -- ./inp_files/186702.got.cif
#   From: 2010.06.25/outbox.cif.g09.slc.cpg/sg2_94_cif.got.tgz:186702.got - 2010.06.27 13:26:56.
