data_PCOD8037931
_publ_section_title
;
Structure prediction by ZEFSAII (Michael W. Deem and Ramdas Pophale) SiO2 
 PCOD8037931
Probable space group: P -1
;
_chemical_formula_sum "Si O2"
_cell_formula_units_Z 16
_cell_length_a 23.794816
_cell_length_b 10.954651
_cell_length_c 8.813890
_cell_angle_alpha 137.903856
_cell_angle_beta 35.639250
_cell_angle_gamma 142.306993
_cell_volume 786.321900
_symmetry_space_group_name_H-M "P -1"
_symmetry_group_IT_number 2
_symmetry_cell_setting 'triclinic'
loop_
_space_group_symop_operation_xyz
x,y,z
-x,-y,-z
loop_
_atom_site_type_symbol
_atom_site_label
_atom_site_fract_x
_atom_site_fract_y
_atom_site_fract_z
Si Si1 0.375591 0.435183 0.587434
Si Si2 0.808050 0.566914 0.200109
Si Si3 0.785442 0.126377 0.483945
Si Si4 0.878681 0.896495 0.601701
Si Si5 0.190743 0.199565 0.017712
Si Si6 0.924465 0.594514 0.665331
Si Si7 0.166593 0.806612 0.236125
Si Si8 0.548080 0.847836 0.716766
O O1 0.301820 0.419017 0.588604
O O2 0.300667 0.369742 0.845986
O O3 0.468310 0.677481 0.613991
O O4 0.433799 0.288269 0.313106
O O5 0.864196 0.710509 0.353219
O O6 0.891285 0.642284 0.946022
O O7 0.782630 0.330397 0.076436
O O8 0.841486 0.371391 0.569440
O O9 0.760516 0.060175 0.657610
O O10 0.856974 0.029794 0.164513
O O11 0.669884 0.008942 0.536837
O O12 0.852450 0.060116 0.724016
O O13 0.789452 0.806507 0.851127
O O14 0.000000 0.000000 0.500000
O O15 0.088964 0.247369 0.272107
O O16 0.051266 0.643661 0.426532
O O17 0.500000 0.000000 0.000000
#
# Coordination Sequence:
#
# PCOD8037931 Si02
#       8
#     2   2   2   2   2   2   2   2
#     4   9  20  37  59  84 108 143 178 235 281 323
#     4  10  22  38  55  80 113 145 189 231 272 327
#     4  10  21  35  60  86 107 144 183 235 275 327
#     4  12  25  35  52  81 116 158 188 222 269 323
#     4  10  21  37  52  80 119 143 187 224 273 328
#     4  10  20  35  57  80 109 149 188 229 275 318
#     4  11  22  36  56  79 113 154 189 226 273 323
#     4  10  17  32  61  90 109 127 180 236 289 327
#
# _framework density 20.347899999999999
#
# number of rings (size 3 to 8) (size 9 to 14) (size 15 to 20)
#    0.000    1.750    1.250    6.000    3.500    2.500 
#    0.000    0.000    0.000   12.000    0.000   27.125 
#    0.000    0.000    0.000    0.000    0.000    0.000 
#
# Total GULP energy -198210.983654 kJ/mol
# GULP energy per Si atom -12388.186478 kJ/mol
# Density = 2.030159 g / cm^3
# Si number density = 20.347900 Si / 1000 Ang^3
#
#
#
# Elastic Constant Matrix: (Units=GPa)
#
#
# Indices 1 2 3 4 5 6 
#
# 1 100.9142 27.0701 60.1060 14.6820 -3.6919 1.4352
# 2 27.0701 64.6450 49.6254 13.4474 13.3571 12.0619
# 3 60.1060 49.6254 103.9801 43.8375 -7.5256 -1.9946
# 4 14.6820 13.4474 43.8375 35.6874 -1.9254 -3.7751
# 5 -3.6919 13.3571 -7.5256 -1.9254 42.9395 5.1360
# 6 1.4352 12.0619 -1.9946 -3.7751 5.1360 37.5052
#
#
#
# Elastic Compliance Matrix: (Units=1/GPa)
#
#
# Indices 1 2 3 4 5 6 
#
# 1 0.017313 0.004333 -0.017542 0.012524 -0.002201 -0.001427
# 2 0.004333 0.036860 -0.028922 0.018054 -0.014181 -0.009799
# 3 -0.017542 -0.028922 0.054912 -0.047922 0.014231 0.006121
# 4 0.012524 0.018054 -0.047922 0.074412 -0.009598 -0.000030
# 5 -0.002201 -0.014181 0.014231 -0.009598 0.029527 0.000392
# 6 -0.001427 -0.009799 0.006121 -0.000030 0.000392 0.030138
#
#
# Mechanical properties :
#
#
# Convention : Reuss Voigt Hill
#
# Bulk Modulus (GPa) = 40.28643 60.34914 50.31778
# Shear Modulus (GPa) = 14.89423 32.07560 23.48492
#
# Velocity S-wave (km/s) = 2.70845 3.97465 3.40099
# Velocity P-wave (km/s) = 5.44267 7.12649 6.34072
#
# Compressibility (1/GPa) = 0.02482225
#
# Stress axis : x y z
#
# Youngs Moduli (GPa) = 57.75856 27.12968 18.21087
#
# Poissons Ratio (x) = -0.11754 0.31946
# Poissons Ratio (y) = -0.25025 0.52669
# Poissons Ratio (z) = 1.01323 0.78464
#
# Static dielectric constant tensor:
#      x y z
#    x 3.855920 0.006290 -0.358810 
#    y 0.006290 3.702990 0.229440 
#    z -0.358810 0.229440 3.799560 
# 
# 
# High freq. dielectric constant tensor:
#      x y z
#    x 1.793850 0.005510 -0.032160 
#    y 0.005510 1.787620 0.035600 
#    z -0.032160 0.035600 1.780060 
# 
# From -- ./inp_files/285079.got.cif
#   From: 2010.06.25/outbox.cif.g09.slc.cpg/sg2_143_cif.got.tgz:285079.got - 2010.06.27 13:26:56.
