data_PCOD8037293
_publ_section_title
;
Structure prediction by ZEFSAII (Michael W. Deem and Ramdas Pophale) SiO2 
 PCOD8037293
Probable space group: P -1
;
_chemical_formula_sum "Si O2"
_cell_formula_units_Z 16
_cell_length_a 8.745963
_cell_length_b 8.992203
_cell_length_c 11.505714
_cell_angle_alpha 62.246434
_cell_angle_beta 62.423064
_cell_angle_gamma 65.496615
_cell_volume 686.537325
_symmetry_space_group_name_H-M "P -1"
_symmetry_group_IT_number 2
_symmetry_cell_setting 'triclinic'
loop_
_space_group_symop_operation_xyz
x,y,z
-x,-y,-z
loop_
_atom_site_type_symbol
_atom_site_label
_atom_site_fract_x
_atom_site_fract_y
_atom_site_fract_z
Si Si1 0.755304 0.715965 0.615911
Si Si2 0.650682 0.071527 0.640059
Si Si3 0.958707 0.826507 0.043571
Si Si4 0.680031 0.048646 0.902519
Si Si5 0.163196 0.583552 0.894946
Si Si6 0.448346 0.561800 0.125491
Si Si7 0.134726 0.679004 0.612859
Si Si8 0.733352 0.695640 0.359337
O O1 0.663188 0.560982 0.732054
O O2 0.769055 0.737257 0.464706
O O3 0.948907 0.681818 0.616219
O O4 0.637655 0.894178 0.646953
O O5 0.726767 0.045249 0.752306
O O6 0.793715 0.153771 0.497673
O O7 0.452896 0.191793 0.662843
O O8 0.890691 0.730774 0.209800
O O9 0.143937 0.709243 0.968131
O O10 0.815303 0.883125 0.971763
O O11 0.000000 0.000000 0.000000
O O12 0.669571 0.238694 0.894516
O O13 0.500000 0.000000 0.000000
O O14 0.362489 0.456900 0.867159
O O15 0.121495 0.686108 0.752897
O O16 0.000000 0.500000 0.000000
O O17 0.500000 0.500000 0.000000
O O18 0.271151 0.504260 0.581456
#
# Coordination Sequence:
#
# PCOD8037293 Si02
#       8
#     2   2   2   2   2   2   2   2
#     4  12  28  47  72 105 143 182 233 290 350 414
#     4  12  26  47  75 102 140 185 235 288 347 414
#     4  12  28  42  72 103 144 181 227 288 347 413
#     4  12  24  47  71 105 139 182 234 283 345 414
#     4  12  24  47  71 105 139 182 234 283 345 414
#     4  12  26  45  75 105 143 182 231 289 351 412
#     4  12  26  47  75 102 140 185 235 288 347 414
#     4  12  26  48  69 104 144 182 233 283 352 414
#
# _framework density 23.305361000000001
#
# number of rings (size 3 to 8) (size 9 to 14) (size 15 to 20)
#    0.000    0.000    2.500    7.500    7.000    0.000 
#    0.000    0.000    0.000    0.000    0.000    0.000 
#    0.000    0.000    0.000    0.000    0.000    0.000 
#
# Total GULP energy -198382.154279 kJ/mol
# GULP energy per Si atom -12398.884642 kJ/mol
# Density = 2.325232 g / cm^3
# Si number density = 23.305361 Si / 1000 Ang^3
#
#
#
# Elastic Constant Matrix: (Units=GPa)
#
#
# Indices 1 2 3 4 5 6 
#
# 1 49.1959 -12.9154 11.6146 2.4676 -0.9300 0.4740
# 2 -12.9154 116.1849 15.8898 4.9921 -6.5631 9.6446
# 3 11.6146 15.8898 144.3667 10.0343 16.1003 16.6265
# 4 2.4676 4.9921 10.0343 43.9266 14.2954 0.0843
# 5 -0.9300 -6.5631 16.1003 14.2954 45.0437 0.4481
# 6 0.4740 9.6446 16.6265 0.0843 0.4481 43.3975
#
#
#
# Elastic Compliance Matrix: (Units=1/GPa)
#
#
# Indices 1 2 3 4 5 6 
#
# 1 0.021743 0.002924 -0.002187 -0.001777 0.002221 -0.000069
# 2 0.002924 0.009454 -0.001234 -0.001751 0.002451 -0.001682
# 3 -0.002187 -0.001234 0.007908 -0.000618 -0.002829 -0.002701
# 4 -0.001777 -0.001751 -0.000618 0.025905 -0.008299 0.000681
# 5 0.002221 0.002451 -0.002829 -0.008299 0.026246 0.000260
# 6 -0.000069 -0.001682 -0.002701 0.000681 0.000260 0.024448
#
#
# Mechanical properties :
#
#
# Convention : Reuss Voigt Hill
#
# Bulk Modulus (GPa) = 26.23988 37.65839 31.94914
# Shear Modulus (GPa) = 38.63927 46.15079 42.39503
#
# Velocity S-wave (km/s) = 4.07622 4.45484 4.26973
# Velocity P-wave (km/s) = 5.78253 6.53105 6.16816
#
# Compressibility (1/GPa) = 0.03810993
#
# Stress axis : x y z
#
# Youngs Moduli (GPa) = 45.99257 105.77461 126.45322
#
# Poissons Ratio (x) = -0.30925 0.27660
# Poissons Ratio (y) = -0.13447 0.15600
# Poissons Ratio (z) = 0.10060 0.13049
#
# Static dielectric constant tensor:
#      x y z
#    x 4.175130 0.185960 0.079970 
#    y 0.185960 4.563750 -0.103470 
#    z 0.079970 -0.103470 4.281950 
# 
# 
# High freq. dielectric constant tensor:
#      x y z
#    x 1.935250 -0.000100 0.006040 
#    y -0.000100 1.938900 0.001270 
#    z 0.006040 0.001270 1.936690 
# 
# From -- ./inp_files/381244.got.cif
#   From: 2010.06.25/outbox.cif.g09.slc.cpg/sg2_191_cif.got.tgz:381244.got - 2010.06.27 13:26:56.
