data_PCOD8037489
_publ_section_title
;
Structure prediction by ZEFSAII (Michael W. Deem and Ramdas Pophale) SiO2 
 PCOD8037489
Probable space group: P -1
;
_chemical_formula_sum "Si O2"
_cell_formula_units_Z 14
_cell_length_a 8.032969
_cell_length_b 8.703317
_cell_length_c 12.404585
_cell_angle_alpha 49.921517
_cell_angle_beta 87.179374
_cell_angle_gamma 66.267421
_cell_volume 579.549269
_symmetry_space_group_name_H-M "P -1"
_symmetry_group_IT_number 2
_symmetry_cell_setting 'triclinic'
loop_
_space_group_symop_operation_xyz
x,y,z
-x,-y,-z
loop_
_atom_site_type_symbol
_atom_site_label
_atom_site_fract_x
_atom_site_fract_y
_atom_site_fract_z
Si Si1 0.256556 0.840099 0.414716
Si Si2 0.643800 0.417569 0.874997
Si Si3 0.802446 0.282236 0.300265
Si Si4 0.851364 0.344310 0.698156
Si Si5 0.099075 0.362682 0.164792
Si Si6 0.603502 0.838246 0.467637
Si Si7 0.776943 0.037233 0.217169
O O1 0.155619 0.846505 0.528972
O O2 0.225117 0.686262 0.399615
O O3 0.482157 0.718326 0.486325
O O4 0.208348 0.092049 0.261511
O O5 0.421707 0.567832 0.786054
O O6 0.755838 0.271957 0.831298
O O7 0.745401 0.570107 0.828558
O O8 0.658842 0.257481 0.046500
O O9 0.922438 0.420452 0.228020
O O10 0.889145 0.092334 0.284636
O O11 0.804978 0.611010 0.593490
O O12 0.078589 0.173823 0.766784
O O13 0.000000 0.500000 0.000000
O O14 0.626270 0.983038 0.305452
O O15 0.500000 0.000000 0.500000
#
# Coordination Sequence:
#
# PCOD8037489 Si02
#       7
#     2   2   2   2   2   2   2
#     4  12  25  47  72 109 155 187 257 304 368 444
#     4  12  27  49  75 109 155 198 251 304 373 443
#     4  12  25  46  78 109 149 198 251 303 372 437
#     4  12  26  48  72 106 155 192 246 315 372 442
#     4  12  26  45  77 112 143 195 251 305 366 444
#     4  12  25  45  76 108 140 197 249 305 374 442
#     4  12  25  46  73 109 149 197 248 310 371 436
#
# _framework density 24.156704000000001
#
# number of rings (size 3 to 8) (size 9 to 14) (size 15 to 20)
#    0.000    0.000    5.714    3.857    2.000    1.143 
#    0.000    0.714    0.000    0.000    0.000    0.000 
#    0.000    0.000    0.000    0.000    0.000    0.000 
#
# Total GULP energy -173517.229299 kJ/mol
# GULP energy per Si atom -12394.087807 kJ/mol
# Density = 2.410172 g / cm^3
# Si number density = 24.156704 Si / 1000 Ang^3
#
#
#
# Elastic Constant Matrix: (Units=GPa)
#
#
# Indices 1 2 3 4 5 6 
#
# 1 101.6815 22.9923 5.0923 -7.5766 -22.4013 -11.1429
# 2 22.9923 135.2347 46.0999 -4.2234 -0.2039 -22.6819
# 3 5.0923 46.0999 160.2979 0.8931 -27.9086 -1.7826
# 4 -7.5766 -4.2234 0.8931 38.4778 -5.1450 1.3324
# 5 -22.4013 -0.2039 -27.9086 -5.1450 42.9526 8.2105
# 6 -11.1429 -22.6819 -1.7826 1.3324 8.2105 30.2310
#
#
#
# Elastic Compliance Matrix: (Units=1/GPa)
#
#
# Indices 1 2 3 4 5 6 
#
# 1 0.012308 -0.002455 0.001653 0.003133 0.007752 0.000549
# 2 -0.002455 0.010439 -0.003746 -0.000234 -0.005249 0.008143
# 3 0.001653 -0.003746 0.008461 0.000800 0.007141 -0.003677
# 4 0.003133 -0.000234 0.000800 0.027394 0.005768 -0.001748
# 5 0.007752 -0.005249 0.007141 0.005768 0.034601 -0.010312
# 6 0.000549 0.008143 -0.003677 -0.001748 -0.010312 0.042051
#
#
# Mechanical properties :
#
#
# Convention : Reuss Voigt Hill
#
# Bulk Modulus (GPa) = 45.22102 60.62034 52.92068
# Shear Modulus (GPa) = 32.95499 43.86760 38.41130
#
# Velocity S-wave (km/s) = 3.69754 4.26603 3.99192
# Velocity P-wave (km/s) = 6.08190 7.02954 6.57282
#
# Compressibility (1/GPa) = 0.02211361
#
# Stress axis : x y z
#
# Youngs Moduli (GPa) = 81.24547 95.79009 118.18664
#
# Poissons Ratio (x) = 0.23512 -0.19539
# Poissons Ratio (y) = 0.19942 0.44277
# Poissons Ratio (z) = -0.13432 0.35887
#
# Static dielectric constant tensor:
#      x y z
#    x 4.717440 -0.235380 0.001240 
#    y -0.235380 4.676360 0.159130 
#    z 0.001240 0.159130 4.509030 
# 
# 
# High freq. dielectric constant tensor:
#      x y z
#    x 1.973980 -0.022890 0.005620 
#    y -0.022890 1.949430 0.005240 
#    z 0.005620 0.005240 1.976770 
# 
# From -- ./inp_files/242406.got.cif
#   From: 2010.06.25/outbox.cif.g09.slc.cpg/sg2_122_cif.got.tgz:242406.got - 2010.06.27 13:26:56.
