data_PCOD8037902
_publ_section_title
;
Structure prediction by ZEFSAII (Michael W. Deem and Ramdas Pophale) SiO2 
 PCOD8037902
Probable space group: P -1
;
_chemical_formula_sum "Si O2"
_cell_formula_units_Z 14
_cell_length_a 8.223358
_cell_length_b 20.532461
_cell_length_c 10.475971
_cell_angle_alpha 147.706742
_cell_angle_beta 136.954942
_cell_angle_gamma 45.165267
_cell_volume 626.280710
_symmetry_space_group_name_H-M "P -1"
_symmetry_group_IT_number 2
_symmetry_cell_setting 'triclinic'
loop_
_space_group_symop_operation_xyz
x,y,z
-x,-y,-z
loop_
_atom_site_type_symbol
_atom_site_label
_atom_site_fract_x
_atom_site_fract_y
_atom_site_fract_z
Si Si1 0.476412 0.136121 0.270813
Si Si2 0.529625 0.461355 0.101285
Si Si3 0.980880 0.252827 0.055495
Si Si4 0.675923 0.285927 0.447123
Si Si5 0.300034 0.212167 0.926492
Si Si6 0.855528 0.640374 0.168820
Si Si7 0.242496 0.951687 0.476883
O O1 0.687298 0.192118 0.417920
O O2 0.531046 0.123578 0.430837
O O3 0.210036 0.231170 0.249037
O O4 0.500000 0.000000 0.000000
O O5 0.805627 0.392383 0.189520
O O6 0.457156 0.576080 0.348470
O O7 0.500000 0.500000 0.000000
O O8 0.359285 0.361435 0.856315
O O9 0.077289 0.238547 0.942173
O O10 0.823720 0.148856 0.826423
O O11 0.541012 0.235998 0.171343
O O12 0.950037 0.280406 0.543707
O O13 0.255798 0.306700 0.941711
O O14 0.331905 0.067775 0.656536
O O15 0.000000 0.500000 0.000000
O O16 0.000000 0.000000 0.500000
#
# Coordination Sequence:
#
# PCOD8037902 Si02
#       7
#     2   2   2   2   2   2   2
#     4  11  18  32  58  96 115 152 197 244 292 341
#     4  11  23  42  61  87 122 161 200 246 310 360
#     4  10  21  35  59  90 124 154 198 246 296 351
#     4  10  21  38  64  88 121 153 202 247 291 357
#     4  10  20  35  61  92 111 155 202 242 301 339
#     4  10  22  39  61  84 118 159 200 247 296 356
#     4  10  17  32  57  86 120 151 197 244 281 351
#
# _framework density 22.354192999999999
#
# number of rings (size 3 to 8) (size 9 to 14) (size 15 to 20)
#    0.000    1.714    4.286    4.286    0.000    4.571 
#    0.000    7.857    0.000    1.714    0.000    0.000 
#    0.000    0.000    0.000    0.000    0.000    0.000 
#
# Total GULP energy -173466.891405 kJ/mol
# GULP energy per Si atom -12390.492243 kJ/mol
# Density = 2.230331 g / cm^3
# Si number density = 22.354193 Si / 1000 Ang^3
#
#
#
# Elastic Constant Matrix: (Units=GPa)
#
#
# Indices 1 2 3 4 5 6 
#
# 1 68.5034 35.8354 23.9019 -0.3589 30.2638 10.4272
# 2 35.8354 134.2126 6.8752 -2.2894 15.0938 13.2597
# 3 23.9019 6.8752 81.7834 -4.4857 31.2713 7.8999
# 4 -0.3589 -2.2894 -4.4857 31.9254 1.5423 4.6667
# 5 30.2638 15.0938 31.2713 1.5423 33.3938 4.9164
# 6 10.4272 13.2597 7.8999 4.6667 4.9164 35.6334
#
#
#
# Elastic Compliance Matrix: (Units=1/GPa)
#
#
# Indices 1 2 3 4 5 6 
#
# 1 0.027539 -0.004284 0.002209 0.002062 -0.024622 -0.003827
# 2 -0.004284 0.008888 0.001141 0.001134 -0.000913 -0.002329
# 3 0.002209 0.001141 0.020092 0.004415 -0.021066 -0.003197
# 4 0.002062 0.001134 0.004415 0.033180 -0.007260 -0.005348
# 5 -0.024622 -0.000913 -0.021066 -0.007260 0.072264 0.003195
# 6 -0.003827 -0.002329 -0.003197 -0.005348 0.003195 0.031019
#
#
# Mechanical properties :
#
#
# Convention : Reuss Voigt Hill
#
# Bulk Modulus (GPa) = 18.29776 46.41381 32.35579
# Shear Modulus (GPa) = 23.46686 34.71632 29.09159
#
# Velocity S-wave (km/s) = 3.24354 3.94510 3.61140
# Velocity P-wave (km/s) = 4.71493 6.44669 5.64758
#
# Compressibility (1/GPa) = 0.05465149
#
# Stress axis : x y z
#
# Youngs Moduli (GPa) = 36.31220 112.50587 49.77203
#
# Poissons Ratio (x) = 0.48197 -0.10994
# Poissons Ratio (y) = 0.15556 -0.05680
# Poissons Ratio (z) = -0.08021 -0.12839
#
# Static dielectric constant tensor:
#      x y z
#    x 3.994170 0.012640 0.624720 
#    y 0.012640 4.286120 0.101740 
#    z 0.624720 0.101740 4.517100 
# 
# 
# High freq. dielectric constant tensor:
#      x y z
#    x 1.838050 0.001350 0.035000 
#    y 0.001350 1.894900 0.006360 
#    z 0.035000 0.006360 1.888910 
# 
# From -- ./inp_files/279462.got.cif
#   From: 2010.06.25/outbox.cif.g09.slc.cpg/sg2_140_cif.got.tgz:279462.got - 2010.06.27 13:26:56.
