data_PCOD8037125
_publ_section_title
;
Structure prediction by ZEFSAII (Michael W. Deem and Ramdas Pophale) SiO2 
 PCOD8037125
Probable space group: P -1
;
_chemical_formula_sum "Si O2"
_cell_formula_units_Z 16
_cell_length_a 17.066330
_cell_length_b 12.878428
_cell_length_c 8.515260
_cell_angle_alpha 116.550079
_cell_angle_beta 146.409400
_cell_angle_gamma 47.933834
_cell_volume 740.011888
_symmetry_space_group_name_H-M "P -1"
_symmetry_group_IT_number 2
_symmetry_cell_setting 'triclinic'
loop_
_space_group_symop_operation_xyz
x,y,z
-x,-y,-z
loop_
_atom_site_type_symbol
_atom_site_label
_atom_site_fract_x
_atom_site_fract_y
_atom_site_fract_z
Si Si1 0.617898 0.768119 0.363523
Si Si2 0.443377 0.971043 0.725769
Si Si3 0.291152 0.773460 0.711755
Si Si4 0.145508 0.704918 0.706790
Si Si5 0.100732 0.024712 0.312314
Si Si6 0.674470 0.677109 0.737610
Si Si7 0.034767 0.505975 0.381287
Si Si8 0.512961 0.511836 0.346085
O O1 0.680112 0.743199 0.629676
O O2 0.787863 0.651657 0.465960
O O3 0.556156 0.929425 0.336499
O O4 0.458985 0.756766 0.055262
O O5 0.581211 0.801674 0.798272
O O6 0.250922 0.012034 0.452668
O O7 0.500000 0.000000 0.000000
O O8 0.170085 0.780646 0.653470
O O9 0.343952 0.643344 0.596677
O O10 0.175450 0.917327 0.512300
O O11 0.049880 0.633939 0.445520
O O12 0.032872 0.815912 0.733002
O O13 0.330597 0.572969 0.998008
O O14 0.000000 0.000000 0.000000
O O15 0.560806 0.620478 0.469156
O O16 0.868265 0.541639 0.026953
O O17 0.000000 0.500000 0.500000
O O18 0.500000 0.500000 0.500000
#
# Coordination Sequence:
#
# PCOD8037125 Si02
#       8
#     2   2   2   2   2   2   2   2
#     4  12  25  46  72 103 141 182 231 281 346 416
#     4  12  25  47  73  99 141 189 228 281 349 408
#     4  12  25  46  73 102 140 186 224 284 353 408
#     4  12  24  46  69 100 141 183 226 282 348 411
#     4  12  27  45  69 105 139 178 238 286 336 410
#     4  12  26  45  70 106 138 180 232 286 339 412
#     4  12  26  44  71 105 139 179 232 284 346 404
#     4  12  24  43  73 102 137 179 233 279 345 412
#
# _framework density 21.621272000000001
#
# number of rings (size 3 to 8) (size 9 to 14) (size 15 to 20)
#    0.000    0.000    3.750    7.500    0.000    2.000 
#    0.000    0.000    0.000    0.000    0.000    0.000 
#    0.000    0.000    0.000    0.000    0.000    0.000 
#
# Total GULP energy -198495.025323 kJ/mol
# GULP energy per Si atom -12405.939083 kJ/mol
# Density = 2.157206 g / cm^3
# Si number density = 21.621272 Si / 1000 Ang^3
#
#
#
# Elastic Constant Matrix: (Units=GPa)
#
#
# Indices 1 2 3 4 5 6 
#
# 1 95.7633 -0.9111 29.0701 1.2277 4.4441 15.1707
# 2 -0.9111 69.5640 7.4848 10.7665 16.1872 1.4558
# 3 29.0701 7.4848 104.9092 0.3292 -3.7796 1.4131
# 4 1.2277 10.7665 0.3292 29.3687 2.9836 -4.0623
# 5 4.4441 16.1872 -3.7796 2.9836 38.4868 -6.6686
# 6 15.1707 1.4558 1.4131 -4.0623 -6.6686 43.8158
#
#
#
# Elastic Compliance Matrix: (Units=1/GPa)
#
#
# Indices 1 2 3 4 5 6 
#
# 1 0.012500 0.001626 -0.003626 -0.001427 -0.003220 -0.004888
# 2 0.001626 0.017388 -0.001912 -0.006026 -0.007708 -0.002811
# 3 -0.003626 -0.001912 0.010741 0.000676 0.002470 0.001411
# 4 -0.001427 -0.006026 0.000676 0.036825 0.000636 0.004183
# 5 -0.003220 -0.007708 0.002470 0.000636 0.030837 0.006043
# 6 -0.004888 -0.002811 0.001411 0.004183 0.006043 0.025871
#
#
# Mechanical properties :
#
#
# Convention : Reuss Voigt Hill
#
# Bulk Modulus (GPa) = 30.48220 37.94713 34.21466
# Shear Modulus (GPa) = 32.69678 37.97379 35.33528
#
# Velocity S-wave (km/s) = 3.89299 4.19539 4.04701
# Velocity P-wave (km/s) = 5.85969 6.40760 6.13976
#
# Compressibility (1/GPa) = 0.03280603
#
# Stress axis : x y z
#
# Youngs Moduli (GPa) = 79.99706 57.51243 93.10168
#
# Poissons Ratio (x) = -0.09352 0.33754
# Poissons Ratio (y) = -0.13009 0.17802
# Poissons Ratio (z) = 0.29003 0.10997
#
# Static dielectric constant tensor:
#      x y z
#    x 4.012270 -0.021910 0.075680 
#    y -0.021910 3.994560 0.031170 
#    z 0.075680 0.031170 3.922200 
# 
# 
# High freq. dielectric constant tensor:
#      x y z
#    x 1.866020 0.001410 -0.000660 
#    y 0.001410 1.860630 0.001100 
#    z -0.000660 0.001100 1.860500 
# 
# From -- ./inp_files/186839.got.cif
#   From: 2010.06.25/outbox.cif.g09.slc.cpg/sg2_94_cif.got.tgz:186839.got - 2010.06.27 13:26:56.
