data_PCOD8037774
_publ_section_title
;
Structure prediction by ZEFSAII (Michael W. Deem and Ramdas Pophale) SiO2 
 PCOD8037774
Probable space group: P -1
;
_chemical_formula_sum "Si O2"
_cell_formula_units_Z 12
_cell_length_a 7.636614
_cell_length_b 7.078488
_cell_length_c 11.047442
_cell_angle_alpha 55.099866
_cell_angle_beta 68.711076
_cell_angle_gamma 60.822659
_cell_volume 424.667606
_symmetry_space_group_name_H-M "P -1"
_symmetry_group_IT_number 2
_symmetry_cell_setting 'triclinic'
loop_
_space_group_symop_operation_xyz
x,y,z
-x,-y,-z
loop_
_atom_site_type_symbol
_atom_site_label
_atom_site_fract_x
_atom_site_fract_y
_atom_site_fract_z
Si Si1 0.583426 0.715168 0.925232
Si Si2 0.164399 0.082466 0.863347
Si Si3 0.847116 0.779397 0.450162
Si Si4 0.863183 0.929437 0.659375
Si Si5 0.607633 0.463267 0.612098
Si Si6 0.214528 0.502824 0.817742
O O1 0.770237 0.614645 0.009723
O O2 0.500000 0.500000 0.000000
O O3 0.690656 0.809929 0.755969
O O4 0.380826 0.945331 0.925196
O O5 0.171214 0.050982 0.727770
O O6 0.114848 0.370342 0.796026
O O7 0.000000 0.000000 0.000000
O O8 0.894768 0.923151 0.504637
O O9 0.645800 0.715235 0.541570
O O10 0.000000 0.500000 0.500000
O O11 0.066473 0.784212 0.737973
O O12 0.798567 0.200764 0.644235
O O13 0.500000 0.500000 0.500000
O O14 0.451224 0.452320 0.756485
#
# Coordination Sequence:
#
# PCOD8037774 Si02
#       6
#     2   2   2   2   2   2
#     4  12  27  48  79 117 163 213 269 332 405 488
#     4  12  27  51  79 113 163 215 261 334 405 474
#     4  12  27  51  82 119 162 207 273 334 404 480
#     4  12  27  51  82 121 160 212 272 333 409 477
#     4  12  26  49  79 116 163 209 269 335 400 478
#     4  12  26  52  76 121 162 210 270 329 407 482
#
# _framework density 28.257393
#
# number of rings (size 3 to 8) (size 9 to 14) (size 15 to 20)
#    0.000    0.000    5.000    3.000    2.333    8.000 
#    0.000    0.000    0.000    0.000    0.000    0.000 
#    0.000    0.000    0.000    0.000    0.000    0.000 
#
# Total GULP energy -148725.139833 kJ/mol
# GULP energy per Si atom -12393.761653 kJ/mol
# Density = 2.819308 g / cm^3
# Si number density = 28.257393 Si / 1000 Ang^3
#
#
#
# Elastic Constant Matrix: (Units=GPa)
#
#
# Indices 1 2 3 4 5 6 
#
# 1 162.5191 60.8494 70.0199 -6.5733 -1.0919 24.0157
# 2 60.8494 127.0461 50.9319 -12.0979 -0.5638 -8.8014
# 3 70.0199 50.9319 169.7986 -9.2838 -11.5148 -5.7057
# 4 -6.5733 -12.0979 -9.2838 38.8207 -8.0791 3.3323
# 5 -1.0919 -0.5638 -11.5148 -8.0791 68.6108 -13.6460
# 6 24.0157 -8.8014 -5.7057 3.3323 -13.6460 76.5988
#
#
#
# Elastic Compliance Matrix: (Units=1/GPa)
#
#
# Indices 1 2 3 4 5 6 
#
# 1 0.009304 -0.003538 -0.002988 -0.000159 -0.001146 -0.003743
# 2 -0.003538 0.010522 -0.001468 0.002241 0.000485 0.002198
# 3 -0.002988 -0.001468 0.007792 0.001116 0.001698 0.001602
# 4 -0.000159 0.002241 0.001116 0.027421 0.003393 -0.000198
# 5 -0.001146 0.000485 0.001698 0.003393 0.015886 0.003224
# 6 -0.003743 0.002198 0.001602 -0.000198 0.003224 0.015184
#
#
# Mechanical properties :
#
#
# Convention : Reuss Voigt Hill
#
# Bulk Modulus (GPa) = 85.97980 91.44069 88.71024
# Shear Modulus (GPa) = 47.18206 55.31023 51.24614
#
# Velocity S-wave (km/s) = 4.09066 4.42902 4.26320
# Velocity P-wave (km/s) = 7.26669 7.65409 7.46290
#
# Compressibility (1/GPa) = 0.01163064
#
# Stress axis : x y z
#
# Youngs Moduli (GPa) = 107.48026 95.03893 128.34255
#
# Poissons Ratio (x) = 0.33625 0.38344
# Poissons Ratio (y) = 0.38027 0.18839
# Poissons Ratio (z) = 0.32111 0.13951
#
# Static dielectric constant tensor:
#      x y z
#    x 5.461270 -1.072440 0.403980 
#    y -1.072440 -0.844180 0.264260 
#    z 0.403980 0.264260 4.663430 
# 
# 
# High freq. dielectric constant tensor:
#      x y z
#    x 2.179550 0.000140 -0.026380 
#    y 0.000140 2.145010 -0.013820 
#    z -0.026380 -0.013820 2.163810 
# 
# From -- ./inp_files/377559.got.cif
#   From: 2010.06.25/outbox.cif.g09.slc.cpg/sg2_189_cif.got.tgz:377559.got - 2010.06.27 13:26:56.
