data_PCOD8037791
_publ_section_title
;
Structure prediction by ZEFSAII (Michael W. Deem and Ramdas Pophale) SiO2 
 PCOD8037791
Probable space group: P -1
;
_chemical_formula_sum "Si O2"
_cell_formula_units_Z 8
_cell_length_a 8.720493
_cell_length_b 8.105974
_cell_length_c 8.992453
_cell_angle_alpha 74.541110
_cell_angle_beta 77.434298
_cell_angle_gamma 31.867674
_cell_volume 323.412299
_symmetry_space_group_name_H-M "P -1"
_symmetry_group_IT_number 2
_symmetry_cell_setting 'triclinic'
loop_
_space_group_symop_operation_xyz
x,y,z
-x,-y,-z
loop_
_atom_site_type_symbol
_atom_site_label
_atom_site_fract_x
_atom_site_fract_y
_atom_site_fract_z
Si Si1 0.920958 0.242825 0.873288
Si Si2 0.329525 0.507287 0.453994
Si Si3 0.189114 0.198515 0.430969
Si Si4 0.494877 0.110512 0.123515
O O1 0.794415 0.316270 0.719894
O O2 0.674065 0.557645 0.950250
O O3 0.186215 0.133971 0.825714
O O4 0.000000 0.000000 0.000000
O O5 0.500000 0.500000 0.500000
O O6 0.059183 0.715804 0.572251
O O7 0.534295 0.150438 0.464446
O O8 0.307261 0.173449 0.263685
O O9 0.000000 0.500000 0.500000
O O10 0.500000 0.000000 0.000000
#
# Coordination Sequence:
#
# PCOD8037791 Si02
#       4
#     2   2   2   2
#     4  12  28  52  78 114 163 204 253 321 392 464
#     4  12  28  50  81 117 153 207 260 320 387 458
#     4  12  26  51  83 110 154 202 268 323 376 455
#     4  12  28  52  79 117 153 207 259 320 390 457
#
# _framework density 24.736227
#
# number of rings (size 3 to 8) (size 9 to 14) (size 15 to 20)
#    0.000    0.000    2.500    6.000    3.500    0.000 
#    0.000    0.000    0.000    0.000    0.000    0.000 
#    0.000    0.000    0.000    0.000    0.000    0.000 
#
# Total GULP energy -99178.653775 kJ/mol
# GULP energy per Si atom -12397.331722 kJ/mol
# Density = 2.467993 g / cm^3
# Si number density = 24.736227 Si / 1000 Ang^3
#
#
#
# Elastic Constant Matrix: (Units=GPa)
#
#
# Indices 1 2 3 4 5 6 
#
# 1 127.7444 52.5862 109.6750 -5.3641 14.7237 -23.1515
# 2 52.5862 154.9973 76.3416 -11.8775 19.6969 -9.0623
# 3 109.6750 76.3416 175.6712 -0.9073 17.3293 3.2246
# 4 -5.3641 -11.8775 -0.9073 51.1863 1.8374 -8.9927
# 5 14.7237 19.6969 17.3293 1.8374 32.2316 2.3944
# 6 -23.1515 -9.0623 3.2246 -8.9927 2.3944 57.0216
#
#
#
# Elastic Compliance Matrix: (Units=1/GPa)
#
#
# Indices 1 2 3 4 5 6 
#
# 1 0.021954 0.000847 -0.013840 0.004277 -0.004143 0.010679
# 2 0.000847 0.009063 -0.004099 0.002725 -0.004071 0.002617
# 3 -0.013840 -0.004099 0.016148 -0.003515 0.000923 -0.007777
# 4 0.004277 0.002725 -0.003515 0.021720 -0.003408 0.005937
# 5 -0.004143 -0.004071 0.000923 -0.003408 0.035431 -0.004406
# 6 0.010679 0.002617 -0.007777 0.005937 -0.004406 0.023850
#
#
# Mechanical properties :
#
#
# Convention : Reuss Voigt Hill
#
# Bulk Modulus (GPa) = 77.04219 103.95760 90.49989
# Shear Modulus (GPa) = 29.99827 42.74190 36.37008
#
# Velocity S-wave (km/s) = 3.48620 4.16132 3.83863
# Velocity P-wave (km/s) = 6.88606 8.07505 7.50414
#
# Compressibility (1/GPa) = 0.01297990
#
# Stress axis : x y z
#
# Youngs Moduli (GPa) = 45.54962 110.34315 61.92826
#
# Poissons Ratio (x) = -0.09342 0.85706
# Poissons Ratio (y) = -0.03856 0.25386
# Poissons Ratio (z) = 0.63039 0.45233
#
# Static dielectric constant tensor:
#      x y z
#    x 6.457890 -2.579550 -2.342300 
#    y -2.579550 9.536680 3.385740 
#    z -2.342300 3.385740 7.035540 
# 
# 
# High freq. dielectric constant tensor:
#      x y z
#    x 2.004450 -0.014960 -0.010810 
#    y -0.014960 2.024530 -0.001420 
#    z -0.010810 -0.001420 1.968750 
# 
# From -- ./inp_files/149997.got.cif
#   From: 2010.06.25/outbox.cif.g09.slc.cpg/sg2_75_cif.got.tgz:149997.got - 2010.06.27 13:26:56.
