data_PCOD8037113
_publ_section_title
;
Structure prediction by ZEFSAII (Michael W. Deem and Ramdas Pophale) SiO2 
 PCOD8037113
Probable space group: P -1
;
_chemical_formula_sum "Si O2"
_cell_formula_units_Z 14
_cell_length_a 14.359812
_cell_length_b 11.692701
_cell_length_c 21.017449
_cell_angle_alpha 148.913223
_cell_angle_beta 159.604615
_cell_angle_gamma 41.574821
_cell_volume 605.051461
_symmetry_space_group_name_H-M "P -1"
_symmetry_group_IT_number 2
_symmetry_cell_setting 'triclinic'
loop_
_space_group_symop_operation_xyz
x,y,z
-x,-y,-z
loop_
_atom_site_type_symbol
_atom_site_label
_atom_site_fract_x
_atom_site_fract_y
_atom_site_fract_z
Si Si1 0.230924 0.682906 0.276350
Si Si2 0.685431 0.952716 0.879893
Si Si3 0.593793 0.785512 0.368166
Si Si4 0.046905 0.426331 0.161091
Si Si5 0.221706 0.343032 0.446146
Si Si6 0.640341 0.744067 0.238464
Si Si7 0.854648 0.286550 0.511481
O O1 0.156110 0.635951 0.280423
O O2 0.533852 0.655186 0.445749
O O3 0.243412 0.942265 0.387590
O O4 0.000000 0.500000 0.000000
O O5 0.740174 0.729702 0.775390
O O6 0.457649 0.879434 0.755860
O O7 0.560128 0.090171 0.812887
O O8 0.968150 0.107963 0.166202
O O9 0.672427 0.635831 0.403395
O O10 0.694698 0.703460 0.327714
O O11 0.259466 0.738728 0.132963
O O12 0.035297 0.540284 0.276184
O O13 0.127770 0.563590 0.470533
O O14 0.929465 0.858464 0.438178
O O15 0.500000 0.500000 0.000000
#
# Coordination Sequence:
#
# PCOD8037113 Si02
#       7
#     2   2   2   2   2   2   2
#     4  12  24  43  70 110 147 179 228 289 363 419
#     4  12  25  45  72 104 140 183 237 297 350 407
#     4  12  26  44  72 106 144 187 227 290 359 414
#     4  12  24  43  75 106 140 181 237 292 352 416
#     4  12  25  42  70 103 145 177 234 291 352 415
#     4  12  26  50  71  99 145 192 237 286 347 420
#     4  12  27  47  70 105 142 190 238 289 345 424
#
# _framework density 23.138528000000001
#
# number of rings (size 3 to 8) (size 9 to 14) (size 15 to 20)
#    0.000    0.000    7.143    3.000    2.000    1.714 
#    0.000    0.714    0.000    0.000    0.000    0.000 
#    0.000    0.000    0.000    0.000    0.000    0.000 
#
# Total GULP energy -173645.495462 kJ/mol
# GULP energy per Si atom -12403.249676 kJ/mol
# Density = 2.308586 g / cm^3
# Si number density = 23.138528 Si / 1000 Ang^3
#
#
#
# Elastic Constant Matrix: (Units=GPa)
#
#
# Indices 1 2 3 4 5 6 
#
# 1 147.5344 34.9133 44.1236 -18.5006 3.2291 9.6949
# 2 34.9133 53.9569 20.5956 -17.8427 -7.4055 15.0457
# 3 44.1236 20.5956 127.7606 -4.9857 21.2084 1.8678
# 4 -18.5006 -17.8427 -4.9857 30.7267 3.0755 7.8548
# 5 3.2291 -7.4055 21.2084 3.0755 38.9976 -7.4225
# 6 9.6949 15.0457 1.8678 7.8548 -7.4225 46.4596
#
#
#
# Elastic Compliance Matrix: (Units=1/GPa)
#
#
# Indices 1 2 3 4 5 6 
#
# 1 0.008775 -0.003481 -0.002207 0.003302 -0.000692 -0.001284
# 2 -0.003481 0.032500 -0.003932 0.018732 0.004830 -0.012036
# 3 -0.002207 -0.003932 0.010119 -0.001557 -0.005818 0.000661
# 4 0.003302 0.018732 -0.001557 0.049385 -0.002710 -0.015475
# 5 -0.000692 0.004830 -0.005818 -0.002710 0.030793 0.004192
# 6 -0.001284 -0.012036 0.000661 -0.015475 0.004192 0.028949
#
#
# Mechanical properties :
#
#
# Convention : Reuss Voigt Hill
#
# Bulk Modulus (GPa) = 31.10006 58.72411 44.91209
# Shear Modulus (GPa) = 26.24974 38.54473 32.39724
#
# Velocity S-wave (km/s) = 3.37183 4.08588 3.74591
# Velocity P-wave (km/s) = 5.35060 6.90606 6.17749
#
# Compressibility (1/GPa) = 0.03215427
#
# Stress axis : x y z
#
# Youngs Moduli (GPa) = 113.95421 30.76957 98.82770
#
# Poissons Ratio (x) = 0.10711 0.21812
# Poissons Ratio (y) = 0.39666 0.38857
# Poissons Ratio (z) = 0.25150 0.12098
#
# Static dielectric constant tensor:
#      x y z
#    x 4.417590 -0.018080 0.401040 
#    y -0.018080 4.270560 -0.129000 
#    z 0.401040 -0.129000 4.231050 
# 
# 
# High freq. dielectric constant tensor:
#      x y z
#    x 1.924090 0.009570 0.021590 
#    y 0.009570 1.909780 -0.006560 
#    z 0.021590 -0.006560 1.921650 
# 
# From -- ./inp_files/187742.got.cif
#   From: 2010.06.25/outbox.cif.g09.slc.cpg/sg2_94_cif.got.tgz:187742.got - 2010.06.27 13:26:56.
