data_PCOD8037204
_publ_section_title
;
Structure prediction by ZEFSAII (Michael W. Deem and Ramdas Pophale) SiO2 
 PCOD8037204
Probable space group: P -1
;
_chemical_formula_sum "Si O2"
_cell_formula_units_Z 16
_cell_length_a 8.916247
_cell_length_b 9.505711
_cell_length_c 11.569957
_cell_angle_alpha 58.407588
_cell_angle_beta 107.238964
_cell_angle_gamma 122.670106
_cell_volume 703.009967
_symmetry_space_group_name_H-M "P -1"
_symmetry_group_IT_number 2
_symmetry_cell_setting 'triclinic'
loop_
_space_group_symop_operation_xyz
x,y,z
-x,-y,-z
loop_
_atom_site_type_symbol
_atom_site_label
_atom_site_fract_x
_atom_site_fract_y
_atom_site_fract_z
Si Si1 0.358218 0.969916 0.757660
Si Si2 0.123244 0.552164 0.833317
Si Si3 0.114337 0.059956 0.825231
Si Si4 0.587198 0.369963 0.563682
Si Si5 0.126029 0.441970 0.624310
Si Si6 0.424942 0.185028 0.012968
Si Si7 0.266016 0.532267 0.196453
Si Si8 0.248909 0.302367 0.099686
O O1 0.247582 0.775070 0.748603
O O2 0.525354 0.973894 0.864396
O O3 0.213222 0.984891 0.796288
O O4 0.446541 0.150550 0.617925
O O5 0.105597 0.457459 0.747559
O O6 0.929079 0.493407 0.867749
O O7 0.221682 0.476932 0.974598
O O8 0.094102 0.230438 0.688696
O O9 0.227591 0.110636 0.947521
O O10 0.918251 0.897543 0.876418
O O11 0.500000 0.500000 0.500000
O O12 0.681374 0.414085 0.442232
O O13 0.718132 0.433548 0.677266
O O14 0.000000 0.500000 0.500000
O O15 0.419491 0.304636 0.072976
O O16 0.569955 0.293072 0.901333
O O17 0.278855 0.349558 0.225100
#
# Coordination Sequence:
#
# PCOD8037204 Si02
#       8
#     2   2   2   2   2   2   2   2
#     4  12  26  45  75 107 142 188 238 297 361 428
#     4  12  26  48  73 106 149 183 237 303 358 424
#     4  12  25  47  72 106 148 189 237 292 360 432
#     4  12  27  49  72  99 143 196 242 287 350 426
#     4  12  27  49  73 103 141 197 244 287 345 426
#     4  12  25  41  72 111 145 183 236 295 369 422
#     4  12  24  45  74 101 145 189 228 300 357 421
#     4  12  26  43  72 114 146 177 237 302 370 416
#
# _framework density 22.759278999999999
#
# number of rings (size 3 to 8) (size 9 to 14) (size 15 to 20)
#    0.000    0.000    7.500    2.250    3.500    0.500 
#    2.250    1.875    0.000    0.000    0.000    0.000 
#    0.000    0.000    0.000    0.000    0.000    0.000 
#
# Total GULP energy -198283.116110 kJ/mol
# GULP energy per Si atom -12392.694757 kJ/mol
# Density = 2.270748 g / cm^3
# Si number density = 22.759279 Si / 1000 Ang^3
#
#
#
# Elastic Constant Matrix: (Units=GPa)
#
#
# Indices 1 2 3 4 5 6 
#
# 1 102.0663 22.1968 24.5098 -16.3694 -7.0832 -15.1369
# 2 22.1968 99.4861 21.0118 -26.2588 -3.8954 3.0557
# 3 24.5098 21.0118 52.9715 -21.7788 3.1796 -7.7372
# 4 -16.3694 -26.2588 -21.7788 43.5637 -7.0720 -4.0339
# 5 -7.0832 -3.8954 3.1796 -7.0720 48.0845 -1.2120
# 6 -15.1369 3.0557 -7.7372 -4.0339 -1.2120 36.1349
#
#
#
# Elastic Compliance Matrix: (Units=1/GPa)
#
#
# Indices 1 2 3 4 5 6 
#
# 1 0.012275 -0.001287 -0.003352 0.003025 0.002495 0.004955
# 2 -0.001287 0.012534 -0.002136 0.006182 0.001843 -0.001304
# 3 -0.003352 -0.002136 0.026790 0.011276 -0.000635 0.005750
# 4 0.003025 0.006182 0.011276 0.035026 0.005535 0.007255
# 5 0.002495 0.001843 -0.000635 0.005535 0.022223 0.002117
# 6 0.004955 -0.001304 0.005750 0.007255 0.002117 0.031972
#
#
# Mechanical properties :
#
#
# Convention : Reuss Voigt Hill
#
# Bulk Modulus (GPa) = 26.28061 43.32898 34.80479
# Shear Modulus (GPa) = 29.93079 38.01030 33.97055
#
# Velocity S-wave (km/s) = 3.63037 4.09112 3.86761
# Velocity P-wave (km/s) = 5.39861 6.43394 5.93888
#
# Compressibility (1/GPa) = 0.03805087
#
# Stress axis : x y z
#
# Youngs Moduli (GPa) = 81.46327 79.78394 37.32738
#
# Poissons Ratio (x) = 0.10268 0.12511
# Poissons Ratio (y) = 0.10484 0.07972
# Poissons Ratio (z) = 0.27304 0.17039
#
# Static dielectric constant tensor:
#      x y z
#    x 2.140700 -2.774490 -3.167080 
#    y -2.774490 1.002000 -3.842720 
#    z -3.167080 -3.842720 -0.613080 
# 
# 
# High freq. dielectric constant tensor:
#      x y z
#    x 1.927920 -0.009070 -0.007530 
#    y -0.009070 1.904720 -0.003350 
#    z -0.007530 -0.003350 1.876020 
# 
# From -- ./inp_files/185342.got.cif
#   From: 2010.06.25/outbox.cif.g09.slc.cpg/sg2_93_cif.got.tgz:185342.got - 2010.06.27 13:26:56.
