data_PCOD8037505
_publ_section_title
;
Structure prediction by ZEFSAII (Michael W. Deem and Ramdas Pophale) SiO2 
 PCOD8037505
Probable space group: P -1
;
_chemical_formula_sum "Si O2"
_cell_formula_units_Z 12
_cell_length_a 14.012175
_cell_length_b 17.503884
_cell_length_c 11.454921
_cell_angle_alpha 150.033004
_cell_angle_beta 159.888020
_cell_angle_gamma 31.814637
_cell_volume 471.670845
_symmetry_space_group_name_H-M "P -1"
_symmetry_group_IT_number 2
_symmetry_cell_setting 'triclinic'
loop_
_space_group_symop_operation_xyz
x,y,z
-x,-y,-z
loop_
_atom_site_type_symbol
_atom_site_label
_atom_site_fract_x
_atom_site_fract_y
_atom_site_fract_z
Si Si1 0.320885 0.408835 0.249835
Si Si2 0.437579 0.052721 0.865254
Si Si3 0.371608 0.608360 0.182261
Si Si4 0.000817 0.109846 0.256636
Si Si5 0.372217 0.258967 0.727761
Si Si6 0.250223 0.204675 0.266745
O O1 0.500000 0.500000 0.500000
O O2 0.409445 0.401547 0.475017
O O3 0.385671 0.237687 0.041931
O O4 0.000000 0.500000 0.000000
O O5 0.157961 0.016342 0.427444
O O6 0.701828 0.955078 0.965541
O O7 0.500000 0.000000 0.000000
O O8 0.514727 0.691188 0.353935
O O9 0.325226 0.438015 0.867319
O O10 0.069296 0.706925 0.007462
O O11 0.170151 0.241936 0.581838
O O12 0.690707 0.196296 0.054788
O O13 0.000000 0.000000 0.000000
O O14 0.297245 0.159962 0.398695
#
# Coordination Sequence:
#
# PCOD8037505 Si02
#       6
#     2   2   2   2   2   2
#     4  12  27  50  74 106 150 202 251 304 375 452
#     4  12  28  51  79 112 156 200 252 315 376 452
#     4  12  25  46  72 112 152 194 249 312 378 446
#     4  12  26  48  75 107 146 199 255 312 369 444
#     4  12  25  48  77 107 153 194 253 311 374 447
#     4  12  26  45  76 113 149 196 249 308 381 446
#
# _framework density 25.441471
#
# number of rings (size 3 to 8) (size 9 to 14) (size 15 to 20)
#    0.000    0.000    3.333    6.500    0.000    2.000 
#    0.000    0.000    0.000    0.000    0.000    0.000 
#    0.000    0.000    0.000    0.000    0.000    0.000 
#
# Total GULP energy -148797.078628 kJ/mol
# GULP energy per Si atom -12399.756552 kJ/mol
# Density = 2.538356 g / cm^3
# Si number density = 25.441471 Si / 1000 Ang^3
#
#
#
# Elastic Constant Matrix: (Units=GPa)
#
#
# Indices 1 2 3 4 5 6 
#
# 1 101.7571 47.5900 48.3219 -14.7596 -17.3693 -3.0675
# 2 47.5900 172.9359 61.2135 -18.4418 1.1614 -23.6037
# 3 48.3219 61.2135 112.4469 -33.1138 -10.6938 -5.8818
# 4 -14.7596 -18.4418 -33.1138 58.1838 2.0198 0.4960
# 5 -17.3693 1.1614 -10.6938 2.0198 64.1327 -7.4627
# 6 -3.0675 -23.6037 -5.8818 0.4960 -7.4627 43.1423
#
#
#
# Elastic Compliance Matrix: (Units=1/GPa)
#
#
# Indices 1 2 3 4 5 6 
#
# 1 0.013394 -0.002238 -0.004223 0.000186 0.002918 -0.000345
# 2 -0.002238 0.008083 -0.003296 0.000118 -0.000880 0.003660
# 3 -0.004223 -0.003296 0.014384 0.006032 0.001122 -0.000018
# 4 0.000186 0.000118 0.006032 0.020681 0.000490 0.000747
# 5 0.002918 -0.000880 0.001122 0.000490 0.016896 0.002796
# 6 -0.000345 0.003660 -0.000018 0.000747 0.002796 0.025630
#
#
# Mechanical properties :
#
#
# Convention : Reuss Voigt Hill
#
# Bulk Modulus (GPa) = 61.17308 77.93230 69.55269
# Shear Modulus (GPa) = 40.31223 48.42605 44.36914
#
# Velocity S-wave (km/s) = 3.98491 4.36756 4.18062
# Velocity P-wave (km/s) = 6.72826 7.49217 7.12047
#
# Compressibility (1/GPa) = 0.01634706
#
# Stress axis : x y z
#
# Youngs Moduli (GPa) = 74.65933 123.71514 69.52014
#
# Poissons Ratio (x) = 0.27685 0.29361
# Poissons Ratio (y) = 0.16708 0.22915
# Poissons Ratio (z) = 0.31531 0.40778
#
# Static dielectric constant tensor:
#      x y z
#    x 6.896040 0.957810 1.788280 
#    y 0.957810 5.335620 0.824380 
#    z 1.788280 0.824380 6.258310 
# 
# 
# High freq. dielectric constant tensor:
#      x y z
#    x 2.026130 0.001530 -0.004800 
#    y 0.001530 2.034940 -0.004120 
#    z -0.004800 -0.004120 2.024820 
# 
# From -- ./inp_files/106594.got.cif
#   From: 2010.06.25/outbox.cif.g09.slc.cpg/sg2_54_cif.got.tgz:106594.got - 2010.06.27 13:26:56.
