data_PCOD8037840
_publ_section_title
;
Structure prediction by ZEFSAII (Michael W. Deem and Ramdas Pophale) SiO2 
 PCOD8037840
Probable space group: P -1
;
_chemical_formula_sum "Si O2"
_cell_formula_units_Z 16
_cell_length_a 11.857516
_cell_length_b 9.389986
_cell_length_c 14.056949
_cell_angle_alpha 103.245817
_cell_angle_beta 55.574299
_cell_angle_gamma 136.498295
_cell_volume 842.372175
_symmetry_space_group_name_H-M "P -1"
_symmetry_group_IT_number 2
_symmetry_cell_setting 'triclinic'
loop_
_space_group_symop_operation_xyz
x,y,z
-x,-y,-z
loop_
_atom_site_type_symbol
_atom_site_label
_atom_site_fract_x
_atom_site_fract_y
_atom_site_fract_z
Si Si1 0.800883 0.741008 0.065385
Si Si2 0.810249 0.307665 0.497413
Si Si3 0.929290 0.812964 0.215020
Si Si4 0.107093 0.895026 0.687688
Si Si5 0.627674 0.023606 0.262331
Si Si6 0.353314 0.135523 0.955181
Si Si7 0.214339 0.515519 0.113125
Si Si8 0.125024 0.529035 0.714099
O O1 0.767980 0.686017 0.184736
O O2 0.624122 0.693574 0.088941
O O3 0.821267 0.598600 0.985953
O O4 0.000000 0.000000 0.000000
O O5 0.609376 0.183575 0.633307
O O6 0.818236 0.411591 0.414588
O O7 0.000000 0.500000 0.500000
O O8 0.807360 0.132110 0.445220
O O9 0.902392 0.941343 0.307669
O O10 0.874340 0.640015 0.286219
O O11 0.158776 0.979788 0.092885
O O12 0.242893 0.978721 0.730368
O O13 0.879331 0.655973 0.782764
O O14 0.665957 0.011783 0.133061
O O15 0.701391 0.249099 0.274362
O O16 0.548894 0.267697 0.948286
O O17 0.096167 0.576324 0.173544
#
# Coordination Sequence:
#
# PCOD8037840 Si02
#       8
#     2   2   2   2   2   2   2   2
#     4  10  17  32  52  79 112 151 191 219 268 341
#     4  10  21  41  64  83 106 146 199 235 278 341
#     4  11  21  36  55  88 120 149 183 239 289 332
#     4  10  18  35  59  82 111 150 191 233 275 336
#     4  10  19  38  61  82 105 155 200 229 267 341
#     4  11  20  32  61  85 119 149 195 231 280 341
#     4  10  19  33  54  85 113 157 192 229 274 335
#     4  10  22  37  58  85 114 148 193 237 285 332
#
# _framework density 18.993977999999998
#
# number of rings (size 3 to 8) (size 9 to 14) (size 15 to 20)
#    0.000    2.000    3.750    5.625    0.000    2.500 
#    0.000    4.375    0.000    0.000    0.000    0.000 
#    0.000    0.000    0.000    0.000    0.000    0.000 
#
# Total GULP energy -198348.971684 kJ/mol
# GULP energy per Si atom -12396.810730 kJ/mol
# Density = 1.895075 g / cm^3
# Si number density = 18.993978 Si / 1000 Ang^3
#
#
#
# Elastic Constant Matrix: (Units=GPa)
#
#
# Indices 1 2 3 4 5 6 
#
# 1 73.3865 52.9227 23.7223 -8.2949 -0.0471 -14.9426
# 2 52.9227 95.4229 25.0042 5.1815 -0.0588 -8.8183
# 3 23.7223 25.0042 57.6080 2.8672 -9.7138 -4.9932
# 4 -8.2949 5.1815 2.8672 28.8762 5.3535 -3.3336
# 5 -0.0471 -0.0588 -9.7138 5.3535 18.3330 -7.6267
# 6 -14.9426 -8.8183 -4.9932 -3.3336 -7.6267 47.9923
#
#
#
# Elastic Compliance Matrix: (Units=1/GPa)
#
#
# Indices 1 2 3 4 5 6 
#
# 1 0.028816 -0.014440 -0.006572 0.013092 -0.004878 0.005769
# 2 -0.014440 0.019309 -0.002114 -0.007678 0.000470 -0.001627
# 3 -0.006572 -0.002114 0.024108 -0.006540 0.015528 0.002087
# 4 0.013092 -0.007678 -0.006540 0.043515 -0.015077 0.002612
# 5 -0.004878 0.000470 0.015528 -0.015077 0.071535 0.010504
# 6 0.005769 -0.001627 0.002087 0.002612 0.010504 0.024402
#
#
# Mechanical properties :
#
#
# Convention : Reuss Voigt Hill
#
# Bulk Modulus (GPa) = 38.49298 47.74619 43.11959
# Shear Modulus (GPa) = 18.75481 27.35817 23.05649
#
# Velocity S-wave (km/s) = 3.14571 3.79932 3.48786
# Velocity P-wave (km/s) = 5.78826 6.66623 6.24270
#
# Compressibility (1/GPa) = 0.02597877
#
# Stress axis : x y z
#
# Youngs Moduli (GPa) = 34.70314 51.78867 41.48086
#
# Poissons Ratio (x) = 0.74784 0.27263
# Poissons Ratio (y) = 0.50112 0.08771
# Poissons Ratio (z) = 0.22808 0.10950
#
# Static dielectric constant tensor:
#      x y z
#    x 3.558070 0.062040 -0.185530 
#    y 0.062040 3.441480 0.183230 
#    z -0.185530 0.183230 3.365840 
# 
# 
# High freq. dielectric constant tensor:
#      x y z
#    x 1.721920 0.007790 -0.019250 
#    y 0.007790 1.736680 0.019210 
#    z -0.019250 0.019210 1.719580 
# 
# From -- ./inp_files/331951.got.cif
#   From: 2010.06.25/outbox.cif.g09.slc.cpg/sg2_166_cif.got.tgz:331951.got - 2010.06.27 13:26:56.
