data_PCOD8037993
_publ_section_title
;
Structure prediction by ZEFSAII (Michael W. Deem and Ramdas Pophale) SiO2 
 PCOD8037993
Probable space group: P -1
;
_chemical_formula_sum "Si O2"
_cell_formula_units_Z 16
_cell_length_a 8.686443
_cell_length_b 9.207901
_cell_length_c 24.367844
_cell_angle_alpha 151.945469
_cell_angle_beta 58.136981
_cell_angle_gamma 120.354229
_cell_volume 774.713626
_symmetry_space_group_name_H-M "P -1"
_symmetry_group_IT_number 2
_symmetry_cell_setting 'triclinic'
loop_
_space_group_symop_operation_xyz
x,y,z
-x,-y,-z
loop_
_atom_site_type_symbol
_atom_site_label
_atom_site_fract_x
_atom_site_fract_y
_atom_site_fract_z
Si Si1 0.618623 0.116065 0.816270
Si Si2 0.061413 0.189148 0.909978
Si Si3 0.943953 0.461984 0.435454
Si Si4 0.306597 0.137528 0.749436
Si Si5 0.412321 0.777388 0.894782
Si Si6 0.728449 0.787387 0.017607
Si Si7 0.774908 0.779771 0.768275
Si Si8 0.616954 0.793796 0.600132
O O1 0.425943 0.155230 0.891112
O O2 0.758218 0.048284 0.815784
O O3 0.603963 0.832797 0.681437
O O4 0.697107 0.442439 0.882264
O O5 0.244811 0.126858 0.821246
O O6 0.091316 0.187151 0.969489
O O7 0.898742 0.918257 0.841169
O O8 0.000000 0.500000 0.000000
O O9 0.827300 0.743419 0.531011
O O10 0.000000 0.500000 0.500000
O O11 0.120352 0.484856 0.370038
O O12 0.824195 0.126956 0.344839
O O13 0.290354 0.477351 0.840660
O O14 0.523043 0.082341 0.687379
O O15 0.574255 0.658690 0.787385
O O16 0.271756 0.960242 0.946531
O O17 0.500000 0.000000 0.000000
O O18 0.500000 0.500000 0.500000
#
# Coordination Sequence:
#
# PCOD8037993 Si02
#       8
#     2   2   2   2   2   2   2   2
#     4  10  17  33  56  89 112 154 202 240 286 360
#     4  11  19  35  59  89 115 153 204 251 292 349
#     4  10  20  37  63  90 111 151 213 259 294 337
#     4  10  22  38  59  87 121 158 198 249 300 363
#     4  11  23  41  58  87 129 165 192 237 312 377
#     4  10  21  33  61  86 121 158 200 240 300 367
#     4  10  21  35  59  86 123 151 199 253 295 349
#     4  10  19  34  59  85 113 152 203 248 289 353
#
# _framework density 20.652794
#
# number of rings (size 3 to 8) (size 9 to 14) (size 15 to 20)
#    0.000    1.750    3.750    1.500    1.750    0.000 
#    0.000    5.000    0.000    0.000    0.000    0.000 
#    0.000    0.000    0.000    0.000    0.000    0.000 
#
# Total GULP energy -198215.941859 kJ/mol
# GULP energy per Si atom -12388.496366 kJ/mol
# Density = 2.060579 g / cm^3
# Si number density = 20.652794 Si / 1000 Ang^3
#
#
#
# Elastic Constant Matrix: (Units=GPa)
#
#
# Indices 1 2 3 4 5 6 
#
# 1 107.6538 24.5532 33.7342 -2.7316 3.2770 -25.8064
# 2 24.5532 58.6541 11.9149 8.6670 5.7872 -8.7852
# 3 33.7342 11.9149 87.5266 -8.5365 11.1271 -4.0815
# 4 -2.7316 8.6670 -8.5365 27.1899 -1.4065 -7.0192
# 5 3.2770 5.7872 11.1271 -1.4065 42.8251 -8.1156
# 6 -25.8064 -8.7852 -4.0815 -7.0192 -8.1156 30.8279
#
#
#
# Elastic Compliance Matrix: (Units=1/GPa)
#
#
# Indices 1 2 3 4 5 6 
#
# 1 0.014667 -0.004420 -0.004398 0.004855 0.003120 0.012363
# 2 -0.004420 0.020524 -0.001562 -0.007712 -0.002365 -0.000436
# 3 -0.004398 -0.001562 0.014017 0.003678 -0.003416 -0.002333
# 4 0.004855 -0.007712 0.003678 0.044552 0.003733 0.013480
# 5 0.003120 -0.002365 -0.003416 0.003733 0.026191 0.009230
# 6 0.012363 -0.000436 -0.002333 0.013480 0.009230 0.047853
#
#
# Mechanical properties :
#
#
# Convention : Reuss Voigt Hill
#
# Bulk Modulus (GPa) = 35.15162 43.80436 39.47799
# Shear Modulus (GPa) = 25.24655 32.41072 28.82864
#
# Velocity S-wave (km/s) = 3.50012 3.96575 3.74019
# Velocity P-wave (km/s) = 5.77855 6.49812 6.14887
#
# Compressibility (1/GPa) = 0.02844819
#
# Stress axis : x y z
#
# Youngs Moduli (GPa) = 68.18036 48.72307 71.34219
#
# Poissons Ratio (x) = 0.21535 0.31376
# Poissons Ratio (y) = 0.30134 0.11145
# Poissons Ratio (z) = 0.29985 0.07612
#
# Static dielectric constant tensor:
#      x y z
#    x 4.210130 -0.117440 -0.319910 
#    y -0.117440 3.319570 -0.169730 
#    z -0.319910 -0.169730 4.175170 
# 
# 
# High freq. dielectric constant tensor:
#      x y z
#    x 1.833350 -0.008220 -0.008770 
#    y -0.008220 1.751640 -0.017470 
#    z -0.008770 -0.017470 1.816080 
# 
# From -- ./inp_files/179936.got.cif
#   From: 2010.06.25/outbox.cif.g09.slc.cpg/sg2_90_cif.got.tgz:179936.got - 2010.06.27 13:26:56.
