data_PCOD8037623
_publ_section_title
;
Structure prediction by ZEFSAII (Michael W. Deem and Ramdas Pophale) SiO2 
 PCOD8037623
Probable space group: P -1
;
_chemical_formula_sum "Si O2"
_cell_formula_units_Z 14
_cell_length_a 10.909729
_cell_length_b 9.671723
_cell_length_c 9.905521
_cell_angle_alpha 137.478816
_cell_angle_beta 62.944207
_cell_angle_gamma 118.294487
_cell_volume 612.152860
_symmetry_space_group_name_H-M "P -1"
_symmetry_group_IT_number 2
_symmetry_cell_setting 'triclinic'
loop_
_space_group_symop_operation_xyz
x,y,z
-x,-y,-z
loop_
_atom_site_type_symbol
_atom_site_label
_atom_site_fract_x
_atom_site_fract_y
_atom_site_fract_z
Si Si1 0.370514 0.864788 0.550051
Si Si2 0.043882 0.238484 0.599425
Si Si3 0.528548 0.273380 0.318233
Si Si4 0.835553 0.904164 0.037497
Si Si5 0.222427 0.625909 0.941145
Si Si6 0.211792 0.568252 0.201270
Si Si7 0.235834 0.064209 0.202918
O O1 0.430416 0.788194 0.599678
O O2 0.315500 0.664881 0.338553
O O3 0.500000 0.000000 0.500000
O O4 0.242763 0.980494 0.728803
O O5 0.114641 0.408120 0.799720
O O6 0.158937 0.239533 0.425080
O O7 0.918428 0.319438 0.651830
O O8 0.000000 0.000000 0.500000
O O9 0.500000 0.500000 0.500000
O O10 0.655781 0.284712 0.160893
O O11 0.392727 0.102083 0.212981
O O12 0.836150 0.676122 0.925772
O O13 0.750864 0.908309 0.944424
O O14 0.000000 0.000000 0.000000
O O15 0.285161 0.600358 0.039666
O O16 0.148265 0.827462 0.123766
#
# Coordination Sequence:
#
# PCOD8037623 Si02
#       7
#     2   2   2   2   2   2   2
#     4  12  30  51  74 113 157 196 251 318 376 442
#     4  12  27  46  77 110 150 192 254 313 370 449
#     4  12  26  49  79 108 151 199 255 307 374 452
#     4  12  29  49  77 110 158 198 249 314 385 445
#     4  12  26  47  76 109 145 197 252 300 374 454
#     4  12  29  46  79 111 150 197 252 310 380 446
#     4  12  25  48  78 108 148 202 249 309 374 452
#
# _framework density 22.870104999999999
#
# number of rings (size 3 to 8) (size 9 to 14) (size 15 to 20)
#    0.000    0.000    4.286    4.286    8.000    1.714 
#    0.000    0.000    0.000    0.000    0.000    0.000 
#    0.000    0.000    0.000    0.000    0.000    0.000 
#
# Total GULP energy -173586.643115 kJ/mol
# GULP energy per Si atom -12399.045937 kJ/mol
# Density = 2.281805 g / cm^3
# Si number density = 22.870105 Si / 1000 Ang^3
#
#
#
# Elastic Constant Matrix: (Units=GPa)
#
#
# Indices 1 2 3 4 5 6 
#
# 1 118.6194 66.1377 51.4491 -8.6091 13.0281 -3.9287
# 2 66.1377 169.4360 67.7433 -1.3503 3.3681 -19.0087
# 3 51.4491 67.7433 136.3615 -4.5361 11.2606 -2.6824
# 4 -8.6091 -1.3503 -4.5361 46.8748 -11.0266 -3.1929
# 5 13.0281 3.3681 11.2606 -11.0266 42.1766 -3.1243
# 6 -3.9287 -19.0087 -2.6824 -3.1929 -3.1243 44.5051
#
#
#
# Elastic Compliance Matrix: (Units=1/GPa)
#
#
# Indices 1 2 3 4 5 6 
#
# 1 0.011871 -0.003696 -0.002414 0.001208 -0.002468 -0.000763
# 2 -0.003696 0.008936 -0.003105 -0.000144 0.001471 0.003396
# 3 -0.002414 -0.003105 0.009908 -0.000058 -0.001746 -0.001069
# 4 0.001208 -0.000144 -0.000058 0.023063 0.005839 0.002106
# 5 -0.002468 0.001471 -0.001746 0.005839 0.026539 0.002587
# 6 -0.000763 0.003396 -0.001069 0.002106 0.002587 0.024121
#
#
# Mechanical properties :
#
#
# Convention : Reuss Voigt Hill
#
# Bulk Modulus (GPa) = 81.38682 88.34190 84.86436
# Shear Modulus (GPa) = 39.38168 42.65042 41.01605
#
# Velocity S-wave (km/s) = 4.15417 4.32313 4.23949
# Velocity P-wave (km/s) = 7.65985 7.97689 7.81998
#
# Compressibility (1/GPa) = 0.01228700
#
# Stress axis : x y z
#
# Youngs Moduli (GPa) = 84.23626 111.90218 100.92946
#
# Poissons Ratio (x) = 0.41354 0.24366
# Poissons Ratio (y) = 0.31130 0.31335
# Poissons Ratio (z) = 0.20336 0.34742
#
# Static dielectric constant tensor:
#      x y z
#    x 5.074430 -0.410270 -0.944740 
#    y -0.410270 4.451950 0.568500 
#    z -0.944740 0.568500 5.332520 
# 
# 
# High freq. dielectric constant tensor:
#      x y z
#    x 1.901370 -0.001440 -0.005080 
#    y -0.001440 1.918290 0.001750 
#    z -0.005080 0.001750 1.934800 
# 
# From -- ./inp_files/245824.got.cif
#   From: 2010.06.25/outbox.cif.g09.slc.cpg/sg2_123_cif.got.tgz:245824.got - 2010.06.27 13:26:56.
