data_PCOD8037216
_publ_section_title
;
Structure prediction by ZEFSAII (Michael W. Deem and Ramdas Pophale) SiO2 
 PCOD8037216
Probable space group: P -1
;
_chemical_formula_sum "Si O2"
_cell_formula_units_Z 12
_cell_length_a 15.622995
_cell_length_b 10.282641
_cell_length_c 15.656135
_cell_angle_alpha 144.356457
_cell_angle_beta 152.344160
_cell_angle_gamma 27.316990
_cell_volume 531.827516
_symmetry_space_group_name_H-M "P -1"
_symmetry_group_IT_number 2
_symmetry_cell_setting 'triclinic'
loop_
_space_group_symop_operation_xyz
x,y,z
-x,-y,-z
loop_
_atom_site_type_symbol
_atom_site_label
_atom_site_fract_x
_atom_site_fract_y
_atom_site_fract_z
Si Si1 0.937533 0.433832 0.714621
Si Si2 0.588815 0.940968 0.142349
Si Si3 0.717360 0.472095 0.714519
Si Si4 0.527331 0.717757 0.378647
Si Si5 0.596031 0.448555 0.965031
Si Si6 0.942696 0.160489 0.916656
O O1 0.902396 0.390131 0.758889
O O2 0.704485 0.531094 0.511479
O O3 0.146041 0.163394 0.697089
O O4 0.985583 0.661404 0.880745
O O5 0.410506 0.221816 0.190678
O O6 0.596970 0.698898 0.066437
O O7 0.500000 0.000000 0.000000
O O8 0.500000 0.500000 0.500000
O O9 0.886989 0.219384 0.797360
O O10 0.588946 0.569974 0.261582
O O11 0.293443 0.750749 0.203020
O O12 0.500000 0.000000 0.500000
O O13 0.500000 0.500000 0.000000
O O14 0.863463 0.163074 0.057591
#
# Coordination Sequence:
#
# PCOD8037216 Si02
#       6
#     2   2   2   2   2   2
#     4  12  25  47  81 107 156 199 250 317 378 448
#     4  12  27  49  75 112 153 200 254 308 380 455
#     4  12  27  49  78 114 148 201 258 310 381 454
#     4  12  24  45  75 109 143 200 254 300 382 450
#     4  12  27  46  77 113 152 197 252 316 379 447
#     4  12  24  50  74 107 156 197 246 314 383 445
#
# _framework density 22.563706
#
# number of rings (size 3 to 8) (size 9 to 14) (size 15 to 20)
#    0.000    0.000    6.667    3.000    2.333    2.000 
#    0.000    2.500    0.000    0.000    0.000    0.000 
#    0.000    0.000    0.000    0.000    0.000    0.000 
#
# Total GULP energy -148669.535880 kJ/mol
# GULP energy per Si atom -12389.127990 kJ/mol
# Density = 2.251235 g / cm^3
# Si number density = 22.563706 Si / 1000 Ang^3
#
#
#
# Elastic Constant Matrix: (Units=GPa)
#
#
# Indices 1 2 3 4 5 6 
#
# 1 146.8042 32.3294 35.7822 6.8230 -12.8903 14.2810
# 2 32.3294 88.5146 23.5529 -11.0708 -8.8838 26.3940
# 3 35.7822 23.5529 132.4205 -9.9911 -13.5824 12.5591
# 4 6.8230 -11.0708 -9.9911 35.1261 5.2277 -3.7371
# 5 -12.8903 -8.8838 -13.5824 5.2277 45.7668 -5.7222
# 6 14.2810 26.3940 12.5591 -3.7371 -5.7222 37.3535
#
#
#
# Elastic Compliance Matrix: (Units=1/GPa)
#
#
# Indices 1 2 3 4 5 6 
#
# 1 0.008159 -0.002505 -0.001762 -0.003195 0.001549 -0.000839
# 2 -0.002505 0.015829 -0.000883 0.004152 0.000450 -0.009445
# 3 -0.001762 -0.000883 0.008611 0.002168 0.001496 -0.001152
# 4 -0.003195 0.004152 0.002168 0.031490 -0.003017 0.000247
# 5 0.001549 0.000450 0.001496 -0.003017 0.023396 0.001869
# 6 -0.000839 -0.009445 -0.001152 0.000247 0.001869 0.034465
#
#
# Mechanical properties :
#
#
# Convention : Reuss Voigt Hill
#
# Bulk Modulus (GPa) = 44.84600 61.22981 53.03790
# Shear Modulus (GPa) = 35.79553 42.05425 38.92489
#
# Velocity S-wave (km/s) = 3.98731 4.32186 4.15795
# Velocity P-wave (km/s) = 6.41222 7.21803 6.82703
#
# Compressibility (1/GPa) = 0.02229853
#
# Stress axis : x y z
#
# Youngs Moduli (GPa) = 122.56317 63.17689 116.12916
#
# Poissons Ratio (x) = 0.15827 0.20459
# Poissons Ratio (y) = 0.30704 0.10256
# Poissons Ratio (z) = 0.21592 0.05580
#
# Static dielectric constant tensor:
#      x y z
#    x 7.564820 -0.955600 1.182340 
#    y -0.955600 3.819210 -0.826320 
#    z 1.182340 -0.826320 5.016220 
# 
# 
# High freq. dielectric constant tensor:
#      x y z
#    x 1.914550 0.009250 -0.006770 
#    y 0.009250 1.890500 -0.012240 
#    z -0.006770 -0.012240 1.903230 
# 
# From -- ./inp_files/237365.got.cif
#   From: 2010.06.25/outbox.cif.g09.slc.cpg/sg2_119_cif.got.tgz:237365.got - 2010.06.27 13:26:56.
