data_PCOD8037124
_publ_section_title
;
Structure prediction by ZEFSAII (Michael W. Deem and Ramdas Pophale) SiO2 
 PCOD8037124
Probable space group: P -1
;
_chemical_formula_sum "Si O2"
_cell_formula_units_Z 14
_cell_length_a 14.829951
_cell_length_b 15.332453
_cell_length_c 8.649957
_cell_angle_alpha 131.175578
_cell_angle_beta 114.142609
_cell_angle_gamma 28.190217
_cell_volume 612.880437
_symmetry_space_group_name_H-M "P -1"
_symmetry_group_IT_number 2
_symmetry_cell_setting 'triclinic'
loop_
_space_group_symop_operation_xyz
x,y,z
-x,-y,-z
loop_
_atom_site_type_symbol
_atom_site_label
_atom_site_fract_x
_atom_site_fract_y
_atom_site_fract_z
Si Si1 0.213812 0.117194 0.556412
Si Si2 0.172555 0.365834 0.582416
Si Si3 0.061201 0.727572 0.040021
Si Si4 0.570341 0.948342 0.165230
Si Si5 0.234515 0.494135 0.204643
Si Si6 0.436894 0.687193 0.603134
Si Si7 0.457616 0.419708 0.806095
O O1 0.243104 0.191214 0.544270
O O2 0.257828 0.124827 0.770963
O O3 0.972877 0.315747 0.609983
O O4 0.383505 0.839811 0.303854
O O5 0.000000 0.500000 0.500000
O O6 0.374985 0.196266 0.424843
O O7 0.067472 0.583771 0.850430
O O8 0.158250 0.651848 0.190579
O O9 0.206750 0.645757 0.922856
O O10 0.815922 0.027993 0.206106
O O11 0.667626 0.729103 0.047127
O O12 0.500000 0.000000 0.000000
O O13 0.419810 0.362653 0.278438
O O14 0.500000 0.500000 0.500000
O O15 0.487227 0.634412 0.397318
O O16 0.500000 0.500000 0.000000
#
# Coordination Sequence:
#
# PCOD8037124 Si02
#       7
#     2   2   2   2   2   2   2
#     4  12  25  47  75 114 157 202 254 313 386 456
#     4  12  26  43  71 113 155 200 252 308 382 466
#     4  12  27  52  78 110 156 201 256 318 385 455
#     4  12  24  43  72 112 156 199 252 308 383 460
#     4  12  26  46  78 108 155 201 251 320 380 452
#     4  12  30  54  77 113 151 204 264 317 387 460
#     4  12  28  50  81 113 151 202 261 317 380 457
#
# _framework density 22.842953999999999
#
# number of rings (size 3 to 8) (size 9 to 14) (size 15 to 20)
#    0.000    0.000    4.286    5.143    6.000    2.857 
#    0.000    0.000    0.000    0.000    0.000    0.000 
#    0.000    0.000    0.000    0.000    0.000    0.000 
#
# Total GULP energy -173655.479223 kJ/mol
# GULP energy per Si atom -12403.962802 kJ/mol
# Density = 2.279096 g / cm^3
# Si number density = 22.842954 Si / 1000 Ang^3
#
#
#
# Elastic Constant Matrix: (Units=GPa)
#
#
# Indices 1 2 3 4 5 6 
#
# 1 123.7823 49.6839 71.0815 18.9570 -0.9473 -5.4138
# 2 49.6839 134.7877 71.0742 17.2655 5.3936 -12.2770
# 3 71.0815 71.0742 148.9694 21.2826 2.9945 -4.8415
# 4 18.9570 17.2655 21.2826 40.0389 -3.7774 1.2097
# 5 -0.9473 5.3936 2.9945 -3.7774 53.6654 2.9297
# 6 -5.4138 -12.2770 -4.8415 1.2097 2.9297 46.2547
#
#
#
# Elastic Compliance Matrix: (Units=1/GPa)
#
#
# Indices 1 2 3 4 5 6 
#
# 1 0.011680 -0.001620 -0.004443 -0.002446 0.000417 0.000510
# 2 -0.001620 0.010575 -0.003903 -0.001896 -0.001134 0.002330
# 3 -0.004443 -0.003903 0.010991 -0.002086 -0.000429 -0.000324
# 4 -0.002446 -0.001896 -0.002086 0.028341 0.002362 -0.001899
# 5 0.000417 -0.001134 -0.000429 0.002362 0.019031 -0.001564
# 6 0.000510 0.002330 -0.000324 -0.001899 -0.001564 0.022412
#
#
# Mechanical properties :
#
#
# Convention : Reuss Voigt Hill
#
# Bulk Modulus (GPa) = 75.10395 87.91321 81.50858
# Shear Modulus (GPa) = 39.24672 42.37179 40.80926
#
# Velocity S-wave (km/s) = 4.14951 4.31155 4.23130
# Velocity P-wave (km/s) = 7.47714 7.95961 7.72214
#
# Compressibility (1/GPa) = 0.01331488
#
# Stress axis : x y z
#
# Youngs Moduli (GPa) = 85.61501 94.56594 90.98306
#
# Poissons Ratio (x) = 0.15316 0.40423
# Poissons Ratio (y) = 0.13866 0.35511
# Poissons Ratio (z) = 0.38038 0.36910
#
# Static dielectric constant tensor:
#      x y z
#    x 4.067800 -0.028990 0.010630 
#    y -0.028990 4.356930 0.003010 
#    z 0.010630 0.003010 4.277740 
# 
# 
# High freq. dielectric constant tensor:
#      x y z
#    x 1.910540 -0.006810 -0.000650 
#    y -0.006810 1.915850 0.005140 
#    z -0.000650 0.005140 1.909300 
# 
# From -- ./inp_files/315950.got.cif
#   From: 2010.06.25/outbox.cif.g09.slc.cpg/sg2_158_cif.got.tgz:315950.got - 2010.06.27 13:26:56.
