data_PCOD8037064
_publ_section_title
;
Structure prediction by ZEFSAII (Michael W. Deem and Ramdas Pophale) SiO2 
 PCOD8037064
Probable space group: P -1
;
_chemical_formula_sum "Si O2"
_cell_formula_units_Z 16
_cell_length_a 15.852887
_cell_length_b 8.368485
_cell_length_c 9.570842
_cell_angle_alpha 84.768957
_cell_angle_beta 140.915955
_cell_angle_gamma 83.711575
_cell_volume 763.588308
_symmetry_space_group_name_H-M "P -1"
_symmetry_group_IT_number 2
_symmetry_cell_setting 'triclinic'
loop_
_space_group_symop_operation_xyz
x,y,z
-x,-y,-z
loop_
_atom_site_type_symbol
_atom_site_label
_atom_site_fract_x
_atom_site_fract_y
_atom_site_fract_z
Si Si1 0.882708 0.667453 0.126297
Si Si2 0.328779 0.701525 0.605757
Si Si3 0.931055 0.683796 0.676970
Si Si4 0.631645 0.605366 0.944593
Si Si5 0.347721 0.340706 0.723959
Si Si6 0.878287 0.918430 0.340276
Si Si7 0.352609 0.771902 0.934834
Si Si8 0.032810 0.803111 0.071822
O O1 0.723615 0.655326 0.934791
O O2 0.917909 0.775994 0.286471
O O3 0.983641 0.479533 0.284737
O O4 0.917846 0.751694 0.022691
O O5 0.380680 0.515806 0.746368
O O6 0.300034 0.809147 0.702580
O O7 0.191662 0.735885 0.332888
O O8 0.467899 0.708013 0.697620
O O9 0.784780 0.656252 0.544261
O O10 0.872459 0.841706 0.490409
O O11 0.025170 0.719933 0.919105
O O12 0.678833 0.681219 0.142553
O O13 0.663556 0.402194 0.007684
O O14 0.489224 0.212757 0.856713
O O15 0.738890 0.067363 0.110054
O O16 0.000000 0.000000 0.500000
O O17 0.000000 0.000000 0.000000
#
# Coordination Sequence:
#
# PCOD8037064 Si02
#       8
#     2   2   2   2   2   2   2   2
#     4  12  24  41  64  94 126 160 218 259 305 366
#     4   9  18  39  65  89 127 166 208 247 311 379
#     4  12  24  40  66  92 124 167 215 247 303 384
#     4   9  19  38  66  96 120 161 207 265 305 363
#     4   9  18  36  66  96 119 163 209 255 302 376
#     4  12  24  37  62  97 132 160 198 270 321 349
#     4   9  19  37  63  97 130 157 203 255 323 365
#     4  12  26  44  63  89 127 171 209 252 314 379
#
# _framework density 20.953696999999998
#
# number of rings (size 3 to 8) (size 9 to 14) (size 15 to 20)
#    0.000    1.500    2.500    5.250    1.750    0.500 
#    2.250    1.250    2.750    0.000    0.000    0.000 
#    0.000    0.000    0.000    0.000    0.000    0.000 
#
# Total GULP energy -198247.009610 kJ/mol
# GULP energy per Si atom -12390.438101 kJ/mol
# Density = 2.090601 g / cm^3
# Si number density = 20.953697 Si / 1000 Ang^3
#
#
#
# Elastic Constant Matrix: (Units=GPa)
#
#
# Indices 1 2 3 4 5 6 
#
# 1 97.0519 50.0193 30.8592 -5.3169 26.2502 -1.1089
# 2 50.0193 105.1279 39.5280 -1.4393 9.8368 -11.8288
# 3 30.8592 39.5280 106.1721 10.8406 20.8884 -19.8104
# 4 -5.3169 -1.4393 10.8406 30.3252 -0.2485 -1.5978
# 5 26.2502 9.8368 20.8884 -0.2485 36.0578 -1.3317
# 6 -1.1089 -11.8288 -19.8104 -1.5978 -1.3317 30.4612
#
#
#
# Elastic Compliance Matrix: (Units=1/GPa)
#
#
# Indices 1 2 3 4 5 6 
#
# 1 0.017168 -0.007076 -0.001308 0.002889 -0.009911 -0.003255
# 2 -0.007076 0.014211 -0.003371 0.000838 0.003354 0.003259
# 3 -0.001308 -0.003371 0.014134 -0.005107 -0.006082 0.007302
# 4 0.002889 0.000838 -0.005107 0.035302 0.000833 -0.001003
# 5 -0.009911 0.003354 -0.006082 0.000833 0.037513 -0.001330
# 6 -0.003255 0.003259 0.007302 -0.001003 -0.001330 0.038613
#
#
# Mechanical properties :
#
#
# Convention : Reuss Voigt Hill
#
# Bulk Modulus (GPa) = 45.44960 61.01832 53.23396
# Shear Modulus (GPa) = 26.62580 31.89855 29.26217
#
# Velocity S-wave (km/s) = 3.56855 3.90594 3.74105
# Velocity P-wave (km/s) = 6.22230 7.03745 6.64239
#
# Compressibility (1/GPa) = 0.02200239
#
# Stress axis : x y z
#
# Youngs Moduli (GPa) = 58.24669 70.36800 70.74915
#
# Poissons Ratio (x) = 0.49793 0.09255
# Poissons Ratio (y) = 0.41216 0.23853
# Poissons Ratio (z) = 0.07619 0.23724
#
# Static dielectric constant tensor:
#      x y z
#    x 3.901930 0.022010 0.300170 
#    y 0.022010 4.077420 -0.129230 
#    z 0.300170 -0.129230 3.672040 
# 
# 
# High freq. dielectric constant tensor:
#      x y z
#    x 1.814830 0.005300 0.032690 
#    y 0.005300 1.825690 -0.000010 
#    z 0.032690 -0.000010 1.802910 
# 
# From -- ./inp_files/279738.got.cif
#   From: 2010.06.25/outbox.cif.g09.slc.cpg/sg2_140_cif.got.tgz:279738.got - 2010.06.27 13:26:56.
