data_PCOD8037611
_publ_section_title
;
Structure prediction by ZEFSAII (Michael W. Deem and Ramdas Pophale) SiO2 
 PCOD8037611
Probable space group: P -1
;
_chemical_formula_sum "Si O2"
_cell_formula_units_Z 16
_cell_length_a 27.410603
_cell_length_b 8.669273
_cell_length_c 12.284680
_cell_angle_alpha 32.359227
_cell_angle_beta 28.052077
_cell_angle_gamma 40.322969
_cell_volume 733.107579
_symmetry_space_group_name_H-M "P -1"
_symmetry_group_IT_number 2
_symmetry_cell_setting 'triclinic'
loop_
_space_group_symop_operation_xyz
x,y,z
-x,-y,-z
loop_
_atom_site_type_symbol
_atom_site_label
_atom_site_fract_x
_atom_site_fract_y
_atom_site_fract_z
Si Si1 0.238829 0.732550 0.760626
Si Si2 0.757537 0.542402 0.303650
Si Si3 0.916223 0.271261 0.311527
Si Si4 0.656246 0.682098 0.830825
Si Si5 0.941298 0.233350 0.737093
Si Si6 0.456687 0.666000 0.091035
Si Si7 0.398244 0.326023 0.811004
Si Si8 0.174842 0.813804 0.230403
O O1 0.194930 0.627842 0.794023
O O2 0.309836 0.457847 0.826399
O O3 0.307317 0.004187 0.454109
O O4 0.145293 0.833133 0.964499
O O5 0.808214 0.394387 0.399326
O O6 0.635043 0.506340 0.573790
O O7 0.777554 0.878809 0.061952
O O8 0.901450 0.177994 0.520922
O O9 0.964312 0.006478 0.304910
O O10 0.000000 0.500000 0.000000
O O11 0.733408 0.429144 0.781256
O O12 0.542664 0.665431 0.015118
O O13 0.651015 0.640190 0.993927
O O14 0.889554 0.270806 0.697993
O O15 0.000000 0.500000 0.500000
O O16 0.500000 0.500000 0.000000
O O17 0.420945 0.992496 0.932761
O O18 0.500000 0.500000 0.500000
#
# Coordination Sequence:
#
# PCOD8037611 Si02
#       8
#     2   2   2   2   2   2   2   2
#     4  12  27  49  75 108 151 191 249 303 365 442
#     4  12  29  48  74 110 151 197 246 303 368 439
#     4  12  27  51  76 104 150 195 246 310 370 433
#     4  12  26  49  74 110 147 197 242 299 370 437
#     4  12  28  47  77 110 143 195 248 304 372 432
#     4  12  28  46  75 111 148 194 247 297 367 441
#     4  12  25  48  75 103 151 195 242 303 364 432
#     4  12  28  49  76 109 152 192 245 307 372 439
#
# _framework density 21.824902000000002
#
# number of rings (size 3 to 8) (size 9 to 14) (size 15 to 20)
#    0.000    0.000    5.000    3.750   12.250    1.000 
#    0.000    0.000    0.000    0.000    0.000    0.000 
#    0.000    0.000    0.000    0.000    0.000    0.000 
#
# Total GULP energy -198501.215533 kJ/mol
# GULP energy per Si atom -12406.325971 kJ/mol
# Density = 2.177523 g / cm^3
# Si number density = 21.824902 Si / 1000 Ang^3
#
#
#
# Elastic Constant Matrix: (Units=GPa)
#
#
# Indices 1 2 3 4 5 6 
#
# 1 124.1325 35.2986 58.4249 -6.7532 -5.6891 9.5869
# 2 35.2986 140.2657 48.8228 -15.5130 -1.6688 11.0367
# 3 58.4249 48.8228 146.5221 -9.2724 -8.8049 9.1231
# 4 -6.7532 -15.5130 -9.2724 42.2306 8.3694 3.5589
# 5 -5.6891 -1.6688 -8.8049 8.3694 41.6355 3.0750
# 6 9.5869 11.0367 9.1231 3.5589 3.0750 41.9739
#
#
#
# Elastic Compliance Matrix: (Units=1/GPa)
#
#
# Indices 1 2 3 4 5 6 
#
# 1 0.010207 -0.001182 -0.003530 0.000413 0.000616 -0.001333
# 2 -0.001182 0.008612 -0.002158 0.002785 -0.000706 -0.001710
# 3 -0.003530 -0.002158 0.009105 0.000442 0.001322 -0.000740
# 4 0.000413 0.002785 0.000442 0.026045 -0.004768 -0.002782
# 5 0.000616 -0.000706 0.001322 -0.004768 0.025438 -0.001702
# 6 -0.001333 -0.001710 -0.000740 -0.002782 -0.001702 0.025100
#
#
# Mechanical properties :
#
#
# Convention : Reuss Voigt Hill
#
# Bulk Modulus (GPa) = 70.50115 77.33477 73.91796
# Shear Modulus (GPa) = 40.65864 43.05960 41.85912
#
# Velocity S-wave (km/s) = 4.32087 4.44662 4.38419
# Velocity P-wave (km/s) = 7.56746 7.86602 7.71818
#
# Compressibility (1/GPa) = 0.01418417
#
# Stress axis : x y z
#
# Youngs Moduli (GPa) = 97.97026 116.11597 109.82897
#
# Poissons Ratio (x) = 0.13725 0.38769
# Poissons Ratio (y) = 0.11581 0.23702
# Poissons Ratio (z) = 0.34583 0.25059
#
# Static dielectric constant tensor:
#      x y z
#    x 4.477730 0.178210 0.123840 
#    y 0.178210 4.169770 0.031040 
#    z 0.123840 0.031040 4.028060 
# 
# 
# High freq. dielectric constant tensor:
#      x y z
#    x 1.869730 0.004270 -0.000980 
#    y 0.004270 1.875980 0.000470 
#    z -0.000980 0.000470 1.874380 
# 
# From -- ./inp_files/37281.got.cif
#   From: 2010.06.25/outbox.cif.g09.slc.cpg/sg2_19_cif.got.tgz:37281.got - 2010.06.27 13:26:56.
