data_PCOD8037469
_publ_section_title
;
Structure prediction by ZEFSAII (Michael W. Deem and Ramdas Pophale) SiO2 
 PCOD8037469
Probable space group: P -1
;
_chemical_formula_sum "Si O2"
_cell_formula_units_Z 16
_cell_length_a 8.032552
_cell_length_b 7.646132
_cell_length_c 19.891673
_cell_angle_alpha 116.461543
_cell_angle_beta 41.431265
_cell_angle_gamma 124.007385
_cell_volume 669.390862
_symmetry_space_group_name_H-M "P -1"
_symmetry_group_IT_number 2
_symmetry_cell_setting 'triclinic'
loop_
_space_group_symop_operation_xyz
x,y,z
-x,-y,-z
loop_
_atom_site_type_symbol
_atom_site_label
_atom_site_fract_x
_atom_site_fract_y
_atom_site_fract_z
Si Si1 0.375259 0.380025 0.610896
Si Si2 0.083955 0.803605 0.936962
Si Si3 0.487818 0.470124 0.919304
Si Si4 0.136317 0.976539 0.690076
Si Si5 0.582615 0.887943 0.895062
Si Si6 0.945431 0.424437 0.426881
Si Si7 0.357244 0.817418 0.723577
Si Si8 0.205904 0.746293 0.294576
O O1 0.362827 0.204537 0.641292
O O2 0.645941 0.412634 0.491334
O O3 0.421374 0.607305 0.666186
O O4 0.096106 0.275978 0.637035
O O5 0.361262 0.833369 0.894787
O O6 0.116065 0.766007 0.842029
O O7 0.834059 0.615964 0.015246
O O8 0.000000 0.000000 0.000000
O O9 0.628258 0.683562 0.872818
O O10 0.634385 0.312856 0.825115
O O11 0.500000 0.500000 0.000000
O O12 0.050065 0.808920 0.625448
O O13 0.247734 0.867408 0.695389
O O14 0.875475 0.030032 0.800397
O O15 0.500000 0.000000 0.000000
O O16 0.000000 0.500000 0.500000
O O17 0.180174 0.592356 0.339160
O O18 0.629332 0.011660 0.694983
#
# Coordination Sequence:
#
# PCOD8037469 Si02
#       8
#     2   2   2   2   2   2   2   2
#     4  12  28  49  81 111 151 201 260 317 393 452
#     4  12  25  45  71 108 152 197 250 309 379 459
#     4  12  25  47  74 110 157 201 253 315 389 461
#     4  12  27  52  76 115 159 199 258 324 386 466
#     4  12  27  44  75 112 153 201 253 309 388 464
#     4  12  28  53  79 113 154 205 263 323 389 457
#     4  12  27  49  80 115 155 203 258 319 387 467
#     4  12  26  50  80 112 158 201 257 324 387 465
#
# _framework density 23.902325999999999
#
# number of rings (size 3 to 8) (size 9 to 14) (size 15 to 20)
#    0.000    0.000    3.750    5.625    7.000    1.500 
#    0.000    0.000    0.000    0.000    0.000    0.000 
#    0.000    0.000    0.000    0.000    0.000    0.000 
#
# Total GULP energy -198439.886169 kJ/mol
# GULP energy per Si atom -12402.492886 kJ/mol
# Density = 2.384792 g / cm^3
# Si number density = 23.902326 Si / 1000 Ang^3
#
#
#
# Elastic Constant Matrix: (Units=GPa)
#
#
# Indices 1 2 3 4 5 6 
#
# 1 90.1424 24.9695 25.7059 8.0698 4.0601 5.2071
# 2 24.9695 151.8607 48.5253 9.7341 0.5588 -1.0071
# 3 25.7059 48.5253 138.0466 6.8137 -2.0885 8.0058
# 4 8.0698 9.7341 6.8137 45.9111 4.7510 -2.2974
# 5 4.0601 0.5588 -2.0885 4.7510 41.4092 -4.6343
# 6 5.2071 -1.0071 8.0058 -2.2974 -4.6343 40.6722
#
#
#
# Elastic Compliance Matrix: (Units=1/GPa)
#
#
# Indices 1 2 3 4 5 6 
#
# 1 0.012230 -0.001392 -0.001643 -0.001557 -0.001253 -0.001508
# 2 -0.001392 0.007658 -0.002429 -0.000990 0.000114 0.000803
# 3 -0.001643 -0.002429 0.008528 -0.000591 0.000524 -0.001502
# 4 -0.001557 -0.000990 -0.000591 0.022658 -0.002317 0.001307
# 5 -0.001253 0.000114 0.000524 -0.002317 0.024872 0.002763
# 6 -0.001508 0.000803 -0.001502 0.001307 0.002763 0.025484
#
#
# Mechanical properties :
#
#
# Convention : Reuss Voigt Hill
#
# Bulk Modulus (GPa) = 57.17623 64.27234 60.72429
# Shear Modulus (GPa) = 42.30576 44.32176 43.31376
#
# Velocity S-wave (km/s) = 4.21163 4.31081 4.26151
# Velocity P-wave (km/s) = 6.90096 7.19204 7.04800
#
# Compressibility (1/GPa) = 0.01748979
#
# Stress axis : x y z
#
# Youngs Moduli (GPa) = 81.76310 130.57777 117.26275
#
# Poissons Ratio (x) = 0.18171 0.19266
# Poissons Ratio (y) = 0.11378 0.28481
# Poissons Ratio (z) = 0.13434 0.31715
#
# Static dielectric constant tensor:
#      x y z
#    x 4.160790 -0.091710 0.081150 
#    y -0.091710 4.391050 -0.071850 
#    z 0.081150 -0.071850 4.421650 
# 
# 
# High freq. dielectric constant tensor:
#      x y z
#    x 1.944280 -0.000310 -0.004830 
#    y -0.000310 1.961550 -0.010100 
#    z -0.004830 -0.010100 1.966510 
# 
# From -- ./inp_files/587462.got.cif
#   From: 2010.06.25/outbox.cif.g09.slc.cpg/sg2_294_cif.got.tgz:587462.got - 2010.06.27 13:26:56.
