data_PCOD8037006
_publ_section_title
;
Structure prediction by ZEFSAII (Michael W. Deem and Ramdas Pophale) SiO2 
 PCOD8037006
Probable space group: P -1
;
_chemical_formula_sum "Si O2"
_cell_formula_units_Z 14
_cell_length_a 21.981444
_cell_length_b 10.726191
_cell_length_c 8.665430
_cell_angle_alpha 44.333027
_cell_angle_beta 30.994231
_cell_angle_gamma 35.371571
_cell_volume 608.126826
_symmetry_space_group_name_H-M "P -1"
_symmetry_group_IT_number 2
_symmetry_cell_setting 'triclinic'
loop_
_space_group_symop_operation_xyz
x,y,z
-x,-y,-z
loop_
_atom_site_type_symbol
_atom_site_label
_atom_site_fract_x
_atom_site_fract_y
_atom_site_fract_z
Si Si1 0.043737 0.987130 0.240576
Si Si2 0.713065 0.001550 0.215917
Si Si3 0.100279 0.384013 0.033911
Si Si4 0.875800 0.429650 0.701291
Si Si5 0.811467 0.356368 0.234864
Si Si6 0.594329 0.806101 0.850423
Si Si7 0.500832 0.505069 0.177617
O O1 0.138805 0.736625 0.217892
O O2 0.149163 0.067234 0.915965
O O3 0.000000 0.000000 0.500000
O O4 0.907797 0.115798 0.309009
O O5 0.616781 0.258933 0.189263
O O6 0.625062 0.907375 0.549606
O O7 0.785880 0.874227 0.009419
O O8 0.013929 0.418275 0.348565
O O9 0.192128 0.485640 0.768030
O O10 0.000000 0.500000 0.000000
O O11 0.734878 0.661196 0.773360
O O12 0.889070 0.368199 0.905313
O O13 0.653175 0.420481 0.486345
O O14 0.531904 0.672480 0.037954
O O15 0.500000 0.000000 0.000000
O O16 0.500000 0.500000 0.000000
#
# Coordination Sequence:
#
# PCOD8037006 Si02
#       7
#     2   2   2   2   2   2   2
#     4  12  23  46  78 106 145 201 251 306 375 454
#     4  12  25  47  80 104 145 200 257 299 374 454
#     4  12  23  46  78 108 143 197 256 306 375 455
#     4  12  25  45  74 111 154 188 255 314 381 445
#     4  12  27  45  72 114 153 194 249 321 378 439
#     4  12  28  48  77 107 151 209 248 306 387 454
#     4  12  29  50  75 109 156 197 258 313 373 453
#
# _framework density 23.021515000000001
#
# number of rings (size 3 to 8) (size 9 to 14) (size 15 to 20)
#    0.000    0.000    5.714    3.429    2.000    4.571 
#    2.571    0.000    0.000    0.000    0.000    0.000 
#    0.000    0.000    0.000    0.000    0.000    0.000 
#
# Total GULP energy -173520.943914 kJ/mol
# GULP energy per Si atom -12394.353137 kJ/mol
# Density = 2.296912 g / cm^3
# Si number density = 23.021515 Si / 1000 Ang^3
#
#
#
# Elastic Constant Matrix: (Units=GPa)
#
#
# Indices 1 2 3 4 5 6 
#
# 1 98.9964 54.6649 53.3747 -1.7639 -3.6129 9.8024
# 2 54.6649 172.7359 62.7588 10.1132 -2.1248 13.7137
# 3 53.3747 62.7588 142.1341 2.6756 -4.2151 -1.0336
# 4 -1.7639 10.1132 2.6756 40.9759 3.4877 -1.3538
# 5 -3.6129 -2.1248 -4.2151 3.4877 51.5496 -9.6227
# 6 9.8024 13.7137 -1.0336 -1.3538 -9.6227 41.2839
#
#
#
# Elastic Compliance Matrix: (Units=1/GPa)
#
#
# Indices 1 2 3 4 5 6 
#
# 1 0.014175 -0.002892 -0.004093 0.001512 -0.000022 -0.002463
# 2 -0.002892 0.007842 -0.002365 -0.001947 -0.000337 -0.002120
# 3 -0.004093 -0.002365 0.009662 -0.000222 0.000829 0.002185
# 4 0.001512 -0.001947 -0.000222 0.025121 -0.001553 0.000744
# 5 -0.000022 -0.000337 0.000829 -0.001553 0.020463 0.004857
# 6 -0.002463 -0.002120 0.002185 0.000744 0.004857 0.026723
#
#
# Mechanical properties :
#
#
# Convention : Reuss Voigt Hill
#
# Bulk Modulus (GPa) = 77.05469 83.94034 80.49751
# Shear Modulus (GPa) = 39.36612 42.96641 41.16627
#
# Velocity S-wave (km/s) = 4.13967 4.32482 4.23326
# Velocity P-wave (km/s) = 7.50949 7.84090 7.67698
#
# Compressibility (1/GPa) = 0.01297779
#
# Stress axis : x y z
#
# Youngs Moduli (GPa) = 70.54556 127.51987 103.50116
#
# Poissons Ratio (x) = 0.36879 0.42365
# Poissons Ratio (y) = 0.20402 0.24481
# Poissons Ratio (z) = 0.28876 0.30162
#
# Static dielectric constant tensor:
#      x y z
#    x 3.970250 -0.026600 -0.157760 
#    y -0.026600 4.458190 0.110330 
#    z -0.157760 0.110330 4.370970 
# 
# 
# High freq. dielectric constant tensor:
#      x y z
#    x 1.903990 0.015560 -0.006540 
#    y 0.015560 1.929360 -0.000420 
#    z -0.006540 -0.000420 1.919200 
# 
# From -- ./inp_files/353773.got.cif
#   From: 2010.06.25/outbox.cif.g09.slc.cpg/sg2_177_cif.got.tgz:353773.got - 2010.06.27 13:26:56.
