data_PCOD8037508
_publ_section_title
;
Structure prediction by ZEFSAII (Michael W. Deem and Ramdas Pophale) SiO2 
 PCOD8037508
Probable space group: P -1
;
_chemical_formula_sum "Si O2"
_cell_formula_units_Z 16
_cell_length_a 9.234940
_cell_length_b 16.992762
_cell_length_c 14.463541
_cell_angle_alpha 41.003660
_cell_angle_beta 140.505318
_cell_angle_gamma 148.081927
_cell_volume 728.928224
_symmetry_space_group_name_H-M "P -1"
_symmetry_group_IT_number 2
_symmetry_cell_setting 'triclinic'
loop_
_space_group_symop_operation_xyz
x,y,z
-x,-y,-z
loop_
_atom_site_type_symbol
_atom_site_label
_atom_site_fract_x
_atom_site_fract_y
_atom_site_fract_z
Si Si1 0.667957 0.635180 0.888355
Si Si2 0.261744 0.701323 0.643227
Si Si3 0.357204 0.824349 0.080511
Si Si4 0.659178 0.596870 0.709677
Si Si5 0.581893 0.735227 0.111760
Si Si6 0.253355 0.648124 0.361892
Si Si7 0.790697 0.161283 0.681856
Si Si8 0.295789 0.802180 0.772523
O O1 0.585703 0.747594 0.765171
O O2 0.555961 0.565796 0.792273
O O3 0.500000 0.500000 0.000000
O O4 0.010910 0.724737 0.984569
O O5 0.254879 0.803185 0.474357
O O6 0.196121 0.741859 0.672466
O O7 0.027030 0.518077 0.667564
O O8 0.518512 0.816349 0.082153
O O9 0.418824 0.770556 0.251479
O O10 0.500000 0.000000 0.000000
O O11 0.577761 0.437268 0.775037
O O12 0.485720 0.636244 0.530962
O O13 0.006574 0.738006 0.745950
O O14 0.930148 0.833028 0.184224
O O15 0.448387 0.733761 0.949258
O O16 0.151337 0.710668 0.332270
O O17 0.505638 0.987944 0.721659
#
# Coordination Sequence:
#
# PCOD8037508 Si02
#       8
#     2   2   2   2   2   2   2   2
#     4  12  25  46  74 104 141 189 240 299 353 436
#     4  12  25  46  73 108 142 192 252 291 359 435
#     4  12  29  47  72 110 148 188 239 302 372 425
#     4  12  26  48  76 104 146 191 247 297 361 434
#     4  12  26  48  73 103 148 189 241 298 362 438
#     4  12  26  48  75 105 147 197 241 297 363 438
#     4  12  27  48  73 107 150 192 240 300 369 427
#     4  12  28  45  73 110 146 190 242 308 360 422
#
# _framework density 21.950036000000001
#
# number of rings (size 3 to 8) (size 9 to 14) (size 15 to 20)
#    0.000    0.000    5.000    4.500    5.250    2.500 
#    0.000    0.000    0.000    0.000    0.000    0.000 
#    0.000    0.000    0.000    0.000    0.000    0.000 
#
# Total GULP energy -198511.237723 kJ/mol
# GULP energy per Si atom -12406.952358 kJ/mol
# Density = 2.190008 g / cm^3
# Si number density = 21.950036 Si / 1000 Ang^3
#
#
#
# Elastic Constant Matrix: (Units=GPa)
#
#
# Indices 1 2 3 4 5 6 
#
# 1 96.7857 40.2415 40.0663 -1.0121 -3.2500 -4.0586
# 2 40.2415 121.5111 49.6282 -16.5007 5.2966 -0.8312
# 3 40.0663 49.6282 152.7947 1.1336 -5.2710 -0.4559
# 4 -1.0121 -16.5007 1.1336 31.5259 0.7673 -1.9968
# 5 -3.2500 5.2966 -5.2710 0.7673 42.7143 0.8741
# 6 -4.0586 -0.8312 -0.4559 -1.9968 0.8741 26.2385
#
#
#
# Elastic Compliance Matrix: (Units=1/GPa)
#
#
# Indices 1 2 3 4 5 6 
#
# 1 0.012803 -0.003582 -0.002140 -0.001307 0.001143 0.001692
# 2 -0.003582 0.011537 -0.002928 0.006101 -0.002180 0.000297
# 3 -0.002140 -0.002928 0.008113 -0.001953 0.001246 -0.000473
# 4 -0.001307 0.006101 -0.001953 0.035155 -0.001784 0.002692
# 5 0.001143 -0.002180 0.001246 -0.001784 0.023971 -0.000805
# 6 0.001692 0.000297 -0.000473 0.002692 -0.000805 0.038607
#
#
# Mechanical properties :
#
#
# Convention : Reuss Voigt Hill
#
# Bulk Modulus (GPa) = 65.98721 70.10705 68.04713
# Shear Modulus (GPa) = 32.77931 36.17277 34.47604
#
# Velocity S-wave (km/s) = 3.86859 4.06391 3.96745
# Velocity P-wave (km/s) = 7.07689 7.35046 7.21497
#
# Compressibility (1/GPa) = 0.01515445
#
# Stress axis : x y z
#
# Youngs Moduli (GPa) = 78.10805 86.67627 123.26278
#
# Poissons Ratio (x) = 0.31047 0.26373
# Poissons Ratio (y) = 0.27978 0.36087
# Poissons Ratio (z) = 0.16712 0.25376
#
# Static dielectric constant tensor:
#      x y z
#    x 4.187040 0.134080 -0.029200 
#    y 0.134080 3.873430 0.056990 
#    z -0.029200 0.056990 4.348850 
# 
# 
# High freq. dielectric constant tensor:
#      x y z
#    x 1.875000 0.003550 -0.002830 
#    y 0.003550 1.860220 0.000500 
#    z -0.002830 0.000500 1.889260 
# 
# From -- ./inp_files/189461.got.cif
#   From: 2010.06.25/outbox.cif.g09.slc.cpg/sg2_95_cif.got.tgz:189461.got - 2010.06.27 13:26:56.
