data_PCOD8037346
_publ_section_title
;
Structure prediction by ZEFSAII (Michael W. Deem and Ramdas Pophale) SiO2 
 PCOD8037346
Probable space group: P -1
;
_chemical_formula_sum "Si O2"
_cell_formula_units_Z 12
_cell_length_a 14.965507
_cell_length_b 9.027773
_cell_length_c 18.805192
_cell_angle_alpha 141.040399
_cell_angle_beta 20.801019
_cell_angle_gamma 140.579651
_cell_volume 555.355985
_symmetry_space_group_name_H-M "P -1"
_symmetry_group_IT_number 2
_symmetry_cell_setting 'triclinic'
loop_
_space_group_symop_operation_xyz
x,y,z
-x,-y,-z
loop_
_atom_site_type_symbol
_atom_site_label
_atom_site_fract_x
_atom_site_fract_y
_atom_site_fract_z
Si Si1 0.155748 0.398908 0.109326
Si Si2 0.496691 0.969084 0.272323
Si Si3 0.029940 0.788547 0.452558
Si Si4 0.297344 0.604460 0.818779
Si Si5 0.523100 0.257919 0.113506
Si Si6 0.576764 0.163832 0.436247
O O1 0.131441 0.581958 0.258462
O O2 0.883493 0.241170 0.229065
O O3 0.331918 0.225745 0.944438
O O4 0.286499 0.537850 0.994899
O O5 0.219760 0.890260 0.412980
O O6 0.637633 0.226385 0.234204
O O7 0.459991 0.002035 0.395795
O O8 0.757274 0.675221 0.649117
O O9 0.000000 0.000000 0.500000
O O10 0.367258 0.760421 0.896078
O O11 0.460474 0.399229 0.617239
O O12 0.000000 0.500000 0.000000
O O13 0.500000 0.000000 0.000000
O O14 0.500000 0.000000 0.500000
#
# Coordination Sequence:
#
# PCOD8037346 Si02
#       6
#     2   2   2   2   2   2
#     4  12  25  48  71 104 145 185 239 293 351 417
#     4  12  26  44  73 105 141 190 235 290 354 424
#     4  12  24  48  71 106 145 184 237 290 353 422
#     4  12  25  44  70 106 141 185 241 289 350 422
#     4  12  25  44  75 102 144 188 230 295 353 414
#     4  12  26  49  73 103 145 187 238 297 351 417
#
# _framework density 21.607759999999999
#
# number of rings (size 3 to 8) (size 9 to 14) (size 15 to 20)
#    0.000    0.000    5.000    4.500    2.333    0.667 
#    3.000    0.000    0.000    0.000    0.000    0.000 
#    0.000    0.000    0.000    0.000    0.000    0.000 
#
# Total GULP energy -148907.301999 kJ/mol
# GULP energy per Si atom -12408.941833 kJ/mol
# Density = 2.155858 g / cm^3
# Si number density = 21.607760 Si / 1000 Ang^3
#
#
#
# Elastic Constant Matrix: (Units=GPa)
#
#
# Indices 1 2 3 4 5 6 
#
# 1 168.1404 63.0494 67.8336 -2.6720 1.8217 17.7526
# 2 63.0494 113.6642 57.4758 1.7284 4.2048 -12.8605
# 3 67.8336 57.4758 128.8172 -7.5283 2.5509 -5.0609
# 4 -2.6720 1.7284 -7.5283 61.0456 5.8620 -2.2776
# 5 1.8217 4.2048 2.5509 5.8620 43.3714 -0.4544
# 6 17.7526 -12.8605 -5.0609 -2.2776 -0.4544 51.0111
#
#
#
# Elastic Compliance Matrix: (Units=1/GPa)
#
#
# Indices 1 2 3 4 5 6 
#
# 1 0.009241 -0.003991 -0.003271 -0.000070 0.000153 -0.004549
# 2 -0.003991 0.013445 -0.003756 -0.000782 -0.000763 0.004364
# 3 -0.003271 -0.003756 0.011307 0.001442 -0.000344 0.001375
# 4 -0.000070 -0.000782 0.001442 0.016822 -0.002272 0.000701
# 5 0.000153 -0.000763 -0.000344 -0.002272 0.023450 -0.000172
# 6 -0.004549 0.004364 0.001375 0.000701 -0.000172 0.022453
#
#
# Mechanical properties :
#
#
# Convention : Reuss Voigt Hill
#
# Bulk Modulus (GPa) = 83.64567 87.48215 85.56391
# Shear Modulus (GPa) = 40.73600 45.90314 43.31957
#
# Velocity S-wave (km/s) = 4.34666 4.61410 4.48237
# Velocity P-wave (km/s) = 7.99914 8.30427 8.15313
#
# Compressibility (1/GPa) = 0.01195519
#
# Stress axis : x y z
#
# Youngs Moduli (GPa) = 108.20980 74.37633 88.44264
#
# Poissons Ratio (x) = 0.29685 0.28933
# Poissons Ratio (y) = 0.43188 0.33223
# Poissons Ratio (z) = 0.35400 0.27939
#
# Static dielectric constant tensor:
#      x y z
#    x 4.077650 -0.031810 -0.003150 
#    y -0.031810 4.120130 -0.038150 
#    z -0.003150 -0.038150 4.277940 
# 
# 
# High freq. dielectric constant tensor:
#      x y z
#    x 1.859510 0.006500 0.000270 
#    y 0.006500 1.862940 -0.000750 
#    z 0.000270 -0.000750 1.866280 
# 
# From -- ./inp_files/28863.got.cif
#   From: 2010.06.25/outbox.cif.g09.slc.cpg/sg2_15_cif.got.tgz:28863.got - 2010.06.27 13:26:56.
