data_PCOD8037434
_publ_section_title
;
Structure prediction by ZEFSAII (Michael W. Deem and Ramdas Pophale) SiO2 
 PCOD8037434
Probable space group: P -1
;
_chemical_formula_sum "Si O2"
_cell_formula_units_Z 10
_cell_length_a 9.213660
_cell_length_b 9.747082
_cell_length_c 11.209754
_cell_angle_alpha 78.565903
_cell_angle_beta 92.448589
_cell_angle_gamma 30.467064
_cell_volume 451.749980
_symmetry_space_group_name_H-M "P -1"
_symmetry_group_IT_number 2
_symmetry_cell_setting 'triclinic'
loop_
_space_group_symop_operation_xyz
x,y,z
-x,-y,-z
loop_
_atom_site_type_symbol
_atom_site_label
_atom_site_fract_x
_atom_site_fract_y
_atom_site_fract_z
Si Si1 0.637056 0.837331 0.908655
Si Si2 0.839246 0.172284 0.839821
Si Si3 0.274401 0.059614 0.473871
Si Si4 0.627942 0.184603 0.241230
Si Si5 0.547174 0.735289 0.307291
O O1 0.527501 0.163730 0.138619
O O2 0.000000 0.500000 0.000000
O O3 0.500000 0.000000 0.000000
O O4 0.582396 0.002693 0.780343
O O5 0.669564 0.466936 0.791738
O O6 0.584684 0.271815 0.782078
O O7 0.096504 0.955309 0.780375
O O8 0.000000 0.000000 0.000000
O O9 0.925383 0.410232 0.365903
O O10 0.500000 0.000000 0.500000
O O11 0.244263 0.005322 0.606518
O O12 0.420519 0.826210 0.422574
#
# Coordination Sequence:
#
# PCOD8037434 Si02
#       5
#     2   2   2   2   2
#     4  12  25  43  70 103 135 185 243 282 343 416
#     4  12  27  48  70 105 146 182 233 290 352 421
#     4  12  26  46  73 106 143 179 243 294 341 414
#     4  12  26  45  73 100 143 187 230 291 351 409
#     4  12  26  45  74 101 144 188 229 294 352 407
#
# _framework density 22.136137999999999
#
# number of rings (size 3 to 8) (size 9 to 14) (size 15 to 20)
#    0.000    0.000    2.000    8.400    2.800    4.800 
#    0.000    0.000    0.000    0.000    0.000    0.000 
#    0.000    0.000    0.000    0.000    0.000    0.000 
#
# Total GULP energy -124091.610212 kJ/mol
# GULP energy per Si atom -12409.161021 kJ/mol
# Density = 2.208575 g / cm^3
# Si number density = 22.136138 Si / 1000 Ang^3
#
#
#
# Elastic Constant Matrix: (Units=GPa)
#
#
# Indices 1 2 3 4 5 6 
#
# 1 106.9555 32.3657 54.1252 -13.7656 16.0959 -5.0344
# 2 32.3657 140.1389 52.6829 -3.9301 13.4314 -9.7416
# 3 54.1252 52.6829 130.6065 -9.7099 11.4543 -12.0598
# 4 -13.7656 -3.9301 -9.7099 47.7246 0.1322 0.6915
# 5 16.0959 13.4314 11.4543 0.1322 48.3238 6.3766
# 6 -5.0344 -9.7416 -12.0598 0.6915 6.3766 46.1365
#
#
#
# Elastic Compliance Matrix: (Units=1/GPa)
#
#
# Indices 1 2 3 4 5 6 
#
# 1 0.012652 -0.000882 -0.004387 0.002686 -0.002992 0.000421
# 2 -0.000882 0.008656 -0.002887 -0.000142 -0.001586 0.001198
# 3 -0.004387 -0.002887 0.010909 0.000692 -0.000566 0.001831
# 4 0.002686 -0.000142 0.000692 0.021857 -0.001115 0.000270
# 5 -0.002992 -0.001586 -0.000566 -0.001115 0.022789 -0.003942
# 6 0.000421 0.001198 0.001831 0.000270 -0.003942 0.022993
#
#
# Mechanical properties :
#
#
# Convention : Reuss Voigt Hill
#
# Bulk Modulus (GPa) = 62.86620 72.89427 67.88024
# Shear Modulus (GPa) = 41.16289 44.33879 42.75084
#
# Velocity S-wave (km/s) = 4.31691 4.48035 4.39939
# Velocity P-wave (km/s) = 7.30131 7.73086 7.51915
#
# Compressibility (1/GPa) = 0.01590680
#
# Stress axis : x y z
#
# Youngs Moduli (GPa) = 79.03740 115.52650 91.66616
#
# Poissons Ratio (x) = 0.10185 0.40210
# Poissons Ratio (y) = 0.06968 0.26465
# Poissons Ratio (z) = 0.34671 0.33354
#
# Static dielectric constant tensor:
#      x y z
#    x 4.081120 -0.008690 -0.057580 
#    y -0.008690 4.112550 0.087590 
#    z -0.057580 0.087590 4.348440 
# 
# 
# High freq. dielectric constant tensor:
#      x y z
#    x 1.876170 -0.001100 0.004950 
#    y -0.001100 1.892200 0.003040 
#    z 0.004950 0.003040 1.891280 
# 
# From -- ./inp_files/253654.got.cif
#   From: 2010.06.25/outbox.cif.g09.slc.cpg/sg2_127_cif.got.tgz:253654.got - 2010.06.27 13:26:56.
