data_PCOD8037005
_publ_section_title
;
Structure prediction by ZEFSAII (Michael W. Deem and Ramdas Pophale) SiO2 
 PCOD8037005
Probable space group: P -1
;
_chemical_formula_sum "Si O2"
_cell_formula_units_Z 16
_cell_length_a 26.645913
_cell_length_b 7.653903
_cell_length_c 12.657721
_cell_angle_alpha 52.611950
_cell_angle_beta 23.227421
_cell_angle_gamma 43.634010
_cell_volume 686.453844
_symmetry_space_group_name_H-M "P -1"
_symmetry_group_IT_number 2
_symmetry_cell_setting 'triclinic'
loop_
_space_group_symop_operation_xyz
x,y,z
-x,-y,-z
loop_
_atom_site_type_symbol
_atom_site_label
_atom_site_fract_x
_atom_site_fract_y
_atom_site_fract_z
Si Si1 0.103725 0.976887 0.112662
Si Si2 0.137250 0.960584 0.812015
Si Si3 0.560107 0.233858 0.420576
Si Si4 0.391232 0.208907 0.051917
Si Si5 0.452164 0.501603 0.331053
Si Si6 0.938941 0.716598 0.624888
Si Si7 0.394069 0.971246 0.921789
Si Si8 0.914283 0.514387 0.359891
O O1 0.985150 0.284264 0.222548
O O2 0.028661 0.861926 0.375830
O O3 0.133504 0.879017 0.970011
O O4 0.259841 0.913610 0.884792
O O5 0.280622 0.724277 0.563277
O O6 0.129017 0.228849 0.715749
O O7 0.000000 0.000000 0.000000
O O8 0.500000 0.500000 0.500000
O O9 0.480271 0.284243 0.442107
O O10 0.512022 0.055592 0.636826
O O11 0.239953 0.433762 0.314479
O O12 0.468139 0.365905 0.812247
O O13 0.500000 0.000000 0.000000
O O14 0.355726 0.058105 0.086435
O O15 0.521586 0.341412 0.145702
O O16 0.000000 0.500000 0.500000
O O17 0.970390 0.582521 0.728438
O O18 0.759618 0.898886 0.894671
#
# Coordination Sequence:
#
# PCOD8037005 Si02
#       8
#     2   2   2   2   2   2   2   2
#     4  12  26  47  76 104 141 194 237 298 363 426
#     4  12  28  45  69 103 149 188 234 297 354 434
#     4  12  23  46  78 104 143 183 240 303 359 420
#     4  12  25  47  70 103 146 188 236 293 353 426
#     4  12  26  48  73 107 144 186 241 296 360 429
#     4  12  24  46  76 105 145 182 241 304 357 420
#     4  12  27  45  78 108 139 191 240 297 362 424
#     4  12  26  46  72 105 144 186 239 293 363 427
#
# _framework density 23.308191999999998
#
# number of rings (size 3 to 8) (size 9 to 14) (size 15 to 20)
#    0.000    0.000    5.000    4.875    3.500    1.500 
#    0.000    0.000    0.000    0.000    0.000    0.000 
#    0.000    0.000    0.000    0.000    0.000    0.000 
#
# Total GULP energy -198315.902221 kJ/mol
# GULP energy per Si atom -12394.743889 kJ/mol
# Density = 2.325514 g / cm^3
# Si number density = 23.308192 Si / 1000 Ang^3
#
#
#
# Elastic Constant Matrix: (Units=GPa)
#
#
# Indices 1 2 3 4 5 6 
#
# 1 71.6223 16.9420 29.3775 9.4263 -5.0730 -4.4480
# 2 16.9420 102.9514 39.5298 25.7385 2.0733 9.2541
# 3 29.3775 39.5298 138.6683 26.3333 -21.0454 13.3029
# 4 9.4263 25.7385 26.3333 51.7175 0.5714 8.6225
# 5 -5.0730 2.0733 -21.0454 0.5714 37.6595 9.1618
# 6 -4.4480 9.2541 13.3029 8.6225 9.1618 39.0068
#
#
#
# Elastic Compliance Matrix: (Units=1/GPa)
#
#
# Indices 1 2 3 4 5 6 
#
# 1 0.015943 -0.001434 -0.003146 -0.001183 -0.000385 0.003583
# 2 -0.001434 0.012124 -0.002575 -0.004318 -0.002058 -0.000724
# 3 -0.003146 -0.002575 0.010597 -0.002897 0.006730 -0.004302
# 4 -0.001183 -0.004318 -0.002897 0.023704 -0.001148 -0.003092
# 5 -0.000385 -0.002058 0.006730 -0.001148 0.032648 -0.009265
# 6 0.003583 -0.000724 -0.004302 -0.003092 -0.009265 0.030544
#
#
# Mechanical properties :
#
#
# Convention : Reuss Voigt Hill
#
# Bulk Modulus (GPa) = 41.06435 53.88228 47.47332
# Shear Modulus (GPa) = 33.78659 40.83627 37.31143
#
# Velocity S-wave (km/s) = 3.81144 4.19025 4.00532
# Velocity P-wave (km/s) = 6.08487 6.82484 6.46545
#
# Compressibility (1/GPa) = 0.02435202
#
# Stress axis : x y z
#
# Youngs Moduli (GPa) = 62.72402 82.47998 94.37055
#
# Poissons Ratio (x) = 0.11828 0.29692
# Poissons Ratio (y) = 0.08995 0.24304
# Poissons Ratio (z) = 0.19735 0.21242
#
# Static dielectric constant tensor:
#      x y z
#    x 4.451210 0.749200 -0.797240 
#    y 0.749200 7.217540 -4.285690 
#    z -0.797240 -4.285690 10.837190 
# 
# 
# High freq. dielectric constant tensor:
#      x y z
#    x 1.921320 0.003950 0.001610 
#    y 0.003950 1.928040 0.013800 
#    z 0.001610 0.013800 1.935100 
# 
# From -- ./inp_files/544812.got.cif
#   From: 2010.06.25/outbox.cif.g09.slc.cpg/sg2_273_cif.got.tgz:544812.got - 2010.06.27 13:26:56.
