data_PCOD8037834
_publ_section_title
;
Structure prediction by ZEFSAII (Michael W. Deem and Ramdas Pophale) SiO2 
 PCOD8037834
Probable space group: P -1
;
_chemical_formula_sum "Si O2"
_cell_formula_units_Z 14
_cell_length_a 13.214822
_cell_length_b 16.137539
_cell_length_c 12.203192
_cell_angle_alpha 135.267005
_cell_angle_beta 56.699773
_cell_angle_gamma 152.165021
_cell_volume 830.018657
_symmetry_space_group_name_H-M "P -1"
_symmetry_group_IT_number 2
_symmetry_cell_setting 'triclinic'
loop_
_space_group_symop_operation_xyz
x,y,z
-x,-y,-z
loop_
_atom_site_type_symbol
_atom_site_label
_atom_site_fract_x
_atom_site_fract_y
_atom_site_fract_z
Si Si1 0.799512 0.418892 0.506715
Si Si2 0.911262 0.636762 0.429371
Si Si3 0.177865 0.179053 0.348462
Si Si4 0.742825 0.668806 0.147447
Si Si5 0.414962 0.030839 0.500575
Si Si6 0.606858 0.423062 0.789602
Si Si7 0.634304 0.511583 0.299953
O O1 0.816897 0.469207 0.417438
O O2 0.793695 0.531795 0.692927
O O3 0.000000 0.500000 0.500000
O O4 0.566791 0.157641 0.418839
O O5 0.914587 0.773661 0.603134
O O6 0.755781 0.505119 0.289395
O O7 0.160162 0.801183 0.402895
O O8 0.366091 0.278203 0.249328
O O9 0.292580 0.302436 0.514613
O O10 0.981871 0.926291 0.244326
O O11 0.539982 0.594584 0.193844
O O12 0.715725 0.572576 0.184303
O O13 0.732904 0.569758 0.960371
O O14 0.500000 0.000000 0.500000
O O15 0.444980 0.180422 0.686912
#
# Coordination Sequence:
#
# PCOD8037834 Si02
#       7
#     2   2   2   2   2   2   2
#     4  10  19  33  52  74 103 127 180 225 239 302
#     4  10  17  32  51  77 102 130 177 216 253 293
#     4   9  18  30  51  76 104 142 173 199 256 314
#     4  11  18  36  48  79 119 135 161 211 267 325
#     4  10  19  34  54  79  95 138 179 215 265 293
#     4   9  21  32  52  79 109 140 165 211 270 313
#     4   9  20  30  51  76 106 140 177 206 244 322
#
# _framework density 16.867092
#
# number of rings (size 3 to 8) (size 9 to 14) (size 15 to 20)
#    1.714    0.571    2.857    1.286    0.000    1.143 
#    2.571    2.143    0.000    3.429    0.000    6.000 
#    0.000    0.000    0.000    0.000    0.000    0.000 
#
# Total GULP energy -173449.453430 kJ/mol
# GULP energy per Si atom -12389.246674 kJ/mol
# Density = 1.682870 g / cm^3
# Si number density = 16.867092 Si / 1000 Ang^3
#
#
#
# Elastic Constant Matrix: (Units=GPa)
#
#
# Indices 1 2 3 4 5 6 
#
# 1 118.7874 56.8353 16.8025 -11.8175 12.6417 -5.7226
# 2 56.8353 139.2817 17.2167 -9.5680 17.8938 0.9763
# 3 16.8025 17.2167 41.6494 -5.1615 10.1809 -2.6767
# 4 -11.8175 -9.5680 -5.1615 10.3392 0.4400 2.1672
# 5 12.6417 17.8938 10.1809 0.4400 21.0090 -5.7913
# 6 -5.7226 0.9763 -2.6767 2.1672 -5.7913 35.2172
#
#
#
# Elastic Compliance Matrix: (Units=1/GPa)
#
#
# Indices 1 2 3 4 5 6 
#
# 1 0.011599 -0.003508 -0.001182 0.009408 -0.003408 0.000753
# 2 -0.003508 0.009973 -0.000445 0.005791 -0.006945 -0.002379
# 3 -0.001182 -0.000445 0.029720 0.013888 -0.013896 -0.001061
# 4 0.009408 0.005791 0.013888 0.122558 -0.022313 -0.008788
# 5 -0.003408 -0.006945 -0.013896 -0.022313 0.065733 0.010765
# 6 0.000753 -0.002379 -0.001061 -0.008788 0.010765 0.030814
#
#
# Mechanical properties :
#
#
# Convention : Reuss Voigt Hill
#
# Bulk Modulus (GPa) = 24.37666 53.49196 38.93431
# Shear Modulus (GPa) = 16.98714 27.23735 22.11225
#
# Velocity S-wave (km/s) = 3.17695 4.02284 3.62466
# Velocity P-wave (km/s) = 5.28592 7.30482 6.37579
#
# Compressibility (1/GPa) = 0.04102284
#
# Stress axis : x y z
#
# Youngs Moduli (GPa) = 86.21413 100.27157 33.64715
#
# Poissons Ratio (x) = 0.35176 0.03976
# Poissons Ratio (y) = 0.30245 0.01497
# Poissons Ratio (z) = 0.10188 0.04461
#
# Static dielectric constant tensor:
#      x y z
#    x 3.104630 0.068450 -0.011790 
#    y 0.068450 3.186380 -0.014520 
#    z -0.011790 -0.014520 2.770370 
# 
# 
# High freq. dielectric constant tensor:
#      x y z
#    x 1.653270 0.005660 0.003780 
#    y 0.005660 1.659400 -0.004390 
#    z 0.003780 -0.004390 1.596680 
# 
# From -- ./inp_files/431753.got.cif
#   From: 2010.06.25/outbox.cif.g09.slc.cpg/sg2_216_cif.got.tgz:431753.got - 2010.06.27 13:26:56.
