data_PCOD8037944
_publ_section_title
;
Structure prediction by ZEFSAII (Michael W. Deem and Ramdas Pophale) SiO2 
 PCOD8037944
Probable space group: P -1
;
_chemical_formula_sum "Si O2"
_cell_formula_units_Z 16
_cell_length_a 12.456499
_cell_length_b 22.226335
_cell_length_c 5.452198
_cell_angle_alpha 66.709688
_cell_angle_beta 64.966118
_cell_angle_gamma 24.920934
_cell_volume 576.036826
_symmetry_space_group_name_H-M "P -1"
_symmetry_group_IT_number 2
_symmetry_cell_setting 'triclinic'
loop_
_space_group_symop_operation_xyz
x,y,z
-x,-y,-z
loop_
_atom_site_type_symbol
_atom_site_label
_atom_site_fract_x
_atom_site_fract_y
_atom_site_fract_z
Si Si1 0.362777 0.447032 0.030374
Si Si2 0.089809 0.259859 0.507164
Si Si3 0.665142 0.581279 0.387287
Si Si4 0.781971 0.088614 0.881792
Si Si5 0.140882 0.384125 0.737790
Si Si6 0.471925 0.868562 0.587642
Si Si7 0.101556 0.701284 0.878773
Si Si8 0.044626 0.873333 0.587297
O O1 0.510522 0.357828 0.775548
O O2 0.354175 0.530226 0.930909
O O3 0.480641 0.353011 0.307499
O O4 0.067742 0.566338 0.044024
O O5 0.385211 0.139712 0.416547
O O6 0.046334 0.242889 0.322543
O O7 0.908659 0.413110 0.474606
O O8 0.062632 0.227497 0.827654
O O9 0.743219 0.618243 0.182437
O O10 0.738542 0.176764 0.617047
O O11 0.886426 0.977458 0.801335
O O12 0.528370 0.189034 0.112410
O O13 0.000000 0.000000 0.000000
O O14 0.385137 0.225869 0.644198
O O15 0.000000 0.500000 0.500000
O O16 0.173221 0.033805 0.557951
O O17 0.189927 0.733799 0.734127
#
# Coordination Sequence:
#
# PCOD8037944 Si02
#       8
#     2   2   2   2   2   2   2   2
#     4   9  17  31  47  78 111 149 188 220 269 347
#     4  10  21  35  53  92 124 154 192 225 294 361
#     4   9  17  31  49  74 119 155 187 221 268 346
#     4   9  22  43  60  78 108 151 208 254 287 332
#     4  10  17  33  51  82 117 159 186 226 292 346
#     4  11  21  36  57  86 123 151 195 247 280 356
#     4  10  21  36  57  83 121 159 186 234 291 361
#     4  10  23  40  60  81 112 158 203 244 292 336
#
# _framework density 27.776001000000001
#
# number of rings (size 3 to 8) (size 9 to 14) (size 15 to 20)
#    0.000    2.250    3.750    0.375    5.250    1.000 
#    4.500    0.000    0.000    0.000    0.000   11.375 
#    0.000    0.000    0.000    0.000    0.000    0.000 
#
# Total GULP energy -198244.220865 kJ/mol
# GULP energy per Si atom -12390.263804 kJ/mol
# Density = 2.771278 g / cm^3
# Si number density = 27.776001 Si / 1000 Ang^3
#
#
#
# Elastic Constant Matrix: (Units=GPa)
#
#
# Indices 1 2 3 4 5 6 
#
# 1 110.6218 14.0196 51.8396 -6.7160 0.7680 24.3854
# 2 14.0196 72.0523 16.7479 -16.5296 -7.1616 18.2790
# 3 51.8396 16.7479 158.8525 -11.3941 22.1840 17.2979
# 4 -6.7160 -16.5296 -11.3941 37.9472 -0.7732 -10.8263
# 5 0.7680 -7.1616 22.1840 -0.7732 50.6139 -1.5763
# 6 24.3854 18.2790 17.2979 -10.8263 -1.5763 45.9878
#
#
#
# Elastic Compliance Matrix: (Units=1/GPa)
#
#
# Indices 1 2 3 4 5 6 
#
# 1 0.011736 -0.000221 -0.003465 -0.000433 0.001150 -0.004894
# 2 -0.000221 0.016999 -0.001194 0.005711 0.002872 -0.004747
# 3 -0.003465 -0.001194 0.008220 0.001072 -0.003723 -0.000655
# 4 -0.000433 0.005711 0.001072 0.030463 0.000959 0.004761
# 5 0.001150 0.002872 -0.003723 0.000959 0.021812 0.000622
# 6 -0.004894 -0.004747 -0.000655 0.004761 0.000622 0.027615
#
#
# Mechanical properties :
#
#
# Convention : Reuss Voigt Hill
#
# Bulk Modulus (GPa) = 36.77350 56.30454 46.53902
# Shear Modulus (GPa) = 36.85302 44.17107 40.51204
#
# Velocity S-wave (km/s) = 3.64647 3.99213 3.82321
# Velocity P-wave (km/s) = 5.56750 6.44705 6.02335
#
# Compressibility (1/GPa) = 0.02719350
#
# Stress axis : x y z
#
# Youngs Moduli (GPa) = 85.20433 58.82529 121.65226
#
# Poissons Ratio (x) = 0.01302 0.42158
# Poissons Ratio (y) = 0.01886 0.14531
# Poissons Ratio (z) = 0.29527 0.07026
#
# Static dielectric constant tensor:
#      x y z
#    x 5.818380 0.280790 -0.621430 
#    y 0.280790 4.553200 0.210150 
#    z -0.621430 0.210150 5.303570 
# 
# 
# High freq. dielectric constant tensor:
#      x y z
#    x 2.133300 0.000210 0.015460 
#    y 0.000210 2.110050 -0.009700 
#    z 0.015460 -0.009700 2.139760 
# 
# From -- ./inp_files/83133.got.cif
#   From: 2010.06.25/outbox.cif.g09.slc.cpg/sg2_42_cif.got.tgz:83133.got - 2010.06.27 13:26:56.
