data_PCOD8037779
_publ_section_title
;
Structure prediction by ZEFSAII (Michael W. Deem and Ramdas Pophale) SiO2 
 PCOD8037779
Probable space group: P -1
;
_chemical_formula_sum "Si O2"
_cell_formula_units_Z 16
_cell_length_a 27.272449
_cell_length_b 27.241774
_cell_length_c 8.648890
_cell_angle_alpha 142.101402
_cell_angle_beta 142.260693
_cell_angle_gamma 10.452803
_cell_volume 709.758713
_symmetry_space_group_name_H-M "P -1"
_symmetry_group_IT_number 2
_symmetry_cell_setting 'triclinic'
loop_
_space_group_symop_operation_xyz
x,y,z
-x,-y,-z
loop_
_atom_site_type_symbol
_atom_site_label
_atom_site_fract_x
_atom_site_fract_y
_atom_site_fract_z
Si Si1 0.230783 0.725840 0.964130
Si Si2 0.192830 0.092623 0.560096
Si Si3 0.492808 0.715554 0.863849
Si Si4 0.262884 0.760795 0.459423
Si Si5 0.057986 0.414262 0.602120
Si Si6 0.661674 0.555154 0.535600
Si Si7 0.964874 0.748320 0.795366
Si Si8 0.593452 0.943113 0.928849
O O1 0.204846 0.658466 0.690067
O O2 0.500000 0.500000 0.000000
O O3 0.226247 0.739204 0.168406
O O4 0.000000 0.000000 0.000000
O O5 0.125528 0.154147 0.364253
O O6 0.911345 0.372354 0.647709
O O7 0.381919 0.835600 0.437597
O O8 0.381755 0.985878 0.815869
O O9 0.331104 0.786377 0.646677
O O10 0.600719 0.628279 0.744177
O O11 0.754159 0.470499 0.020463
O O12 0.276600 0.990053 0.047517
O O13 0.500000 0.500000 0.500000
O O14 0.000000 0.000000 0.500000
O O15 0.984574 0.391343 0.380468
O O16 0.000000 0.500000 0.500000
O O17 0.881461 0.630198 0.824121
O O18 0.375041 0.128351 0.714263
O O19 0.500000 0.000000 0.000000
#
# Coordination Sequence:
#
# PCOD8037779 Si02
#       8
#     2   2   2   2   2   2   2   2
#     4  12  26  50  75 103 146 191 245 299 356 430
#     4  12  28  47  75 109 144 195 246 302 367 434
#     4  12  28  49  73 107 151 192 237 304 372 434
#     4  12  28  48  75 108 145 193 242 295 364 434
#     4  12  28  48  75 109 148 197 247 301 367 434
#     4  12  28  48  76 108 146 195 244 301 369 432
#     4  12  28  48  74 108 153 191 242 304 371 435
#     4  12  26  50  75 103 148 196 251 303 360 431
#
# _framework density 22.542873
#
# number of rings (size 3 to 8) (size 9 to 14) (size 15 to 20)
#    0.000    0.000    2.500    6.000   14.000    0.000 
#    0.000    0.000    0.000    0.000    0.000    0.000 
#    0.000    0.000    0.000    0.000    0.000    0.000 
#
# Total GULP energy -198478.487721 kJ/mol
# GULP energy per Si atom -12404.905483 kJ/mol
# Density = 2.249156 g / cm^3
# Si number density = 22.542873 Si / 1000 Ang^3
#
#
#
# Elastic Constant Matrix: (Units=GPa)
#
#
# Indices 1 2 3 4 5 6 
#
# 1 130.4393 44.3849 37.7429 5.6029 -17.4316 -2.8150
# 2 44.3849 150.9203 32.4502 7.5484 -9.2397 -2.1713
# 3 37.7429 32.4502 106.4638 9.4939 -8.9846 -4.2139
# 4 5.6029 7.5484 9.4939 48.3520 -2.9295 -0.1898
# 5 -17.4316 -9.2397 -8.9846 -2.9295 36.3897 0.7946
# 6 -2.8150 -2.1713 -4.2139 -0.1898 0.7946 51.9681
#
#
#
# Elastic Compliance Matrix: (Units=1/GPa)
#
#
# Indices 1 2 3 4 5 6 
#
# 1 0.009544 -0.002063 -0.002450 -0.000094 0.003432 0.000179
# 2 -0.002063 0.007617 -0.001487 -0.000626 0.000527 0.000076
# 3 -0.002450 -0.001487 0.010967 -0.001573 0.001015 0.000673
# 4 -0.000094 -0.000626 -0.001573 0.021166 0.001114 -0.000099
# 5 0.003432 0.000527 0.001015 0.001114 0.029602 -0.000158
# 6 0.000179 0.000076 0.000673 -0.000099 -0.000158 0.019312
#
#
# Mechanical properties :
#
#
# Convention : Reuss Voigt Hill
#
# Bulk Modulus (GPa) = 61.99985 68.55327 65.27656
# Shear Modulus (GPa) = 43.25898 45.55830 44.40864
#
# Velocity S-wave (km/s) = 4.38535 4.50039 4.44324
# Velocity P-wave (km/s) = 7.29414 7.58161 7.43927
#
# Compressibility (1/GPa) = 0.01612907
#
# Stress axis : x y z
#
# Youngs Moduli (GPa) = 104.78282 131.28465 91.18109
#
# Poissons Ratio (x) = 0.27079 0.22335
# Poissons Ratio (y) = 0.21613 0.13560
# Poissons Ratio (z) = 0.25667 0.19524
#
# Static dielectric constant tensor:
#      x y z
#    x 4.125770 -0.263800 -0.051600 
#    y -0.263800 0.934620 0.722890 
#    z -0.051600 0.722890 4.002990 
# 
# 
# High freq. dielectric constant tensor:
#      x y z
#    x 1.903050 -0.004110 -0.002330 
#    y -0.004110 1.914760 0.001770 
#    z -0.002330 0.001770 1.899250 
# 
# From -- ./inp_files/358023.got.cif
#   From: 2010.06.25/outbox.cif.g09.slc.cpg/sg2_180_cif.got.tgz:358023.got - 2010.06.27 13:26:56.
