data_PCOD8037115
_publ_section_title
;
Structure prediction by ZEFSAII (Michael W. Deem and Ramdas Pophale) SiO2 
 PCOD8037115
Probable space group: P -1
;
_chemical_formula_sum "Si O2"
_cell_formula_units_Z 16
_cell_length_a 14.826460
_cell_length_b 16.596668
_cell_length_c 6.855814
_cell_angle_alpha 106.223492
_cell_angle_beta 63.642079
_cell_angle_gamma 151.923753
_cell_volume 685.730179
_symmetry_space_group_name_H-M "P -1"
_symmetry_group_IT_number 2
_symmetry_cell_setting 'triclinic'
loop_
_space_group_symop_operation_xyz
x,y,z
-x,-y,-z
loop_
_atom_site_type_symbol
_atom_site_label
_atom_site_fract_x
_atom_site_fract_y
_atom_site_fract_z
Si Si1 0.090010 0.651755 0.096136
Si Si2 0.475302 0.710163 0.691489
Si Si3 0.684342 0.078729 0.271755
Si Si4 0.650686 0.263251 0.848144
Si Si5 0.044291 0.937157 0.472426
Si Si6 0.066661 0.253451 0.204558
Si Si7 0.748027 0.461084 0.569793
Si Si8 0.710929 0.606441 0.302258
O O1 0.238785 0.743426 0.205866
O O2 0.910818 0.579026 0.311119
O O3 0.203903 0.780263 0.896138
O O4 0.000000 0.500000 0.000000
O O5 0.474101 0.717681 0.459282
O O6 0.353755 0.536650 0.745169
O O7 0.350181 0.690855 0.911762
O O8 0.706153 0.887610 0.684831
O O9 0.863826 0.166294 0.295025
O O10 0.500000 0.000000 0.500000
O O11 0.577420 0.923344 0.153243
O O12 0.784343 0.415981 0.665951
O O13 0.001976 0.879038 0.696941
O O14 0.906881 0.771005 0.367064
O O15 0.000000 0.000000 0.500000
O O16 0.239173 0.437635 0.279165
O O17 0.193138 0.302480 0.940089
O O18 0.500000 0.500000 0.500000
#
# Coordination Sequence:
#
# PCOD8037115 Si02
#       8
#     2   2   2   2   2   2   2   2
#     4  12  24  43  71 104 154 196 256 305 367 446
#     4  12  25  47  76 108 152 197 251 317 383 452
#     4  12  27  47  74 114 156 203 255 311 376 456
#     4  12  25  44  71 105 152 199 253 309 376 445
#     4  12  28  49  77 112 148 193 255 318 386 457
#     4  12  27  48  79 109 152 203 253 310 389 457
#     4  12  24  45  73 107 148 205 249 311 375 450
#     4  12  26  54  77 109 153 195 254 326 387 457
#
# _framework density 23.332792000000001
#
# number of rings (size 3 to 8) (size 9 to 14) (size 15 to 20)
#    0.000    0.000    5.000    5.250    3.500    1.000 
#    2.250    0.000    0.000    0.000    0.000    0.000 
#    0.000    0.000    0.000    0.000    0.000    0.000 
#
# Total GULP energy -198241.202836 kJ/mol
# GULP energy per Si atom -12390.075177 kJ/mol
# Density = 2.327969 g / cm^3
# Si number density = 23.332792 Si / 1000 Ang^3
#
#
#
# Elastic Constant Matrix: (Units=GPa)
#
#
# Indices 1 2 3 4 5 6 
#
# 1 121.2689 33.4668 55.4012 -16.7085 21.8795 -3.6080
# 2 33.4668 135.6020 41.9377 2.0129 5.5589 4.1018
# 3 55.4012 41.9377 134.5089 -9.0479 11.1252 -0.3670
# 4 -16.7085 2.0129 -9.0479 41.1291 -6.6033 7.1806
# 5 21.8795 5.5589 11.1252 -6.6033 46.9300 -9.0196
# 6 -3.6080 4.1018 -0.3670 7.1806 -9.0196 43.7904
#
#
#
# Elastic Compliance Matrix: (Units=1/GPa)
#
#
# Indices 1 2 3 4 5 6 
#
# 1 0.011536 -0.001581 -0.003710 0.003373 -0.003892 -0.000287
# 2 -0.001581 0.008453 -0.002071 -0.001402 -0.000111 -0.000732
# 3 -0.003710 -0.002071 0.009677 0.000717 -0.000257 -0.000201
# 4 0.003373 -0.001402 0.000717 0.026790 0.001488 -0.003671
# 5 -0.003892 -0.000111 -0.000257 0.001488 0.024260 0.004440
# 6 -0.000287 -0.000732 -0.000201 -0.003671 0.004440 0.024396
#
#
# Mechanical properties :
#
#
# Convention : Reuss Voigt Hill
#
# Bulk Modulus (GPa) = 66.93345 72.55458 69.74402
# Shear Modulus (GPa) = 40.05838 43.74151 41.89995
#
# Velocity S-wave (km/s) = 4.14796 4.33445 4.24223
# Velocity P-wave (km/s) = 7.18954 7.49754 7.34515
#
# Compressibility (1/GPa) = 0.01494021
#
# Stress axis : x y z
#
# Youngs Moduli (GPa) = 86.68514 118.30258 103.33417
#
# Poissons Ratio (x) = 0.18709 0.38341
# Poissons Ratio (y) = 0.13709 0.21403
# Poissons Ratio (z) = 0.32163 0.24503
#
# Static dielectric constant tensor:
#      x y z
#    x 1.869790 0.028360 -2.165150 
#    y 0.028360 4.634970 0.012110 
#    z -2.165150 0.012110 2.151330 
# 
# 
# High freq. dielectric constant tensor:
#      x y z
#    x 1.924510 0.004350 0.015550 
#    y 0.004350 1.943710 0.008640 
#    z 0.015550 0.008640 1.924830 
# 
# From -- ./inp_files/99801.got.cif
#   From: 2010.06.25/outbox.cif.g09.slc.cpg/sg2_50_cif.got.tgz:99801.got - 2010.06.27 13:26:56.
