data_PCOD8037103
_publ_section_title
;
Structure prediction by ZEFSAII (Michael W. Deem and Ramdas Pophale) SiO2 
 PCOD8037103
Probable space group: P -1
;
_chemical_formula_sum "Si O2"
_cell_formula_units_Z 10
_cell_length_a 8.354198
_cell_length_b 7.415762
_cell_length_c 10.432521
_cell_angle_alpha 119.325965
_cell_angle_beta 138.348756
_cell_angle_gamma 78.554274
_cell_volume 358.502220
_symmetry_space_group_name_H-M "P -1"
_symmetry_group_IT_number 2
_symmetry_cell_setting 'triclinic'
loop_
_space_group_symop_operation_xyz
x,y,z
-x,-y,-z
loop_
_atom_site_type_symbol
_atom_site_label
_atom_site_fract_x
_atom_site_fract_y
_atom_site_fract_z
Si Si1 0.760650 0.603733 0.510913
Si Si2 0.465312 0.686409 0.947661
Si Si3 0.749299 0.327669 0.745688
Si Si4 0.148488 0.826777 0.994123
Si Si5 0.993022 0.047061 0.659305
O O1 0.735235 0.421134 0.323070
O O2 0.483561 0.582543 0.391846
O O3 0.934262 0.599143 0.740221
O O4 0.906314 0.838083 0.622987
O O5 0.356146 0.863015 0.016319
O O6 0.500000 0.500000 0.000000
O O7 0.728547 0.809528 0.081333
O O8 0.795679 0.184980 0.606193
O O9 0.684593 0.183820 0.786332
O O10 0.000000 0.500000 0.000000
O O11 0.000000 0.000000 0.000000
O O12 0.000000 0.000000 0.500000
#
# Coordination Sequence:
#
# PCOD8037103 Si02
#       5
#     2   2   2   2   2
#     4  12  26  47  76 104 150 193 244 302 367 436
#     4  12  24  49  72 107 151 192 244 299 364 440
#     4  12  25  50  74 107 150 194 245 302 367 441
#     4  12  27  47  75 111 148 191 248 306 363 436
#     4  12  24  42  76 107 142 199 239 299 368 430
#
# _framework density 27.893827999999999
#
# number of rings (size 3 to 8) (size 9 to 14) (size 15 to 20)
#    0.000    0.000    8.000    1.200    2.800    1.600 
#    0.000    0.000    0.000    0.000    0.000    0.000 
#    0.000    0.000    0.000    0.000    0.000    0.000 
#
# Total GULP energy -123898.607056 kJ/mol
# GULP energy per Si atom -12389.860706 kJ/mol
# Density = 2.783034 g / cm^3
# Si number density = 27.893828 Si / 1000 Ang^3
#
#
#
# Elastic Constant Matrix: (Units=GPa)
#
#
# Indices 1 2 3 4 5 6 
#
# 1 149.5208 21.2399 32.8279 17.7954 -17.4445 -49.0588
# 2 21.2399 46.9271 -4.8284 9.2021 -6.0214 -20.1983
# 3 32.8279 -4.8284 134.4474 -1.3461 -20.3035 5.6846
# 4 17.7954 9.2021 -1.3461 50.0923 1.2242 -0.4662
# 5 -17.4445 -6.0214 -20.3035 1.2242 72.3831 19.3929
# 6 -49.0588 -20.1983 5.6846 -0.4662 19.3929 37.3035
#
#
#
# Elastic Compliance Matrix: (Units=1/GPa)
#
#
# Indices 1 2 3 4 5 6 
#
# 1 0.016485 0.004313 -0.005751 -0.006442 -0.004438 0.027118
# 2 0.004313 0.030449 -0.001517 -0.006867 -0.003151 0.023942
# 3 -0.005751 -0.001517 0.010014 0.002366 0.004536 -0.012239
# 4 -0.006442 -0.006867 0.002366 0.023414 0.001659 -0.013121
# 5 -0.004438 -0.003151 0.004536 0.001659 0.018506 -0.017834
# 6 0.027118 0.023942 -0.012239 -0.013121 -0.017834 0.086407
#
#
# Mechanical properties :
#
#
# Convention : Reuss Voigt Hill
#
# Bulk Modulus (GPa) = 19.59362 47.70823 33.65093
# Shear Modulus (GPa) = 24.01578 50.73284 37.37431
#
# Velocity S-wave (km/s) = 2.93741 4.26935 3.66440
# Velocity P-wave (km/s) = 4.30629 6.43768 5.47667
#
# Compressibility (1/GPa) = 0.05103701
#
# Stress axis : x y z
#
# Youngs Moduli (GPa) = 60.66294 32.84193 99.86158
#
# Poissons Ratio (x) = -0.14164 0.57434
# Poissons Ratio (y) = -0.26163 0.15144
# Poissons Ratio (z) = 0.34890 0.04981
#
# Static dielectric constant tensor:
#      x y z
#    x -2.056150 -7.966380 9.051640 
#    y -7.966380 -2.882130 9.034720 
#    z 9.051640 9.034720 -4.854820 
# 
# 
# High freq. dielectric constant tensor:
#      x y z
#    x 2.155060 -0.015140 -0.002590 
#    y -0.015140 2.098640 -0.006850 
#    z -0.002590 -0.006850 2.146620 
# 
# From -- ./inp_files/146746.got.cif
#   From: 2010.06.25/outbox.cif.g09.slc.cpg/sg2_74_cif.got.tgz:146746.got - 2010.06.27 13:26:56.
