data_PCOD8037828
_publ_section_title
;
Structure prediction by ZEFSAII (Michael W. Deem and Ramdas Pophale) SiO2 
 PCOD8037828
Probable space group: P -1
;
_chemical_formula_sum "Si O2"
_cell_formula_units_Z 16
_cell_length_a 10.725376
_cell_length_b 12.039799
_cell_length_c 8.634179
_cell_angle_alpha 126.292603
_cell_angle_beta 106.842808
_cell_angle_gamma 62.446077
_cell_volume 796.522821
_symmetry_space_group_name_H-M "P -1"
_symmetry_group_IT_number 2
_symmetry_cell_setting 'triclinic'
loop_
_space_group_symop_operation_xyz
x,y,z
-x,-y,-z
loop_
_atom_site_type_symbol
_atom_site_label
_atom_site_fract_x
_atom_site_fract_y
_atom_site_fract_z
Si Si1 0.577630 0.875301 0.801862
Si Si2 0.893639 0.235385 0.195600
Si Si3 0.158564 0.244226 0.720434
Si Si4 0.782708 0.610162 0.846164
Si Si5 0.143162 0.713482 0.413479
Si Si6 0.068647 0.502148 0.689079
Si Si7 0.713185 0.060032 0.358691
Si Si8 0.197787 0.016360 0.022624
O O1 0.666229 0.715604 0.775186
O O2 0.456992 0.858032 0.635407
O O3 0.686701 0.936693 0.806808
O O4 0.500000 0.000000 0.000000
O O5 0.900872 0.261349 0.402048
O O6 0.841476 0.391831 0.211854
O O7 0.788944 0.148592 0.055199
O O8 0.046877 0.136691 0.106822
O O9 0.164949 0.334692 0.640272
O O10 0.999101 0.258037 0.711310
O O11 0.248773 0.067267 0.600120
O O12 0.230257 0.313355 0.930218
O O13 0.753591 0.457654 0.718834
O O14 0.943031 0.574481 0.824177
O O15 0.220124 0.820259 0.470809
O O16 0.000000 0.500000 0.500000
O O17 0.776384 0.982221 0.152633
#
# Coordination Sequence:
#
# PCOD8037828 Si02
#       8
#     2   2   2   2   2   2   2   2
#     4  10  18  34  55  78 108 145 186 219 261 333
#     4  10  17  32  50  84 106 139 174 221 279 314
#     4  11  20  34  55  81 115 142 178 226 277 324
#     4  11  20  34  56  85 109 144 179 227 278 317
#     4  10  21  32  54  85 114 133 180 235 275 314
#     4  11  19  32  53  80 111 139 176 224 277 323
#     4  10  20  36  54  84 107 148 182 225 266 318
#     4   9  18  30  56  78 108 136 180 224 263 328
#
# _framework density 20.087309999999999
#
# number of rings (size 3 to 8) (size 9 to 14) (size 15 to 20)
#    0.000    1.750    6.250    1.875    0.000    0.500 
#    0.000    1.250    0.000    3.750    0.000    0.000 
#    0.000    1.000    0.000    0.000    0.000    0.000 
#
# Total GULP energy -198238.506822 kJ/mol
# GULP energy per Si atom -12389.906676 kJ/mol
# Density = 2.004159 g / cm^3
# Si number density = 20.087310 Si / 1000 Ang^3
#
#
#
# Elastic Constant Matrix: (Units=GPa)
#
#
# Indices 1 2 3 4 5 6 
#
# 1 79.7824 60.6798 25.3718 2.9585 28.8864 9.5400
# 2 60.6798 186.6563 42.9245 11.5151 36.9065 23.9582
# 3 25.3718 42.9245 52.6213 13.6379 23.0292 11.4653
# 4 2.9585 11.5151 13.6379 27.4155 4.9726 5.5816
# 5 28.8864 36.9065 23.0292 4.9726 27.9785 2.5102
# 6 9.5400 23.9582 11.4653 5.5816 2.5102 35.3414
#
#
#
# Elastic Compliance Matrix: (Units=1/GPa)
#
#
# Indices 1 2 3 4 5 6 
#
# 1 0.022028 -0.003291 0.000162 0.002923 -0.018795 -0.002895
# 2 -0.003291 0.008540 -0.001830 -0.000469 -0.005936 -0.003812
# 3 0.000162 -0.001830 0.035419 -0.011068 -0.024329 -0.006818
# 4 0.002923 -0.000469 -0.011068 0.042693 -0.000556 -0.003584
# 5 -0.018795 -0.005936 -0.024329 -0.000556 0.082092 0.011247
# 6 -0.002895 -0.003812 -0.006818 -0.003584 0.011247 0.033640
#
#
# Mechanical properties :
#
#
# Convention : Reuss Voigt Hill
#
# Bulk Modulus (GPa) = 17.83460 64.11244 40.97352
# Shear Modulus (GPa) = 19.76130 30.81935 25.29032
#
# Velocity S-wave (km/s) = 3.13991 3.92122 3.55212
# Velocity P-wave (km/s) = 4.69502 7.24483 6.10454
#
# Compressibility (1/GPa) = 0.05607078
#
# Stress axis : x y z
#
# Youngs Moduli (GPa) = 45.39592 117.09742 28.23326
#
# Poissons Ratio (x) = 0.38536 -0.00458
# Poissons Ratio (y) = 0.14939 0.05165
# Poissons Ratio (z) = -0.00736 0.21424
#
# Static dielectric constant tensor:
#      x y z
#    x 4.054600 0.416280 0.292570 
#    y 0.416280 4.342670 0.176880 
#    z 0.292570 0.176880 3.636190 
# 
# 
# High freq. dielectric constant tensor:
#      x y z
#    x 1.755810 0.019090 0.018770 
#    y 0.019090 1.788700 0.023460 
#    z 0.018770 0.023460 1.765690 
# 
# From -- ./inp_files/260208.got.cif
#   From: 2010.06.25/outbox.cif.g09.slc.cpg/sg2_131_cif.got.tgz:260208.got - 2010.06.27 13:26:56.
