data_PCOD8037467
_publ_section_title
;
Structure prediction by ZEFSAII (Michael W. Deem and Ramdas Pophale) SiO2 
 PCOD8037467
Probable space group: P -1
;
_chemical_formula_sum "Si O2"
_cell_formula_units_Z 14
_cell_length_a 15.314520
_cell_length_b 21.187684
_cell_length_c 21.924598
_cell_angle_alpha 12.858531
_cell_angle_beta 22.478506
_cell_angle_gamma 22.873120
_cell_volume 587.454141
_symmetry_space_group_name_H-M "P -1"
_symmetry_group_IT_number 2
_symmetry_cell_setting 'triclinic'
loop_
_space_group_symop_operation_xyz
x,y,z
-x,-y,-z
loop_
_atom_site_type_symbol
_atom_site_label
_atom_site_fract_x
_atom_site_fract_y
_atom_site_fract_z
Si Si1 0.509061 0.188517 0.974370
Si Si2 0.922711 0.120009 0.678429
Si Si3 0.039530 0.527871 0.781819
Si Si4 0.777627 0.253886 0.425987
Si Si5 0.248059 0.380247 0.423537
Si Si6 0.486628 0.154727 0.162597
Si Si7 0.327457 0.294019 0.321324
O O1 0.337133 0.517005 0.769689
O O2 0.562386 0.114511 0.080659
O O3 0.751678 0.165174 0.804041
O O4 0.402390 0.929120 0.260505
O O5 0.808353 0.334650 0.494829
O O6 0.152282 0.246467 0.425711
O O7 0.987933 0.788102 0.924340
O O8 0.792860 0.764856 0.726502
O O9 0.169093 0.524677 0.765905
O O10 0.000000 0.000000 0.500000
O O11 0.178355 0.348730 0.428178
O O12 0.000000 0.500000 0.500000
O O13 0.398032 0.120042 0.611902
O O14 0.414366 0.595989 0.106892
O O15 0.500000 0.000000 0.500000
O O16 0.500000 0.500000 0.000000
#
# Coordination Sequence:
#
# PCOD8037467 Si02
#       7
#     2   2   2   2   2   2   2
#     4  12  27  46  75 106 152 189 240 309 364 431
#     4  12  27  46  69 111 145 191 239 301 372 425
#     4  12  26  45  74 102 146 188 245 295 358 443
#     4  12  26  47  75 110 143 190 249 298 365 433
#     4  12  26  44  69 103 141 182 241 300 357 421
#     4  12  25  45  71 102 136 192 241 291 357 425
#     4  12  25  46  72 101 144 191 238 294 359 432
#
# _framework density 23.831647
#
# number of rings (size 3 to 8) (size 9 to 14) (size 15 to 20)
#    0.000    0.000    1.429    9.429    2.000    5.714 
#    0.000    0.000    0.000    0.000    0.000    0.000 
#    0.000    0.000    0.000    0.000    0.000    0.000 
#
# Total GULP energy -173477.525367 kJ/mol
# GULP energy per Si atom -12391.251812 kJ/mol
# Density = 2.377741 g / cm^3
# Si number density = 23.831647 Si / 1000 Ang^3
#
#
#
# Elastic Constant Matrix: (Units=GPa)
#
#
# Indices 1 2 3 4 5 6 
#
# 1 118.6882 22.1279 45.3002 -4.3570 2.9542 19.4854
# 2 22.1279 71.4328 27.9039 -1.5665 -3.0076 13.5763
# 3 45.3002 27.9039 177.5526 -14.2949 7.0649 0.0015
# 4 -4.3570 -1.5665 -14.2949 44.0982 -0.4039 7.1738
# 5 2.9542 -3.0076 7.0649 -0.4039 46.4547 1.5452
# 6 19.4854 13.5763 0.0015 7.1738 1.5452 41.4720
#
#
#
# Elastic Compliance Matrix: (Units=1/GPa)
#
#
# Indices 1 2 3 4 5 6 
#
# 1 0.010373 -0.001422 -0.002337 0.000957 -0.000236 -0.004565
# 2 -0.001422 0.016305 -0.002224 0.000517 0.001649 -0.004820
# 3 -0.002337 -0.002224 0.006750 0.001610 -0.001061 0.001586
# 4 0.000957 0.000517 0.001610 0.024092 0.000097 -0.004790
# 5 -0.000236 0.001649 -0.001061 0.000097 0.021852 -0.001260
# 6 -0.004565 -0.004820 0.001586 -0.004790 -0.001260 0.028711
#
#
# Mechanical properties :
#
#
# Convention : Reuss Voigt Hill
#
# Bulk Modulus (GPa) = 46.59078 62.03751 54.31415
# Shear Modulus (GPa) = 39.30789 44.56109 41.93449
#
# Velocity S-wave (km/s) = 4.06569 4.32884 4.19933
# Velocity P-wave (km/s) = 6.45230 7.14655 6.80828
#
# Compressibility (1/GPa) = 0.02146347
#
# Stress axis : x y z
#
# Youngs Moduli (GPa) = 96.40639 61.33017 148.15765
#
# Poissons Ratio (x) = 0.08720 0.34617
# Poissons Ratio (y) = 0.13708 0.32945
# Poissons Ratio (z) = 0.22525 0.13638
#
# Static dielectric constant tensor:
#      x y z
#    x 4.445140 -0.068040 0.010170 
#    y -0.068040 4.185790 0.125180 
#    z 0.010170 0.125180 4.395110 
# 
# 
# High freq. dielectric constant tensor:
#      x y z
#    x 1.961420 0.007960 0.004490 
#    y 0.007960 1.944080 0.004080 
#    z 0.004490 0.004080 1.968770 
# 
# From -- ./inp_files/613330.got.cif
#   From: 2010.06.25/outbox.cif.g09.slc.cpg/sg2_307_cif.got.tgz:613330.got - 2010.06.27 13:26:56.
