data_PCOD8037425
_publ_section_title
;
Structure prediction by ZEFSAII (Michael W. Deem and Ramdas Pophale) SiO2 
 PCOD8037425
Probable space group: P -1
;
_chemical_formula_sum "Si O2"
_cell_formula_units_Z 16
_cell_length_a 5.374553
_cell_length_b 8.753573
_cell_length_c 20.330713
_cell_angle_alpha 120.102119
_cell_angle_beta 53.887302
_cell_angle_gamma 101.797570
_cell_volume 662.787440
_symmetry_space_group_name_H-M "P -1"
_symmetry_group_IT_number 2
_symmetry_cell_setting 'triclinic'
loop_
_space_group_symop_operation_xyz
x,y,z
-x,-y,-z
loop_
_atom_site_type_symbol
_atom_site_label
_atom_site_fract_x
_atom_site_fract_y
_atom_site_fract_z
Si Si1 0.204952 0.902116 0.035581
Si Si2 0.376204 0.043112 0.351667
Si Si3 0.726563 0.202508 0.220353
Si Si4 0.317303 0.589088 0.854016
Si Si5 0.780482 0.353382 0.902659
Si Si6 0.817676 0.582755 0.482377
Si Si7 0.021119 0.501020 0.293473
Si Si8 0.942587 0.822769 0.296588
O O1 0.213438 0.805733 0.082426
O O2 0.171008 0.761759 0.953743
O O3 0.909703 0.050026 0.114060
O O4 0.500000 0.000000 0.000000
O O5 0.465754 0.121628 0.284285
O O6 0.255617 0.205132 0.453178
O O7 0.661861 0.925673 0.319204
O O8 0.089231 0.937326 0.354939
O O9 0.615293 0.359517 0.220629
O O10 0.922083 0.302758 0.264000
O O11 0.663574 0.505854 0.801505
O O12 0.098035 0.440260 0.868955
O O13 0.769076 0.255152 0.813206
O O14 0.500000 0.500000 0.000000
O O15 0.500000 0.500000 0.500000
O O16 0.000000 0.500000 0.500000
O O17 0.042872 0.547363 0.376949
O O18 0.808041 0.661254 0.322328
#
# Coordination Sequence:
#
# PCOD8037425 Si02
#       8
#     2   2   2   2   2   2   2   2
#     4  12  25  42  69 106 145 193 260 313 377 454
#     4  12  28  49  79 112 152 203 254 321 384 452
#     4  12  25  44  72 106 145 199 252 316 378 457
#     4  12  26  47  71 107 152 206 254 315 394 453
#     4  12  26  46  72 106 152 207 259 314 385 458
#     4  12  27  49  82 120 154 198 255 320 388 456
#     4  12  27  49  77 107 154 198 257 316 385 462
#     4  12  28  50  75 112 155 203 255 317 386 451
#
# _framework density 24.140467999999998
#
# number of rings (size 3 to 8) (size 9 to 14) (size 15 to 20)
#    0.000    0.000    5.000    4.500    5.250    1.000 
#    0.000    0.000    0.000    0.000    0.000    0.000 
#    0.000    0.000    0.000    0.000    0.000    0.000 
#
# Total GULP energy -198284.691621 kJ/mol
# GULP energy per Si atom -12392.793226 kJ/mol
# Density = 2.408552 g / cm^3
# Si number density = 24.140468 Si / 1000 Ang^3
#
#
#
# Elastic Constant Matrix: (Units=GPa)
#
#
# Indices 1 2 3 4 5 6 
#
# 1 94.4697 32.1927 12.9897 12.1161 10.3566 -2.4249
# 2 32.1927 133.7512 21.3544 -0.8151 6.9848 -8.1108
# 3 12.9897 21.3544 130.6405 24.3338 22.3911 0.2717
# 4 12.1161 -0.8151 24.3338 43.9617 1.2030 9.6898
# 5 10.3566 6.9848 22.3911 1.2030 38.2138 -1.1711
# 6 -2.4249 -8.1108 0.2717 9.6898 -1.1711 47.0910
#
#
#
# Elastic Compliance Matrix: (Units=1/GPa)
#
#
# Indices 1 2 3 4 5 6 
#
# 1 0.012330 -0.002858 0.000452 -0.003809 -0.002938 0.000851
# 2 -0.002858 0.008454 -0.001380 0.001485 0.000022 0.001012
# 3 0.000452 -0.001380 0.009804 -0.005593 -0.005416 0.000745
# 4 -0.003809 0.001485 -0.005593 0.028075 0.002982 -0.005611
# 5 -0.002938 0.000022 -0.005416 0.002982 0.030041 0.000017
# 6 0.000851 0.001012 0.000745 -0.005611 0.000017 0.022604
#
#
# Mechanical properties :
#
#
# Convention : Reuss Voigt Hill
#
# Bulk Modulus (GPa) = 43.44838 54.65944 49.05391
# Shear Modulus (GPa) = 39.50975 45.34162 42.42569
#
# Velocity S-wave (km/s) = 4.04996 4.33857 4.19674
# Velocity P-wave (km/s) = 6.31718 6.91296 6.62177
#
# Compressibility (1/GPa) = 0.02301582
#
# Stress axis : x y z
#
# Youngs Moduli (GPa) = 81.10586 118.28604 102.00258
#
# Poissons Ratio (x) = 0.33807 -0.04616
# Poissons Ratio (y) = 0.23180 0.14078
# Poissons Ratio (z) = -0.03670 0.16326
#
# Static dielectric constant tensor:
#      x y z
#    x 5.402740 -3.512790 -4.794000 
#    y -3.512790 13.953410 13.574880 
#    z -4.794000 13.574880 24.034680 
# 
# 
# High freq. dielectric constant tensor:
#      x y z
#    x 1.944560 -0.006530 0.014520 
#    y -0.006530 1.984390 0.007640 
#    z 0.014520 0.007640 1.971660 
# 
# From -- ./inp_files/550049.got.cif
#   From: 2010.06.25/outbox.cif.g09.slc.cpg/sg2_276_cif.got.tgz:550049.got - 2010.06.27 13:26:56.
