data_PCOD8037138
_publ_section_title
;
Structure prediction by ZEFSAII (Michael W. Deem and Ramdas Pophale) SiO2 
 PCOD8037138
Probable space group: P -1
;
_chemical_formula_sum "Si O2"
_cell_formula_units_Z 12
_cell_length_a 8.098900
_cell_length_b 21.652807
_cell_length_c 21.970806
_cell_angle_alpha 167.368747
_cell_angle_beta 143.880566
_cell_angle_gamma 36.796801
_cell_volume 494.297546
_symmetry_space_group_name_H-M "P -1"
_symmetry_group_IT_number 2
_symmetry_cell_setting 'triclinic'
loop_
_space_group_symop_operation_xyz
x,y,z
-x,-y,-z
loop_
_atom_site_type_symbol
_atom_site_label
_atom_site_fract_x
_atom_site_fract_y
_atom_site_fract_z
Si Si1 0.343365 0.030271 0.862325
Si Si2 0.695039 0.909760 0.413908
Si Si3 0.586140 0.267643 0.962841
Si Si4 0.741213 0.493347 0.460784
Si Si5 0.952225 0.735492 0.553634
Si Si6 0.926962 0.651227 0.025071
O O1 0.156069 0.154505 0.870500
O O2 0.563784 0.780510 0.665997
O O3 0.532144 0.254974 0.162736
O O4 0.139684 0.915883 0.741104
O O5 0.510364 0.824214 0.220508
O O6 0.500000 0.000000 0.500000
O O7 0.858235 0.185450 0.712316
O O8 0.927348 0.645822 0.242658
O O9 0.339280 0.392620 0.054344
O O10 0.746582 0.978319 0.760949
O O11 0.784151 0.522139 0.258095
O O12 0.000000 0.500000 0.500000
O O13 0.859838 0.466094 0.538219
#
# Coordination Sequence:
#
# PCOD8037138 Si02
#       6
#     2   2   2   2   2   2
#     4  12  25  43  68 101 138 181 228 284 343 408
#     4  12  26  45  71 104 139 181 231 289 347 410
#     4  12  25  46  71 102 139 184 232 286 345 411
#     4  12  24  44  69 100 137 182 230 283 341 409
#     4  12  25  44  69 102 140 183 230 286 345 410
#     4  12  25  46  71 103 139 183 232 286 345 412
#
# _framework density 24.276875
#
# number of rings (size 3 to 8) (size 9 to 14) (size 15 to 20)
#    0.000    0.000    0.000   11.000    0.000    2.667 
#    0.000    0.000    0.000    0.000    0.000    0.000 
#    0.000    0.000    0.000    0.000    0.000    0.000 
#
# Total GULP energy -148819.492949 kJ/mol
# GULP energy per Si atom -12401.624412 kJ/mol
# Density = 2.422162 g / cm^3
# Si number density = 24.276875 Si / 1000 Ang^3
#
#
#
# Elastic Constant Matrix: (Units=GPa)
#
#
# Indices 1 2 3 4 5 6 
#
# 1 125.1461 44.0678 42.3062 -7.7730 -0.3524 -0.4038
# 2 44.0678 88.7215 31.9159 2.4543 -9.0474 -9.6019
# 3 42.3062 31.9159 143.1137 -9.3005 1.2204 -19.8578
# 4 -7.7730 2.4543 -9.3005 63.1663 -19.1102 -6.1781
# 5 -0.3524 -9.0474 1.2204 -19.1102 46.4311 4.5357
# 6 -0.4038 -9.6019 -19.8578 -6.1781 4.5357 40.3871
#
#
#
# Elastic Compliance Matrix: (Units=1/GPa)
#
#
# Indices 1 2 3 4 5 6 
#
# 1 0.010432 -0.004624 -0.002265 0.000875 -0.000212 -0.001951
# 2 -0.004624 0.014667 -0.001633 -0.000406 0.002474 0.002298
# 3 -0.002265 -0.001633 0.008682 0.001340 -0.000413 0.004109
# 4 0.000875 -0.000406 0.001340 0.018615 0.007300 0.002599
# 5 -0.000212 0.002474 -0.000413 0.007300 0.025163 -0.001326
# 6 -0.001951 0.002298 0.004109 0.002599 -0.001326 0.027854
#
#
# Mechanical properties :
#
#
# Convention : Reuss Voigt Hill
#
# Bulk Modulus (GPa) = 59.74141 65.95124 62.84633
# Shear Modulus (GPa) = 39.05191 45.90965 42.48078
#
# Velocity S-wave (km/s) = 4.01509 4.35338 4.18765
# Velocity P-wave (km/s) = 6.79385 7.24531 7.02321
#
# Compressibility (1/GPa) = 0.01673881
#
# Stress axis : x y z
#
# Youngs Moduli (GPa) = 95.86017 68.17821 115.18314
#
# Poissons Ratio (x) = 0.31524 0.26085
# Poissons Ratio (y) = 0.44323 0.18807
# Poissons Ratio (z) = 0.21709 0.11132
#
# Static dielectric constant tensor:
#      x y z
#    x 4.395760 0.111620 0.185800 
#    y 0.111620 6.044370 0.622510 
#    z 0.185800 0.622510 4.988790 
# 
# 
# High freq. dielectric constant tensor:
#      x y z
#    x 1.963990 -0.016690 0.005490 
#    y -0.016690 1.987140 0.003900 
#    z 0.005490 0.003900 1.988970 
# 
# From -- ./inp_files/355420.got.cif
#   From: 2010.06.25/outbox.cif.g09.slc.cpg/sg2_178_cif.got.tgz:355420.got - 2010.06.27 13:26:56.
