data_PCOD8037155
_publ_section_title
;
Structure prediction by ZEFSAII (Michael W. Deem and Ramdas Pophale) SiO2 
 PCOD8037155
Probable space group: P -1
;
_chemical_formula_sum "Si O2"
_cell_formula_units_Z 16
_cell_length_a 19.194720
_cell_length_b 8.358633
_cell_length_c 12.164376
_cell_angle_alpha 32.681602
_cell_angle_beta 136.883886
_cell_angle_gamma 126.320667
_cell_volume 718.988120
_symmetry_space_group_name_H-M "P -1"
_symmetry_group_IT_number 2
_symmetry_cell_setting 'triclinic'
loop_
_space_group_symop_operation_xyz
x,y,z
-x,-y,-z
loop_
_atom_site_type_symbol
_atom_site_label
_atom_site_fract_x
_atom_site_fract_y
_atom_site_fract_z
Si Si1 0.927580 0.743641 0.332054
Si Si2 0.830971 0.861485 0.372256
Si Si3 0.406875 0.303203 0.527574
Si Si4 0.656974 0.455195 0.459351
Si Si5 0.540976 0.393467 0.992073
Si Si6 0.267077 0.226093 0.052731
Si Si7 0.221647 0.451623 0.097308
Si Si8 0.927138 0.777634 0.768456
O O1 0.917607 0.732530 0.460585
O O2 0.000000 0.500000 0.500000
O O3 0.811264 0.765669 0.143160
O O4 0.990860 0.012282 0.212050
O O5 0.736133 0.652191 0.372660
O O6 0.875237 0.872627 0.538863
O O7 0.796534 0.198064 0.104852
O O8 0.500000 0.500000 0.500000
O O9 0.340261 0.442854 0.470364
O O10 0.339064 0.343565 0.317016
O O11 0.439702 0.960598 0.784895
O O12 0.687880 0.107923 0.682905
O O13 0.542723 0.515402 0.248438
O O14 0.500000 0.500000 0.000000
O O15 0.644388 0.552029 0.995902
O O16 0.200602 0.353931 0.005210
O O17 0.156879 0.258428 0.215248
O O18 0.000000 0.500000 0.000000
#
# Coordination Sequence:
#
# PCOD8037155 Si02
#       8
#     2   2   2   2   2   2   2   2
#     4  12  28  44  72 103 144 189 241 296 354 419
#     4  12  25  49  73 105 143 186 240 298 356 423
#     4  12  24  44  72 106 139 185 239 287 353 428
#     4  12  24  45  72 105 142 183 237 293 358 428
#     4  12  25  45  72 104 149 188 232 295 360 428
#     4  12  27  46  69 109 144 191 237 294 360 426
#     4  12  26  46  74 102 146 186 237 295 357 426
#     4  12  26  48  73 103 138 191 243 295 359 415
#
# _framework density 22.253495999999998
#
# number of rings (size 3 to 8) (size 9 to 14) (size 15 to 20)
#    0.000    0.000    2.500    7.875    5.250    0.500 
#    0.000    0.000    0.000    0.000    0.000    0.000 
#    0.000    0.000    0.000    0.000    0.000    0.000 
#
# Total GULP energy -198394.178854 kJ/mol
# GULP energy per Si atom -12399.636178 kJ/mol
# Density = 2.220285 g / cm^3
# Si number density = 22.253496 Si / 1000 Ang^3
#
#
#
# Elastic Constant Matrix: (Units=GPa)
#
#
# Indices 1 2 3 4 5 6 
#
# 1 152.8342 56.9185 33.6450 -21.2026 -9.4062 -0.3836
# 2 56.9185 139.7175 45.5777 -24.5104 0.7962 21.2726
# 3 33.6450 45.5777 104.2566 -14.3040 8.3525 11.1773
# 4 -21.2026 -24.5104 -14.3040 52.2183 -2.8942 5.2930
# 5 -9.4062 0.7962 8.3525 -2.8942 37.8248 -1.2027
# 6 -0.3836 21.2726 11.1773 5.2930 -1.2027 55.6840
#
#
#
# Elastic Compliance Matrix: (Units=1/GPa)
#
#
# Indices 1 2 3 4 5 6 
#
# 1 0.008334 -0.002808 -0.001594 0.001639 0.002652 0.001352
# 2 -0.002808 0.010354 -0.002747 0.003337 -0.000173 -0.003744
# 3 -0.001594 -0.002747 0.011885 0.001313 -0.002911 -0.001535
# 4 0.001639 0.003337 0.001313 0.022197 0.001631 -0.003602
# 5 0.002652 -0.000173 -0.002911 0.001631 0.027904 0.001117
# 6 0.001352 -0.003744 -0.001535 -0.003602 0.001117 0.020073
#
#
# Mechanical properties :
#
#
# Convention : Reuss Voigt Hill
#
# Bulk Modulus (GPa) = 61.44874 74.34342 67.89608
# Shear Modulus (GPa) = 41.50375 46.52323 44.01349
#
# Velocity S-wave (km/s) = 4.32330 4.57727 4.45210
# Velocity P-wave (km/s) = 7.25219 7.83679 7.55015
#
# Compressibility (1/GPa) = 0.01627373
#
# Stress axis : x y z
#
# Youngs Moduli (GPa) = 119.99209 96.58093 84.13930
#
# Poissons Ratio (x) = 0.27124 0.13414
# Poissons Ratio (y) = 0.33699 0.23113
# Poissons Ratio (z) = 0.19129 0.26530
#
# Static dielectric constant tensor:
#      x y z
#    x 4.284840 0.112380 -0.009650 
#    y 0.112380 4.317190 0.057330 
#    z -0.009650 0.057330 4.091880 
# 
# 
# High freq. dielectric constant tensor:
#      x y z
#    x 1.895090 0.002590 0.001050 
#    y 0.002590 1.899980 -0.002670 
#    z 0.001050 -0.002670 1.882690 
# 
# From -- ./inp_files/39103.got.cif
#   From: 2010.06.25/outbox.cif.g09.slc.cpg/sg2_20_cif.got.tgz:39103.got - 2010.06.27 13:26:56.
