data_PCOD8037368
_publ_section_title
;
Structure prediction by ZEFSAII (Michael W. Deem and Ramdas Pophale) SiO2 
 PCOD8037368
Probable space group: P -1
;
_chemical_formula_sum "Si O2"
_cell_formula_units_Z 16
_cell_length_a 9.505939
_cell_length_b 8.386729
_cell_length_c 14.456290
_cell_angle_alpha 74.798781
_cell_angle_beta 45.983005
_cell_angle_gamma 98.083150
_cell_volume 708.009792
_symmetry_space_group_name_H-M "P -1"
_symmetry_group_IT_number 2
_symmetry_cell_setting 'triclinic'
loop_
_space_group_symop_operation_xyz
x,y,z
-x,-y,-z
loop_
_atom_site_type_symbol
_atom_site_label
_atom_site_fract_x
_atom_site_fract_y
_atom_site_fract_z
Si Si1 0.240316 0.534877 0.905381
Si Si2 0.593717 0.162551 0.860470
Si Si3 0.106375 0.774419 0.589318
Si Si4 0.490844 0.682822 0.442320
Si Si5 0.627030 0.794837 0.557247
Si Si6 0.239417 0.171012 0.886733
Si Si7 0.015595 0.311099 0.536566
Si Si8 0.287746 0.524961 0.092338
O O1 0.414262 0.693447 0.735164
O O2 0.235214 0.337188 0.921812
O O3 0.286599 0.608340 0.979085
O O4 0.000000 0.500000 0.000000
O O5 0.397106 0.118538 0.884572
O O6 0.798018 0.162523 0.712011
O O7 0.696017 0.352304 0.844156
O O8 0.500000 0.000000 0.000000
O O9 0.254690 0.666580 0.523136
O O10 0.970371 0.759668 0.560967
O O11 0.934076 0.672709 0.766312
O O12 0.239351 0.993137 0.507753
O O13 0.500000 0.500000 0.500000
O O14 0.561909 0.814695 0.479473
O O15 0.659941 0.763854 0.269650
O O16 0.766254 0.675792 0.514240
O O17 0.000000 0.000000 0.000000
O O18 0.000000 0.500000 0.500000
O O19 0.500000 0.500000 0.000000
#
# Coordination Sequence:
#
# PCOD8037368 Si02
#       8
#     2   2   2   2   2   2   2   2
#     4  12  28  47  73 109 156 197 241 303 375 445
#     4  12  29  48  76 110 147 195 249 310 372 441
#     4  12  27  46  73 108 148 196 245 309 369 440
#     4  12  26  48  76 104 146 197 254 301 365 440
#     4  12  28  46  74 110 148 195 249 303 373 443
#     4  12  29  50  75 109 149 195 250 309 369 445
#     4  12  24  48  75 103 147 192 251 306 364 435
#     4  12  27  46  74 104 154 194 242 303 379 439
#
# _framework density 22.598559000000002
#
# number of rings (size 3 to 8) (size 9 to 14) (size 15 to 20)
#    0.000    0.000    5.000    3.750   10.500    0.000 
#    0.000    0.000    0.000    0.000    0.000    0.000 
#    0.000    0.000    0.000    0.000    0.000    0.000 
#
# Total GULP energy -198351.898360 kJ/mol
# GULP energy per Si atom -12396.993648 kJ/mol
# Density = 2.254712 g / cm^3
# Si number density = 22.598559 Si / 1000 Ang^3
#
#
#
# Elastic Constant Matrix: (Units=GPa)
#
#
# Indices 1 2 3 4 5 6 
#
# 1 136.3557 4.4311 65.6431 8.4173 4.8892 9.7257
# 2 4.4311 62.2140 33.2173 -8.4550 3.5865 3.3813
# 3 65.6431 33.2173 190.4040 0.4472 1.1718 -6.2793
# 4 8.4173 -8.4550 0.4472 41.2851 1.8791 2.1422
# 5 4.8892 3.5865 1.1718 1.8791 47.9902 10.4233
# 6 9.7257 3.3813 -6.2793 2.1422 10.4233 47.7213
#
#
#
# Elastic Compliance Matrix: (Units=1/GPa)
#
#
# Indices 1 2 3 4 5 6 
#
# 1 0.009222 0.001127 -0.003445 -0.001477 -0.000391 -0.002261
# 2 0.001127 0.018661 -0.003711 0.003786 -0.001141 -0.001961
# 3 -0.003445 -0.003711 0.007150 -0.000236 0.000049 0.001906
# 4 -0.001477 0.003786 -0.000236 0.025391 -0.000917 -0.000938
# 5 -0.000391 -0.001141 0.000049 -0.000917 0.021996 -0.004596
# 6 -0.002261 -0.001961 0.001906 -0.000938 -0.004596 0.022851
#
#
# Mechanical properties :
#
#
# Convention : Reuss Voigt Hill
#
# Bulk Modulus (GPa) = 43.52245 66.17297 54.84771
# Shear Modulus (GPa) = 40.00418 46.44482 43.22450
#
# Velocity S-wave (km/s) = 4.21195 4.53836 4.37820
# Velocity P-wave (km/s) = 6.55399 7.53710 7.06267
#
# Compressibility (1/GPa) = 0.02297665
#
# Stress axis : x y z
#
# Youngs Moduli (GPa) = 108.43816 53.58669 139.86019
#
# Poissons Ratio (x) = -0.06039 0.48176
# Poissons Ratio (y) = -0.12221 0.51898
# Poissons Ratio (z) = 0.37353 0.19884
#
# Static dielectric constant tensor:
#      x y z
#    x 4.716010 0.515000 0.076970 
#    y 0.515000 4.210350 0.045070 
#    z 0.076970 0.045070 4.370670 
# 
# 
# High freq. dielectric constant tensor:
#      x y z
#    x 1.914310 0.010040 0.003280 
#    y 0.010040 1.891630 0.008270 
#    z 0.003280 0.008270 1.908090 
# 
# From -- ./inp_files/244365.got.cif
#   From: 2010.06.25/outbox.cif.g09.slc.cpg/sg2_123_cif.got.tgz:244365.got - 2010.06.27 13:26:56.
