data_PCOD8037079
_publ_section_title
;
Structure prediction by ZEFSAII (Michael W. Deem and Ramdas Pophale) SiO2 
 PCOD8037079
Probable space group: P -1
;
_chemical_formula_sum "Si O2"
_cell_formula_units_Z 14
_cell_length_a 29.122301
_cell_length_b 29.092160
_cell_length_c 28.628193
_cell_angle_alpha 9.953554
_cell_angle_beta 10.194628
_cell_angle_gamma 10.026253
_cell_volume 642.143865
_symmetry_space_group_name_H-M "P -1"
_symmetry_group_IT_number 2
_symmetry_cell_setting 'triclinic'
loop_
_space_group_symop_operation_xyz
x,y,z
-x,-y,-z
loop_
_atom_site_type_symbol
_atom_site_label
_atom_site_fract_x
_atom_site_fract_y
_atom_site_fract_z
Si Si1 0.118174 0.263471 0.245728
Si Si2 0.549929 0.401289 0.386400
Si Si3 0.833139 0.907019 0.170454
Si Si4 0.532947 0.401378 0.834645
Si Si5 0.503111 0.575027 0.868113
Si Si6 0.830650 0.837304 0.812759
Si Si7 0.865693 0.736109 0.202256
O O1 0.177513 0.144972 0.252374
O O2 0.766259 0.461871 0.408522
O O3 0.275820 0.968345 0.417016
O O4 0.253974 0.482833 0.899007
O O5 0.506556 0.500603 0.277188
O O6 0.652313 0.787651 0.501812
O O7 0.809598 0.844045 0.203332
O O8 0.170987 0.751854 0.004125
O O9 0.691238 0.269493 0.955519
O O10 0.717058 0.528400 0.550692
O O11 0.215381 0.527383 0.051096
O O12 0.716069 0.031915 0.022394
O O13 0.500000 0.500000 0.000000
O O14 0.000000 0.000000 0.500000
O O15 0.000000 0.500000 0.000000
O O16 0.500000 0.000000 0.000000
#
# Coordination Sequence:
#
# PCOD8037079 Si02
#       7
#     2   2   2   2   2   2   2
#     4  12  24  42  66  94 128 169 213 264 318 378
#     4  12  24  43  65  94 126 166 212 262 318 378
#     4  12  24  42  66  94 128 166 210 258 312 375
#     4  12  25  43  66  94 128 166 210 262 316 378
#     4  12  25  44  67  96 129 168 211 260 313 372
#     4  12  24  42  64  94 129 169 214 264 318 378
#     4  12  24  42  64  94 126 166 208 258 315 375
#
# _framework density 21.801970000000001
#
# number of rings (size 3 to 8) (size 9 to 14) (size 15 to 20)
#    0.000    0.000    0.000   12.000    0.000    0.000 
#    0.000    0.000    0.000    0.000    0.000    0.000 
#    0.000    0.000    0.000    0.000    0.000    0.000 
#
# Total GULP energy -173745.142623 kJ/mol
# GULP energy per Si atom -12410.367330 kJ/mol
# Density = 2.175235 g / cm^3
# Si number density = 21.801970 Si / 1000 Ang^3
#
#
#
# Elastic Constant Matrix: (Units=GPa)
#
#
# Indices 1 2 3 4 5 6 
#
# 1 133.7942 -72.1679 54.5697 55.3959 -0.4401 -21.1860
# 2 -72.1679 244.4046 -49.5123 -59.2973 -21.6258 26.0328
# 3 54.5697 -49.5123 245.7848 96.9197 -3.3156 -40.4889
# 4 55.3959 -59.2973 96.9197 98.0356 -4.9903 -21.4578
# 5 -0.4401 -21.6258 -3.3156 -4.9903 41.8929 -3.8393
# 6 -21.1860 26.0328 -40.4889 -21.4578 -3.8393 57.9981
#
#
#
# Elastic Compliance Matrix: (Units=1/GPa)
#
#
# Indices 1 2 3 4 5 6 
#
# 1 0.010604 0.001959 0.000069 -0.004529 0.000718 0.001414
# 2 0.001959 0.005606 -0.000491 0.002724 0.003115 -0.000929
# 3 0.000069 -0.000491 0.007042 -0.006730 -0.000254 0.002655
# 4 -0.004529 0.002724 -0.006730 0.021355 0.003421 0.000552
# 5 0.000718 0.003115 -0.000254 0.003421 0.026027 0.001676
# 6 0.001414 -0.000929 0.002655 0.000552 0.001676 0.020344
#
#
# Mechanical properties :
#
#
# Convention : Reuss Voigt Hill
#
# Bulk Modulus (GPa) = 37.98396 54.41807 46.20101
# Shear Modulus (GPa) = 51.71660 85.65826 68.68743
#
# Velocity S-wave (km/s) = 4.87571 6.27491 5.61903
# Velocity P-wave (km/s) = 7.01119 8.80419 7.95835
#
# Compressibility (1/GPa) = 0.02632690
#
# Stress axis : x y z
#
# Youngs Moduli (GPa) = 94.30048 178.37116 142.00533
#
# Poissons Ratio (x) = -0.34949 -0.00977
# Poissons Ratio (y) = -0.18477 0.06973
# Poissons Ratio (z) = -0.00649 0.08759
#
# Static dielectric constant tensor:
#      x y z
#    x 4.026000 0.015780 -0.030710 
#    y 0.015780 4.248200 -0.021890 
#    z -0.030710 -0.021890 4.313660 
# 
# 
# High freq. dielectric constant tensor:
#      x y z
#    x 1.875920 -0.001800 -0.001380 
#    y -0.001800 1.878990 0.001650 
#    z -0.001380 0.001650 1.879780 
# 
# From -- ./inp_files/125992.got.cif
#   From: 2010.06.25/outbox.cif.g09.slc.cpg/sg2_63_cif.got.tgz:125992.got - 2010.06.27 13:26:56.
