data_PCOD8037192
_publ_section_title
;
Structure prediction by ZEFSAII (Michael W. Deem and Ramdas Pophale) SiO2 
 PCOD8037192
Probable space group: P -1
;
_chemical_formula_sum "Si O2"
_cell_formula_units_Z 16
_cell_length_a 20.184003
_cell_length_b 6.789587
_cell_length_c 8.720520
_cell_angle_alpha 60.536159
_cell_angle_beta 46.564739
_cell_angle_gamma 55.658236
_cell_volume 705.667643
_symmetry_space_group_name_H-M "P -1"
_symmetry_group_IT_number 2
_symmetry_cell_setting 'triclinic'
loop_
_space_group_symop_operation_xyz
x,y,z
-x,-y,-z
loop_
_atom_site_type_symbol
_atom_site_label
_atom_site_fract_x
_atom_site_fract_y
_atom_site_fract_z
Si Si1 0.397869 0.165358 0.169311
Si Si2 0.100241 0.353490 0.817357
Si Si3 0.853663 0.177596 0.978711
Si Si4 0.395691 0.048179 0.576907
Si Si5 0.242281 0.541000 0.675555
Si Si6 0.048349 0.254892 0.603532
Si Si7 0.682417 0.295978 0.999412
Si Si8 0.739965 0.046266 0.692791
O O1 0.393258 0.103180 0.378829
O O2 0.308100 0.131653 0.235870
O O3 0.387655 0.443046 0.050482
O O4 0.500000 0.000000 0.000000
O O5 0.172022 0.499926 0.672274
O O6 0.084296 0.323649 0.678015
O O7 0.154334 0.085858 0.901736
O O8 0.000000 0.500000 0.000000
O O9 0.820266 0.335673 0.124289
O O10 0.783244 0.314238 0.898616
O O11 0.967977 0.129223 0.791912
O O12 0.323715 0.285389 0.688901
O O13 0.500000 0.000000 0.500000
O O14 0.367580 0.810533 0.745639
O O15 0.291957 0.715654 0.454326
O O16 0.000000 0.500000 0.500000
O O17 0.142569 0.075512 0.435212
O O18 0.701365 0.109548 0.901098
#
# Coordination Sequence:
#
# PCOD8037192 Si02
#       8
#     2   2   2   2   2   2   2   2
#     4  12  29  53  79 113 150 192 249 311 373 446
#     4  12  24  45  70 103 143 197 246 300 367 433
#     4  12  26  47  70 109 143 201 249 301 368 437
#     4  12  28  50  80 114 147 198 246 307 381 442
#     4  12  25  48  76 104 154 191 250 308 366 445
#     4  12  27  43  70 106 149 194 251 302 366 436
#     4  12  29  49  79 110 153 196 248 304 375 445
#     4  12  27  49  74 108 153 197 245 312 366 438
#
# _framework density 22.673565
#
# number of rings (size 3 to 8) (size 9 to 14) (size 15 to 20)
#    0.000    0.000    5.000    4.125   10.500    2.000 
#    0.000    0.000    0.000    0.000    0.000    0.000 
#    0.000    0.000    0.000    0.000    0.000    0.000 
#
# Total GULP energy -198475.556493 kJ/mol
# GULP energy per Si atom -12404.722281 kJ/mol
# Density = 2.262196 g / cm^3
# Si number density = 22.673565 Si / 1000 Ang^3
#
#
#
# Elastic Constant Matrix: (Units=GPa)
#
#
# Indices 1 2 3 4 5 6 
#
# 1 122.3761 37.8361 32.0170 0.2397 -1.6723 -7.0850
# 2 37.8361 137.3229 57.5231 0.0332 2.9505 -13.6498
# 3 32.0170 57.5231 112.2834 -7.5197 4.6229 -12.1733
# 4 0.2397 0.0332 -7.5197 38.2899 -7.2290 -2.2750
# 5 -1.6723 2.9505 4.6229 -7.2290 42.1397 -0.6398
# 6 -7.0850 -13.6498 -12.1733 -2.2750 -0.6398 37.3370
#
#
#
# Elastic Compliance Matrix: (Units=1/GPa)
#
#
# Indices 1 2 3 4 5 6 
#
# 1 0.009208 -0.001788 -0.001694 -0.000235 0.000644 0.000538
# 2 -0.001788 0.009780 -0.004348 -0.000821 -0.000393 0.001762
# 3 -0.001694 -0.004348 0.012035 0.002385 -0.000641 0.002147
# 4 -0.000235 -0.000821 0.002385 0.027576 0.004551 0.002191
# 5 0.000644 -0.000393 -0.000641 0.004551 0.024642 0.000469
# 6 0.000538 0.001762 0.002147 0.002191 0.000469 0.028371
#
#
# Mechanical properties :
#
#
# Convention : Reuss Voigt Hill
#
# Bulk Modulus (GPa) = 65.08802 69.63719 67.36260
# Shear Modulus (GPa) = 37.76640 39.86041 38.81340
#
# Velocity S-wave (km/s) = 4.08567 4.19741 4.14192
# Velocity P-wave (km/s) = 7.14324 7.36686 7.25591
#
# Compressibility (1/GPa) = 0.01536381
#
# Stress axis : x y z
#
# Youngs Moduli (GPa) = 108.60353 102.25045 83.08768
#
# Poissons Ratio (x) = 0.18281 0.14071
# Poissons Ratio (y) = 0.19417 0.36129
# Poissons Ratio (z) = 0.18392 0.44461
#
# Static dielectric constant tensor:
#      x y z
#    x 4.106120 -0.127470 -0.111870 
#    y -0.127470 4.387090 0.602510 
#    z -0.111870 0.602510 8.576550 
# 
# 
# High freq. dielectric constant tensor:
#      x y z
#    x 1.905710 -0.003280 -0.001030 
#    y -0.003280 1.910410 -0.001880 
#    z -0.001030 -0.001880 1.897090 
# 
# From -- ./inp_files/323415.got.cif
#   From: 2010.06.25/outbox.cif.g09.slc.cpg/sg2_162_cif.got.tgz:323415.got - 2010.06.27 13:26:56.
