data_PCOD8037167
_publ_section_title
;
Structure prediction by ZEFSAII (Michael W. Deem and Ramdas Pophale) SiO2 
 PCOD8037167
Probable space group: P -1
;
_chemical_formula_sum "Si O2"
_cell_formula_units_Z 16
_cell_length_a 11.751664
_cell_length_b 19.492402
_cell_length_c 16.966649
_cell_angle_alpha 160.160028
_cell_angle_beta 33.156899
_cell_angle_gamma 138.103764
_cell_volume 701.696080
_symmetry_space_group_name_H-M "P -1"
_symmetry_group_IT_number 2
_symmetry_cell_setting 'triclinic'
loop_
_space_group_symop_operation_xyz
x,y,z
-x,-y,-z
loop_
_atom_site_type_symbol
_atom_site_label
_atom_site_fract_x
_atom_site_fract_y
_atom_site_fract_z
Si Si1 0.700733 0.051882 0.984271
Si Si2 0.740716 0.022318 0.590122
Si Si3 0.065830 0.681801 0.426414
Si Si4 0.099515 0.664880 0.931396
Si Si5 0.465353 0.799263 0.257288
Si Si6 0.791900 0.429563 0.071407
Si Si7 0.153877 0.564516 0.415872
Si Si8 0.441094 0.776883 0.579968
O O1 0.756508 0.242888 0.112325
O O2 0.659694 0.115760 0.166598
O O3 0.902888 0.855940 0.658675
O O4 0.500000 0.000000 0.000000
O O5 0.660377 0.131127 0.673518
O O6 0.553932 0.939247 0.649383
O O7 0.814573 0.186800 0.780931
O O8 0.944315 0.838439 0.260026
O O9 0.311855 0.692538 0.283815
O O10 0.017553 0.688307 0.555623
O O11 0.043076 0.460168 0.168725
O O12 0.246505 0.526928 0.765062
O O13 0.500000 0.000000 0.500000
O O14 0.686871 0.637275 0.933076
O O15 0.595184 0.556840 0.273184
O O16 0.000000 0.500000 0.000000
O O17 0.268289 0.727645 0.566863
O O18 0.000000 0.500000 0.500000
#
# Coordination Sequence:
#
# PCOD8037167 Si02
#       8
#     2   2   2   2   2   2   2   2
#     4  12  29  47  73 111 148 193 241 295 372 438
#     4  12  24  44  74 106 140 189 245 296 359 432
#     4  12  27  50  76 105 149 193 245 302 363 434
#     4  12  25  45  75 104 144 190 242 295 361 436
#     4  12  25  47  77 107 144 196 250 299 362 438
#     4  12  25  43  75 106 144 186 241 303 360 428
#     4  12  28  48  76 109 149 192 245 306 372 430
#     4  12  27  47  72 108 149 187 244 304 365 433
#
# _framework density 22.801895999999999
#
# number of rings (size 3 to 8) (size 9 to 14) (size 15 to 20)
#    0.000    0.000    3.750    6.000    5.250    4.500 
#    0.000    0.000    0.000    0.000    0.000    0.000 
#    0.000    0.000    0.000    0.000    0.000    0.000 
#
# Total GULP energy -198466.187716 kJ/mol
# GULP energy per Si atom -12404.136732 kJ/mol
# Density = 2.275000 g / cm^3
# Si number density = 22.801896 Si / 1000 Ang^3
#
#
#
# Elastic Constant Matrix: (Units=GPa)
#
#
# Indices 1 2 3 4 5 6 
#
# 1 123.8470 16.8574 12.6358 8.8494 6.5609 1.3198
# 2 16.8574 134.6871 20.5970 1.7327 9.8278 7.2862
# 3 12.6358 20.5970 75.1248 -2.5129 13.8026 17.7319
# 4 8.8494 1.7327 -2.5129 35.0260 1.9524 9.0733
# 5 6.5609 9.8278 13.8026 1.9524 40.7002 6.6447
# 6 1.3198 7.2862 17.7319 9.0733 6.6447 52.0881
#
#
#
# Elastic Compliance Matrix: (Units=1/GPa)
#
#
# Indices 1 2 3 4 5 6 
#
# 1 0.008526 -0.000822 -0.001359 -0.002396 -0.000743 0.000874
# 2 -0.000822 0.007896 -0.001752 -0.000164 -0.001121 -0.000316
# 3 -0.001359 -0.001752 0.016119 0.003172 -0.004122 -0.005234
# 4 -0.002396 -0.000164 0.003172 0.031077 -0.001118 -0.006267
# 5 -0.000743 -0.001121 -0.004122 -0.001118 0.026678 -0.001630
# 6 0.000874 -0.000316 -0.005234 -0.006267 -0.001630 0.022302
#
#
# Mechanical properties :
#
#
# Convention : Reuss Voigt Hill
#
# Bulk Modulus (GPa) = 40.52297 48.20438 44.36368
# Shear Modulus (GPa) = 38.85372 44.46745 41.66059
#
# Velocity S-wave (km/s) = 4.13239 4.42086 4.27906
# Velocity P-wave (km/s) = 6.37018 6.87350 6.62662
#
# Compressibility (1/GPa) = 0.02467736
#
# Stress axis : x y z
#
# Youngs Moduli (GPa) = 117.28597 126.64135 62.03885
#
# Poissons Ratio (x) = 0.10405 0.08429
# Poissons Ratio (y) = 0.09636 0.10868
# Poissons Ratio (z) = 0.15935 0.22185
#
# Static dielectric constant tensor:
#      x y z
#    x 4.316690 -0.111550 0.019760 
#    y -0.111550 4.304680 0.142200 
#    z 0.019760 0.142200 4.155080 
# 
# 
# High freq. dielectric constant tensor:
#      x y z
#    x 1.929150 -0.005960 0.004280 
#    y -0.005960 1.915900 0.007770 
#    z 0.004280 0.007770 1.896090 
# 
# From -- ./inp_files/307397.got.cif
#   From: 2010.06.25/outbox.cif.g09.slc.cpg/sg2_154_cif.got.tgz:307397.got - 2010.06.27 13:26:56.
