data_PCOD8037461
_publ_section_title
;
Structure prediction by ZEFSAII (Michael W. Deem and Ramdas Pophale) SiO2 
 PCOD8037461
Probable space group: P -1
;
_chemical_formula_sum "Si O2"
_cell_formula_units_Z 16
_cell_length_a 11.774348
_cell_length_b 13.518781
_cell_length_c 5.386747
_cell_angle_alpha 121.935615
_cell_angle_beta 76.813259
_cell_angle_gamma 79.794627
_cell_volume 660.837834
_symmetry_space_group_name_H-M "P -1"
_symmetry_group_IT_number 2
_symmetry_cell_setting 'triclinic'
loop_
_space_group_symop_operation_xyz
x,y,z
-x,-y,-z
loop_
_atom_site_type_symbol
_atom_site_label
_atom_site_fract_x
_atom_site_fract_y
_atom_site_fract_z
Si Si1 0.577734 0.002167 0.214443
Si Si2 0.115375 0.737908 0.722399
Si Si3 0.490910 0.430019 0.163128
Si Si4 0.140255 0.933786 0.276767
Si Si5 0.849540 0.859586 0.792731
Si Si6 0.688215 0.186641 0.575456
Si Si7 0.783078 0.552726 0.703832
Si Si8 0.875839 0.618671 0.241538
O O1 0.608326 0.131426 0.359407
O O2 0.500000 0.000000 0.500000
O O3 0.500000 0.000000 0.000000
O O4 0.710115 0.881876 0.000065
O O5 0.210561 0.757388 0.500743
O O6 0.132193 0.593857 0.541002
O O7 0.967473 0.817321 0.864379
O O8 0.156941 0.789591 0.019905
O O9 0.500000 0.500000 0.500000
O O10 0.359423 0.417623 0.227217
O O11 0.500000 0.500000 0.000000
O O12 0.594809 0.293602 0.934941
O O13 0.235002 0.932252 0.447739
O O14 0.169070 0.002713 0.116441
O O15 0.000000 0.000000 0.500000
O O16 0.889173 0.754530 0.412225
O O17 0.823646 0.618552 0.544016
O O18 0.790695 0.613472 0.046239
O O19 0.000000 0.500000 0.000000
#
# Coordination Sequence:
#
# PCOD8037461 Si02
#       8
#     2   2   2   2   2   2   2   2
#     4  12  30  52  74 107 156 211 257 312 378 469
#     4  12  25  47  79 116 151 193 259 340 388 463
#     4  12  27  47  78 113 154 203 253 319 396 462
#     4  12  25  44  79 112 152 196 249 331 401 447
#     4  12  27  50  79 113 157 202 271 317 399 460
#     4  12  27  49  76 115 156 201 265 324 397 461
#     4  12  28  50  76 111 159 203 259 316 396 462
#     4  12  29  51  76 113 153 212 254 323 387 472
#
# _framework density 24.211689
#
# number of rings (size 3 to 8) (size 9 to 14) (size 15 to 20)
#    0.000    0.000    5.000    3.750    7.000    1.000 
#    0.000    0.000    0.000    0.000    0.000    0.000 
#    0.000    0.000    0.000    0.000    0.000    0.000 
#
# Total GULP energy -198288.427391 kJ/mol
# GULP energy per Si atom -12393.026712 kJ/mol
# Density = 2.415658 g / cm^3
# Si number density = 24.211689 Si / 1000 Ang^3
#
#
#
# Elastic Constant Matrix: (Units=GPa)
#
#
# Indices 1 2 3 4 5 6 
#
# 1 163.3737 28.9704 56.5702 -8.0646 -2.4489 -18.4532
# 2 28.9704 71.4169 28.6441 -17.4684 7.3066 -6.3440
# 3 56.5702 28.6441 137.4616 2.9554 11.0550 -6.8807
# 4 -8.0646 -17.4684 2.9554 40.4869 -0.0231 3.5793
# 5 -2.4489 7.3066 11.0550 -0.0231 61.8571 3.4256
# 6 -18.4532 -6.3440 -6.8807 3.5793 3.4256 34.2990
#
#
#
# Elastic Compliance Matrix: (Units=1/GPa)
#
#
# Indices 1 2 3 4 5 6 
#
# 1 0.007786 -0.001660 -0.002783 0.000759 0.000827 0.003162
# 2 -0.001660 0.018027 -0.003037 0.007560 -0.001717 0.001214
# 3 -0.002783 -0.003037 0.009231 -0.002557 -0.001413 0.000201
# 4 0.000759 0.007560 -0.002557 0.028444 -0.000304 -0.001644
# 5 0.000827 -0.001717 -0.001413 -0.000304 0.016754 -0.001798
# 6 0.003162 0.001214 0.000201 -0.001644 -0.001798 0.031473
#
#
# Mechanical properties :
#
#
# Convention : Reuss Voigt Hill
#
# Bulk Modulus (GPa) = 49.79056 66.73573 58.26315
# Shear Modulus (GPa) = 37.48998 44.53310 41.01154
#
# Velocity S-wave (km/s) = 3.93927 4.29338 4.12013
# Velocity P-wave (km/s) = 6.42649 7.22501 6.83742
#
# Compressibility (1/GPa) = 0.02008413
#
# Stress axis : x y z
#
# Youngs Moduli (GPa) = 128.43760 55.47367 108.32557
#
# Poissons Ratio (x) = 0.09211 0.30144
# Poissons Ratio (y) = 0.21327 0.32895
# Poissons Ratio (z) = 0.35740 0.16846
#
# Static dielectric constant tensor:
#      x y z
#    x 4.828110 0.247110 0.257640 
#    y 0.247110 4.574080 0.610800 
#    z 0.257640 0.610800 4.692270 
# 
# 
# High freq. dielectric constant tensor:
#      x y z
#    x 1.982930 0.000470 -0.001330 
#    y 0.000470 1.947310 0.008770 
#    z -0.001330 0.008770 1.987860 
# 
# From -- ./inp_files/75722.got.cif
#   From: 2010.06.25/outbox.cif.g09.slc.cpg/sg2_38_cif.got.tgz:75722.got - 2010.06.27 13:26:56.
