data_PCOD8037263
_publ_section_title
;
Structure prediction by ZEFSAII (Michael W. Deem and Ramdas Pophale) SiO2 
 PCOD8037263
Probable space group: P -1
;
_chemical_formula_sum "Si O2"
_cell_formula_units_Z 14
_cell_length_a 17.184707
_cell_length_b 9.647049
_cell_length_c 9.212458
_cell_angle_alpha 30.740019
_cell_angle_beta 121.534977
_cell_angle_gamma 110.710181
_cell_volume 649.044628
_symmetry_space_group_name_H-M "P -1"
_symmetry_group_IT_number 2
_symmetry_cell_setting 'triclinic'
loop_
_space_group_symop_operation_xyz
x,y,z
-x,-y,-z
loop_
_atom_site_type_symbol
_atom_site_label
_atom_site_fract_x
_atom_site_fract_y
_atom_site_fract_z
Si Si1 0.443517 0.804774 0.699957
Si Si2 0.028836 0.443123 0.246005
Si Si3 0.285697 0.604228 0.139813
Si Si4 0.589456 0.003731 0.178443
Si Si5 0.143282 0.882251 0.976395
Si Si6 0.834994 0.471181 0.173333
Si Si7 0.770816 0.074000 0.678732
O O1 0.340979 0.831869 0.507640
O O2 0.500000 0.000000 0.500000
O O3 0.439894 0.861994 0.815581
O O4 0.500000 0.500000 0.000000
O O5 0.943834 0.410994 0.294865
O O6 0.103777 0.150140 0.595579
O O7 0.065656 0.709157 0.099762
O O8 0.000000 0.500000 0.000000
O O9 0.347552 0.298671 0.471142
O O10 0.222002 0.658466 0.171125
O O11 0.220041 0.655477 0.889446
O O12 0.352775 0.816194 0.016961
O O13 0.500000 0.000000 0.000000
O O14 0.187558 0.993577 0.060094
O O15 0.817616 0.316060 0.443137
O O16 0.796762 0.800137 0.852405
#
# Coordination Sequence:
#
# PCOD8037263 Si02
#       7
#     2   2   2   2   2   2   2
#     4  12  26  45  70  99 138 179 224 283 346 406
#     4  12  26  45  72 107 138 181 237 288 344 405
#     4  12  24  47  70 101 138 186 227 280 348 412
#     4  12  27  45  71 105 137 180 235 283 342 413
#     4  12  28  44  72 106 140 181 235 289 343 410
#     4  12  24  46  74  94 143 186 227 282 347 417
#     4  12  27  47  69 104 140 183 230 284 354 412
#
# _framework density 21.570164999999999
#
# number of rings (size 3 to 8) (size 9 to 14) (size 15 to 20)
#    0.000    0.000    4.286    5.143    6.000    3.429 
#    0.000    0.000    0.000    0.000    0.000    0.000 
#    0.000    0.000    0.000    0.000    0.000    0.000 
#
# Total GULP energy -173707.476197 kJ/mol
# GULP energy per Si atom -12407.676871 kJ/mol
# Density = 2.152107 g / cm^3
# Si number density = 21.570165 Si / 1000 Ang^3
#
#
#
# Elastic Constant Matrix: (Units=GPa)
#
#
# Indices 1 2 3 4 5 6 
#
# 1 137.2515 49.9819 63.5465 1.4617 3.6587 7.6988
# 2 49.9819 120.1307 38.7372 10.0352 6.1078 19.6747
# 3 63.5465 38.7372 116.0995 -15.2950 -8.0375 7.4343
# 4 1.4617 10.0352 -15.2950 47.2426 -0.2052 1.1194
# 5 3.6587 6.1078 -8.0375 -0.2052 33.6048 -7.0635
# 6 7.6988 19.6747 7.4343 1.1194 -7.0635 35.4070
#
#
#
# Elastic Compliance Matrix: (Units=1/GPa)
#
#
# Indices 1 2 3 4 5 6 
#
# 1 0.010772 -0.002470 -0.005409 -0.001564 -0.002069 -0.000198
# 2 -0.002470 0.011729 -0.002864 -0.003216 -0.003838 -0.006043
# 3 -0.005409 -0.002864 0.013476 0.005142 0.004506 0.000674
# 4 -0.001564 -0.003216 0.005142 0.023556 0.002288 0.000759
# 5 -0.002069 -0.003838 0.004506 0.002288 0.033506 0.008248
# 6 -0.000198 -0.006043 0.000674 0.000759 0.008248 0.033124
#
#
# Mechanical properties :
#
#
# Convention : Reuss Voigt Hill
#
# Bulk Modulus (GPa) = 69.00469 75.33473 72.16971
# Shear Modulus (GPa) = 32.79179 37.99862 35.39521
#
# Velocity S-wave (km/s) = 3.90325 4.20173 4.05524
# Velocity P-wave (km/s) = 7.23700 7.65118 7.44697
#
# Compressibility (1/GPa) = 0.01449177
#
# Stress axis : x y z
#
# Youngs Moduli (GPa) = 92.82988 85.26059 74.20859
#
# Poissons Ratio (x) = 0.21057 0.40138
# Poissons Ratio (y) = 0.22926 0.21253
# Poissons Ratio (z) = 0.50210 0.24418
#
# Static dielectric constant tensor:
#      x y z
#    x 3.927180 -0.092500 -0.087800 
#    y -0.092500 4.094120 0.173020 
#    z -0.087800 0.173020 4.195880 
# 
# 
# High freq. dielectric constant tensor:
#      x y z
#    x 1.863430 0.008240 0.000130 
#    y 0.008240 1.857640 -0.007580 
#    z 0.000130 -0.007580 1.861100 
# 
# From -- ./inp_files/56362.got.cif
#   From: 2010.06.25/outbox.cif.g09.slc.cpg/sg2_29_cif.got.tgz:56362.got - 2010.06.27 13:26:56.
