data_PCOD8037667
_publ_section_title
;
Structure prediction by ZEFSAII (Michael W. Deem and Ramdas Pophale) SiO2 
 PCOD8037667
Probable space group: P -1
;
_chemical_formula_sum "Si O2"
_cell_formula_units_Z 16
_cell_length_a 13.655797
_cell_length_b 12.159922
_cell_length_c 15.797382
_cell_angle_alpha 124.007198
_cell_angle_beta 36.208089
_cell_angle_gamma 149.942531
_cell_volume 685.050319
_symmetry_space_group_name_H-M "P -1"
_symmetry_group_IT_number 2
_symmetry_cell_setting 'triclinic'
loop_
_space_group_symop_operation_xyz
x,y,z
-x,-y,-z
loop_
_atom_site_type_symbol
_atom_site_label
_atom_site_fract_x
_atom_site_fract_y
_atom_site_fract_z
Si Si1 0.086393 0.837333 0.533760
Si Si2 0.345734 0.592927 0.600653
Si Si3 0.359727 0.913132 0.154054
Si Si4 0.737540 0.895212 0.187555
Si Si5 0.695525 0.386974 0.172422
Si Si6 0.455595 0.485129 0.328328
Si Si7 0.181117 0.356271 0.184730
Si Si8 0.352154 0.756498 0.246960
O O1 0.114351 0.705407 0.425099
O O2 0.902250 0.792623 0.568198
O O3 0.853846 0.683637 0.708390
O O4 0.423222 0.124759 0.447478
O O5 0.322288 0.551029 0.698741
O O6 0.479657 0.559638 0.439487
O O7 0.993820 0.379644 0.722356
O O8 0.533757 0.939996 0.115986
O O9 0.398223 0.091023 0.235579
O O10 0.500000 0.000000 0.000000
O O11 0.547317 0.660131 0.272822
O O12 0.559779 0.858038 0.225079
O O13 0.878161 0.094577 0.239802
O O14 0.000000 0.000000 0.000000
O O15 0.669299 0.496792 0.175291
O O16 0.000000 0.500000 0.000000
O O17 0.180465 0.509994 0.226160
O O18 0.500000 0.500000 0.000000
#
# Coordination Sequence:
#
# PCOD8037667 Si02
#       8
#     2   2   2   2   2   2   2   2
#     4  12  26  48  77 114 154 201 257 317 383 458
#     4  12  25  50  78 113 150 208 251 319 389 442
#     4  12  28  50  77 115 151 199 262 316 380 452
#     4  12  27  46  76 113 153 204 251 318 385 453
#     4  12  28  50  80 112 154 206 258 316 383 458
#     4  12  27  49  77 112 159 197 258 320 381 458
#     4  12  26  48  74 113 155 206 251 313 387 452
#     4  12  27  47  80 109 157 196 261 310 384 463
#
# _framework density 23.355948999999999
#
# number of rings (size 3 to 8) (size 9 to 14) (size 15 to 20)
#    0.000    0.000    7.500    0.750    3.500    5.500 
#    0.000    0.000    0.000    0.000    0.000    0.000 
#    0.000    0.000    0.000    0.000    0.000    0.000 
#
# Total GULP energy -198224.871617 kJ/mol
# GULP energy per Si atom -12389.054476 kJ/mol
# Density = 2.330279 g / cm^3
# Si number density = 23.355949 Si / 1000 Ang^3
#
#
#
# Elastic Constant Matrix: (Units=GPa)
#
#
# Indices 1 2 3 4 5 6 
#
# 1 173.8788 75.9906 67.7661 14.8758 2.1684 -7.9640
# 2 75.9906 158.0888 48.8399 11.0097 -10.3848 2.3419
# 3 67.7661 48.8399 136.5826 8.1401 -0.9316 -7.8204
# 4 14.8758 11.0097 8.1401 34.5520 -1.7538 1.8109
# 5 2.1684 -10.3848 -0.9316 -1.7538 45.8762 8.5485
# 6 -7.9640 2.3419 -7.8204 1.8109 8.5485 35.5225
#
#
#
# Elastic Compliance Matrix: (Units=1/GPa)
#
#
# Indices 1 2 3 4 5 6 
#
# 1 0.008577 -0.003223 -0.002869 -0.002179 -0.001652 0.002012
# 2 -0.003223 0.008595 -0.001538 -0.000751 0.002444 -0.002178
# 3 -0.002869 -0.001538 0.009423 -0.000599 -0.000351 0.001647
# 4 -0.002179 -0.000751 -0.000599 0.030470 0.001551 -0.002497
# 5 -0.001652 0.002444 -0.000351 0.001551 0.023671 -0.006384
# 6 0.002012 -0.002178 0.001647 -0.002497 -0.006384 0.030772
#
#
# Mechanical properties :
#
#
# Convention : Reuss Voigt Hill
#
# Bulk Modulus (GPa) = 88.22257 94.86036 91.54147
# Shear Modulus (GPa) = 38.30081 41.58704 39.94392
#
# Velocity S-wave (km/s) = 4.05393 4.22426 4.13997
# Velocity P-wave (km/s) = 7.73095 8.03093 7.88236
#
# Compressibility (1/GPa) = 0.01133497
#
# Stress axis : x y z
#
# Youngs Moduli (GPa) = 116.58942 116.34835 106.12767
#
# Poissons Ratio (x) = 0.37499 0.30451
# Poissons Ratio (y) = 0.37577 0.16318
# Poissons Ratio (z) = 0.33452 0.17889
#
# Static dielectric constant tensor:
#      x y z
#    x 4.356550 0.355160 0.215210 
#    y 0.355160 4.586270 0.059520 
#    z 0.215210 0.059520 4.112140 
# 
# 
# High freq. dielectric constant tensor:
#      x y z
#    x 1.934700 0.016200 0.014080 
#    y 0.016200 1.938970 0.004370 
#    z 0.014080 0.004370 1.919520 
# 
# From -- ./inp_files/573618.got.cif
#   From: 2010.06.25/outbox.cif.g09.slc.cpg/sg2_287_cif.got.tgz:573618.got - 2010.06.27 13:26:56.
