data_PCOD8037249
_publ_section_title
;
Structure prediction by ZEFSAII (Michael W. Deem and Ramdas Pophale) SiO2 
 PCOD8037249
Probable space group: P -1
;
_chemical_formula_sum "Si O2"
_cell_formula_units_Z 16
_cell_length_a 8.739216
_cell_length_b 11.867919
_cell_length_c 9.243685
_cell_angle_alpha 114.305714
_cell_angle_beta 58.924896
_cell_angle_gamma 125.510501
_cell_volume 659.763673
_symmetry_space_group_name_H-M "P -1"
_symmetry_group_IT_number 2
_symmetry_cell_setting 'triclinic'
loop_
_space_group_symop_operation_xyz
x,y,z
-x,-y,-z
loop_
_atom_site_type_symbol
_atom_site_label
_atom_site_fract_x
_atom_site_fract_y
_atom_site_fract_z
Si Si1 0.818156 0.397536 0.178709
Si Si2 0.854348 0.694093 0.654099
Si Si3 0.422372 0.458522 0.728366
Si Si4 0.488027 0.771088 0.538453
Si Si5 0.718170 0.250345 0.645877
Si Si6 0.319386 0.866755 0.089643
Si Si7 0.167084 0.052488 0.328518
Si Si8 0.757970 0.526384 0.888978
O O1 0.753687 0.516573 0.241283
O O2 0.731179 0.334544 0.344766
O O3 0.060870 0.468350 0.095621
O O4 0.726758 0.276893 0.038864
O O5 0.643264 0.575617 0.625803
O O6 0.854054 0.842732 0.718687
O O7 0.852382 0.661542 0.808725
O O8 0.045013 0.698136 0.478323
O O9 0.383235 0.306647 0.615829
O O10 0.412169 0.471974 0.917210
O O11 0.429925 0.835582 0.460912
O O12 0.617522 0.881605 0.656515
O O13 0.642527 0.150597 0.768874
O O14 0.681301 0.386186 0.755421
O O15 0.140858 0.911485 0.186239
O O16 0.500000 0.000000 0.000000
O O17 0.000000 0.000000 0.500000
#
# Coordination Sequence:
#
# PCOD8037249 Si02
#       8
#     2   2   2   2   2   2   2   2
#     4  12  25  46  73 105 147 195 235 295 360 433
#     4  12  24  46  73 103 149 184 236 301 357 422
#     4  12  25  41  73 110 145 183 234 299 368 420
#     4  12  26  46  75 107 143 187 241 295 364 426
#     4  12  26  47  77 104 148 189 231 307 361 427
#     4  12  26  50  73  99 144 198 245 283 351 427
#     4  12  28  48  72 102 142 195 242 288 348 429
#     4  12  26  43  71 117 146 180 239 300 376 418
#
# _framework density 24.251107000000001
#
# number of rings (size 3 to 8) (size 9 to 14) (size 15 to 20)
#    0.000    0.000    7.500    2.250    3.500    0.500 
#    2.250    0.625    0.000    0.000    0.000    0.000 
#    0.000    0.000    0.000    0.000    0.000    0.000 
#
# Total GULP energy -198382.717187 kJ/mol
# GULP energy per Si atom -12398.919824 kJ/mol
# Density = 2.419591 g / cm^3
# Si number density = 24.251107 Si / 1000 Ang^3
#
#
#
# Elastic Constant Matrix: (Units=GPa)
#
#
# Indices 1 2 3 4 5 6 
#
# 1 74.8243 25.2664 21.1970 -2.6774 -1.0134 -18.8502
# 2 25.2664 74.5424 30.8790 -18.2132 -5.2340 -27.7494
# 3 21.1970 30.8790 125.9724 -17.4633 -14.0331 -19.5733
# 4 -2.6774 -18.2132 -17.4633 47.6945 -6.3711 -1.2261
# 5 -1.0134 -5.2340 -14.0331 -6.3711 42.3174 -5.1682
# 6 -18.8502 -27.7494 -19.5733 -1.2261 -5.1682 41.8848
#
#
#
# Elastic Compliance Matrix: (Units=1/GPa)
#
#
# Indices 1 2 3 4 5 6 
#
# 1 0.015946 -0.003508 -0.001293 -0.000821 -0.000090 0.004213
# 2 -0.003508 0.022917 -0.000916 0.009328 0.005578 0.014137
# 3 -0.001293 -0.000916 0.010049 0.003936 0.004288 0.004151
# 4 -0.000821 0.009328 0.003936 0.027191 0.007680 0.009393
# 5 -0.000090 0.005578 0.004288 0.007680 0.028038 0.009343
# 6 0.004213 0.014137 0.004151 0.009393 0.009343 0.038505
#
#
# Mechanical properties :
#
#
# Convention : Reuss Voigt Hill
#
# Bulk Modulus (GPa) = 26.68214 47.78045 37.23129
# Shear Modulus (GPa) = 30.01681 39.57913 34.79797
#
# Velocity S-wave (km/s) = 3.52198 4.04425 3.79212
# Velocity P-wave (km/s) = 5.25028 6.44617 5.87872
#
# Compressibility (1/GPa) = 0.03747826
#
# Stress axis : x y z
#
# Youngs Moduli (GPa) = 62.71069 43.63514 99.51536
#
# Poissons Ratio (x) = 0.15308 0.12863
# Poissons Ratio (y) = 0.22000 0.09118
# Poissons Ratio (z) = 0.08106 0.03998
#
# Static dielectric constant tensor:
#      x y z
#    x 4.265750 -0.197900 -0.042700 
#    y -0.197900 4.125750 -0.164480 
#    z -0.042700 -0.164480 4.586470 
# 
# 
# High freq. dielectric constant tensor:
#      x y z
#    x 1.970560 -0.022260 -0.010420 
#    y -0.022260 1.946550 -0.012390 
#    z -0.010420 -0.012390 1.988740 
# 
# From -- ./inp_files/185353.got.cif
#   From: 2010.06.25/outbox.cif.g09.slc.cpg/sg2_93_cif.got.tgz:185353.got - 2010.06.27 13:26:56.
