data_PCOD8037235
_publ_section_title
;
Structure prediction by ZEFSAII (Michael W. Deem and Ramdas Pophale) SiO2 
 PCOD8037235
Probable space group: P -1
;
_chemical_formula_sum "Si O2"
_cell_formula_units_Z 16
_cell_length_a 23.324142
_cell_length_b 9.388868
_cell_length_c 6.785382
_cell_angle_alpha 129.055420
_cell_angle_beta 139.288101
_cell_angle_gamma 52.129868
_cell_volume 724.861405
_symmetry_space_group_name_H-M "P -1"
_symmetry_group_IT_number 2
_symmetry_cell_setting 'triclinic'
loop_
_space_group_symop_operation_xyz
x,y,z
-x,-y,-z
loop_
_atom_site_type_symbol
_atom_site_label
_atom_site_fract_x
_atom_site_fract_y
_atom_site_fract_z
Si Si1 0.095627 0.519606 0.689325
Si Si2 0.681406 0.171984 0.351337
Si Si3 0.205366 0.150544 0.408250
Si Si4 0.490729 0.210857 0.712795
Si Si5 0.906079 0.133627 0.297367
Si Si6 0.585156 0.526008 0.622044
Si Si7 0.198275 0.652625 0.417809
Si Si8 0.667843 0.671291 0.308114
O O1 0.142357 0.335612 0.516186
O O2 0.080602 0.715206 0.698293
O O3 0.000000 0.500000 0.500000
O O4 0.152795 0.531923 0.045718
O O5 0.657939 0.323371 0.599947
O O6 0.770698 0.185023 0.476649
O O7 0.711386 0.958349 0.327373
O O8 0.591672 0.223968 0.029687
O O9 0.255573 0.211445 0.401296
O O10 0.151112 0.001936 0.063142
O O11 0.448389 0.365100 0.572358
O O12 0.428614 0.230796 0.761257
O O13 0.500000 0.000000 0.500000
O O14 0.865063 0.252166 0.485871
O O15 0.000000 0.000000 0.500000
O O16 0.500000 0.500000 0.500000
O O17 0.645185 0.637566 0.993933
O O18 0.291052 0.517606 0.626603
#
# Coordination Sequence:
#
# PCOD8037235 Si02
#       8
#     2   2   2   2   2   2   2   2
#     4  12  29  53  79 113 151 188 243 311 376 452
#     4  12  25  46  72 106 146 199 249 300 365 429
#     4  12  28  48  79 111 153 195 248 306 369 447
#     4  12  28  43  67 105 147 200 250 301 360 426
#     4  12  29  52  78 116 148 192 243 303 384 452
#     4  12  24  46  68  99 147 195 251 308 360 417
#     4  12  26  48  79 108 153 195 246 305 369 443
#     4  12  26  46  72 105 151 198 247 303 364 428
#
# _framework density 22.073184000000001
#
# number of rings (size 3 to 8) (size 9 to 14) (size 15 to 20)
#    0.000    0.000    5.000    4.125    8.750    3.000 
#    0.000    0.000    0.000    0.000    0.000    0.000 
#    0.000    0.000    0.000    0.000    0.000    0.000 
#
# Total GULP energy -198364.460401 kJ/mol
# GULP energy per Si atom -12397.778775 kJ/mol
# Density = 2.202294 g / cm^3
# Si number density = 22.073184 Si / 1000 Ang^3
#
#
#
# Elastic Constant Matrix: (Units=GPa)
#
#
# Indices 1 2 3 4 5 6 
#
# 1 107.2491 19.7020 44.3924 4.1815 14.9473 19.6488
# 2 19.7020 117.9664 42.0817 -1.7983 3.5433 6.2447
# 3 44.3924 42.0817 127.3297 3.7028 -1.6586 -1.7421
# 4 4.1815 -1.7983 3.7028 39.9028 1.1063 6.5888
# 5 14.9473 3.5433 -1.6586 1.1063 33.7644 -0.4907
# 6 19.6488 6.2447 -1.7421 6.5888 -0.4907 30.6253
#
#
#
# Elastic Compliance Matrix: (Units=1/GPa)
#
#
# Indices 1 2 3 4 5 6 
#
# 1 0.014133 0.000239 -0.005250 0.000804 -0.006707 -0.009695
# 2 0.000239 0.009861 -0.003432 0.001213 -0.001388 -0.002643
# 3 -0.005250 -0.003432 0.010977 -0.001555 0.003348 0.005081
# 4 0.000804 0.001213 -0.001555 0.026296 -0.001516 -0.006533
# 5 -0.006707 -0.001388 0.003348 -0.001516 0.033028 0.005632
# 6 -0.009695 -0.002643 0.005081 -0.006533 0.005632 0.041197
#
#
# Mechanical properties :
#
#
# Convention : Reuss Voigt Hill
#
# Bulk Modulus (GPa) = 55.29252 62.76639 59.02946
# Shear Modulus (GPa) = 31.56470 37.28310 34.42390
#
# Velocity S-wave (km/s) = 3.78564 4.11429 3.95338
# Velocity P-wave (km/s) = 6.64922 7.14613 6.90214
#
# Compressibility (1/GPa) = 0.01808563
#
# Stress axis : x y z
#
# Youngs Moduli (GPa) = 70.75798 101.40563 91.10367
#
# Poissons Ratio (x) = -0.02427 0.47827
# Poissons Ratio (y) = -0.01693 0.31267
# Poissons Ratio (z) = 0.37146 0.34803
#
# Static dielectric constant tensor:
#      x y z
#    x 4.032780 0.009210 0.008200 
#    y 0.009210 2.924350 -0.145060 
#    z 0.008200 -0.145060 4.206990 
# 
# 
# High freq. dielectric constant tensor:
#      x y z
#    x 1.886320 0.001040 0.003440 
#    y 0.001040 1.882970 0.000040 
#    z 0.003440 0.000040 1.879730 
# 
# From -- ./inp_files/117499.got.cif
#   From: 2010.06.25/outbox.cif.g09.slc.cpg/sg2_59_cif.got.tgz:117499.got - 2010.06.27 13:26:56.
