data_PCOD8037492
_publ_section_title
;
Structure prediction by ZEFSAII (Michael W. Deem and Ramdas Pophale) SiO2 
 PCOD8037492
Probable space group: P -1
;
_chemical_formula_sum "Si O2"
_cell_formula_units_Z 16
_cell_length_a 14.108998
_cell_length_b 8.010105
_cell_length_c 11.494141
_cell_angle_alpha 84.438731
_cell_angle_beta 146.483293
_cell_angle_gamma 106.918229
_cell_volume 659.622307
_symmetry_space_group_name_H-M "P -1"
_symmetry_group_IT_number 2
_symmetry_cell_setting 'triclinic'
loop_
_space_group_symop_operation_xyz
x,y,z
-x,-y,-z
loop_
_atom_site_type_symbol
_atom_site_label
_atom_site_fract_x
_atom_site_fract_y
_atom_site_fract_z
Si Si1 0.569411 0.608229 0.381482
Si Si2 0.672917 0.550670 0.258654
Si Si3 0.459645 0.034106 0.588802
Si Si4 0.805437 0.259566 0.504228
Si Si5 0.089909 0.357575 0.136920
Si Si6 0.834177 0.698462 0.030583
Si Si7 0.831511 0.070656 0.070796
Si Si8 0.952533 0.173529 0.435768
O O1 0.655773 0.680989 0.336925
O O2 0.710120 0.539559 0.602293
O O3 0.374326 0.447124 0.165501
O O4 0.546354 0.767482 0.421854
O O5 0.682282 0.378146 0.349477
O O6 0.858792 0.647471 0.367647
O O7 0.500000 0.500000 0.000000
O O8 0.273076 0.883951 0.460993
O O9 0.500000 0.000000 0.500000
O O10 0.617519 0.018538 0.831823
O O11 0.807023 0.165929 0.387670
O O12 0.018511 0.377476 0.755396
O O13 0.120404 0.256133 0.061186
O O14 0.955243 0.203248 0.091090
O O15 0.000000 0.500000 0.000000
O O16 0.865453 0.883285 0.120547
O O17 0.866576 0.176123 0.221392
O O18 0.000000 0.000000 0.500000
#
# Coordination Sequence:
#
# PCOD8037492 Si02
#       8
#     2   2   2   2   2   2   2   2
#     4  12  26  48  75 114 150 194 257 306 378 451
#     4  12  28  48  76 112 154 199 256 309 374 454
#     4  12  28  51  78 113 154 198 254 311 380 455
#     4  12  27  49  78 109 153 200 255 307 384 447
#     4  12  25  47  75 106 149 199 250 314 381 449
#     4  12  25  45  76 109 148 200 247 314 378 446
#     4  12  26  47  74 108 152 197 254 311 381 450
#     4  12  26  50  76 107 151 200 253 313 377 444
#
# _framework density 24.256304
#
# number of rings (size 3 to 8) (size 9 to 14) (size 15 to 20)
#    0.000    0.000    2.500    7.125    5.250    2.500 
#    0.000    0.000    0.000    0.000    0.000    0.000 
#    0.000    0.000    0.000    0.000    0.000    0.000 
#
# Total GULP energy -198435.239886 kJ/mol
# GULP energy per Si atom -12402.202493 kJ/mol
# Density = 2.420110 g / cm^3
# Si number density = 24.256304 Si / 1000 Ang^3
#
#
#
# Elastic Constant Matrix: (Units=GPa)
#
#
# Indices 1 2 3 4 5 6 
#
# 1 163.9542 31.3936 31.5506 6.7045 -14.3759 1.6283
# 2 31.3936 108.5818 36.7066 2.2422 5.4549 3.1061
# 3 31.5506 36.7066 182.5507 -9.5031 0.1767 -5.5855
# 4 6.7045 2.2422 -9.5031 37.0776 0.4949 2.1414
# 5 -14.3759 5.4549 0.1767 0.4949 38.8674 2.7080
# 6 1.6283 3.1061 -5.5855 2.1414 2.7080 35.6560
#
#
#
# Elastic Compliance Matrix: (Units=1/GPa)
#
#
# Indices 1 2 3 4 5 6 
#
# 1 0.006934 -0.001794 -0.000927 -0.001396 0.002869 -0.000440
# 2 -0.001794 0.010503 -0.001865 -0.000708 -0.002056 -0.000927
# 3 -0.000927 -0.001865 0.006140 0.001795 -0.000207 0.001074
# 4 -0.001396 -0.000708 0.001795 0.027805 -0.000695 -0.001211
# 5 0.002869 -0.002056 -0.000207 -0.000695 0.027228 -0.002011
# 6 -0.000440 -0.000927 0.001074 -0.001211 -0.002011 0.028540
#
#
# Mechanical properties :
#
#
# Convention : Reuss Voigt Hill
#
# Bulk Modulus (GPa) = 69.41940 72.70979 71.06459
# Shear Modulus (GPa) = 41.28007 46.01594 43.64800
#
# Velocity S-wave (km/s) = 4.12980 4.36026 4.24659
# Velocity P-wave (km/s) = 7.17088 7.44244 7.30792
#
# Compressibility (1/GPa) = 0.01440519
#
# Stress axis : x y z
#
# Youngs Moduli (GPa) = 144.21360 95.20792 162.87771
#
# Poissons Ratio (x) = 0.17084 0.15091
# Poissons Ratio (y) = 0.25877 0.30377
# Poissons Ratio (z) = 0.13362 0.17757
#
# Static dielectric constant tensor:
#      x y z
#    x 5.019070 -0.126500 -0.223650 
#    y -0.126500 4.282170 0.005010 
#    z -0.223650 0.005010 4.844760 
# 
# 
# High freq. dielectric constant tensor:
#      x y z
#    x 1.989240 -0.000850 -0.004900 
#    y -0.000850 1.947880 -0.004530 
#    z -0.004900 -0.004530 1.982680 
# 
# From -- ./inp_files/447420.got.cif
#   From: 2010.06.25/outbox.cif.g09.slc.cpg/sg2_224_cif.got.tgz:447420.got - 2010.06.27 13:26:56.
