data_PCOD8037479
_publ_section_title
;
Structure prediction by ZEFSAII (Michael W. Deem and Ramdas Pophale) SiO2 
 PCOD8037479
Probable space group: P -1
;
_chemical_formula_sum "Si O2"
_cell_formula_units_Z 16
_cell_length_a 12.461935
_cell_length_b 6.534413
_cell_length_c 11.690816
_cell_angle_alpha 79.914436
_cell_angle_beta 50.158707
_cell_angle_gamma 88.474802
_cell_volume 715.045046
_symmetry_space_group_name_H-M "P -1"
_symmetry_group_IT_number 2
_symmetry_cell_setting 'triclinic'
loop_
_space_group_symop_operation_xyz
x,y,z
-x,-y,-z
loop_
_atom_site_type_symbol
_atom_site_label
_atom_site_fract_x
_atom_site_fract_y
_atom_site_fract_z
Si Si1 0.634041 0.579283 0.216887
Si Si2 0.134074 0.786650 0.193299
Si Si3 0.162650 0.027961 0.917604
Si Si4 0.640802 0.159284 0.379511
Si Si5 0.656909 0.249889 0.608213
Si Si6 0.772173 0.923114 0.707570
Si Si7 0.111496 0.392799 0.508052
Si Si8 0.650421 0.529365 0.950645
O O1 0.776539 0.727958 0.137437
O O2 0.604479 0.386388 0.342214
O O3 0.505075 0.716123 0.297694
O O4 0.646636 0.485294 0.091820
O O5 0.245052 0.621466 0.161359
O O6 0.972480 0.675326 0.308961
O O7 0.122284 0.923471 0.303070
O O8 0.181966 0.915406 0.035867
O O9 0.245645 0.920488 0.773874
O O10 0.000000 0.000000 0.000000
O O11 0.712731 0.185991 0.452437
O O12 0.500000 0.000000 0.500000
O O13 0.748932 0.456725 0.571408
O O14 0.659591 0.056194 0.711467
O O15 0.847402 0.807055 0.568604
O O16 0.700447 0.768917 0.866884
O O17 0.000000 0.500000 0.500000
O O18 0.500000 0.500000 0.000000
#
# Coordination Sequence:
#
# PCOD8037479 Si02
#       8
#     2   2   2   2   2   2   2   2
#     4  12  27  51  74 110 147 197 262 307 375 451
#     4  12  26  48  70 109 155 194 246 309 376 453
#     4  12  30  49  77 111 150 205 254 314 382 442
#     4  12  29  51  79 106 152 200 260 315 371 449
#     4  12  29  45  79 109 147 199 251 313 375 446
#     4  12  25  45  74 110 148 195 244 307 383 441
#     4  12  26  45  70 112 151 190 243 299 377 456
#     4  12  26  43  75 107 153 193 244 308 375 452
#
# _framework density 22.376211000000001
#
# number of rings (size 3 to 8) (size 9 to 14) (size 15 to 20)
#    0.000    0.000    6.250    2.250    8.750    2.500 
#    0.000    0.000    0.000    0.000    0.000    0.000 
#    0.000    0.000    0.000    0.000    0.000    0.000 
#
# Total GULP energy -198412.849081 kJ/mol
# GULP energy per Si atom -12400.803068 kJ/mol
# Density = 2.232528 g / cm^3
# Si number density = 22.376211 Si / 1000 Ang^3
#
#
#
# Elastic Constant Matrix: (Units=GPa)
#
#
# Indices 1 2 3 4 5 6 
#
# 1 115.9506 53.6753 36.3288 -3.2413 -9.2469 7.7549
# 2 53.6753 128.9655 47.3752 -6.3597 -0.9332 1.3734
# 3 36.3288 47.3752 117.1886 -3.5450 0.4964 3.8139
# 4 -3.2413 -6.3597 -3.5450 53.4487 -0.1389 8.4638
# 5 -9.2469 -0.9332 0.4964 -0.1389 46.7738 0.4380
# 6 7.7549 1.3734 3.8139 8.4638 0.4380 34.7326
#
#
#
# Elastic Compliance Matrix: (Units=1/GPa)
#
#
# Indices 1 2 3 4 5 6 
#
# 1 0.011399 -0.004007 -0.001833 0.000467 0.002216 -0.002327
# 2 -0.004007 0.010556 -0.003022 0.000709 -0.000553 0.000643
# 3 -0.001833 -0.003022 0.010358 0.000323 -0.000525 -0.000680
# 4 0.000467 0.000709 0.000323 0.019629 0.000208 -0.004954
# 5 0.002216 -0.000553 -0.000525 0.000208 0.021820 -0.000741
# 6 -0.002327 0.000643 -0.000680 -0.004954 -0.000741 0.030577
#
#
# Mechanical properties :
#
#
# Convention : Reuss Voigt Hill
#
# Bulk Modulus (GPa) = 68.55300 70.76260 69.65780
# Shear Modulus (GPa) = 39.39309 41.97272 40.68291
#
# Velocity S-wave (km/s) = 4.20037 4.33572 4.26858
# Velocity P-wave (km/s) = 7.36391 7.53374 7.44931
#
# Compressibility (1/GPa) = 0.01458725
#
# Stress axis : x y z
#
# Youngs Moduli (GPa) = 87.72620 94.73203 96.54742
#
# Poissons Ratio (x) = 0.37958 0.17701
# Poissons Ratio (y) = 0.35151 0.29181
# Poissons Ratio (z) = 0.16084 0.28632
#
# Static dielectric constant tensor:
#      x y z
#    x 4.026610 0.133800 -0.025680 
#    y 0.133800 4.484940 -0.288770 
#    z -0.025680 -0.288770 4.605100 
# 
# 
# High freq. dielectric constant tensor:
#      x y z
#    x 1.875460 0.003590 0.003820 
#    y 0.003590 1.895830 -0.003540 
#    z 0.003820 -0.003540 1.904840 
# 
# From -- ./inp_files/410213.got.cif
#   From: 2010.06.25/outbox.cif.g09.slc.cpg/sg2_206_cif.got.tgz:410213.got - 2010.06.27 13:26:56.
