data_PCOD8037341
_publ_section_title
;
Structure prediction by ZEFSAII (Michael W. Deem and Ramdas Pophale) SiO2 
 PCOD8037341
Probable space group: P -1
;
_chemical_formula_sum "Si O2"
_cell_formula_units_Z 12
_cell_length_a 11.930577
_cell_length_b 11.667756
_cell_length_c 5.681183
_cell_angle_alpha 50.702179
_cell_angle_beta 120.539816
_cell_angle_gamma 131.860679
_cell_volume 450.758215
_symmetry_space_group_name_H-M "P -1"
_symmetry_group_IT_number 2
_symmetry_cell_setting 'triclinic'
loop_
_space_group_symop_operation_xyz
x,y,z
-x,-y,-z
loop_
_atom_site_type_symbol
_atom_site_label
_atom_site_fract_x
_atom_site_fract_y
_atom_site_fract_z
Si Si1 0.158228 0.297652 0.887777
Si Si2 0.927040 0.307194 0.270769
Si Si3 0.493087 0.079493 0.641565
Si Si4 0.400586 0.326438 0.764962
Si Si5 0.794566 0.944762 0.464585
Si Si6 0.689987 0.347449 0.219663
O O1 0.317608 0.364674 0.836502
O O2 0.200228 0.445601 0.938223
O O3 0.027524 0.291156 0.600249
O O4 0.104173 0.116919 0.202149
O O5 0.764051 0.256839 0.269282
O O6 0.893749 0.153762 0.248561
O O7 0.000000 0.500000 0.000000
O O8 0.347136 0.100862 0.458773
O O9 0.650988 0.270527 0.546689
O O10 0.500000 0.000000 0.500000
O O11 0.500000 0.000000 0.000000
O O12 0.500000 0.500000 0.500000
O O13 0.263447 0.163180 0.695527
O O14 0.521372 0.273290 0.032566
#
# Coordination Sequence:
#
# PCOD8037341 Si02
#       6
#     2   2   2   2   2   2
#     4  12  27  51  75 112 161 211 268 329 410 498
#     4  12  30  52  77 114 165 220 271 326 413 496
#     4  12  26  47  81 125 160 207 273 353 414 483
#     4  12  24  47  83 118 157 203 272 345 412 481
#     4  12  27  49  81 115 158 211 272 337 410 489
#     4  12  25  52  80 120 160 209 275 345 412 485
#
# _framework density 26.621808000000001
#
# number of rings (size 3 to 8) (size 9 to 14) (size 15 to 20)
#    0.000    0.000    5.000    4.500    2.333    0.667 
#    3.000    0.000    0.000    0.000    0.000    0.000 
#    0.000    0.000    0.000    0.000    0.000    0.000 
#
# Total GULP energy -148693.728354 kJ/mol
# GULP energy per Si atom -12391.144030 kJ/mol
# Density = 2.656122 g / cm^3
# Si number density = 26.621808 Si / 1000 Ang^3
#
#
#
# Elastic Constant Matrix: (Units=GPa)
#
#
# Indices 1 2 3 4 5 6 
#
# 1 86.4937 -7.3877 29.7297 11.8161 31.7673 -4.8001
# 2 -7.3877 150.6542 55.1625 -23.1566 9.5523 -19.3526
# 3 29.7297 55.1625 164.9164 -16.6061 24.2457 -0.4917
# 4 11.8161 -23.1566 -16.6061 57.7989 9.3320 3.2718
# 5 31.7673 9.5523 24.2457 9.3320 43.0525 1.8282
# 6 -4.8001 -19.3526 -0.4917 3.2718 1.8282 40.0768
#
#
#
# Elastic Compliance Matrix: (Units=1/GPa)
#
#
# Indices 1 2 3 4 5 6 
#
# 1 0.017481 0.002824 -0.002466 -0.001445 -0.011998 0.004093
# 2 0.002824 0.008965 -0.002766 0.002485 -0.003248 0.004579
# 3 -0.002466 -0.002766 0.008015 0.002191 -0.002488 -0.001598
# 4 -0.001445 0.002485 0.002191 0.020057 -0.005051 -0.000353
# 5 -0.011998 -0.003248 -0.002488 -0.005051 0.035477 -0.004242
# 6 0.004093 0.004579 -0.001598 -0.000353 -0.004242 0.027856
#
#
# Mechanical properties :
#
#
# Convention : Reuss Voigt Hill
#
# Bulk Modulus (GPa) = 33.73118 61.89701 47.81410
# Shear Modulus (GPa) = 37.72180 49.82297 43.77239
#
# Velocity S-wave (km/s) = 3.76832 4.33079 4.05931
# Velocity P-wave (km/s) = 5.62421 6.95044 6.32220
#
# Compressibility (1/GPa) = 0.02964616
#
# Stress axis : x y z
#
# Youngs Moduli (GPa) = 57.20409 111.54173 124.76533
#
# Poissons Ratio (x) = -0.31503 0.30761
# Poissons Ratio (y) = -0.16156 0.34516
# Poissons Ratio (z) = 0.14104 0.30858
#
# Static dielectric constant tensor:
#      x y z
#    x 5.206810 0.160800 -0.113040 
#    y 0.160800 5.203810 -0.836200 
#    z -0.113040 -0.836200 6.106850 
# 
# 
# High freq. dielectric constant tensor:
#      x y z
#    x 2.083440 -0.003100 0.014630 
#    y -0.003100 2.077550 -0.025330 
#    z 0.014630 -0.025330 2.077970 
# 
# From -- ./inp_files/68249.got.cif
#   From: 2010.06.25/outbox.cif.g09.slc.cpg/sg2_35_cif.got.tgz:68249.got - 2010.06.27 13:26:56.
