data_PCOD8037647
_publ_section_title
;
Structure prediction by ZEFSAII (Michael W. Deem and Ramdas Pophale) SiO2 
 PCOD8037647
Probable space group: P -1
;
_chemical_formula_sum "Si O2"
_cell_formula_units_Z 16
_cell_length_a 12.168348
_cell_length_b 8.972880
_cell_length_c 9.647884
_cell_angle_alpha 59.009254
_cell_angle_beta 108.025715
_cell_angle_gamma 126.976977
_cell_volume 721.411932
_symmetry_space_group_name_H-M "P -1"
_symmetry_group_IT_number 2
_symmetry_cell_setting 'triclinic'
loop_
_space_group_symop_operation_xyz
x,y,z
-x,-y,-z
loop_
_atom_site_type_symbol
_atom_site_label
_atom_site_fract_x
_atom_site_fract_y
_atom_site_fract_z
Si Si1 0.599998 0.205956 0.519534
Si Si2 0.062800 0.879378 0.651190
Si Si3 0.368667 0.855914 0.112914
Si Si4 0.283594 0.130719 0.845340
Si Si5 0.213036 0.400454 0.171738
Si Si6 0.877115 0.760962 0.079606
Si Si7 0.111869 0.592334 0.614526
Si Si8 0.524269 0.533408 0.651630
O O1 0.599638 0.175915 0.701073
O O2 0.747718 0.304439 0.463685
O O3 0.542433 0.343851 0.383118
O O4 0.500000 0.000000 0.500000
O O5 0.103933 0.765658 0.612200
O O6 0.942361 0.712044 0.782682
O O7 0.200327 0.031119 0.718512
O O8 0.000000 0.000000 0.500000
O O9 0.277108 0.642419 0.097654
O O10 0.500000 0.000000 0.000000
O O11 0.278710 0.960398 0.027154
O O12 0.221417 0.250059 0.834236
O O13 0.444602 0.303374 0.797071
O O14 0.312028 0.343476 0.315954
O O15 0.211581 0.327401 0.051150
O O16 0.922191 0.601546 0.209775
O O17 0.000000 0.000000 0.000000
O O18 0.000000 0.500000 0.500000
O O19 0.500000 0.500000 0.500000
#
# Coordination Sequence:
#
# PCOD8037647 Si02
#       8
#     2   2   2   2   2   2   2   2
#     4  12  30  47  75 113 153 195 252 311 379 442
#     4  12  28  46  78 109 148 200 253 311 381 451
#     4  12  27  48  75 113 150 198 247 309 378 455
#     4  12  26  47  74 106 151 191 253 310 378 446
#     4  12  27  46  79 106 150 198 256 305 382 445
#     4  12  28  49  74 112 150 197 251 317 378 447
#     4  12  29  49  75 107 153 193 253 312 377 450
#     4  12  25  49  76 106 145 195 249 311 370 452
#
# _framework density 22.178729000000001
#
# number of rings (size 3 to 8) (size 9 to 14) (size 15 to 20)
#    0.000    0.000    5.000    3.000   12.250    1.500 
#    0.000    0.000    0.000    0.000    0.000    0.000 
#    0.000    0.000    0.000    0.000    0.000    0.000 
#
# Total GULP energy -198360.649697 kJ/mol
# GULP energy per Si atom -12397.540606 kJ/mol
# Density = 2.212825 g / cm^3
# Si number density = 22.178729 Si / 1000 Ang^3
#
#
#
# Elastic Constant Matrix: (Units=GPa)
#
#
# Indices 1 2 3 4 5 6 
#
# 1 102.5400 30.0227 17.3678 -5.6056 2.1027 -12.9583
# 2 30.0227 145.6746 42.1999 8.0268 -0.2137 -14.1311
# 3 17.3678 42.1999 105.6745 -0.2941 12.7965 -10.8303
# 4 -5.6056 8.0268 -0.2941 49.5322 -1.8344 1.0772
# 5 2.1027 -0.2137 12.7965 -1.8344 46.9245 -3.7456
# 6 -12.9583 -14.1311 -10.8303 1.0772 -3.7456 49.2573
#
#
#
# Elastic Compliance Matrix: (Units=1/GPa)
#
#
# Indices 1 2 3 4 5 6 
#
# 1 0.010780 -0.001868 -0.000802 0.001471 -0.000049 0.002088
# 2 -0.001868 0.008340 -0.003009 -0.001574 0.000989 0.001349
# 3 -0.000802 -0.003009 0.011274 0.000329 -0.002946 0.001173
# 4 0.001471 -0.001574 0.000329 0.020644 0.000612 -0.000397
# 5 -0.000049 0.000989 -0.002946 0.000612 0.022249 0.001302
# 6 0.002088 0.001349 0.001173 -0.000397 0.001302 0.021604
#
#
# Mechanical properties :
#
#
# Convention : Reuss Voigt Hill
#
# Bulk Modulus (GPa) = 52.53031 59.23001 55.88016
# Shear Modulus (GPa) = 44.40684 46.76271 45.58478
#
# Velocity S-wave (km/s) = 4.47948 4.59677 4.53850
# Velocity P-wave (km/s) = 7.10568 7.41198 7.26045
#
# Compressibility (1/GPa) = 0.01903663
#
# Stress axis : x y z
#
# Youngs Moduli (GPa) = 92.76172 119.89776 88.69585
#
# Poissons Ratio (x) = 0.22398 0.07112
# Poissons Ratio (y) = 0.17328 0.26693
# Poissons Ratio (z) = 0.07438 0.36083
#
# Static dielectric constant tensor:
#      x y z
#    x 4.131980 -0.165040 0.117420 
#    y -0.165040 3.975130 0.125210 
#    z 0.117420 0.125210 3.965180 
# 
# 
# High freq. dielectric constant tensor:
#      x y z
#    x 1.892640 -0.004020 0.005820 
#    y -0.004020 1.894930 -0.004430 
#    z 0.005820 -0.004430 1.879330 
# 
# From -- ./inp_files/242643.got.cif
#   From: 2010.06.25/outbox.cif.g09.slc.cpg/sg2_122_cif.got.tgz:242643.got - 2010.06.27 13:26:56.
