data_PCOD8037208
_publ_section_title
;
Structure prediction by ZEFSAII (Michael W. Deem and Ramdas Pophale) SiO2 
 PCOD8037208
Probable space group: P -1
;
_chemical_formula_sum "Si O2"
_cell_formula_units_Z 14
_cell_length_a 8.863022
_cell_length_b 9.012751
_cell_length_c 23.936136
_cell_angle_alpha 40.068677
_cell_angle_beta 29.396731
_cell_angle_gamma 48.224226
_cell_volume 604.132435
_symmetry_space_group_name_H-M "P -1"
_symmetry_group_IT_number 2
_symmetry_cell_setting 'triclinic'
loop_
_space_group_symop_operation_xyz
x,y,z
-x,-y,-z
loop_
_atom_site_type_symbol
_atom_site_label
_atom_site_fract_x
_atom_site_fract_y
_atom_site_fract_z
Si Si1 0.181568 0.443408 0.287397
Si Si2 0.743628 0.106661 0.932794
Si Si3 0.384338 0.897254 0.797181
Si Si4 0.261262 0.535907 0.358913
Si Si5 0.328402 0.898952 0.636702
Si Si6 0.376752 0.054957 0.174163
Si Si7 0.415907 0.767640 0.450479
O O1 0.124582 0.655456 0.202876
O O2 0.518301 0.329111 0.205059
O O3 0.111071 0.531295 0.347307
O O4 0.938800 0.234599 0.413559
O O5 0.017734 0.923862 0.905343
O O6 0.500000 0.000000 0.000000
O O7 0.588585 0.156923 0.027595
O O8 0.503344 0.839239 0.837370
O O9 0.548390 0.127348 0.653438
O O10 0.532271 0.351115 0.325654
O O11 0.419563 0.781643 0.244750
O O12 0.000000 0.500000 0.500000
O O13 0.500000 0.000000 0.500000
O O14 0.373890 0.072901 0.623667
O O15 0.970599 0.871051 0.747438
O O16 0.500000 0.500000 0.500000
#
# Coordination Sequence:
#
# PCOD8037208 Si02
#       7
#     2   2   2   2   2   2   2
#     4  12  26  46  75 106 143 194 238 299 368 428
#     4  12  27  50  75 103 144 192 246 296 359 440
#     4  12  27  47  75 107 146 187 245 300 365 429
#     4  12  25  44  73 109 146 189 238 299 367 423
#     4  12  26  44  72 111 147 187 240 299 363 431
#     4  12  27  48  73 108 147 192 243 299 360 433
#     4  12  24  45  74 106 146 187 239 301 362 426
#
# _framework density 23.173727
#
# number of rings (size 3 to 8) (size 9 to 14) (size 15 to 20)
#    0.000    0.000    5.714    4.286    2.000    3.429 
#    0.000    0.000    0.000    0.000    0.000    0.000 
#    0.000    0.000    0.000    0.000    0.000    0.000 
#
# Total GULP energy -173637.955503 kJ/mol
# GULP energy per Si atom -12402.711107 kJ/mol
# Density = 2.312098 g / cm^3
# Si number density = 23.173727 Si / 1000 Ang^3
#
#
#
# Elastic Constant Matrix: (Units=GPa)
#
#
# Indices 1 2 3 4 5 6 
#
# 1 131.5597 38.4794 58.4945 23.1192 9.3697 -0.2202
# 2 38.4794 127.0329 17.3178 20.0917 0.3939 -15.0618
# 3 58.4945 17.3178 110.3730 25.5530 16.4349 0.1440
# 4 23.1192 20.0917 25.5530 43.2023 -4.2354 -1.8155
# 5 9.3697 0.3939 16.4349 -4.2354 52.0061 9.5872
# 6 -0.2202 -15.0618 0.1440 -1.8155 9.5872 38.4138
#
#
#
# Elastic Compliance Matrix: (Units=1/GPa)
#
#
# Indices 1 2 3 4 5 6 
#
# 1 0.010828 -0.002422 -0.004868 -0.001862 -0.000387 -0.000861
# 2 -0.002422 0.009505 0.000716 -0.003472 -0.000837 0.003755
# 3 -0.004868 0.000716 0.013546 -0.006101 -0.004078 0.000931
# 4 -0.001862 -0.003472 -0.006101 0.029801 0.004933 -0.001172
# 5 -0.000387 -0.000837 -0.004078 0.004933 0.022023 -0.005578
# 6 -0.000861 0.003755 0.000931 -0.001172 -0.005578 0.028833
#
#
# Mechanical properties :
#
#
# Convention : Reuss Voigt Hill
#
# Bulk Modulus (GPa) = 48.24104 66.39432 57.31768
# Shear Modulus (GPa) = 37.14833 43.70270 40.42551
#
# Velocity S-wave (km/s) = 4.00814 4.34737 4.18120
# Velocity P-wave (km/s) = 6.50250 7.34251 6.93524
#
# Compressibility (1/GPa) = 0.02072924
#
# Stress axis : x y z
#
# Youngs Moduli (GPa) = 92.35657 105.20701 73.82092
#
# Poissons Ratio (x) = 0.25486 0.35939
# Poissons Ratio (y) = 0.22373 -0.05285
# Poissons Ratio (z) = 0.44962 -0.07532
#
# Static dielectric constant tensor:
#      x y z
#    x 4.186410 -0.068960 0.091870 
#    y -0.068960 4.188760 0.130010 
#    z 0.091870 0.130010 4.162430 
# 
# 
# High freq. dielectric constant tensor:
#      x y z
#    x 1.922270 -0.011490 0.015780 
#    y -0.011490 1.928740 0.013340 
#    z 0.015780 0.013340 1.917190 
# 
# From -- ./inp_files/185480.got.cif
#   From: 2010.06.25/outbox.cif.g09.slc.cpg/sg2_93_cif.got.tgz:185480.got - 2010.06.27 13:26:56.
