data_PCOD8037913
_publ_section_title
;
Structure prediction by ZEFSAII (Michael W. Deem and Ramdas Pophale) SiO2 
 PCOD8037913
Probable space group: P -1
;
_chemical_formula_sum "Si O2"
_cell_formula_units_Z 16
_cell_length_a 11.241345
_cell_length_b 11.563206
_cell_length_c 19.701089
_cell_angle_alpha 136.180162
_cell_angle_beta 31.755205
_cell_angle_gamma 117.045872
_cell_volume 839.899486
_symmetry_space_group_name_H-M "P -1"
_symmetry_group_IT_number 2
_symmetry_cell_setting 'triclinic'
loop_
_space_group_symop_operation_xyz
x,y,z
-x,-y,-z
loop_
_atom_site_type_symbol
_atom_site_label
_atom_site_fract_x
_atom_site_fract_y
_atom_site_fract_z
Si Si1 0.109258 0.086530 0.928003
Si Si2 0.836461 0.976635 0.371531
Si Si3 0.933857 0.925774 0.569437
Si Si4 0.823794 0.460344 0.163265
Si Si5 0.440956 0.233758 0.911818
Si Si6 0.307719 0.553445 0.205305
Si Si7 0.768679 0.422851 0.020354
Si Si8 0.429790 0.839068 0.548363
O O1 0.271358 0.180319 0.922456
O O2 0.269117 0.923399 0.729469
O O3 0.876847 0.254821 0.075002
O O4 0.000000 0.000000 0.000000
O O5 0.603968 0.941761 0.494320
O O6 0.750724 0.124821 0.414301
O O7 0.917457 0.052123 0.429419
O O8 0.066754 0.796565 0.154409
O O9 0.025632 0.702561 0.426249
O O10 0.635014 0.043099 0.774021
O O11 0.000000 0.000000 0.500000
O O12 0.728786 0.495522 0.147064
O O13 0.602296 0.618605 0.381698
O O14 0.083897 0.481172 0.052506
O O15 0.590011 0.331644 0.843064
O O16 0.277931 0.383604 0.111275
O O17 0.495899 0.475133 0.144033
#
# Coordination Sequence:
#
# PCOD8037913 Si02
#       8
#     2   2   2   2   2   2   2   2
#     4  12  25  41  57  79 118 161 199 232 272 346
#     4  10  18  32  57  90 120 144 179 241 304 341
#     4  10  19  29  50  81 118 148 172 223 294 352
#     4  10  21  34  57  84 113 150 189 235 289 335
#     4  10  21  34  50  79 112 150 189 224 285 341
#     4  10  18  31  55  82 116 141 174 239 292 343
#     4  10  17  32  58  88 118 142 179 240 297 341
#     4  10  21  35  57  85 115 148 193 241 287 340
#
# _framework density 19.049897999999999
#
# number of rings (size 3 to 8) (size 9 to 14) (size 15 to 20)
#    0.000    1.750    3.750    2.250    1.750    1.500 
#    0.000    0.000    0.000    3.000    0.000    3.500 
#    0.000    0.000    0.000    0.000    0.000    0.000 
#
# Total GULP energy -198313.033017 kJ/mol
# GULP energy per Si atom -12394.564564 kJ/mol
# Density = 1.900654 g / cm^3
# Si number density = 19.049898 Si / 1000 Ang^3
#
#
#
# Elastic Constant Matrix: (Units=GPa)
#
#
# Indices 1 2 3 4 5 6 
#
# 1 101.8029 13.4929 45.6929 5.8090 9.6910 -2.9016
# 2 13.4929 43.4387 44.8863 11.2902 3.8266 -14.4389
# 3 45.6929 44.8863 153.4959 27.3455 13.3942 -11.3548
# 4 5.8090 11.2902 27.3455 17.9517 -1.6797 -0.0204
# 5 9.6910 3.8266 13.3942 -1.6797 32.9585 8.2679
# 6 -2.9016 -14.4389 -11.3548 -0.0204 8.2679 15.5235
#
#
#
# Elastic Compliance Matrix: (Units=1/GPa)
#
#
# Indices 1 2 3 4 5 6 
#
# 1 0.011505 0.000180 -0.003420 0.001169 -0.002203 0.000992
# 2 0.000180 0.059763 -0.005189 -0.031773 -0.022499 0.063767
# 3 -0.003420 -0.005189 0.013010 -0.016034 -0.006356 0.007415
# 4 0.001169 -0.031773 -0.016034 0.102407 0.029257 -0.056510
# 5 -0.002203 -0.022499 -0.006356 0.029257 0.050999 -0.053112
# 6 0.000992 0.063767 0.007415 -0.056510 -0.053112 0.157553
#
#
# Mechanical properties :
#
#
# Convention : Reuss Voigt Hill
#
# Bulk Modulus (GPa) = 14.83230 56.32017 35.57623
# Shear Modulus (GPa) = 11.50563 26.26442 18.88502
#
# Velocity S-wave (km/s) = 2.46025 3.71714 3.15198
# Velocity P-wave (km/s) = 3.98414 6.93192 5.65354
#
# Compressibility (1/GPa) = 0.06742044
#
# Stress axis : x y z
#
# Youngs Moduli (GPa) = 86.91530 16.73270 76.86346
#
# Poissons Ratio (x) = -0.00302 0.26290
# Poissons Ratio (y) = -0.01568 0.39887
# Poissons Ratio (z) = 0.29728 0.08683
#
# Static dielectric constant tensor:
#      x y z
#    x 3.615280 -0.041190 -0.013830 
#    y -0.041190 2.960850 0.474550 
#    z -0.013830 0.474550 4.035740 
# 
# 
# High freq. dielectric constant tensor:
#      x y z
#    x 1.755770 -0.008230 0.000990 
#    y -0.008230 1.666100 0.040590 
#    z 0.000990 0.040590 1.758720 
# 
# From -- ./inp_files/424947.got.cif
#   From: 2010.06.25/outbox.cif.g09.slc.cpg/sg2_213_cif.got.tgz:424947.got - 2010.06.27 13:26:56.
