data_PCOD8037477
_publ_section_title
;
Structure prediction by ZEFSAII (Michael W. Deem and Ramdas Pophale) SiO2 
 PCOD8037477
Probable space group: P -1
;
_chemical_formula_sum "Si O2"
_cell_formula_units_Z 16
_cell_length_a 9.605587
_cell_length_b 18.730050
_cell_length_c 11.256758
_cell_angle_alpha 51.298231
_cell_angle_beta 44.017517
_cell_angle_gamma 87.700375
_cell_volume 719.947667
_symmetry_space_group_name_H-M "P -1"
_symmetry_group_IT_number 2
_symmetry_cell_setting 'triclinic'
loop_
_space_group_symop_operation_xyz
x,y,z
-x,-y,-z
loop_
_atom_site_type_symbol
_atom_site_label
_atom_site_fract_x
_atom_site_fract_y
_atom_site_fract_z
Si Si1 0.221984 0.118873 0.339002
Si Si2 0.411132 0.867828 0.710206
Si Si3 0.231609 0.404233 0.561657
Si Si4 0.681568 0.373180 0.617213
Si Si5 0.358527 0.619211 0.630647
Si Si6 0.145830 0.383569 0.369416
Si Si7 0.653724 0.888282 0.298551
Si Si8 0.213556 0.921879 0.175491
O O1 0.422758 0.114163 0.292422
O O2 0.034755 0.109830 0.561674
O O3 0.451959 0.262465 0.976031
O O4 0.000000 0.000000 0.500000
O O5 0.474558 0.834042 0.587466
O O6 0.500000 0.000000 0.500000
O O7 0.049539 0.753027 0.060139
O O8 0.246629 0.496703 0.540520
O O9 0.536788 0.447877 0.331511
O O10 0.142199 0.406945 0.484292
O O11 0.538775 0.320491 0.628711
O O12 0.986406 0.416503 0.373926
O O13 0.536779 0.753082 0.460041
O O14 0.000000 0.500000 0.000000
O O15 0.952907 0.225882 0.619628
O O16 0.500000 0.500000 0.000000
O O17 0.630353 0.965723 0.142625
O O18 0.000000 0.000000 0.000000
O O19 0.500000 0.000000 0.000000
#
# Coordination Sequence:
#
# PCOD8037477 Si02
#       8
#     2   2   2   2   2   2   2   2
#     4  12  27  47  73 106 149 192 241 302 365 434
#     4  12  27  46  74 107 145 191 246 300 362 432
#     4  12  27  46  75 106 145 188 246 300 362 429
#     4  12  27  48  73 108 147 190 241 302 365 430
#     4  12  27  50  74 108 148 193 242 299 365 438
#     4  12  25  45  74 106 144 190 243 296 361 432
#     4  12  25  46  75 104 146 190 244 298 360 432
#     4  12  27  45  72 108 147 192 239 298 366 431
#
# _framework density 22.223837
#
# number of rings (size 3 to 8) (size 9 to 14) (size 15 to 20)
#    0.000    0.000    2.500    7.500    5.250    1.000 
#    0.000    0.000    0.000    0.000    0.000    0.000 
#    0.000    0.000    0.000    0.000    0.000    0.000 
#
# Total GULP energy -198372.202600 kJ/mol
# GULP energy per Si atom -12398.262663 kJ/mol
# Density = 2.217325 g / cm^3
# Si number density = 22.223837 Si / 1000 Ang^3
#
#
#
# Elastic Constant Matrix: (Units=GPa)
#
#
# Indices 1 2 3 4 5 6 
#
# 1 126.1607 38.4217 16.9207 -8.3638 -6.1273 2.4329
# 2 38.4217 132.5489 23.6895 -4.0401 -11.5130 -3.7789
# 3 16.9207 23.6895 111.4197 -4.8600 -11.3179 -3.8587
# 4 -8.3638 -4.0401 -4.8600 31.2159 -1.3271 6.1626
# 5 -6.1273 -11.5130 -11.3179 -1.3271 43.0764 7.4814
# 6 2.4329 -3.7789 -3.8587 6.1626 7.4814 47.4566
#
#
#
# Elastic Compliance Matrix: (Units=1/GPa)
#
#
# Indices 1 2 3 4 5 6 
#
# 1 0.008948 -0.002366 -0.000725 0.002227 0.000711 -0.001107
# 2 -0.002366 0.008616 -0.001288 0.000264 0.001563 0.000422
# 3 -0.000725 -0.001288 0.009630 0.001180 0.002078 0.000237
# 4 0.002227 0.000264 0.001180 0.033908 0.002577 -0.004807
# 5 0.000711 0.001563 0.002078 0.002577 0.025058 -0.004028
# 6 -0.001107 0.000422 0.000237 -0.004807 -0.004028 0.022441
#
#
# Mechanical properties :
#
#
# Convention : Reuss Voigt Hill
#
# Bulk Modulus (GPa) = 54.24041 58.68814 56.46427
# Shear Modulus (GPa) = 40.48473 43.75626 42.12050
#
# Velocity S-wave (km/s) = 4.27275 4.44203 4.35821
# Velocity P-wave (km/s) = 6.98579 7.26457 7.12654
#
# Compressibility (1/GPa) = 0.01843644
#
# Stress axis : x y z
#
# Youngs Moduli (GPa) = 111.76042 116.06055 103.84544
#
# Poissons Ratio (x) = 0.27461 0.07526
# Poissons Ratio (y) = 0.26443 0.13373
# Poissons Ratio (z) = 0.08100 0.14946
#
# Static dielectric constant tensor:
#      x y z
#    x 4.262770 0.109770 -0.093240 
#    y 0.109770 3.971400 -0.203540 
#    z -0.093240 -0.203540 3.573760 
# 
# 
# High freq. dielectric constant tensor:
#      x y z
#    x 1.895300 0.007820 -0.000060 
#    y 0.007820 1.891800 0.004690 
#    z -0.000060 0.004690 1.890530 
# 
# From -- ./inp_files/398681.got.cif
#   From: 2010.06.25/outbox.cif.g09.slc.cpg/sg2_200_cif.got.tgz:398681.got - 2010.06.27 13:26:56.
