data_PCOD8037411
_publ_section_title
;
Structure prediction by ZEFSAII (Michael W. Deem and Ramdas Pophale) SiO2 
 PCOD8037411
Probable space group: P -1
;
_chemical_formula_sum "Si O2"
_cell_formula_units_Z 16
_cell_length_a 8.490093
_cell_length_b 15.327818
_cell_length_c 11.902566
_cell_angle_alpha 149.775081
_cell_angle_beta 67.148804
_cell_angle_gamma 102.203694
_cell_volume 692.317420
_symmetry_space_group_name_H-M "P -1"
_symmetry_group_IT_number 2
_symmetry_cell_setting 'triclinic'
loop_
_space_group_symop_operation_xyz
x,y,z
-x,-y,-z
loop_
_atom_site_type_symbol
_atom_site_label
_atom_site_fract_x
_atom_site_fract_y
_atom_site_fract_z
Si Si1 0.910944 0.737857 0.093865
Si Si2 0.511782 0.399813 0.502998
Si Si3 0.133012 0.628786 0.262881
Si Si4 0.720143 0.050969 0.342128
Si Si5 0.349838 0.026829 0.412035
Si Si6 0.796829 0.067485 0.098514
Si Si7 0.258393 0.157586 0.346877
Si Si8 0.274582 0.659397 0.020810
O O1 0.816421 0.821450 0.327425
O O2 0.121311 0.694747 0.008160
O O3 0.867045 0.882966 0.167093
O O4 0.847304 0.558547 0.883301
O O5 0.500000 0.500000 0.500000
O O6 0.715131 0.281763 0.336586
O O7 0.382191 0.271474 0.388738
O O8 0.450394 0.530443 0.772510
O O9 0.232706 0.759407 0.442567
O O10 0.211318 0.575676 0.056968
O O11 0.924255 0.720588 0.417507
O O12 0.528276 0.056133 0.452073
O O13 0.699086 0.016109 0.177236
O O14 0.356189 0.033576 0.283248
O O15 0.323049 0.837367 0.247874
O O16 0.769344 0.967270 0.883653
O O17 0.000000 0.000000 0.000000
#
# Coordination Sequence:
#
# PCOD8037411 Si02
#       8
#     2   2   2   2   2   2   2   2
#     4  12  25  46  75 113 149 200 250 314 392 451
#     4  12  28  48  75 112 147 197 261 316 373 458
#     4  12  25  47  77 110 151 196 253 323 377 452
#     4  12  28  47  67 112 156 199 252 313 386 452
#     4  12  25  46  75 109 152 200 250 312 385 457
#     4  12  28  49  74 102 150 201 248 311 387 450
#     4  12  24  50  75 106 142 198 260 306 378 452
#     4  12  25  46  78 113 150 194 260 318 379 453
#
# _framework density 23.110786000000001
#
# number of rings (size 3 to 8) (size 9 to 14) (size 15 to 20)
#    0.000    0.000    6.250    3.750    3.500    1.500 
#    0.000    1.250    0.000    0.000    0.000    0.000 
#    0.000    0.000    0.000    0.000    0.000    0.000 
#
# Total GULP energy -198395.046782 kJ/mol
# GULP energy per Si atom -12399.690424 kJ/mol
# Density = 2.305818 g / cm^3
# Si number density = 23.110786 Si / 1000 Ang^3
#
#
#
# Elastic Constant Matrix: (Units=GPa)
#
#
# Indices 1 2 3 4 5 6 
#
# 1 95.7473 6.8674 35.7079 19.1398 -12.4630 7.8214
# 2 6.8674 95.5328 27.4960 8.0020 -8.2864 -6.4019
# 3 35.7079 27.4960 131.7004 14.5666 -10.9516 5.0186
# 4 19.1398 8.0020 14.5666 43.6221 13.3470 5.7100
# 5 -12.4630 -8.2864 -10.9516 13.3470 31.1572 1.8037
# 6 7.8214 -6.4019 5.0186 5.7100 1.8037 34.4804
#
#
#
# Elastic Compliance Matrix: (Units=1/GPa)
#
#
# Indices 1 2 3 4 5 6 
#
# 1 0.014116 0.000957 -0.002362 -0.007972 0.008590 -0.001810
# 2 0.000957 0.011833 -0.002099 -0.003503 0.004139 0.002649
# 3 -0.002362 -0.002099 0.009206 -0.002389 0.002811 -0.000945
# 4 -0.007972 -0.003503 -0.002389 0.034221 -0.019437 -0.003145
# 5 0.008590 0.004139 0.002811 -0.019437 0.045992 -0.000776
# 6 -0.001810 0.002649 -0.000945 -0.003145 -0.000776 0.030603
#
#
# Mechanical properties :
#
#
# Convention : Reuss Voigt Hill
#
# Bulk Modulus (GPa) = 35.52968 51.45813 43.49390
# Shear Modulus (GPa) = 30.79554 38.71256 34.75405
#
# Velocity S-wave (km/s) = 3.65433 4.09722 3.88210
# Velocity P-wave (km/s) = 5.76303 6.68559 6.24138
#
# Compressibility (1/GPa) = 0.02814548
#
# Stress axis : x y z
#
# Youngs Moduli (GPa) = 70.84159 84.50998 108.62933
#
# Poissons Ratio (x) = -0.08085 0.25658
# Poissons Ratio (y) = -0.06777 0.22804
# Poissons Ratio (z) = 0.16733 0.17740
#
# Static dielectric constant tensor:
#      x y z
#    x 3.471040 0.533040 -0.484670 
#    y 0.533040 4.088830 0.124420 
#    z -0.484670 0.124420 4.343810 
# 
# 
# High freq. dielectric constant tensor:
#      x y z
#    x 1.914750 0.003400 -0.007770 
#    y 0.003400 1.922800 -0.004620 
#    z -0.007770 -0.004620 1.917870 
# 
# From -- ./inp_files/307058.got.cif
#   From: 2010.06.25/outbox.cif.g09.slc.cpg/sg2_154_cif.got.tgz:307058.got - 2010.06.27 13:26:56.
