data_PCOD8037218
_publ_section_title
;
Structure prediction by ZEFSAII (Michael W. Deem and Ramdas Pophale) SiO2 
 PCOD8037218
Probable space group: P -1
;
_chemical_formula_sum "Si O2"
_cell_formula_units_Z 16
_cell_length_a 11.729075
_cell_length_b 9.459622
_cell_length_c 8.843308
_cell_angle_alpha 84.912919
_cell_angle_beta 130.996503
_cell_angle_gamma 106.232716
_cell_volume 704.929688
_symmetry_space_group_name_H-M "P -1"
_symmetry_group_IT_number 2
_symmetry_cell_setting 'triclinic'
loop_
_space_group_symop_operation_xyz
x,y,z
-x,-y,-z
loop_
_atom_site_type_symbol
_atom_site_label
_atom_site_fract_x
_atom_site_fract_y
_atom_site_fract_z
Si Si1 0.273904 0.071988 0.942279
Si Si2 0.518740 0.854346 0.608118
Si Si3 0.525507 0.651894 0.096432
Si Si4 0.182369 0.721769 0.456087
Si Si5 0.224923 0.756291 0.832482
Si Si6 0.053764 0.429619 0.198883
Si Si7 0.052891 0.971387 0.216507
Si Si8 0.306587 0.271551 0.454738
O O1 0.365091 0.216626 0.918129
O O2 0.087335 0.049819 0.782380
O O3 0.311279 0.930542 0.913913
O O4 0.327269 0.088170 0.160670
O O5 0.369944 0.770987 0.588084
O O6 0.549714 0.733268 0.530362
O O7 0.500000 0.000000 0.500000
O O8 0.616636 0.650578 0.332005
O O9 0.500000 0.500000 0.000000
O O10 0.353549 0.669419 0.975777
O O11 0.148095 0.733745 0.601823
O O12 0.107726 0.551524 0.364156
O O13 0.103643 0.821064 0.274697
O O14 0.089528 0.702980 0.846445
O O15 0.197462 0.365958 0.282206
O O16 0.000000 0.500000 0.000000
O O17 0.199231 0.101602 0.397659
O O18 0.000000 0.000000 0.000000
#
# Coordination Sequence:
#
# PCOD8037218 Si02
#       8
#     2   2   2   2   2   2   2   2
#     4  12  26  46  76 104 150 191 245 301 368 433
#     4  12  25  45  76 110 147 191 249 305 357 439
#     4  12  29  48  73 111 150 192 244 302 370 438
#     4  12  27  47  75 106 149 197 246 303 370 433
#     4  12  27  50  74 106 148 194 246 304 367 447
#     4  12  30  49  74 108 149 193 243 310 376 437
#     4  12  24  45  75 111 146 192 251 306 360 435
#     4  12  26  48  76 106 149 195 247 297 371 441
#
# _framework density 22.697298
#
# number of rings (size 3 to 8) (size 9 to 14) (size 15 to 20)
#    0.000    0.000    5.000    3.750    7.000    1.500 
#    0.000    0.000    0.000    0.000    0.000    0.000 
#    0.000    0.000    0.000    0.000    0.000    0.000 
#
# Total GULP energy -198523.724647 kJ/mol
# GULP energy per Si atom -12407.732790 kJ/mol
# Density = 2.264564 g / cm^3
# Si number density = 22.697298 Si / 1000 Ang^3
#
#
#
# Elastic Constant Matrix: (Units=GPa)
#
#
# Indices 1 2 3 4 5 6 
#
# 1 111.3375 38.8014 37.6828 -11.6089 -2.4468 -12.1342
# 2 38.8014 134.2197 33.6511 2.8992 -5.9943 -19.4278
# 3 37.6828 33.6511 108.3595 -2.8865 -12.5543 -8.8491
# 4 -11.6089 2.8992 -2.8865 47.6347 -7.4922 1.3044
# 5 -2.4468 -5.9943 -12.5543 -7.4922 38.5544 -3.1850
# 6 -12.1342 -19.4278 -8.8491 1.3044 -3.1850 46.2999
#
#
#
# Elastic Compliance Matrix: (Units=1/GPa)
#
#
# Indices 1 2 3 4 5 6 
#
# 1 0.011241 -0.002367 -0.002997 0.002666 -0.000005 0.001304
# 2 -0.002367 0.009042 -0.001695 -0.001198 0.000713 0.002933
# 3 -0.002997 -0.001695 0.011278 0.000567 0.003401 0.000877
# 4 0.002666 -0.001198 0.000567 0.022463 0.004531 -0.000017
# 5 -0.000005 0.000713 0.003401 0.004531 0.028264 0.002765
# 6 0.001304 0.002933 0.000877 -0.000017 0.002765 0.023529
#
#
# Mechanical properties :
#
#
# Convention : Reuss Voigt Hill
#
# Bulk Modulus (GPa) = 57.32910 63.79858 60.56384
# Shear Modulus (GPa) = 39.76165 42.74990 41.25577
#
# Velocity S-wave (km/s) = 4.19002 4.34462 4.26802
# Velocity P-wave (km/s) = 6.98006 7.30322 7.14347
#
# Compressibility (1/GPa) = 0.01744315
#
# Stress axis : x y z
#
# Youngs Moduli (GPa) = 88.95976 110.59664 88.66974
#
# Poissons Ratio (x) = 0.26181 0.26575
# Poissons Ratio (y) = 0.21059 0.15025
# Poissons Ratio (z) = 0.26662 0.18741
#
# Static dielectric constant tensor:
#      x y z
#    x 4.203900 -0.129920 0.232810 
#    y -0.129920 4.169830 0.118430 
#    z 0.232810 0.118430 4.426030 
# 
# 
# High freq. dielectric constant tensor:
#      x y z
#    x 1.905950 -0.007500 0.005860 
#    y -0.007500 1.904140 0.003300 
#    z 0.005860 0.003300 1.905070 
# 
# From -- ./inp_files/244256.got.cif
#   From: 2010.06.25/outbox.cif.g09.slc.cpg/sg2_123_cif.got.tgz:244256.got - 2010.06.27 13:26:56.
