data_PCOD8037375
_publ_section_title
;
Structure prediction by ZEFSAII (Michael W. Deem and Ramdas Pophale) SiO2 
 PCOD8037375
Probable space group: P -1
;
_chemical_formula_sum "Si O2"
_cell_formula_units_Z 16
_cell_length_a 12.325611
_cell_length_b 17.748766
_cell_length_c 9.195660
_cell_angle_alpha 28.727480
_cell_angle_beta 50.399183
_cell_angle_gamma 49.461105
_cell_volume 722.168286
_symmetry_space_group_name_H-M "P -1"
_symmetry_group_IT_number 2
_symmetry_cell_setting 'triclinic'
loop_
_space_group_symop_operation_xyz
x,y,z
-x,-y,-z
loop_
_atom_site_type_symbol
_atom_site_label
_atom_site_fract_x
_atom_site_fract_y
_atom_site_fract_z
Si Si1 0.387825 0.615652 0.293077
Si Si2 0.743587 0.658189 0.154456
Si Si3 0.136736 0.878055 0.527742
Si Si4 0.141656 0.327915 0.271806
Si Si5 0.097611 0.852015 0.265523
Si Si6 0.444876 0.155986 0.378265
Si Si7 0.028685 0.582050 0.186733
Si Si8 0.596027 0.006227 0.772405
O O1 0.500000 0.500000 0.500000
O O2 0.319663 0.487149 0.479097
O O3 0.254910 0.761446 0.218530
O O4 0.492908 0.693869 0.976945
O O5 0.871730 0.688094 0.094422
O O6 0.793811 0.599789 0.046195
O O7 0.632430 0.833485 0.950171
O O8 0.132134 0.898785 0.321096
O O9 0.272343 0.924216 0.406052
O O10 0.137199 0.700515 0.892907
O O11 0.000000 0.000000 0.500000
O O12 0.270292 0.189703 0.465228
O O13 0.088265 0.452097 0.233961
O O14 0.005168 0.269793 0.426644
O O15 0.000000 0.000000 0.000000
O O16 0.500000 0.000000 0.500000
O O17 0.494960 0.132627 0.539527
O O18 0.000000 0.500000 0.500000
O O19 0.500000 0.000000 0.000000
#
# Coordination Sequence:
#
# PCOD8037375 Si02
#       8
#     2   2   2   2   2   2   2   2
#     4  12  26  45  77 112 146 186 250 313 371 434
#     4  12  24  49  72 104 148 193 241 310 364 435
#     4  12  28  48  73 107 150 195 246 307 379 440
#     4  12  24  48  76 105 142 190 255 301 360 432
#     4  12  28  44  82 110 144 195 261 304 366 447
#     4  12  27  48  77 107 148 193 251 303 369 452
#     4  12  28  45  73 109 149 188 243 309 373 437
#     4  12  30  49  72 107 159 196 241 306 382 448
#
# _framework density 22.155501999999998
#
# number of rings (size 3 to 8) (size 9 to 14) (size 15 to 20)
#    0.000    0.000    6.250    1.875   12.250    0.000 
#    0.000    1.250    0.000    0.000    0.000    0.000 
#    0.000    0.000    0.000    0.000    0.000    0.000 
#
# Total GULP energy -198274.883277 kJ/mol
# GULP energy per Si atom -12392.180205 kJ/mol
# Density = 2.210508 g / cm^3
# Si number density = 22.155502 Si / 1000 Ang^3
#
#
#
# Elastic Constant Matrix: (Units=GPa)
#
#
# Indices 1 2 3 4 5 6 
#
# 1 117.4712 32.5525 27.1259 4.4510 11.1224 -8.9966
# 2 32.5525 63.9857 22.7376 1.4587 10.5541 -4.5528
# 3 27.1259 22.7376 113.5341 3.6365 13.2830 11.4406
# 4 4.4510 1.4587 3.6365 34.1060 1.9476 1.9960
# 5 11.1224 10.5541 13.2830 1.9476 50.9020 -4.1980
# 6 -8.9966 -4.5528 11.4406 1.9960 -4.1980 46.1449
#
#
#
# Elastic Compliance Matrix: (Units=1/GPa)
#
#
# Indices 1 2 3 4 5 6 
#
# 1 0.010380 -0.004400 -0.001682 -0.001063 -0.000712 0.001988
# 2 -0.004400 0.019301 -0.002710 0.000075 -0.002211 0.001514
# 3 -0.001682 -0.002710 0.010339 -0.000457 -0.002025 -0.003323
# 4 -0.001063 0.000075 -0.000457 0.029642 -0.000918 -0.001452
# 5 -0.000712 -0.002211 -0.002025 -0.000918 0.020996 0.002095
# 6 0.001988 0.001514 -0.003323 -0.001452 0.002095 0.023285
#
#
# Mechanical properties :
#
#
# Convention : Reuss Voigt Hill
#
# Bulk Modulus (GPa) = 44.57208 51.09143 47.83176
# Shear Modulus (GPa) = 35.96951 40.40225 38.18588
#
# Velocity S-wave (km/s) = 4.03364 4.27497 4.15606
# Velocity P-wave (km/s) = 6.46956 6.89040 6.68329
#
# Compressibility (1/GPa) = 0.02243557
#
# Stress axis : x y z
#
# Youngs Moduli (GPa) = 96.33579 51.81094 96.72133
#
# Poissons Ratio (x) = 0.22798 0.16267
# Poissons Ratio (y) = 0.42389 0.26215
# Poissons Ratio (z) = 0.16202 0.14043
#
# Static dielectric constant tensor:
#      x y z
#    x 2.647810 -0.602950 0.387640 
#    y -0.602950 4.050750 0.185110 
#    z 0.387640 0.185110 4.232240 
# 
# 
# High freq. dielectric constant tensor:
#      x y z
#    x 1.890360 -0.012480 -0.006110 
#    y -0.012480 1.875330 -0.006020 
#    z -0.006110 -0.006020 1.883990 
# 
# From -- ./inp_files/278643.got.cif
#   From: 2010.06.25/outbox.cif.g09.slc.cpg/sg2_140_cif.got.tgz:278643.got - 2010.06.27 13:26:56.
