data_PCOD8037990
_publ_section_title
;
Structure prediction by ZEFSAII (Michael W. Deem and Ramdas Pophale) SiO2 
 PCOD8037990
Probable space group: P -1
;
_chemical_formula_sum "Si O2"
_cell_formula_units_Z 16
_cell_length_a 24.294108
_cell_length_b 18.199967
_cell_length_c 9.590059
_cell_angle_alpha 145.654147
_cell_angle_beta 35.398368
_cell_angle_gamma 160.352667
_cell_volume 788.432459
_symmetry_space_group_name_H-M "P -1"
_symmetry_group_IT_number 2
_symmetry_cell_setting 'triclinic'
loop_
_space_group_symop_operation_xyz
x,y,z
-x,-y,-z
loop_
_atom_site_type_symbol
_atom_site_label
_atom_site_fract_x
_atom_site_fract_y
_atom_site_fract_z
Si Si1 0.501555 0.157578 0.513687
Si Si2 0.993680 0.664145 0.664150
Si Si3 0.598397 0.841305 0.003912
Si Si4 0.257752 0.537369 0.746705
Si Si5 0.374289 0.387296 0.281814
Si Si6 0.303463 0.153537 0.786489
Si Si7 0.058846 0.668107 0.846049
Si Si8 0.626765 0.268938 0.897974
O O1 0.525767 0.263700 0.774743
O O2 0.673068 0.349113 0.371439
O O3 0.368702 0.082149 0.574108
O O4 0.437038 0.942818 0.352116
O O5 0.079322 0.722531 0.725927
O O6 0.995771 0.545129 0.365464
O O7 0.806276 0.502873 0.825264
O O8 0.112951 0.915086 0.750749
O O9 0.503792 0.768231 0.941380
O O10 0.765582 0.115443 0.100153
O O11 0.643940 0.738664 0.753627
O O12 0.260688 0.386441 0.539819
O O13 0.365179 0.726225 0.943599
O O14 0.070868 0.381421 0.889704
O O15 0.571685 0.645300 0.270492
O O16 0.303754 0.246993 0.065642
#
# Coordination Sequence:
#
# PCOD8037990 Si02
#       8
#     2   2   2   2   2   2   2   2
#     4  10  18  36  60  83 108 145 191 232 271 332
#     4  10  17  33  56  85 109 140 196 232 269 328
#     4  11  21  38  60  81 117 153 185 219 285 343
#     4  10  22  35  58  85 112 145 192 233 274 319
#     4   9  19  34  56  81 112 150 188 223 274 334
#     4   9  16  33  59  84 106 145 193 237 262 322
#     4  10  19  34  57  86 111 146 183 238 279 327
#     4  11  22  34  58  88 114 148 182 234 286 331
#
# _framework density 20.293431000000002
#
# number of rings (size 3 to 8) (size 9 to 14) (size 15 to 20)
#    0.000    2.000    3.750    3.000    0.000    2.000 
#    0.000    1.250    5.500    0.000    0.000    0.000 
#    0.000    0.000    0.000    0.000    0.000    0.000 
#
# Total GULP energy -198325.591994 kJ/mol
# GULP energy per Si atom -12395.349500 kJ/mol
# Density = 2.024724 g / cm^3
# Si number density = 20.293431 Si / 1000 Ang^3
#
#
#
# Elastic Constant Matrix: (Units=GPa)
#
#
# Indices 1 2 3 4 5 6 
#
# 1 44.3060 20.9059 2.8278 0.8112 -1.6777 12.1303
# 2 20.9059 119.7813 36.4089 7.1450 -7.7504 3.1816
# 3 2.8278 36.4089 77.2987 -8.4682 -17.3268 -0.3436
# 4 0.8112 7.1450 -8.4682 28.6810 -6.5964 -4.2762
# 5 -1.6777 -7.7504 -17.3268 -6.5964 18.7606 -1.0755
# 6 12.1303 3.1816 -0.3436 -4.2762 -1.0755 22.6042
#
#
#
# Elastic Compliance Matrix: (Units=1/GPa)
#
#
# Indices 1 2 3 4 5 6 
#
# 1 0.028978 -0.004868 0.001024 -0.001534 0.000120 -0.015134
# 2 -0.004868 0.011302 -0.006621 -0.005567 -0.003857 -0.000316
# 3 0.001024 -0.006621 0.023032 0.014643 0.024043 0.004646
# 4 -0.001534 -0.005567 0.014643 0.049178 0.029096 0.012517
# 5 0.000120 -0.003857 0.024043 0.029096 0.084752 0.010381
# 6 -0.015134 -0.000316 0.004646 0.012517 0.010381 0.055338
#
#
# Mechanical properties :
#
#
# Convention : Reuss Voigt Hill
#
# Bulk Modulus (GPa) = 23.59442 40.18566 31.89004
# Shear Modulus (GPa) = 17.38306 26.09206 21.73756
#
# Velocity S-wave (km/s) = 2.92992 3.58961 3.27641
# Velocity P-wave (km/s) = 4.80602 6.08487 5.48286
#
# Compressibility (1/GPa) = 0.04238290
#
# Stress axis : x y z
#
# Youngs Moduli (GPa) = 34.50902 88.48376 43.41753
#
# Poissons Ratio (x) = 0.43072 -0.04447
# Poissons Ratio (y) = 0.16798 0.28746
# Poissons Ratio (z) = -0.03534 0.58584
#
# Static dielectric constant tensor:
#      x y z
#    x 3.302460 -0.090590 -0.181810 
#    y -0.090590 3.779630 0.044560 
#    z -0.181810 0.044560 3.732170 
# 
# 
# High freq. dielectric constant tensor:
#      x y z
#    x 1.744020 -0.001020 -0.017730 
#    y -0.001020 1.792230 0.004030 
#    z -0.017730 0.004030 1.790040 
# 
# From -- ./inp_files/336187.got.cif
#   From: 2010.06.25/outbox.cif.g09.slc.cpg/sg2_169_cif.got.tgz:336187.got - 2010.06.27 13:26:56.
