data_PCOD8037548
_publ_section_title
;
Structure prediction by ZEFSAII (Michael W. Deem and Ramdas Pophale) SiO2 
 PCOD8037548
Probable space group: P -1
;
_chemical_formula_sum "Si O2"
_cell_formula_units_Z 16
_cell_length_a 18.222653
_cell_length_b 8.234731
_cell_length_c 6.777777
_cell_angle_alpha 80.750920
_cell_angle_beta 56.136639
_cell_angle_gamma 61.957313
_cell_volume 738.241748
_symmetry_space_group_name_H-M "P -1"
_symmetry_group_IT_number 2
_symmetry_cell_setting 'triclinic'
loop_
_space_group_symop_operation_xyz
x,y,z
-x,-y,-z
loop_
_atom_site_type_symbol
_atom_site_label
_atom_site_fract_x
_atom_site_fract_y
_atom_site_fract_z
Si Si1 0.264609 0.549005 0.143961
Si Si2 0.561961 0.583862 0.785670
Si Si3 0.771850 0.781521 0.885583
Si Si4 0.349801 0.691128 0.635662
Si Si5 0.071363 0.863535 0.578539
Si Si6 0.188274 0.028243 0.579418
Si Si7 0.935794 0.700436 0.967273
Si Si8 0.430413 0.917171 0.696905
O O1 0.345692 0.443830 0.212009
O O2 0.239743 0.399592 0.107422
O O3 0.167572 0.704107 0.362517
O O4 0.300111 0.651441 0.910073
O O5 0.592852 0.497321 0.537319
O O6 0.486954 0.802702 0.830074
O O7 0.500000 0.500000 0.000000
O O8 0.769414 0.897258 0.674372
O O9 0.878766 0.705988 0.848807
O O10 0.680144 0.919563 0.130339
O O11 0.422885 0.774303 0.579055
O O12 0.271362 0.834883 0.574232
O O13 0.098149 0.990767 0.654947
O O14 0.000000 0.000000 0.500000
O O15 0.013460 0.779401 0.807788
O O16 0.150814 0.182294 0.773176
O O17 0.000000 0.500000 0.000000
O O18 0.500000 0.000000 0.500000
#
# Coordination Sequence:
#
# PCOD8037548 Si02
#       8
#     2   2   2   2   2   2   2   2
#     4  12  28  46  72 104 144 182 233 291 343 415
#     4  12  26  47  72 101 138 186 234 283 349 408
#     4  12  28  49  67 106 145 180 232 290 347 415
#     4  12  25  48  73 103 141 183 232 290 344 410
#     4  12  25  47  73 104 138 187 235 282 348 413
#     4  12  25  47  75 100 144 185 230 291 346 409
#     4  12  28  46  73 104 143 184 232 287 349 414
#     4  12  27  46  74 103 141 184 233 287 348 416
#
# _framework density 21.673116
#
# number of rings (size 3 to 8) (size 9 to 14) (size 15 to 20)
#    0.000    0.000    5.000    4.500    7.000    3.500 
#    0.000    0.000    0.000    0.000    0.000    0.000 
#    0.000    0.000    0.000    0.000    0.000    0.000 
#
# Total GULP energy -198462.665516 kJ/mol
# GULP energy per Si atom -12403.916595 kJ/mol
# Density = 2.162379 g / cm^3
# Si number density = 21.673116 Si / 1000 Ang^3
#
#
#
# Elastic Constant Matrix: (Units=GPa)
#
#
# Indices 1 2 3 4 5 6 
#
# 1 126.5040 32.2585 18.9854 -16.0207 1.5354 1.2993
# 2 32.2585 86.3490 8.4820 -19.7703 -0.0536 -3.3985
# 3 18.9854 8.4820 91.8761 -12.7488 -8.6083 5.7867
# 4 -16.0207 -19.7703 -12.7488 47.3956 4.4394 -2.8930
# 5 1.5354 -0.0536 -8.6083 4.4394 37.6613 -3.5709
# 6 1.2993 -3.3985 5.7867 -2.8930 -3.5709 48.2369
#
#
#
# Elastic Compliance Matrix: (Units=1/GPa)
#
#
# Indices 1 2 3 4 5 6 
#
# 1 0.009073 -0.002905 -0.001464 0.001531 -0.000913 -0.000249
# 2 -0.002905 0.013846 -0.000117 0.004875 -0.000337 0.001335
# 3 -0.001464 -0.000117 0.011814 0.002346 0.002382 -0.001069
# 4 0.001531 0.004875 0.002346 0.024577 -0.002291 0.001325
# 5 -0.000913 -0.000337 0.002382 -0.002291 0.027557 0.001618
# 6 -0.000249 0.001335 -0.001069 0.001325 0.001618 0.021159
#
#
# Mechanical properties :
#
#
# Convention : Reuss Voigt Hill
#
# Bulk Modulus (GPa) = 38.81988 47.13123 42.97556
# Shear Modulus (GPa) = 39.81342 42.99230 41.40286
#
# Velocity S-wave (km/s) = 4.29067 4.45867 4.37548
# Velocity P-wave (km/s) = 6.51896 6.94982 6.73783
#
# Compressibility (1/GPa) = 0.02575999
#
# Stress axis : x y z
#
# Youngs Moduli (GPa) = 110.21628 72.22079 84.64866
#
# Poissons Ratio (x) = 0.20984 0.12392
# Poissons Ratio (y) = 0.32023 0.00991
# Poissons Ratio (z) = 0.16135 0.00845
#
# Static dielectric constant tensor:
#      x y z
#    x 4.285530 -0.127260 0.211220 
#    y -0.127260 4.063290 -0.184110 
#    z 0.211220 -0.184110 3.926750 
# 
# 
# High freq. dielectric constant tensor:
#      x y z
#    x 1.871740 -0.007420 -0.001050 
#    y -0.007420 1.871150 -0.004650 
#    z -0.001050 -0.004650 1.856960 
# 
# From -- ./inp_files/39770.got.cif
#   From: 2010.06.25/outbox.cif.g09.slc.cpg/sg2_20_cif.got.tgz:39770.got - 2010.06.27 13:26:56.
