data_PCOD8037318
_publ_section_title
;
Structure prediction by ZEFSAII (Michael W. Deem and Ramdas Pophale) SiO2 
 PCOD8037318
Probable space group: P -1
;
_chemical_formula_sum "Si O2"
_cell_formula_units_Z 16
_cell_length_a 23.897627
_cell_length_b 17.389792
_cell_length_c 5.876211
_cell_angle_alpha 67.733447
_cell_angle_beta 98.991473
_cell_angle_gamma 158.767425
_cell_volume 662.285818
_symmetry_space_group_name_H-M "P -1"
_symmetry_group_IT_number 2
_symmetry_cell_setting 'triclinic'
loop_
_space_group_symop_operation_xyz
x,y,z
-x,-y,-z
loop_
_atom_site_type_symbol
_atom_site_label
_atom_site_fract_x
_atom_site_fract_y
_atom_site_fract_z
Si Si1 0.146858 0.652335 0.070024
Si Si2 0.907052 0.046345 0.133300
Si Si3 0.348220 0.242219 0.348548
Si Si4 0.690656 0.451524 0.172772
Si Si5 0.528286 0.994975 0.273830
Si Si6 0.128301 0.845881 0.298056
Si Si7 0.555570 0.828473 0.038543
Si Si8 0.332199 0.425496 0.685394
O O1 0.037162 0.453360 0.430758
O O2 0.306774 0.936053 0.955897
O O3 0.254029 0.734528 0.889103
O O4 0.000000 0.500000 0.000000
O O5 0.736106 0.808421 0.473956
O O6 0.834702 0.877579 0.090101
O O7 0.935393 0.179364 0.908840
O O8 0.107525 0.296788 0.082635
O O9 0.457034 0.319143 0.449931
O O10 0.163199 0.947990 0.432540
O O11 0.500000 0.500000 0.000000
O O12 0.522838 0.213915 0.143922
O O13 0.717150 0.582986 0.128058
O O14 0.623155 0.293506 0.505178
O O15 0.500000 0.000000 0.500000
O O16 0.500000 0.000000 0.000000
O O17 0.328760 0.082886 0.108386
O O18 0.359527 0.518567 0.371500
#
# Coordination Sequence:
#
# PCOD8037318 Si02
#       8
#     2   2   2   2   2   2   2   2
#     4  12  27  49  80 116 145 201 268 322 386 474
#     4  12  28  44  76 113 146 197 259 319 379 471
#     4  12  24  47  75 111 148 197 255 316 394 452
#     4  12  28  48  75 109 155 203 256 318 395 478
#     4  12  28  52  79 113 163 214 257 328 408 475
#     4  12  25  45  78 109 152 192 261 322 375 467
#     4  12  25  49  76 108 156 205 250 323 401 468
#     4  12  24  48  74 108 151 197 258 313 395 464
#
# _framework density 24.158753000000001
#
# number of rings (size 3 to 8) (size 9 to 14) (size 15 to 20)
#    0.000    0.000    5.000    4.875    1.750    2.500 
#    0.000    0.000    0.000    0.000    0.000    0.000 
#    0.000    0.000    0.000    0.000    0.000    0.000 
#
# Total GULP energy -198355.348545 kJ/mol
# GULP energy per Si atom -12397.209284 kJ/mol
# Density = 2.410377 g / cm^3
# Si number density = 24.158753 Si / 1000 Ang^3
#
#
#
# Elastic Constant Matrix: (Units=GPa)
#
#
# Indices 1 2 3 4 5 6 
#
# 1 134.7468 71.9048 59.3288 0.4442 -6.2226 23.7685
# 2 71.9048 111.9090 35.7594 5.6812 -9.1588 22.8687
# 3 59.3288 35.7594 127.0500 -1.4125 7.5145 14.8922
# 4 0.4442 5.6812 -1.4125 36.2943 -3.3963 -4.5897
# 5 -6.2226 -9.1588 7.5145 -3.3963 42.3687 -12.6092
# 6 23.7685 22.8687 14.8922 -4.5897 -12.6092 45.4325
#
#
#
# Elastic Compliance Matrix: (Units=1/GPa)
#
#
# Indices 1 2 3 4 5 6 
#
# 1 0.013182 -0.006752 -0.004063 0.000557 0.000669 -0.001924
# 2 -0.006752 0.014381 -0.000569 -0.002543 0.000970 -0.003508
# 3 -0.004063 -0.000569 0.010326 0.000020 -0.003094 -0.001829
# 4 0.000557 -0.002543 0.000020 0.028859 0.003272 0.004806
# 5 0.000669 0.000970 -0.003094 0.003272 0.027111 0.008031
# 6 -0.001924 -0.003508 -0.001829 0.004806 0.008031 0.028097
#
#
# Mechanical properties :
#
#
# Convention : Reuss Voigt Hill
#
# Bulk Modulus (GPa) = 66.13392 78.63244 72.38318
# Shear Modulus (GPa) = 33.38591 38.59996 35.99293
#
# Velocity S-wave (km/s) = 3.72148 4.00154 3.86405
# Velocity P-wave (km/s) = 6.77495 7.34633 7.06642
#
# Compressibility (1/GPa) = 0.01512083
#
# Stress axis : x y z
#
# Youngs Moduli (GPa) = 75.86385 69.53512 96.84164
#
# Poissons Ratio (x) = 0.46947 0.39347
# Poissons Ratio (y) = 0.51220 0.05515
# Poissons Ratio (z) = 0.30823 0.03960
#
# Static dielectric constant tensor:
#      x y z
#    x 4.804320 0.127290 0.071810 
#    y 0.127290 4.203010 0.045140 
#    z 0.071810 0.045140 4.477580 
# 
# 
# High freq. dielectric constant tensor:
#      x y z
#    x 1.977680 0.003000 0.003390 
#    y 0.003000 1.947870 -0.004450 
#    z 0.003390 -0.004450 1.963450 
# 
# From -- ./inp_files/124689.got.cif
#   From: 2010.06.25/outbox.cif.g09.slc.cpg/sg2_63_cif.got.tgz:124689.got - 2010.06.27 13:26:56.
