data_PCOD8037965
_publ_section_title
;
Structure prediction by ZEFSAII (Michael W. Deem and Ramdas Pophale) SiO2 
 PCOD8037965
Probable space group: P -1
;
_chemical_formula_sum "Si O2"
_cell_formula_units_Z 16
_cell_length_a 16.953359
_cell_length_b 9.254412
_cell_length_c 12.570272
_cell_angle_alpha 81.895292
_cell_angle_beta 77.365175
_cell_angle_gamma 28.980689
_cell_volume 927.110944
_symmetry_space_group_name_H-M "P -1"
_symmetry_group_IT_number 2
_symmetry_cell_setting 'triclinic'
loop_
_space_group_symop_operation_xyz
x,y,z
-x,-y,-z
loop_
_atom_site_type_symbol
_atom_site_label
_atom_site_fract_x
_atom_site_fract_y
_atom_site_fract_z
Si Si1 0.336447 0.625845 0.321805
Si Si2 0.050836 0.033293 0.210185
Si Si3 0.695811 0.344938 0.011767
Si Si4 0.755005 0.690637 0.226487
Si Si5 0.278720 0.571910 0.774800
Si Si6 0.450300 0.695238 0.408381
Si Si7 0.556855 0.070432 0.445616
Si Si8 0.406234 0.804878 0.897994
O O1 0.321251 0.813623 0.357103
O O2 0.396639 0.410319 0.411780
O O3 0.468825 0.429258 0.209357
O O4 0.158269 0.858476 0.304614
O O5 0.952324 0.344338 0.201638
O O6 0.912772 0.121320 0.243725
O O7 0.162852 0.834089 0.094506
O O8 0.721576 0.398715 0.103158
O O9 0.711315 0.148493 0.052351
O O10 0.513070 0.670801 0.985896
O O11 0.651900 0.702715 0.235123
O O12 0.704936 0.834537 0.341091
O O13 0.711263 0.873324 0.127529
O O14 0.387581 0.516192 0.685079
O O15 0.500000 0.500000 0.500000
O O16 0.375584 0.953701 0.465326
O O17 0.500000 0.000000 0.500000
#
# Coordination Sequence:
#
# PCOD8037965 Si02
#       8
#     2   2   2   2   2   2   2   2
#     4   9  18  34  56  76 103 136 178 209 253 315
#     4   9  20  35  53  77 111 139 164 210 267 314
#     4  10  18  32  57  77 105 139 178 207 249 317
#     4   9  20  33  51  74 113 135 165 217 266 303
#     4  10  19  34  54  79 106 135 174 216 255 309
#     4  10  19  33  57  80  95 137 181 216 249 308
#     4  10  17  33  55  78  99 132 176 221 258 296
#     4   9  18  32  53  81 103 137 176 213 251 304
#
# _framework density 17.257914
#
# number of rings (size 3 to 8) (size 9 to 14) (size 15 to 20)
#    0.750    1.750    2.500    0.375    0.000    1.000 
#    0.000    6.250    2.750    0.000    0.000    0.000 
#    0.000    0.000    0.000    0.000    0.000    0.000 
#
# Total GULP energy -198263.383602 kJ/mol
# GULP energy per Si atom -12391.461475 kJ/mol
# Density = 1.721863 g / cm^3
# Si number density = 17.257914 Si / 1000 Ang^3
#
#
#
# Elastic Constant Matrix: (Units=GPa)
#
#
# Indices 1 2 3 4 5 6 
#
# 1 84.8028 18.4182 45.2073 -2.2671 16.7769 6.5075
# 2 18.4182 64.6477 27.6194 -3.1546 10.6075 4.9592
# 3 45.2073 27.6194 85.1546 1.0757 18.6535 1.3058
# 4 -2.2671 -3.1546 1.0757 25.2878 5.9065 0.0852
# 5 16.7769 10.6075 18.6535 5.9065 37.9257 -2.0832
# 6 6.5075 4.9592 1.3058 0.0852 -2.0832 22.1557
#
#
#
# Elastic Compliance Matrix: (Units=1/GPa)
#
#
# Indices 1 2 3 4 5 6 
#
# 1 0.017577 -0.000230 -0.008255 0.002940 -0.004385 -0.005048
# 2 -0.000230 0.018794 -0.005221 0.003339 -0.003335 -0.004158
# 3 -0.008255 -0.005221 0.018618 -0.001322 -0.003721 0.002151
# 4 0.002940 0.003339 -0.001322 0.042227 -0.008297 -0.002475
# 5 -0.004385 -0.003335 -0.003721 -0.008297 0.032657 0.005356
# 6 -0.005048 -0.004158 0.002151 -0.002475 0.005356 0.047935
#
#
# Mechanical properties :
#
#
# Convention : Reuss Voigt Hill
#
# Bulk Modulus (GPa) = 36.26537 46.34387 41.30462
# Shear Modulus (GPa) = 23.31950 26.63120 24.97535
#
# Velocity S-wave (km/s) = 3.67990 3.93253 3.80831
# Velocity P-wave (km/s) = 6.25420 6.89433 6.58205
#
# Compressibility (1/GPa) = 0.02757451
#
# Stress axis : x y z
#
# Youngs Moduli (GPa) = 56.89410 53.20895 53.71043
#
# Poissons Ratio (x) = 0.01226 0.44341
# Poissons Ratio (y) = 0.01311 0.28044
# Poissons Ratio (z) = 0.46969 0.27782
#
# Static dielectric constant tensor:
#      x y z
#    x 3.333280 0.198400 0.330440 
#    y 0.198400 3.153390 0.196490 
#    z 0.330440 0.196490 3.679710 
# 
# 
# High freq. dielectric constant tensor:
#      x y z
#    x 1.663400 0.010240 0.005760 
#    y 0.010240 1.634030 0.004260 
#    z 0.005760 0.004260 1.678920 
# 
# From -- ./inp_files/212057.got.cif
#   From: 2010.06.25/outbox.cif.g09.slc.cpg/sg2_107_cif.got.tgz:212057.got - 2010.06.27 13:26:56.
