data_PCOD8037878
_publ_section_title
;
Structure prediction by ZEFSAII (Michael W. Deem and Ramdas Pophale) SiO2 
 PCOD8037878
Probable space group: P -1
;
_chemical_formula_sum "Si O2"
_cell_formula_units_Z 14
_cell_length_a 25.905708
_cell_length_b 10.034949
_cell_length_c 5.045191
_cell_angle_alpha 77.161509
_cell_angle_beta 84.261877
_cell_angle_gamma 33.197958
_cell_volume 691.034886
_symmetry_space_group_name_H-M "P -1"
_symmetry_group_IT_number 2
_symmetry_cell_setting 'triclinic'
loop_
_space_group_symop_operation_xyz
x,y,z
-x,-y,-z
loop_
_atom_site_type_symbol
_atom_site_label
_atom_site_fract_x
_atom_site_fract_y
_atom_site_fract_z
Si Si1 0.839478 0.145161 0.961264
Si Si2 0.114112 0.401483 0.432062
Si Si3 0.623887 0.696187 0.778414
Si Si4 0.428828 0.023228 0.817454
Si Si5 0.913526 0.832958 0.558393
Si Si6 0.837730 0.443996 0.935284
Si Si7 0.262356 0.248396 0.632407
O O1 0.724975 0.404829 0.919815
O O2 0.887908 0.185390 0.986511
O O3 0.872358 0.027451 0.706471
O O4 0.875022 0.954648 0.234117
O O5 0.119999 0.248713 0.328680
O O6 0.095511 0.573465 0.169538
O O7 0.215488 0.202221 0.624303
O O8 0.028659 0.583486 0.608465
O O9 0.617223 0.761369 0.450370
O O10 0.542288 0.758233 0.832538
O O11 0.596230 0.879084 0.914081
O O12 0.372701 0.004452 0.781808
O O13 0.747729 0.641579 0.684924
O O14 0.802236 0.531855 0.213585
#
# Coordination Sequence:
#
# PCOD8037878 Si02
#       7
#     2   2   2   2   2   2   2
#     4  12  22  38  56  92 116 146 180 253 284 329
#     4   9  25  42  58  81 109 161 200 225 270 367
#     4  10  19  31  54  83 122 141 183 223 293 333
#     4  10  17  32  56  85 110 154 177 230 274 346
#     4  11  26  38  61  78 119 152 196 229 293 326
#     4  10  21  35  60  81 118 140 188 236 281 334
#     4  10  18  35  60  81 109 146 191 233 265 335
#
# _framework density 20.259468999999999
#
# number of rings (size 3 to 8) (size 9 to 14) (size 15 to 20)
#    0.857    0.857    2.857    1.714    4.000    2.286 
#    0.000    0.000    0.000    1.714    0.000    0.000 
#    0.000    0.000    0.000    0.000    0.000    0.000 
#
# Total GULP energy -173455.320484 kJ/mol
# GULP energy per Si atom -12389.665749 kJ/mol
# Density = 2.021336 g / cm^3
# Si number density = 20.259469 Si / 1000 Ang^3
#
#
#
# Elastic Constant Matrix: (Units=GPa)
#
#
# Indices 1 2 3 4 5 6 
#
# 1 133.2072 30.0047 14.6010 -3.5048 -10.2274 -3.9720
# 2 30.0047 40.7980 8.5132 4.2770 -13.1921 7.8014
# 3 14.6010 8.5132 72.6180 11.1841 2.8729 3.8746
# 4 -3.5048 4.2770 11.1841 28.7122 -0.3430 3.0216
# 5 -10.2274 -13.1921 2.8729 -0.3430 20.2965 -1.8103
# 6 -3.9720 7.8014 3.8746 3.0216 -1.8103 26.9424
#
#
#
# Elastic Compliance Matrix: (Units=1/GPa)
#
#
# Indices 1 2 3 4 5 6 
#
# 1 0.009590 -0.007472 -0.001660 0.002562 0.000572 0.003567
# 2 -0.007472 0.040039 -0.002814 -0.004433 0.021660 -0.010338
# 3 -0.001660 -0.002814 0.015598 -0.005776 -0.005093 -0.001367
# 4 0.002562 -0.004433 -0.005776 0.038239 -0.000289 -0.001816
# 5 0.000572 0.021660 -0.005093 -0.000289 0.064253 -0.001105
# 6 0.003567 -0.010338 -0.001367 -0.001816 -0.001105 0.040961
#
#
# Mechanical properties :
#
#
# Convention : Reuss Voigt Hill
#
# Bulk Modulus (GPa) = 24.19227 39.20678 31.69953
# Shear Modulus (GPa) = 20.29621 28.09051 24.19336
#
# Velocity S-wave (km/s) = 3.16858 3.72766 3.45943
# Velocity P-wave (km/s) = 5.03524 6.15805 5.62474
#
# Compressibility (1/GPa) = 0.04133551
#
# Stress axis : x y z
#
# Youngs Moduli (GPa) = 104.27743 24.97566 64.10932
#
# Poissons Ratio (x) = 0.18662 0.10640
# Poissons Ratio (y) = 0.77918 0.18040
# Poissons Ratio (z) = 0.17307 0.07028
#
# Static dielectric constant tensor:
#      x y z
#    x 4.088850 -0.273100 0.072890 
#    y -0.273100 3.251170 0.102900 
#    z 0.072890 0.102900 3.602310 
# 
# 
# High freq. dielectric constant tensor:
#      x y z
#    x 1.808250 -0.022570 0.008500 
#    y -0.022570 1.735370 0.020170 
#    z 0.008500 0.020170 1.799130 
# 
# From -- ./inp_files/122499.got.cif
#   From: 2010.06.25/outbox.cif.g09.slc.cpg/sg2_62_cif.got.tgz:122499.got - 2010.06.27 13:26:56.
