data_PCOD8037748
_publ_section_title
;
Structure prediction by ZEFSAII (Michael W. Deem and Ramdas Pophale) SiO2 
 PCOD8037748
Probable space group: P -1
;
_chemical_formula_sum "Si O2"
_cell_formula_units_Z 14
_cell_length_a 11.577175
_cell_length_b 12.248477
_cell_length_c 5.050032
_cell_angle_alpha 114.850157
_cell_angle_beta 78.691148
_cell_angle_gamma 69.495960
_cell_volume 556.778569
_symmetry_space_group_name_H-M "P -1"
_symmetry_group_IT_number 2
_symmetry_cell_setting 'triclinic'
loop_
_space_group_symop_operation_xyz
x,y,z
-x,-y,-z
loop_
_atom_site_type_symbol
_atom_site_label
_atom_site_fract_x
_atom_site_fract_y
_atom_site_fract_z
Si Si1 0.987969 0.921342 0.173535
Si Si2 0.581599 0.620374 0.584457
Si Si3 0.689921 0.978865 0.350388
Si Si4 0.986367 0.591029 0.349878
Si Si5 0.311868 0.170347 0.299585
Si Si6 0.195381 0.654411 0.556764
Si Si7 0.586021 0.294637 0.754177
O O1 0.849545 0.917458 0.241145
O O2 0.108502 0.765086 0.934441
O O3 0.000000 0.000000 0.500000
O O4 0.000000 0.000000 0.000000
O O5 0.608812 0.748080 0.718154
O O6 0.716227 0.482897 0.455548
O O7 0.532962 0.610646 0.301264
O O8 0.462866 0.642649 0.866769
O O9 0.645133 0.902140 0.508161
O O10 0.610286 0.141055 0.590900
O O11 0.647726 0.950319 0.054489
O O12 0.103701 0.631951 0.358613
O O13 0.000000 0.500000 0.500000
O O14 0.847210 0.730661 0.544641
O O15 0.000000 0.500000 0.000000
O O16 0.278234 0.706673 0.393506
#
# Coordination Sequence:
#
# PCOD8037748 Si02
#       7
#     2   2   2   2   2   2   2
#     4  12  27  47  77 115 154 199 249 325 399 460
#     4  12  29  50  77 112 157 212 263 315 383 468
#     4  12  26  48  77 113 153 202 265 320 389 456
#     4  12  27  47  77 115 154 199 249 325 399 460
#     4  12  26  48  77 113 153 202 265 320 389 456
#     4  12  28  52  84 116 160 200 262 330 398 464
#     4  12  29  50  77 112 157 212 263 315 383 468
#
# _framework density 25.144646000000002
#
# number of rings (size 3 to 8) (size 9 to 14) (size 15 to 20)
#    0.000    0.000    4.286    4.286    4.000    5.714 
#    0.000    0.000    0.000    0.000    0.000    0.000 
#    0.000    0.000    0.000    0.000    0.000    0.000 
#
# Total GULP energy -173718.999043 kJ/mol
# GULP energy per Si atom -12408.499932 kJ/mol
# Density = 2.508742 g / cm^3
# Si number density = 25.144646 Si / 1000 Ang^3
#
#
#
# Elastic Constant Matrix: (Units=GPa)
#
#
# Indices 1 2 3 4 5 6 
#
# 1 95.2279 5.0563 6.4640 -9.4797 3.7702 19.9404
# 2 5.0563 122.1009 47.7339 -7.7279 0.1396 6.7382
# 3 6.4640 47.7339 114.0108 -11.1049 2.6091 1.8071
# 4 -9.4797 -7.7279 -11.1049 49.2499 -7.0086 3.2961
# 5 3.7702 0.1396 2.6091 -7.0086 40.6651 5.5919
# 6 19.9404 6.7382 1.8071 3.2961 5.5919 36.8166
#
#
#
# Elastic Compliance Matrix: (Units=1/GPa)
#
#
# Indices 1 2 3 4 5 6 
#
# 1 0.012239 0.000213 -0.000407 0.002810 0.000331 -0.006950
# 2 0.000213 0.009933 -0.004067 0.000899 0.000625 -0.001909
# 3 -0.000407 -0.004067 0.010657 0.001605 -0.000405 0.000360
# 4 0.002810 0.000899 0.001605 0.022219 0.004064 -0.004372
# 5 0.000331 0.000625 -0.000405 0.004064 0.025914 -0.004573
# 6 -0.006950 -0.001909 0.000360 -0.004372 -0.004573 0.032344
#
#
# Mechanical properties :
#
#
# Convention : Reuss Voigt Hill
#
# Bulk Modulus (GPa) = 41.14014 49.98309 45.56162
# Shear Modulus (GPa) = 38.48247 43.48536 40.98391
#
# Velocity S-wave (km/s) = 3.91633 4.16313 4.04161
# Velocity P-wave (km/s) = 6.07018 6.55974 6.31971
#
# Compressibility (1/GPa) = 0.02430716
#
# Stress axis : x y z
#
# Youngs Moduli (GPa) = 81.70397 100.67792 93.83628
#
# Poissons Ratio (x) = -0.02147 0.03819
# Poissons Ratio (y) = -0.01742 0.38164
# Poissons Ratio (z) = 0.03325 0.40947
#
# Static dielectric constant tensor:
#      x y z
#    x 4.659460 0.478080 -1.025870 
#    y 0.478080 3.852650 2.271930 
#    z -1.025870 2.271930 0.123050 
# 
# 
# High freq. dielectric constant tensor:
#      x y z
#    x 2.017200 0.005530 -0.000390 
#    y 0.005530 2.025790 0.006290 
#    z -0.000390 0.006290 2.013470 
# 
# From -- ./inp_files/72181.got.cif
#   From: 2010.06.25/outbox.cif.g09.slc.cpg/sg2_37_cif.got.tgz:72181.got - 2010.06.27 13:26:56.
