data_PCOD8037490
_publ_section_title
;
Structure prediction by ZEFSAII (Michael W. Deem and Ramdas Pophale) SiO2 
 PCOD8037490
Probable space group: P -1
;
_chemical_formula_sum "Si O2"
_cell_formula_units_Z 16
_cell_length_a 14.077496
_cell_length_b 6.403116
_cell_length_c 13.773209
_cell_angle_alpha 90.252469
_cell_angle_beta 42.122652
_cell_angle_gamma 67.498856
_cell_volume 681.006264
_symmetry_space_group_name_H-M "P -1"
_symmetry_group_IT_number 2
_symmetry_cell_setting 'triclinic'
loop_
_space_group_symop_operation_xyz
x,y,z
-x,-y,-z
loop_
_atom_site_type_symbol
_atom_site_label
_atom_site_fract_x
_atom_site_fract_y
_atom_site_fract_z
Si Si1 0.677082 0.287610 0.314917
Si Si2 0.086019 0.652583 0.204833
Si Si3 0.697334 0.275929 0.828241
Si Si4 0.851949 0.498619 0.055494
Si Si5 0.277453 0.925839 0.527142
Si Si6 0.459814 0.959476 0.712673
Si Si7 0.077037 0.308601 0.348408
Si Si8 0.718252 0.448674 0.610016
O O1 0.500000 0.500000 0.500000
O O2 0.776766 0.387972 0.185007
O O3 0.790656 0.113383 0.319417
O O4 0.636520 0.131446 0.276334
O O5 0.199814 0.752638 0.152122
O O6 0.159925 0.385379 0.202503
O O7 0.071102 0.665789 0.100094
O O8 0.891772 0.837785 0.395669
O O9 0.745459 0.381511 0.702123
O O10 0.762492 0.986204 0.749365
O O11 0.500000 0.500000 0.000000
O O12 0.698807 0.769865 0.126708
O O13 0.000000 0.500000 0.000000
O O14 0.359148 0.680225 0.393392
O O15 0.417922 0.987925 0.441944
O O16 0.579958 0.755137 0.704547
O O17 0.000000 0.500000 0.500000
O O18 0.911256 0.334453 0.424467
#
# Coordination Sequence:
#
# PCOD8037490 Si02
#       8
#     2   2   2   2   2   2   2   2
#     4  12  26  47  74 109 148 198 254 307 379 459
#     4  12  28  48  74 108 152 197 251 315 386 451
#     4  12  30  46  74 111 157 199 251 319 390 458
#     4  12  31  49  74 115 156 200 249 316 390 456
#     4  12  25  46  79 107 145 194 258 314 374 453
#     4  12  26  46  77 108 150 194 256 313 380 451
#     4  12  25  49  77 107 146 200 257 310 377 458
#     4  12  25  45  76 109 142 192 254 310 375 458
#
# _framework density 23.494645999999999
#
# number of rings (size 3 to 8) (size 9 to 14) (size 15 to 20)
#    0.000    0.000    6.250    2.250    8.750    2.500 
#    0.000    0.000    0.000    0.000    0.000    0.000 
#    0.000    0.000    0.000    0.000    0.000    0.000 
#
# Total GULP energy -198276.183103 kJ/mol
# GULP energy per Si atom -12392.261444 kJ/mol
# Density = 2.344117 g / cm^3
# Si number density = 23.494646 Si / 1000 Ang^3
#
#
#
# Elastic Constant Matrix: (Units=GPa)
#
#
# Indices 1 2 3 4 5 6 
#
# 1 123.6006 37.6662 41.2360 -5.8139 1.5446 10.5560
# 2 37.6662 135.3394 59.7720 8.4165 -4.9860 -6.9173
# 3 41.2360 59.7720 110.1837 6.2688 -9.4155 2.6371
# 4 -5.8139 8.4165 6.2688 52.6461 -11.8626 -10.0605
# 5 1.5446 -4.9860 -9.4155 -11.8626 43.5898 -2.5018
# 6 10.5560 -6.9173 2.6371 -10.0605 -2.5018 44.3548
#
#
#
# Elastic Compliance Matrix: (Units=1/GPa)
#
#
# Indices 1 2 3 4 5 6 
#
# 1 0.009808 -0.001690 -0.002845 0.001036 -0.001002 -0.002250
# 2 -0.001690 0.010178 -0.004887 -0.000816 0.000067 0.002099
# 3 -0.002845 -0.004887 0.013037 -0.000790 0.002090 -0.000922
# 4 0.001036 -0.000816 -0.000790 0.021590 0.005856 0.004900
# 5 -0.001002 0.000067 0.002090 0.005856 0.025194 0.002874
# 6 -0.002250 0.002099 -0.000922 0.004900 0.002874 0.024737
#
#
# Mechanical properties :
#
#
# Convention : Reuss Voigt Hill
#
# Bulk Modulus (GPa) = 70.52140 71.83023 71.17581
# Shear Modulus (GPa) = 39.02800 43.48144 41.25472
#
# Velocity S-wave (km/s) = 4.08014 4.30664 4.19492
# Velocity P-wave (km/s) = 7.23034 7.44103 7.33644
#
# Compressibility (1/GPa) = 0.01418009
#
# Stress axis : x y z
#
# Youngs Moduli (GPa) = 101.95757 98.25259 76.70412
#
# Poissons Ratio (x) = 0.16601 0.21821
# Poissons Ratio (y) = 0.17227 0.37485
# Poissons Ratio (z) = 0.29005 0.48016
#
# Static dielectric constant tensor:
#      x y z
#    x 4.232890 -0.229660 -0.180490 
#    y -0.229660 4.982000 0.064330 
#    z -0.180490 0.064330 4.000880 
# 
# 
# High freq. dielectric constant tensor:
#      x y z
#    x 1.936960 -0.006800 -0.010100 
#    y -0.006800 1.948780 0.009840 
#    z -0.010100 0.009840 1.918770 
# 
# From -- ./inp_files/399015.got.cif
#   From: 2010.06.25/outbox.cif.g09.slc.cpg/sg2_200_cif.got.tgz:399015.got - 2010.06.27 13:26:56.
