data_PCOD8037058
_publ_section_title
;
Structure prediction by ZEFSAII (Michael W. Deem and Ramdas Pophale) SiO2 
 PCOD8037058
Probable space group: P -1
;
_chemical_formula_sum "Si O2"
_cell_formula_units_Z 16
_cell_length_a 15.033198
_cell_length_b 8.815242
_cell_length_c 9.031673
_cell_angle_alpha 107.573858
_cell_angle_beta 116.084415
_cell_angle_gamma 38.289229
_cell_volume 664.085086
_symmetry_space_group_name_H-M "P -1"
_symmetry_group_IT_number 2
_symmetry_cell_setting 'triclinic'
loop_
_space_group_symop_operation_xyz
x,y,z
-x,-y,-z
loop_
_atom_site_type_symbol
_atom_site_label
_atom_site_fract_x
_atom_site_fract_y
_atom_site_fract_z
Si Si1 0.915867 0.641468 0.327635
Si Si2 0.420718 0.593795 0.312167
Si Si3 0.399575 0.905386 0.166106
Si Si4 0.727730 0.576579 0.182054
Si Si5 0.149639 0.733896 0.089077
Si Si6 0.158935 0.721693 0.565083
Si Si7 0.167846 0.457772 0.252066
Si Si8 0.315423 0.841770 0.788041
O O1 0.781075 0.684296 0.196079
O O2 0.000000 0.500000 0.500000
O O3 0.038298 0.505702 0.244638
O O4 0.820281 0.922416 0.344856
O O5 0.500000 0.500000 0.500000
O O6 0.415196 0.772764 0.281116
O O7 0.249026 0.738726 0.257688
O O8 0.515757 0.347199 0.212363
O O9 0.559656 0.780778 0.189587
O O10 0.307209 0.174942 0.225878
O O11 0.313664 0.911951 0.974590
O O12 0.859774 0.376144 0.340600
O O13 0.738178 0.441667 0.016114
O O14 0.102740 0.631298 0.112553
O O15 0.000000 0.000000 0.000000
O O16 0.220960 0.537306 0.421788
O O17 0.286738 0.686831 0.710709
O O18 0.000000 0.000000 0.500000
#
# Coordination Sequence:
#
# PCOD8037058 Si02
#       8
#     2   2   2   2   2   2   2   2
#     4  12  28  49  80 117 160 210 265 334 413 480
#     4  12  28  48  79 121 161 213 272 339 405 480
#     4  12  29  52  80 117 163 212 271 332 409 486
#     4  12  26  49  78 108 162 212 258 327 410 476
#     4  12  29  49  81 119 159 209 276 335 404 489
#     4  12  23  49  77 111 152 207 263 328 402 476
#     4  12  29  51  78 121 160 205 270 336 402 484
#     4  12  25  50  83 107 160 211 268 329 404 480
#
# _framework density 24.093298000000001
#
# number of rings (size 3 to 8) (size 9 to 14) (size 15 to 20)
#    0.000    0.000    5.000    3.375    7.000    2.500 
#    0.000    0.000    0.000    0.000    0.000    0.000 
#    0.000    0.000    0.000    0.000    0.000    0.000 
#
# Total GULP energy -198326.782126 kJ/mol
# GULP energy per Si atom -12395.423883 kJ/mol
# Density = 2.403846 g / cm^3
# Si number density = 24.093298 Si / 1000 Ang^3
#
#
#
# Elastic Constant Matrix: (Units=GPa)
#
#
# Indices 1 2 3 4 5 6 
#
# 1 162.1517 79.3195 51.6518 -7.3764 -2.3466 -13.2078
# 2 79.3195 146.5893 79.7451 1.0515 -5.7117 9.6543
# 3 51.6518 79.7451 137.9259 -3.3660 -5.2385 6.8465
# 4 -7.3764 1.0515 -3.3660 46.0986 8.4884 1.1076
# 5 -2.3466 -5.7117 -5.2385 8.4884 48.9841 -6.6421
# 6 -13.2078 9.6543 6.8465 1.1076 -6.6421 31.0490
#
#
#
# Elastic Compliance Matrix: (Units=1/GPa)
#
#
# Indices 1 2 3 4 5 6 
#
# 1 0.009432 -0.005002 -0.000882 0.001361 0.000323 0.005783
# 2 -0.005002 0.012736 -0.005276 -0.001411 0.000273 -0.004816
# 3 -0.000882 -0.005276 0.010710 0.000748 0.000212 -0.001078
# 4 0.001361 -0.001411 0.000748 0.022768 -0.004078 -0.000832
# 5 0.000323 0.000273 0.000212 -0.004078 0.021845 0.004824
# 6 0.005783 -0.004816 -0.001078 -0.000832 0.004824 0.037464
#
#
# Mechanical properties :
#
#
# Convention : Reuss Voigt Hill
#
# Bulk Modulus (GPa) = 94.69547 96.45552 95.57550
# Shear Modulus (GPa) = 35.51239 40.95637 38.23438
#
# Velocity S-wave (km/s) = 3.84337 4.12747 3.98795
# Velocity P-wave (km/s) = 7.68663 7.92690 7.80769
#
# Compressibility (1/GPa) = 0.01056017
#
# Stress axis : x y z
#
# Youngs Moduli (GPa) = 106.01644 78.51542 93.36666
#
# Poissons Ratio (x) = 0.39276 0.08233
# Poissons Ratio (y) = 0.53032 0.49256
# Poissons Ratio (z) = 0.09348 0.41421
#
# Static dielectric constant tensor:
#      x y z
#    x 4.171040 -1.091660 -0.256040 
#    y -1.091660 2.215030 -0.412810 
#    z -0.256040 -0.412810 4.330890 
# 
# 
# High freq. dielectric constant tensor:
#      x y z
#    x 1.970330 0.005130 -0.001090 
#    y 0.005130 1.962720 -0.009570 
#    z -0.001090 -0.009570 1.963710 
# 
# From -- ./inp_files/298882.got.cif
#   From: 2010.06.25/outbox.cif.g09.slc.cpg/sg2_150_cif.got.tgz:298882.got - 2010.06.27 13:26:56.
