data_PCOD8037951
_publ_section_title
;
Structure prediction by ZEFSAII (Michael W. Deem and Ramdas Pophale) SiO2 
 PCOD8037951
Probable space group: P -1
;
_chemical_formula_sum "Si O2"
_cell_formula_units_Z 16
_cell_length_a 10.341957
_cell_length_b 18.902894
_cell_length_c 7.445762
_cell_angle_alpha 87.383889
_cell_angle_beta 115.642163
_cell_angle_gamma 144.102222
_cell_volume 628.509404
_symmetry_space_group_name_H-M "P -1"
_symmetry_group_IT_number 2
_symmetry_cell_setting 'triclinic'
loop_
_space_group_symop_operation_xyz
x,y,z
-x,-y,-z
loop_
_atom_site_type_symbol
_atom_site_label
_atom_site_fract_x
_atom_site_fract_y
_atom_site_fract_z
Si Si1 0.570392 0.929845 0.928958
Si Si2 0.625342 0.822348 0.442223
Si Si3 0.722437 0.203081 0.846802
Si Si4 0.776585 0.873849 0.116531
Si Si5 0.593491 0.520650 0.760798
Si Si6 0.155003 0.231306 0.384994
Si Si7 0.656233 0.664092 0.031443
Si Si8 0.235575 0.892662 0.512128
O O1 0.458321 0.889964 0.068950
O O2 0.618178 0.868547 0.909240
O O3 0.323862 0.856703 0.659604
O O4 0.893568 0.111941 0.090889
O O5 0.318944 0.736073 0.273061
O O6 0.716506 0.865174 0.286208
O O7 0.612284 0.733811 0.498680
O O8 0.862854 0.964766 0.700589
O O9 0.539548 0.068338 0.618640
O O10 0.059554 0.336601 0.089527
O O11 0.649750 0.745115 0.982458
O O12 0.362945 0.393941 0.473426
O O13 0.525836 0.433870 0.887126
O O14 0.507820 0.561710 0.780088
O O15 0.985754 0.156176 0.484400
O O16 0.997455 0.778782 0.220983
#
# Coordination Sequence:
#
# PCOD8037951 Si02
#       8
#     2   2   2   2   2   2   2   2
#     4   9  19  31  57  80  97 128 167 216 259 289
#     4   9  14  26  49  75  98 119 164 214 252 281
#     4  10  18  29  48  83 104 120 170 215 256 281
#     4   9  14  30  52  75  93 131 171 206 247 292
#     4  10  21  31  49  78 103 139 163 207 243 304
#     4   9  16  31  48  72 104 130 161 197 256 303
#     4  10  19  36  53  71 103 140 171 194 250 309
#     4  10  17  33  53  78 100 130 170 209 250 297
#
# _framework density 25.457056999999999
#
# number of rings (size 3 to 8) (size 9 to 14) (size 15 to 20)
#    0.000    2.500    3.750    3.000    0.000    1.000 
#    0.000    5.625    0.000    7.500    3.250    0.000 
#    0.000    0.000    0.000    0.000    0.000    0.000 
#
# Total GULP energy -198233.887159 kJ/mol
# GULP energy per Si atom -12389.617947 kJ/mol
# Density = 2.539912 g / cm^3
# Si number density = 25.457057 Si / 1000 Ang^3
#
#
#
# Elastic Constant Matrix: (Units=GPa)
#
#
# Indices 1 2 3 4 5 6 
#
# 1 56.4234 53.3594 47.6514 5.6795 -1.7949 -36.1126
# 2 53.3594 108.7443 52.7225 25.1945 0.2642 -41.9318
# 3 47.6514 52.7225 107.1485 8.4379 7.5968 -19.6199
# 4 5.6795 25.1945 8.4379 43.3901 -3.4127 -1.3627
# 5 -1.7949 0.2642 7.5968 -3.4127 35.2916 4.1948
# 6 -36.1126 -41.9318 -19.6199 -1.3627 4.1948 49.5842
#
#
#
# Elastic Compliance Matrix: (Units=1/GPa)
#
#
# Indices 1 2 3 4 5 6 
#
# 1 0.059514 -0.011791 -0.016311 0.003364 0.003779 0.026692
# 2 -0.011791 0.022546 -0.003172 -0.010819 -0.002215 0.009114
# 3 -0.016311 -0.003172 0.017010 0.000153 -0.003558 -0.007526
# 4 0.003364 -0.010819 0.000153 0.028960 0.003752 -0.006160
# 5 0.003779 -0.002215 -0.003558 0.003752 0.030025 -0.002966
# 6 0.026692 0.009114 -0.007526 -0.006160 -0.002966 0.044419
#
#
# Mechanical properties :
#
#
# Convention : Reuss Voigt Hill
#
# Bulk Modulus (GPa) = 27.38083 64.42030 45.90057
# Shear Modulus (GPa) = 18.03785 33.55871 25.79828
#
# Velocity S-wave (km/s) = 2.66477 3.63471 3.18685
# Velocity P-wave (km/s) = 4.49967 6.55555 5.62238
#
# Compressibility (1/GPa) = 0.03652190
#
# Stress axis : x y z
#
# Youngs Moduli (GPa) = 16.80277 44.35455 58.79041
#
# Poissons Ratio (x) = 0.52297 0.95892
# Poissons Ratio (y) = 0.19812 0.18649
# Poissons Ratio (z) = 0.27407 0.14070
#
# Static dielectric constant tensor:
#      x y z
#    x 4.782160 -0.249510 0.054080 
#    y -0.249510 4.633630 0.082710 
#    z 0.054080 0.082710 4.789110 
# 
# 
# High freq. dielectric constant tensor:
#      x y z
#    x 2.022600 -0.010850 -0.007720 
#    y -0.010850 2.009880 -0.010300 
#    z -0.007720 -0.010300 2.006750 
# 
# From -- ./inp_files/435761.got.cif
#   From: 2010.06.25/outbox.cif.g09.slc.cpg/sg2_218_cif.got.tgz:435761.got - 2010.06.27 13:26:56.
