data_PCOD8037621
_publ_section_title
;
Structure prediction by ZEFSAII (Michael W. Deem and Ramdas Pophale) SiO2 
 PCOD8037621
Probable space group: P -1
;
_chemical_formula_sum "Si O2"
_cell_formula_units_Z 14
_cell_length_a 21.432871
_cell_length_b 19.778013
_cell_length_c 5.026539
_cell_angle_alpha 125.430747
_cell_angle_beta 118.816105
_cell_angle_gamma 18.521765
_cell_volume 532.326349
_symmetry_space_group_name_H-M "P -1"
_symmetry_group_IT_number 2
_symmetry_cell_setting 'triclinic'
loop_
_space_group_symop_operation_xyz
x,y,z
-x,-y,-z
loop_
_atom_site_type_symbol
_atom_site_label
_atom_site_fract_x
_atom_site_fract_y
_atom_site_fract_z
Si Si1 0.193351 0.544004 0.698402
Si Si2 0.048016 0.613891 0.072091
Si Si3 0.021502 0.902949 0.115670
Si Si4 0.360716 0.135365 0.767524
Si Si5 0.628361 0.229193 0.015482
Si Si6 0.665870 0.014174 0.487405
Si Si7 0.594815 0.480278 0.258774
O O1 0.092848 0.642093 0.426065
O O2 0.430132 0.270276 0.515485
O O3 0.113113 0.564763 0.795662
O O4 0.134545 0.701373 0.029798
O O5 0.164850 0.407808 0.966826
O O6 0.805239 0.862353 0.160224
O O7 0.794690 0.120555 0.063304
O O8 0.000000 0.000000 0.500000
O O9 0.158227 0.784420 0.870982
O O10 0.500000 0.000000 0.500000
O O11 0.280381 0.128362 0.568825
O O12 0.500000 0.000000 0.000000
O O13 0.467325 0.434669 0.373614
O O14 0.719983 0.037780 0.834054
O O15 0.506990 0.342598 0.749653
O O16 0.500000 0.500000 0.000000
#
# Coordination Sequence:
#
# PCOD8037621 Si02
#       7
#     2   2   2   2   2   2   2
#     4  12  28  48  75 111 150 195 251 315 368 447
#     4  12  27  50  76 113 150 196 252 301 380 450
#     4  12  28  50  78 111 152 198 256 318 373 449
#     4  12  25  48  77 114 153 195 247 311 372 445
#     4  12  29  47  75 112 145 201 250 305 384 443
#     4  12  27  48  82 106 158 198 251 307 379 444
#     4  12  28  49  75 108 149 193 255 313 376 445
#
# _framework density 26.299657
#
# number of rings (size 3 to 8) (size 9 to 14) (size 15 to 20)
#    0.000    0.000    7.143    0.857    4.000    5.143 
#    0.000    2.857    0.000    0.000    0.000    0.000 
#    0.000    0.000    0.000    0.000    0.000    0.000 
#
# Total GULP energy -173573.479337 kJ/mol
# GULP energy per Si atom -12398.105667 kJ/mol
# Density = 2.623980 g / cm^3
# Si number density = 26.299657 Si / 1000 Ang^3
#
#
#
# Elastic Constant Matrix: (Units=GPa)
#
#
# Indices 1 2 3 4 5 6 
#
# 1 114.6442 9.9336 48.4834 9.2682 -11.3860 -42.2069
# 2 9.9336 101.6197 34.1406 37.1508 -30.6546 -26.2256
# 3 48.4834 34.1406 115.1927 24.1675 -8.6382 -17.1068
# 4 9.2682 37.1508 24.1675 49.9894 -7.3606 -8.7596
# 5 -11.3860 -30.6546 -8.6382 -7.3606 63.5249 9.3293
# 6 -42.2069 -26.2256 -17.1068 -8.7596 9.3293 48.5086
#
#
#
# Elastic Compliance Matrix: (Units=1/GPa)
#
#
# Indices 1 2 3 4 5 6 
#
# 1 0.016364 0.005249 -0.005878 -0.001228 0.002422 0.014315
# 2 0.005249 0.019230 -0.003599 -0.010672 0.006963 0.010428
# 3 -0.005878 -0.003599 0.012294 -0.002861 -0.001002 -0.003048
# 4 -0.001228 -0.010672 -0.002861 0.028847 -0.002088 -0.002236
# 5 0.002422 0.006963 -0.001002 -0.002088 0.018938 0.001499
# 6 0.014315 0.010428 -0.003048 -0.002236 0.001499 0.036941
#
#
# Mechanical properties :
#
#
# Convention : Reuss Voigt Hill
#
# Bulk Modulus (GPa) = 25.35976 57.39687 41.37831
# Shear Modulus (GPa) = 32.42285 48.33120 40.37703
#
# Velocity S-wave (km/s) = 3.51497 4.29151 3.92250
# Velocity P-wave (km/s) = 5.11243 6.81378 6.02347
#
# Compressibility (1/GPa) = 0.03943256
#
# Stress axis : x y z
#
# Youngs Moduli (GPa) = 61.11089 52.00274 81.34023
#
# Poissons Ratio (x) = -0.27298 0.47810
# Poissons Ratio (y) = -0.32079 0.29273
# Poissons Ratio (z) = 0.35920 0.18715
#
# Static dielectric constant tensor:
#      x y z
#    x 5.854840 0.293650 0.335360 
#    y 0.293650 5.160400 0.368000 
#    z 0.335360 0.368000 4.834160 
# 
# 
# High freq. dielectric constant tensor:
#      x y z
#    x 2.080010 -0.008070 0.013340 
#    y -0.008070 2.060450 0.030130 
#    z 0.013340 0.030130 2.052960 
# 
# From -- ./inp_files/120487.got.cif
#   From: 2010.06.25/outbox.cif.g09.slc.cpg/sg2_61_cif.got.tgz:120487.got - 2010.06.27 13:26:56.
