data_PCOD8037802
_publ_section_title
;
Structure prediction by ZEFSAII (Michael W. Deem and Ramdas Pophale) SiO2 
 PCOD8037802
Probable space group: P -1
;
_chemical_formula_sum "Si O2"
_cell_formula_units_Z 14
_cell_length_a 15.860024
_cell_length_b 12.467479
_cell_length_c 4.952869
_cell_angle_alpha 114.289215
_cell_angle_beta 87.256180
_cell_angle_gamma 45.089729
_cell_volume 538.437430
_symmetry_space_group_name_H-M "P -1"
_symmetry_group_IT_number 2
_symmetry_cell_setting 'triclinic'
loop_
_space_group_symop_operation_xyz
x,y,z
-x,-y,-z
loop_
_atom_site_type_symbol
_atom_site_label
_atom_site_fract_x
_atom_site_fract_y
_atom_site_fract_z
Si Si1 0.757609 0.453618 0.309836
Si Si2 0.821521 0.582885 0.096412
Si Si3 0.145224 0.892335 0.272179
Si Si4 0.031454 0.235962 0.345762
Si Si5 0.608470 0.281759 0.665674
Si Si6 0.460788 0.787344 0.900441
Si Si7 0.236300 0.201881 0.167971
O O1 0.737370 0.554752 0.145862
O O2 0.627517 0.621705 0.701189
O O3 0.901891 0.335377 0.295202
O O4 0.762911 0.309943 0.095341
O O5 0.838760 0.634100 0.426526
O O6 0.739778 0.749673 0.056954
O O7 0.975373 0.375378 0.751571
O O8 0.233828 0.842166 0.461591
O O9 0.120356 0.025906 0.209669
O O10 0.000000 0.000000 0.500000
O O11 0.136645 0.200515 0.119814
O O12 0.580713 0.273524 0.356348
O O13 0.500000 0.500000 0.000000
O O14 0.589779 0.189373 0.768144
O O15 0.386264 0.991173 0.033441
#
# Coordination Sequence:
#
# PCOD8037802 Si02
#       7
#     2   2   2   2   2   2   2
#     4  12  29  48  76 116 158 197 250 320 386 452
#     4  12  27  50  76 113 151 202 257 319 373 443
#     4  12  27  47  81 118 155 196 250 319 389 456
#     4  12  27  49  78 113 154 199 256 317 386 445
#     4  12  27  51  79 112 156 204 249 310 382 459
#     4  12  29  50  78 114 154 202 258 307 382 453
#     4  12  28  50  80 107 151 206 263 309 371 454
#
# _framework density 26.001162000000001
#
# number of rings (size 3 to 8) (size 9 to 14) (size 15 to 20)
#    0.000    0.000    5.714    2.571    8.000    1.143 
#    0.000    0.000    0.000    0.000    0.000    0.000 
#    0.000    0.000    0.000    0.000    0.000    0.000 
#
# Total GULP energy -173661.342058 kJ/mol
# GULP energy per Si atom -12404.381576 kJ/mol
# Density = 2.594198 g / cm^3
# Si number density = 26.001162 Si / 1000 Ang^3
#
#
#
# Elastic Constant Matrix: (Units=GPa)
#
#
# Indices 1 2 3 4 5 6 
#
# 1 39.3080 45.6436 9.5914 16.9107 2.2729 8.0323
# 2 45.6436 107.8677 0.3333 10.3122 12.1639 16.5952
# 3 9.5914 0.3333 42.6615 2.2102 6.4225 7.4270
# 4 16.9107 10.3122 2.2102 45.5451 -1.2542 7.1849
# 5 2.2729 12.1639 6.4225 -1.2542 41.5151 11.5737
# 6 8.0323 16.5952 7.4270 7.1849 11.5737 38.1654
#
#
#
# Elastic Compliance Matrix: (Units=1/GPa)
#
#
# Indices 1 2 3 4 5 6 
#
# 1 0.070145 -0.028883 -0.015900 -0.019005 0.005748 0.002725
# 2 -0.028883 0.022145 0.007526 0.005969 -0.004566 -0.004754
# 3 -0.015900 0.007526 0.028252 0.003465 -0.004267 -0.004782
# 4 -0.019005 0.005969 0.003465 0.028291 0.000974 -0.004891
# 5 0.005748 -0.004566 -0.004267 0.000974 0.027750 -0.006992
# 6 0.002725 -0.004754 -0.004782 -0.004891 -0.006992 0.031667
#
#
# Mechanical properties :
#
#
# Convention : Reuss Voigt Hill
#
# Bulk Modulus (GPa) = 21.72570 33.44152 27.58361
# Shear Modulus (GPa) = 16.77261 33.99639 25.38450
#
# Velocity S-wave (km/s) = 2.54258 3.61985 3.12794
# Velocity P-wave (km/s) = 4.12231 5.51004 4.86590
#
# Compressibility (1/GPa) = 0.04602844
#
# Stress axis : x y z
#
# Youngs Moduli (GPa) = 14.25623 45.15779 35.39607
#
# Poissons Ratio (x) = 1.30428 0.56279
# Poissons Ratio (y) = 0.41176 -0.26640
# Poissons Ratio (z) = 0.22667 -0.33987
#
# Static dielectric constant tensor:
#      x y z
#    x 4.818270 0.291600 0.135760 
#    y 0.291600 5.022840 0.223010 
#    z 0.135760 0.223010 4.858430 
# 
# 
# High freq. dielectric constant tensor:
#      x y z
#    x 2.042250 0.011860 0.002670 
#    y 0.011860 2.053000 0.012430 
#    z 0.002670 0.012430 2.042270 
# 
# From -- ./inp_files/95484.got.cif
#   From: 2010.06.25/outbox.cif.g09.slc.cpg/sg2_48_cif.got.tgz:95484.got - 2010.06.27 13:26:56.
