data_PCOD8037755
_publ_section_title
;
Structure prediction by ZEFSAII (Michael W. Deem and Ramdas Pophale) SiO2 
 PCOD8037755
Probable space group: P -1
;
_chemical_formula_sum "Si O2"
_cell_formula_units_Z 10
_cell_length_a 9.295266
_cell_length_b 11.760301
_cell_length_c 8.177385
_cell_angle_alpha 111.512610
_cell_angle_beta 148.194898
_cell_angle_gamma 56.771796
_cell_volume 384.026448
_symmetry_space_group_name_H-M "P -1"
_symmetry_group_IT_number 2
_symmetry_cell_setting 'triclinic'
loop_
_space_group_symop_operation_xyz
x,y,z
-x,-y,-z
loop_
_atom_site_type_symbol
_atom_site_label
_atom_site_fract_x
_atom_site_fract_y
_atom_site_fract_z
Si Si1 0.268008 0.922130 0.586171
Si Si2 0.614860 0.859641 0.374093
Si Si3 0.708296 0.665466 0.079696
Si Si4 0.407479 0.495246 0.593378
Si Si5 0.847839 0.181088 0.904095
O O1 0.121817 0.865432 0.278297
O O2 0.391608 0.022960 0.687986
O O3 0.568029 0.795334 0.889115
O O4 0.000000 0.000000 0.500000
O O5 0.732341 0.717031 0.311093
O O6 0.266704 0.907824 0.136200
O O7 0.828518 0.834178 0.726387
O O8 0.040773 0.550120 0.275342
O O9 0.485785 0.595430 0.834338
O O10 0.500000 0.500000 0.500000
O O11 0.579459 0.339977 0.747200
#
# Coordination Sequence:
#
# PCOD8037755 Si02
#       5
#     2   2   2   2   2
#     4  12  27  51  80 110 152 202 254 306 367 455
#     4  12  28  48  74 117 153 194 244 313 379 440
#     4  12  27  48  79 110 150 197 253 302 372 445
#     4  12  26  48  79 110 148 195 255 308 365 451
#     4  12  28  48  78 110 153 197 247 313 379 432
#
# _framework density 26.039871999999999
#
# number of rings (size 3 to 8) (size 9 to 14) (size 15 to 20)
#    0.000    0.000    2.000    7.200    2.800    8.000 
#    0.000    0.000    0.000    0.000    0.000    0.000 
#    0.000    0.000    0.000    0.000    0.000    0.000 
#
# Total GULP energy -124112.094490 kJ/mol
# GULP energy per Si atom -12411.209449 kJ/mol
# Density = 2.598060 g / cm^3
# Si number density = 26.039872 Si / 1000 Ang^3
#
#
#
# Elastic Constant Matrix: (Units=GPa)
#
#
# Indices 1 2 3 4 5 6 
#
# 1 110.1784 20.0036 26.4721 19.2553 -0.8240 -15.7479
# 2 20.0036 109.4380 27.5876 22.9689 -18.7534 -5.0909
# 3 26.4721 27.5876 126.6374 16.2418 -1.4083 -6.4203
# 4 19.2553 22.9689 16.2418 50.2385 -12.4135 -10.6863
# 5 -0.8240 -18.7534 -1.4083 -12.4135 41.7426 4.0722
# 6 -15.7479 -5.0909 -6.4203 -10.6863 4.0722 44.5895
#
#
#
# Elastic Compliance Matrix: (Units=1/GPa)
#
#
# Indices 1 2 3 4 5 6 
#
# 1 0.010512 -0.001074 -0.001475 -0.002814 -0.001438 0.002835
# 2 -0.001074 0.011117 -0.001766 -0.003217 0.004006 -0.000501
# 3 -0.001475 -0.001766 0.008806 -0.001683 -0.001049 0.000238
# 4 -0.002814 -0.003217 -0.001683 0.025207 0.005555 0.003931
# 5 -0.001438 0.004006 -0.001049 0.005555 0.027479 -0.001380
# 6 0.002835 -0.000501 0.000238 0.003931 -0.001380 0.024473
#
#
# Mechanical properties :
#
#
# Convention : Reuss Voigt Hill
#
# Bulk Modulus (GPa) = 45.85821 54.93115 50.39468
# Shear Modulus (GPa) = 40.48893 45.46015 42.97454
#
# Velocity S-wave (km/s) = 3.94748 4.18280 4.06684
# Velocity P-wave (km/s) = 6.19885 6.66847 6.43795
#
# Compressibility (1/GPa) = 0.02180634
#
# Stress axis : x y z
#
# Youngs Moduli (GPa) = 95.13337 89.94973 113.56215
#
# Poissons Ratio (x) = 0.09657 0.16749
# Poissons Ratio (y) = 0.10213 0.20051
# Poissons Ratio (z) = 0.14031 0.15882
#
# Static dielectric constant tensor:
#      x y z
#    x 4.668370 0.020590 -0.172740 
#    y 0.020590 5.264360 0.168020 
#    z -0.172740 0.168020 4.809890 
# 
# 
# High freq. dielectric constant tensor:
#      x y z
#    x 2.045680 -0.007350 -0.004000 
#    y -0.007350 2.069560 0.004070 
#    z -0.004000 0.004070 2.057050 
# 
# From -- ./inp_files/60813.got.cif
#   From: 2010.06.25/outbox.cif.g09.slc.cpg/sg2_31_cif.got.tgz:60813.got - 2010.06.27 13:26:56.
