data_PCOD8037418
_publ_section_title
;
Structure prediction by ZEFSAII (Michael W. Deem and Ramdas Pophale) SiO2 
 PCOD8037418
Probable space group: P -1
;
_chemical_formula_sum "Si O2"
_cell_formula_units_Z 12
_cell_length_a 8.719074
_cell_length_b 25.132789
_cell_length_c 27.358888
_cell_angle_alpha 170.692807
_cell_angle_beta 148.582262
_cell_angle_gamma 31.805704
_cell_volume 503.324146
_symmetry_space_group_name_H-M "P -1"
_symmetry_group_IT_number 2
_symmetry_cell_setting 'triclinic'
loop_
_space_group_symop_operation_xyz
x,y,z
-x,-y,-z
loop_
_atom_site_type_symbol
_atom_site_label
_atom_site_fract_x
_atom_site_fract_y
_atom_site_fract_z
Si Si1 0.576947 0.619406 0.181027
Si Si2 0.697538 0.904090 0.307898
Si Si3 0.412067 0.054287 0.795863
Si Si4 0.833518 0.555906 0.347894
Si Si5 0.777307 0.931040 0.047448
Si Si6 0.764572 0.626347 0.865800
O O1 0.920194 0.548350 0.221878
O O2 0.500000 0.000000 0.500000
O O3 0.500000 0.500000 0.000000
O O4 0.385299 0.448018 0.014305
O O5 0.733287 0.862733 0.221555
O O6 0.440701 0.188039 0.511467
O O7 0.000000 0.000000 0.500000
O O8 0.466851 0.656060 0.452256
O O9 0.715481 0.229494 0.044468
O O10 0.204991 0.196923 0.913321
O O11 0.029648 0.753465 0.617500
O O12 0.031913 0.411381 0.225492
O O13 0.667226 0.892989 0.038927
O O14 0.500000 0.000000 0.000000
#
# Coordination Sequence:
#
# PCOD8037418 Si02
#       6
#     2   2   2   2   2   2
#     4  12  28  44  69 106 147 195 256 297 361 441
#     4  12  28  49  77 109 158 207 251 300 378 452
#     4  12  25  47  74 107 154 196 240 305 383 439
#     4  12  24  51  75 109 152 194 248 312 379 446
#     4  12  27  52  84 110 143 199 258 319 384 439
#     4  12  25  47  73 108 150 193 252 319 362 451
#
# _framework density 23.841495999999999
#
# number of rings (size 3 to 8) (size 9 to 14) (size 15 to 20)
#    0.000    0.000    5.000    3.500    7.000    0.667 
#    0.000    5.833    0.000    0.000    0.000    0.000 
#    0.000    0.000    0.000    0.000    0.000    0.000 
#
# Total GULP energy -148760.228454 kJ/mol
# GULP energy per Si atom -12396.685704 kJ/mol
# Density = 2.378723 g / cm^3
# Si number density = 23.841496 Si / 1000 Ang^3
#
#
#
# Elastic Constant Matrix: (Units=GPa)
#
#
# Indices 1 2 3 4 5 6 
#
# 1 139.5157 75.6423 61.6626 5.7708 -9.7287 24.1085
# 2 75.6423 140.1550 63.5057 -23.6887 5.1942 16.7157
# 3 61.6626 63.5057 171.3754 -21.7620 -0.6701 9.9018
# 4 5.7708 -23.6887 -21.7620 38.8439 1.4732 2.4299
# 5 -9.7287 5.1942 -0.6701 1.4732 51.9286 0.3238
# 6 24.1085 16.7157 9.9018 2.4299 0.3238 31.9629
#
#
#
# Elastic Compliance Matrix: (Units=1/GPa)
#
#
# Indices 1 2 3 4 5 6 
#
# 1 0.013671 -0.006791 -0.003061 -0.007689 0.003452 -0.005262
# 2 -0.006791 0.013152 -0.001238 0.008568 -0.002834 -0.001995
# 3 -0.003061 -0.001238 0.007907 0.004135 -0.000466 0.000197
# 4 -0.007689 0.008568 0.004135 0.034711 -0.003213 -0.002569
# 5 0.003452 -0.002834 -0.000466 -0.003213 0.020278 -0.000938
# 6 -0.005262 -0.001995 0.000197 -0.002569 -0.000938 0.036442
#
#
# Mechanical properties :
#
#
# Convention : Reuss Voigt Hill
#
# Bulk Modulus (GPa) = 79.68369 94.74082 87.21225
# Shear Modulus (GPa) = 32.78145 41.22945 37.00545
#
# Velocity S-wave (km/s) = 3.71209 4.16301 3.94400
# Velocity P-wave (km/s) = 7.20192 7.93295 7.57625
#
# Compressibility (1/GPa) = 0.01254962
#
# Stress axis : x y z
#
# Youngs Moduli (GPa) = 73.14990 76.03249 126.46623
#
# Poissons Ratio (x) = 0.51634 0.38714
# Poissons Ratio (y) = 0.49676 0.15657
# Poissons Ratio (z) = 0.22393 0.09413
#
# Static dielectric constant tensor:
#      x y z
#    x 4.578590 -0.000920 0.140000 
#    y -0.000920 3.997880 -0.148150 
#    z 0.140000 -0.148150 4.764780 
# 
# 
# High freq. dielectric constant tensor:
#      x y z
#    x 1.956460 0.005960 -0.002200 
#    y 0.005960 1.908150 -0.020840 
#    z -0.002200 -0.020840 1.973940 
# 
# From -- ./inp_files/617613.got.cif
#   From: 2010.06.25/outbox.cif.g09.slc.cpg/sg2_309_cif.got.tgz:617613.got - 2010.06.27 13:26:56.
