data_PCOD8037981
_publ_section_title
;
Structure prediction by ZEFSAII (Michael W. Deem and Ramdas Pophale) SiO2 
 PCOD8037981
Probable space group: P -1
;
_chemical_formula_sum "Si O2"
_cell_formula_units_Z 14
_cell_length_a 11.275700
_cell_length_b 11.446366
_cell_length_c 11.101074
_cell_angle_alpha 101.429776
_cell_angle_beta 104.079205
_cell_angle_gamma 144.119758
_cell_volume 585.404517
_symmetry_space_group_name_H-M "P -1"
_symmetry_group_IT_number 2
_symmetry_cell_setting 'triclinic'
loop_
_space_group_symop_operation_xyz
x,y,z
-x,-y,-z
loop_
_atom_site_type_symbol
_atom_site_label
_atom_site_fract_x
_atom_site_fract_y
_atom_site_fract_z
Si Si1 0.517146 0.845017 0.738133
Si Si2 0.802276 0.815256 0.590923
Si Si3 0.889564 0.645605 0.627130
Si Si4 0.459068 0.645403 0.288903
Si Si5 0.791741 0.284808 0.191907
Si Si6 0.357928 0.821264 0.310795
Si Si7 0.975152 0.868710 0.056398
O O1 0.402570 0.663484 0.564324
O O2 0.258049 0.638740 0.726227
O O3 0.617675 0.064835 0.767993
O O4 0.783656 0.014186 0.898861
O O5 0.500000 0.500000 0.500000
O O6 0.987517 0.854843 0.626046
O O7 0.744275 0.834291 0.454700
O O8 0.973722 0.049045 0.774993
O O9 0.804730 0.601915 0.733850
O O10 0.129609 0.755400 0.706749
O O11 0.509991 0.830379 0.313529
O O12 0.338589 0.468772 0.105072
O O13 0.026220 0.511119 0.194231
O O14 0.500000 0.000000 0.000000
O O15 0.500000 0.000000 0.500000
O O16 0.000000 0.000000 0.000000
#
# Coordination Sequence:
#
# PCOD8037981 Si02
#       7
#     2   2   2   2   2   2   2
#     4  12  22  39  67  95 124 170 216 257 326 382
#     4  10  17  33  55  88 123 160 216 263 308 377
#     4  10  18  35  57  88 123 161 208 261 309 374
#     4  10  19  34  54  93 124 158 215 262 315 374
#     4  11  25  39  59  97 133 164 215 267 320 384
#     4  11  22  41  66  93 132 173 210 264 324 388
#     4  12  20  32  62  94 123 165 216 266 314 381
#
# _framework density 23.915085000000001
#
# number of rings (size 3 to 8) (size 9 to 14) (size 15 to 20)
#    0.000    1.143    8.571    2.143    0.000    2.286 
#    0.000    0.000    0.000    1.714    3.714    1.000 
#    0.000    0.000    0.000    0.000    0.000    0.000 
#
# Total GULP energy -173540.074313 kJ/mol
# GULP energy per Si atom -12395.719594 kJ/mol
# Density = 2.386065 g / cm^3
# Si number density = 23.915085 Si / 1000 Ang^3
#
#
#
# Elastic Constant Matrix: (Units=GPa)
#
#
# Indices 1 2 3 4 5 6 
#
# 1 135.8464 19.2649 41.3786 -8.5201 15.4921 -43.4472
# 2 19.2649 42.3211 10.3994 -5.8729 2.5040 -30.9776
# 3 41.3786 10.3994 163.3792 3.7576 -3.9931 -23.4647
# 4 -8.5201 -5.8729 3.7576 23.2025 -14.3881 3.5840
# 5 15.4921 2.5040 -3.9931 -14.3881 46.4798 -2.2721
# 6 -43.4472 -30.9776 -23.4647 3.5840 -2.2721 40.6982
#
#
#
# Elastic Compliance Matrix: (Units=1/GPa)
#
#
# Indices 1 2 3 4 5 6 
#
# 1 0.013568 0.010056 -0.001190 0.002355 -0.003408 0.021055
# 2 0.010056 0.063103 0.001637 0.009901 -0.000671 0.058801
# 3 -0.001190 0.001637 0.006962 -0.001365 0.000687 0.004149
# 4 0.002355 0.009901 -0.001365 0.055876 0.016117 0.005242
# 5 -0.003408 -0.000671 0.000687 0.016117 0.027557 -0.003634
# 6 0.021055 0.058801 0.004149 0.005242 -0.003634 0.093532
#
#
# Mechanical properties :
#
#
# Convention : Reuss Voigt Hill
#
# Bulk Modulus (GPa) = 9.55660 53.73696 31.64678
# Shear Modulus (GPa) = 18.21688 40.10966 29.16327
#
# Velocity S-wave (km/s) = 2.76294 4.09977 3.49585
# Velocity P-wave (km/s) = 3.76606 6.70295 5.43657
#
# Compressibility (1/GPa) = 0.10463978
#
# Stress axis : x y z
#
# Youngs Moduli (GPa) = 73.70373 15.84710 143.63979
#
# Poissons Ratio (x) = -0.15936 0.17092
# Poissons Ratio (y) = -0.74116 -0.23521
# Poissons Ratio (z) = 0.08770 -0.02595
#
# Static dielectric constant tensor:
#      x y z
#    x 5.484620 -0.533160 -0.005280 
#    y -0.533160 2.174550 -0.022400 
#    z -0.005280 -0.022400 4.498740 
# 
# 
# High freq. dielectric constant tensor:
#      x y z
#    x 1.968280 -0.024720 0.005530 
#    y -0.024720 1.901570 -0.004170 
#    z 0.005530 -0.004170 1.960470 
# 
# From -- ./inp_files/428398.got.cif
#   From: 2010.06.25/outbox.cif.g09.slc.cpg/sg2_215_cif.got.tgz:428398.got - 2010.06.27 13:26:56.
