data_PCOD8037958
_publ_section_title
;
Structure prediction by ZEFSAII (Michael W. Deem and Ramdas Pophale) SiO2 
 PCOD8037958
Probable space group: P -1
;
_chemical_formula_sum "Si O2"
_cell_formula_units_Z 14
_cell_length_a 23.341881
_cell_length_b 12.079111
_cell_length_c 9.328650
_cell_angle_alpha 57.469312
_cell_angle_beta 149.055737
_cell_angle_gamma 141.021818
_cell_volume 780.156814
_symmetry_space_group_name_H-M "P -1"
_symmetry_group_IT_number 2
_symmetry_cell_setting 'triclinic'
loop_
_space_group_symop_operation_xyz
x,y,z
-x,-y,-z
loop_
_atom_site_type_symbol
_atom_site_label
_atom_site_fract_x
_atom_site_fract_y
_atom_site_fract_z
Si Si1 0.931395 0.351770 0.580221
Si Si2 0.161999 0.921183 0.655162
Si Si3 0.618390 0.430656 0.187901
Si Si4 0.503503 0.852004 0.651783
Si Si5 0.718584 0.718583 0.437489
Si Si6 0.825269 0.524339 0.301103
Si Si7 0.746974 0.506040 0.825772
O O1 0.814588 0.145340 0.394549
O O2 0.836995 0.375508 0.462342
O O3 0.000000 0.500000 0.500000
O O4 0.090174 0.421061 0.945196
O O5 0.002563 0.743440 0.524868
O O6 0.145676 0.057618 0.471159
O O7 0.310214 0.032430 0.007303
O O8 0.592928 0.267481 0.325420
O O9 0.709634 0.608138 0.365510
O O10 0.723038 0.502882 0.220744
O O11 0.445898 0.344354 0.837584
O O12 0.420042 0.697607 0.452947
O O13 0.500000 0.000000 0.500000
O O14 0.762055 0.673914 0.704780
O O15 0.736204 0.476584 0.993054
#
# Coordination Sequence:
#
# PCOD8037958 Si02
#       7
#     2   2   2   2   2   2   2
#     4   8  16  31  48  75 104 133 161 203 264 301
#     4   9  18  32  55  74 104 137 169 208 249 308
#     4   9  20  34  53  73 107 137 163 212 258 301
#     4  10  17  33  54  74  96 137 175 200 246 309
#     4   9  18  35  50  74 102 142 176 194 250 310
#     4  10  19  34  53  79 104 132 166 215 262 290
#     4   9  18  32  55  74 104 137 169 208 249 308
#
# _framework density 17.94511
#
# number of rings (size 3 to 8) (size 9 to 14) (size 15 to 20)
#    0.000    3.143    0.000    3.429    0.000    3.429 
#    0.000   12.857    0.000    6.857    0.000    0.000 
#    0.000    0.000    0.000    0.000    0.000    0.000 
#
# Total GULP energy -173437.386191 kJ/mol
# GULP energy per Si atom -12388.384728 kJ/mol
# Density = 1.790427 g / cm^3
# Si number density = 17.945110 Si / 1000 Ang^3
#
#
#
# Elastic Constant Matrix: (Units=GPa)
#
#
# Indices 1 2 3 4 5 6 
#
# 1 118.1628 42.8330 35.3817 -0.5266 9.4689 2.7802
# 2 42.8330 138.4015 56.4638 -24.3133 -3.0421 -6.0262
# 3 35.3817 56.4638 107.9889 9.4356 -4.2110 0.2054
# 4 -0.5266 -24.3133 9.4356 29.2943 -8.7141 1.1015
# 5 9.4689 -3.0421 -4.2110 -8.7141 11.1623 -3.3117
# 6 2.7802 -6.0262 0.2054 1.1015 -3.3117 19.5760
#
#
#
# Elastic Compliance Matrix: (Units=1/GPa)
#
#
# Indices 1 2 3 4 5 6 
#
# 1 0.013386 -0.007073 -0.000557 -0.012836 -0.025802 -0.007715
# 2 -0.007073 0.019185 -0.008899 0.028083 0.033064 0.011017
# 3 -0.000557 -0.008899 0.015046 -0.014732 -0.008810 -0.003480
# 4 -0.012836 0.028083 -0.014732 0.087079 0.087030 0.020446
# 5 -0.025802 0.033064 -0.008810 0.087030 0.197709 0.042485
# 6 -0.007715 0.011017 -0.003480 0.020446 0.042485 0.061643
#
#
# Mechanical properties :
#
#
# Convention : Reuss Voigt Hill
#
# Bulk Modulus (GPa) = 68.69318 70.43445 69.56382
# Shear Modulus (GPa) = 11.57515 27.33151 19.45333
#
# Velocity S-wave (km/s) = 2.54250 3.90688 3.29606
# Velocity P-wave (km/s) = 6.85433 7.72572 7.30303
#
# Compressibility (1/GPa) = 0.01455749
#
# Stress axis : x y z
#
# Youngs Moduli (GPa) = 74.70633 52.12426 66.46207
#
# Poissons Ratio (x) = 0.36869 0.03704
# Poissons Ratio (y) = 0.52842 0.59145
# Poissons Ratio (z) = 0.04163 0.46386
#
# Static dielectric constant tensor:
#      x y z
#    x 3.377480 -0.576300 0.097650 
#    y -0.576300 4.026690 -0.022790 
#    z 0.097650 -0.022790 4.209320 
# 
# 
# High freq. dielectric constant tensor:
#      x y z
#    x 1.647920 -0.013820 -0.002620 
#    y -0.013820 1.709450 -0.005270 
#    z -0.002620 -0.005270 1.702640 
# 
# From -- ./inp_files/199083.got.cif
#   From: 2010.06.25/outbox.cif.g09.slc.cpg/sg2_100_cif.got.tgz:199083.got - 2010.06.27 13:26:56.
