data_PCOD8037251
_publ_section_title
;
Structure prediction by ZEFSAII (Michael W. Deem and Ramdas Pophale) SiO2 
 PCOD8037251
Probable space group: P -1
;
_chemical_formula_sum "Si O2"
_cell_formula_units_Z 14
_cell_length_a 12.412681
_cell_length_b 8.579005
_cell_length_c 9.101470
_cell_angle_alpha 69.154737
_cell_angle_beta 123.458923
_cell_angle_gamma 130.247975
_cell_volume 617.157949
_symmetry_space_group_name_H-M "P -1"
_symmetry_group_IT_number 2
_symmetry_cell_setting 'triclinic'
loop_
_space_group_symop_operation_xyz
x,y,z
-x,-y,-z
loop_
_atom_site_type_symbol
_atom_site_label
_atom_site_fract_x
_atom_site_fract_y
_atom_site_fract_z
Si Si1 0.193972 0.804178 0.517136
Si Si2 0.682031 0.183451 0.082306
Si Si3 0.084062 0.179142 0.621560
Si Si4 0.296398 0.580651 0.495492
Si Si5 0.657230 0.839251 0.696600
Si Si6 0.773208 0.559141 0.838127
Si Si7 0.867256 0.076881 0.047812
O O1 0.271371 0.781403 0.725430
O O2 0.191432 0.660324 0.438772
O O3 0.017436 0.734854 0.439540
O O4 0.294275 0.039192 0.460944
O O5 0.789528 0.131482 0.095371
O O6 0.715126 0.392439 0.977145
O O7 0.500000 0.000000 0.000000
O O8 0.242082 0.367940 0.602372
O O9 0.120538 0.102320 0.821519
O O10 0.000000 0.000000 0.500000
O O11 0.475819 0.745679 0.623835
O O12 0.278463 0.557016 0.315879
O O13 0.680718 0.660729 0.759851
O O14 0.761240 0.997099 0.850534
O O15 0.961172 0.724966 0.931351
#
# Coordination Sequence:
#
# PCOD8037251 Si02
#       7
#     2   2   2   2   2   2   2
#     4  12  25  47  71 106 143 186 235 291 353 423
#     4  12  27  45  73 108 147 181 235 299 355 414
#     4  12  24  46  73 107 140 188 237 293 346 423
#     4  12  26  45  75 105 143 188 235 291 359 415
#     4  12  27  47  75 104 144 185 240 292 353 419
#     4  12  26  48  73 106 141 192 236 286 355 425
#     4  12  26  48  72 104 147 184 238 291 353 422
#
# _framework density 22.684631
#
# number of rings (size 3 to 8) (size 9 to 14) (size 15 to 20)
#    0.000    0.000    4.286    4.714    4.000    1.714 
#    0.000    0.000    0.000    0.000    0.000    0.000 
#    0.000    0.000    0.000    0.000    0.000    0.000 
#
# Total GULP energy -173724.921549 kJ/mol
# GULP energy per Si atom -12408.922968 kJ/mol
# Density = 2.263300 g / cm^3
# Si number density = 22.684631 Si / 1000 Ang^3
#
#
#
# Elastic Constant Matrix: (Units=GPa)
#
#
# Indices 1 2 3 4 5 6 
#
# 1 76.6232 12.2221 20.2019 3.9314 1.6519 -8.5113
# 2 12.2221 107.7853 67.3099 -23.1553 7.5289 18.4718
# 3 20.2019 67.3099 133.9144 -14.9040 -7.8167 8.1672
# 4 3.9314 -23.1553 -14.9040 49.9494 0.2375 -6.7076
# 5 1.6519 7.5289 -7.8167 0.2375 29.2276 1.5802
# 6 -8.5113 18.4718 8.1672 -6.7076 1.5802 50.6068
#
#
#
# Elastic Compliance Matrix: (Units=1/GPa)
#
#
# Indices 1 2 3 4 5 6 
#
# 1 0.014215 -0.001180 -0.002007 -0.001865 -0.001180 0.002935
# 2 -0.001180 0.016309 -0.007576 0.004871 -0.005979 -0.004096
# 3 -0.002007 -0.007576 0.011884 0.000217 0.005221 0.000376
# 4 -0.001865 0.004871 0.000217 0.022619 -0.001324 0.000913
# 5 -0.001180 -0.005979 0.005221 -0.001324 0.037239 -0.000197
# 6 0.002935 -0.004096 0.000376 0.000913 -0.000197 0.021815
#
#
# Mechanical properties :
#
#
# Convention : Reuss Voigt Hill
#
# Bulk Modulus (GPa) = 47.88747 57.53229 52.70988
# Shear Modulus (GPa) = 32.77208 40.52938 36.65073
#
# Velocity S-wave (km/s) = 3.80502 4.23146 4.02389
# Velocity P-wave (km/s) = 6.36083 7.02072 6.69891
#
# Compressibility (1/GPa) = 0.02088229
#
# Stress axis : x y z
#
# Youngs Moduli (GPa) = 70.34660 61.31627 84.14358
#
# Poissons Ratio (x) = 0.07235 0.16886
# Poissons Ratio (y) = 0.08300 0.63751
# Poissons Ratio (z) = 0.14117 0.46456
#
# Static dielectric constant tensor:
#      x y z
#    x 4.452010 -0.059770 -0.024330 
#    y -0.059770 4.292710 -0.256760 
#    z -0.024330 -0.256760 4.330840 
# 
# 
# High freq. dielectric constant tensor:
#      x y z
#    x 1.908160 0.000340 -0.002860 
#    y 0.000340 1.909810 -0.010870 
#    z -0.002860 -0.010870 1.904030 
# 
# From -- ./inp_files/158892.got.cif
#   From: 2010.06.25/outbox.cif.g09.slc.cpg/sg2_80_cif.got.tgz:158892.got - 2010.06.27 13:26:56.
