data_PCOD8037985
_publ_section_title
;
Structure prediction by ZEFSAII (Michael W. Deem and Ramdas Pophale) SiO2 
 PCOD8037985
Probable space group: P -1
;
_chemical_formula_sum "Si O2"
_cell_formula_units_Z 16
_cell_length_a 12.000000
_cell_length_b 9.000000
_cell_length_c 21.000000
_cell_angle_alpha 130.000000
_cell_angle_beta 150.000000
_cell_angle_gamma 40.000000
_cell_volume 727.418465
_symmetry_space_group_name_H-M "P -1"
_symmetry_group_IT_number 2
_symmetry_cell_setting 'triclinic'
loop_
_space_group_symop_operation_xyz
x,y,z
-x,-y,-z
loop_
_atom_site_type_symbol
_atom_site_label
_atom_site_fract_x
_atom_site_fract_y
_atom_site_fract_z
Si Si1 0.173516 0.033805 0.514729
Si Si2 0.842455 0.061410 0.117196
Si Si3 0.770217 0.400604 0.508867
Si Si4 0.587657 0.103980 0.806257
Si Si5 0.170622 0.488008 0.796520
Si Si6 0.939356 0.262698 0.980855
Si Si7 0.748588 0.698556 0.078713
Si Si8 0.827510 0.165193 0.669957
O O1 0.191286 0.805145 0.484925
O O2 0.163101 0.009222 0.426751
O O3 0.432603 0.032263 0.662659
O O4 0.912635 0.275492 0.477646
O O5 0.793536 0.299046 0.132674
O O6 0.571835 0.107368 0.029503
O O7 0.918820 0.857135 0.048272
O O8 0.097016 0.972974 0.264741
O O9 0.458230 0.593439 0.398971
O O10 0.901669 0.525663 0.642682
O O11 0.411457 0.253001 0.819914
O O12 0.677762 0.251646 0.853293
O O13 0.849519 0.869722 0.894688
O O14 0.188811 0.461062 0.873154
O O15 0.839558 0.533122 0.014868
O O16 0.928589 0.800957 0.207169
#
# Coordination Sequence:
#
# PCOD8037985 Si02
#       8
#     2   2   2   2   2   2   2   2
#     4  10  22  43  68  99 130 168 221 275 322 379
#     4  12  27  43  62 100 138 175 212 270 331 389
#     4  10  23  41  68 100 125 173 219 271 315 390
#     4  10  20  39  68 100 128 163 222 282 316 373
#     4  11  21  43  69  96 132 164 227 272 318 381
#     4  11  23  38  67  98 126 172 222 271 323 377
#     4  12  24  44  69  95 130 173 226 275 313 386
#     4  12  27  43  66  98 139 176 211 261 339 399
#
# _framework density 21.995591999999998
#
# number of rings (size 3 to 8) (size 9 to 14) (size 15 to 20)
#    0.000    1.000    3.750    3.375    3.500    3.000 
#    0.000    1.250    0.000    0.000    0.000    0.000 
#    0.000    0.000    0.000    0.000    0.000    0.000 
#
# Total GULP energy -198326.871494 kJ/mol
# GULP energy per Si atom -12395.429468 kJ/mol
# Density = 2.194553 g / cm^3
# Si number density = 21.995592 Si / 1000 Ang^3
#
#
#
# Elastic Constant Matrix: (Units=GPa)
#
#
# Indices 1 2 3 4 5 6 
#
# 1 51.8548 30.1982 38.5709 4.4566 -0.8681 -24.2021
# 2 30.1982 54.6427 33.5891 6.5802 -5.8297 -44.3152
# 3 38.5709 33.5891 142.5109 10.8576 6.8372 -29.7440
# 4 4.4566 6.5802 10.8576 51.2843 -6.6593 0.6374
# 5 -0.8681 -5.8297 6.8372 -6.6593 44.0361 10.0238
# 6 -24.2021 -44.3152 -29.7440 0.6374 10.0238 39.7416
#
#
#
# Elastic Compliance Matrix: (Units=1/GPa)
#
#
# Indices 1 2 3 4 5 6 
#
# 1 0.031578 -0.022159 -0.005564 0.001536 0.001046 -0.009931
# 2 -0.022159 0.339384 0.014515 -0.056725 -0.055264 0.390659
# 3 -0.005564 0.014515 0.010292 -0.004541 -0.005470 0.021953
# 4 0.001536 -0.056725 -0.004541 0.030244 0.013652 -0.069645
# 5 0.001046 -0.055264 -0.005470 0.013652 0.035213 -0.074182
# 6 -0.009931 0.390659 0.021953 -0.069645 -0.074182 0.490990
#
#
# Mechanical properties :
#
#
# Convention : Reuss Voigt Hill
#
# Bulk Modulus (GPa) = 2.81818 50.41388 26.61603
# Shear Modulus (GPa) = 4.61939 36.78908 20.70423
#
# Velocity S-wave (km/s) = 1.45076 4.09414 3.07137
# Velocity P-wave (km/s) = 2.02245 6.73194 4.97038
#
# Compressibility (1/GPa) = 0.35483873
#
# Stress axis : x y z
#
# Youngs Moduli (GPa) = 31.66765 2.94652 97.16347
#
# Poissons Ratio (x) = 0.06529 0.54061
# Poissons Ratio (y) = 0.70172 -1.41037
# Poissons Ratio (z) = 0.17620 -0.04277
#
# Static dielectric constant tensor:
#      x y z
#    x 4.067110 -0.222140 0.003740 
#    y -0.222140 4.049030 -0.003080 
#    z 0.003740 -0.003080 4.380910 
# 
# 
# High freq. dielectric constant tensor:
#      x y z
#    x 1.857440 -0.025320 0.009770 
#    y -0.025320 1.876120 0.011760 
#    z 0.009770 0.011760 1.891660 
# 
# From -- ./inp_files/427589.got.cif
#   From: 2010.06.25/outbox.ucp.g09.slc.cvg/sg2_214_cif.got.tgz:427589.got - 2010.06.28 11:54:26.
