data_PCOD8037750
_publ_section_title
;
Structure prediction by ZEFSAII (Michael W. Deem and Ramdas Pophale) SiO2 
 PCOD8037750
Probable space group: P -1
;
_chemical_formula_sum "Si O2"
_cell_formula_units_Z 14
_cell_length_a 8.372976
_cell_length_b 13.014847
_cell_length_c 8.199057
_cell_angle_alpha 127.931594
_cell_angle_beta 126.294542
_cell_angle_gamma 68.428741
_cell_volume 567.987349
_symmetry_space_group_name_H-M "P -1"
_symmetry_group_IT_number 2
_symmetry_cell_setting 'triclinic'
loop_
_space_group_symop_operation_xyz
x,y,z
-x,-y,-z
loop_
_atom_site_type_symbol
_atom_site_label
_atom_site_fract_x
_atom_site_fract_y
_atom_site_fract_z
Si Si1 0.203884 0.173428 0.614865
Si Si2 0.293458 0.446292 0.768582
Si Si3 0.799278 0.283457 0.522390
Si Si4 0.073866 0.681314 0.012893
Si Si5 0.713194 0.541044 0.596878
Si Si6 0.492999 0.877906 0.992628
Si Si7 0.816316 0.058725 0.853095
O O1 0.263024 0.312170 0.714711
O O2 0.964773 0.171258 0.484944
O O3 0.273774 0.052533 0.427537
O O4 0.294208 0.155759 0.833630
O O5 0.135231 0.561167 0.816731
O O6 0.302780 0.412146 0.551324
O O7 0.500000 0.500000 0.000000
O O8 0.850058 0.410899 0.571317
O O9 0.583321 0.236126 0.284778
O O10 0.795441 0.322876 0.748319
O O11 0.836688 0.656048 0.877707
O O12 0.108599 0.818723 0.083614
O O13 0.500000 0.500000 0.500000
O O14 0.348336 0.894877 0.075105
O O15 0.500000 0.000000 0.000000
O O16 0.000000 0.000000 0.000000
#
# Coordination Sequence:
#
# PCOD8037750 Si02
#       7
#     2   2   2   2   2   2   2
#     4  12  27  50  80 111 156 200 257 317 382 454
#     4  12  26  48  78 112 151 201 254 315 381 458
#     4  12  27  47  76 115 151 199 256 316 381 446
#     4  12  27  48  77 108 157 200 254 311 385 458
#     4  12  27  46  77 113 154 202 255 315 384 453
#     4  12  29  49  77 113 155 199 259 316 382 460
#     4  12  26  49  78 111 149 205 254 313 386 453
#
# _framework density 24.648437000000001
#
# number of rings (size 3 to 8) (size 9 to 14) (size 15 to 20)
#    0.000    0.000    2.857    6.429    6.000    3.429 
#    0.000    0.000    0.000    0.000    0.000    0.000 
#    0.000    0.000    0.000    0.000    0.000    0.000 
#
# Total GULP energy -173592.662923 kJ/mol
# GULP energy per Si atom -12399.475923 kJ/mol
# Density = 2.459234 g / cm^3
# Si number density = 24.648437 Si / 1000 Ang^3
#
#
#
# Elastic Constant Matrix: (Units=GPa)
#
#
# Indices 1 2 3 4 5 6 
#
# 1 58.7595 15.7934 23.9874 1.7816 3.7776 12.3234
# 2 15.7934 161.3317 53.8331 -1.3473 8.1598 36.6400
# 3 23.9874 53.8331 171.4834 -7.5943 4.9776 15.2060
# 4 1.7816 -1.3473 -7.5943 57.1623 2.7046 2.8589
# 5 3.7776 8.1598 4.9776 2.7046 40.7634 -0.7471
# 6 12.3234 36.6400 15.2060 2.8589 -0.7471 42.7536
#
#
#
# Elastic Compliance Matrix: (Units=1/GPa)
#
#
# Indices 1 2 3 4 5 6 
#
# 1 0.019026 0.000023 -0.002233 -0.000581 -0.001543 -0.004697
# 2 0.000023 0.008444 -0.002010 0.000336 -0.001590 -0.006579
# 3 -0.002233 -0.002010 0.006837 0.000951 -0.000291 -0.000135
# 4 -0.000581 0.000336 0.000951 0.017793 -0.001341 -0.001672
# 5 -0.001543 -0.001590 -0.000291 -0.001341 0.025162 0.002440
# 6 -0.004697 -0.006579 -0.000135 -0.001672 0.002440 0.030584
#
#
# Mechanical properties :
#
#
# Convention : Reuss Voigt Hill
#
# Bulk Modulus (GPa) = 38.65898 64.31137 51.48518
# Shear Modulus (GPa) = 40.02908 47.99989 44.01449
#
# Velocity S-wave (km/s) = 4.03426 4.41770 4.23033
# Velocity P-wave (km/s) = 6.11707 7.22285 6.69284
#
# Compressibility (1/GPa) = 0.02586721
#
# Stress axis : x y z
#
# Youngs Moduli (GPa) = 52.55979 118.42680 146.25904
#
# Poissons Ratio (x) = -0.00267 0.32658
# Poissons Ratio (y) = -0.00118 0.29392
# Poissons Ratio (z) = 0.11736 0.23799
#
# Static dielectric constant tensor:
#      x y z
#    x 4.497160 -0.095910 0.158420 
#    y -0.095910 4.767040 -0.154700 
#    z 0.158420 -0.154700 4.856020 
# 
# 
# High freq. dielectric constant tensor:
#      x y z
#    x 1.978150 -0.001910 0.008690 
#    y -0.001910 2.000400 -0.004930 
#    z 0.008690 -0.004930 2.003040 
# 
# From -- ./inp_files/183444.got.cif
#   From: 2010.06.25/outbox.cif.g09.slc.cpg/sg2_92_cif.got.tgz:183444.got - 2010.06.27 13:26:56.
