data_PCOD8037794
_publ_section_title
;
Structure prediction by ZEFSAII (Michael W. Deem and Ramdas Pophale) SiO2 
 PCOD8037794
Probable space group: P -1
;
_chemical_formula_sum "Si O2"
_cell_formula_units_Z 12
_cell_length_a 14.072442
_cell_length_b 8.387993
_cell_length_c 5.268735
_cell_angle_alpha 119.862744
_cell_angle_beta 69.721588
_cell_angle_gamma 111.118513
_cell_volume 492.256775
_symmetry_space_group_name_H-M "P -1"
_symmetry_group_IT_number 2
_symmetry_cell_setting 'triclinic'
loop_
_space_group_symop_operation_xyz
x,y,z
-x,-y,-z
loop_
_atom_site_type_symbol
_atom_site_label
_atom_site_fract_x
_atom_site_fract_y
_atom_site_fract_z
Si Si1 0.289139 0.248201 0.246615
Si Si2 0.497945 0.215602 0.210620
Si Si3 0.621277 0.352357 0.715757
Si Si4 0.100129 0.110152 0.641076
Si Si5 0.981034 0.375539 0.168732
Si Si6 0.781233 0.111099 0.304234
O O1 0.380414 0.243179 0.361119
O O2 0.313044 0.433629 0.196894
O O3 0.181411 0.245089 0.487150
O O4 0.281419 0.066302 0.934119
O O5 0.555886 0.294599 0.475347
O O6 0.547755 0.337436 0.016639
O O7 0.500000 0.000000 0.000000
O O8 0.698684 0.215394 0.584758
O O9 0.153595 0.953386 0.582420
O O10 0.000000 0.000000 0.500000
O O11 0.062637 0.239251 0.991673
O O12 0.862607 0.253546 0.163950
O O13 0.000000 0.500000 0.500000
O O14 0.000000 0.500000 0.000000
#
# Coordination Sequence:
#
# PCOD8037794 Si02
#       6
#     2   2   2   2   2   2
#     4  12  28  48  81 113 154 206 259 319 388 465
#     4  12  26  52  79 113 158 203 252 322 389 459
#     4  12  29  49  79 116 156 199 260 318 387 464
#     4  12  27  51  77 112 159 206 259 323 392 460
#     4  12  28  49  77 112 154 203 264 320 384 462
#     4  12  28  47  79 110 156 206 258 320 393 454
#
# _framework density 24.377521999999999
#
# number of rings (size 3 to 8) (size 9 to 14) (size 15 to 20)
#    0.000    0.000    3.333    5.000    9.333    0.000 
#    0.000    0.000    0.000    0.000    0.000    0.000 
#    0.000    0.000    0.000    0.000    0.000    0.000 
#
# Total GULP energy -148904.725621 kJ/mol
# GULP energy per Si atom -12408.727135 kJ/mol
# Density = 2.432204 g / cm^3
# Si number density = 24.377522 Si / 1000 Ang^3
#
#
#
# Elastic Constant Matrix: (Units=GPa)
#
#
# Indices 1 2 3 4 5 6 
#
# 1 160.8275 50.5833 60.4790 -1.0239 2.4862 2.6703
# 2 50.5833 143.9260 46.9887 2.1819 19.4122 18.1648
# 3 60.4790 46.9887 115.1367 1.1200 -2.2729 -0.2350
# 4 -1.0239 2.1819 1.1200 49.0220 -9.0332 -6.9622
# 5 2.4862 19.4122 -2.2729 -9.0332 39.6005 -10.6514
# 6 2.6703 18.1648 -0.2350 -6.9622 -10.6514 39.4133
#
#
#
# Elastic Compliance Matrix: (Units=1/GPa)
#
#
# Indices 1 2 3 4 5 6 
#
# 1 0.008098 -0.001825 -0.003505 0.000474 0.000419 0.000469
# 2 -0.001825 0.010895 -0.003636 -0.003039 -0.008191 -0.007670
# 3 -0.003505 -0.003636 0.012081 0.000957 0.003767 0.003172
# 4 0.000474 -0.003039 0.000957 0.023296 0.008956 0.007910
# 5 0.000419 -0.008191 0.003767 0.008956 0.035522 0.014951
# 6 0.000469 -0.007670 0.003172 0.007910 0.014951 0.034332
#
#
# Mechanical properties :
#
#
# Convention : Reuss Voigt Hill
#
# Bulk Modulus (GPa) = 76.07548 81.77690 78.92619
# Shear Modulus (GPa) = 34.12120 43.06313 38.59217
#
# Velocity S-wave (km/s) = 3.74531 4.20755 3.98314
# Velocity P-wave (km/s) = 7.06952 7.56462 7.32126
#
# Compressibility (1/GPa) = 0.01314484
#
# Stress axis : x y z
#
# Youngs Moduli (GPa) = 123.48015 91.78361 82.77125
#
# Poissons Ratio (x) = 0.16750 0.29008
# Poissons Ratio (y) = 0.22534 0.30093
# Poissons Ratio (z) = 0.43274 0.33369
#
# Static dielectric constant tensor:
#      x y z
#    x 4.701630 0.007150 -0.396270 
#    y 0.007150 4.857090 0.153820 
#    z -0.396270 0.153820 4.351180 
# 
# 
# High freq. dielectric constant tensor:
#      x y z
#    x 1.982630 0.004800 -0.010280 
#    y 0.004800 1.991060 0.005230 
#    z -0.010280 0.005230 1.972000 
# 
# From -- ./inp_files/27983.got.cif
#   From: 2010.06.25/outbox.cif.g09.slc.cpg/sg2_14_cif.got.tgz:27983.got - 2010.06.27 13:26:56.
