data_PCOD8037403
_publ_section_title
;
Structure prediction by ZEFSAII (Michael W. Deem and Ramdas Pophale) SiO2 
 PCOD8037403
Probable space group: P -1
;
_chemical_formula_sum "Si O2"
_cell_formula_units_Z 14
_cell_length_a 6.566696
_cell_length_b 13.980766
_cell_length_c 10.871180
_cell_angle_alpha 58.434352
_cell_angle_beta 62.547490
_cell_angle_gamma 103.028762
_cell_volume 593.659815
_symmetry_space_group_name_H-M "P -1"
_symmetry_group_IT_number 2
_symmetry_cell_setting 'triclinic'
loop_
_space_group_symop_operation_xyz
x,y,z
-x,-y,-z
loop_
_atom_site_type_symbol
_atom_site_label
_atom_site_fract_x
_atom_site_fract_y
_atom_site_fract_z
Si Si1 0.687580 0.171060 0.339365
Si Si2 0.924970 0.214617 0.986528
Si Si3 0.204802 0.399398 0.224935
Si Si4 0.419319 0.940363 0.197543
Si Si5 0.021801 0.466568 0.657151
Si Si6 0.790335 0.798783 0.479513
Si Si7 0.415178 0.257538 0.688531
O O1 0.891000 0.251176 0.108829
O O2 0.434305 0.187107 0.401009
O O3 0.920202 0.258633 0.327598
O O4 0.500000 0.000000 0.500000
O O5 0.664945 0.048593 0.152587
O O6 0.912756 0.307528 0.822041
O O7 0.223590 0.233074 0.877660
O O8 0.286901 0.349175 0.354002
O O9 0.142923 0.504538 0.219937
O O10 0.500000 0.500000 0.000000
O O11 0.394006 0.797040 0.304191
O O12 0.130326 0.918371 0.338924
O O13 0.500000 0.000000 0.000000
O O14 0.364396 0.575757 0.518875
O O15 0.000000 0.500000 0.500000
O O16 0.794930 0.816421 0.319813
#
# Coordination Sequence:
#
# PCOD8037403 Si02
#       7
#     2   2   2   2   2   2   2
#     4  12  29  50  73 111 153 198 254 304 377 450
#     4  12  27  44  76 112 148 192 250 312 369 445
#     4  12  28  48  76 107 152 200 247 307 373 448
#     4  12  25  46  76 111 143 193 248 307 375 435
#     4  12  26  48  73 113 147 193 252 305 377 442
#     4  12  24  49  77 100 149 196 245 305 371 438
#     4  12  25  48  76 107 147 192 248 310 372 440
#
# _framework density 23.582526999999999
#
# number of rings (size 3 to 8) (size 9 to 14) (size 15 to 20)
#    0.000    0.000    4.286    5.143    6.000    4.571 
#    0.000    0.000    0.000    0.000    0.000    0.000 
#    0.000    0.000    0.000    0.000    0.000    0.000 
#
# Total GULP energy -173518.940648 kJ/mol
# GULP energy per Si atom -12394.210046 kJ/mol
# Density = 2.352885 g / cm^3
# Si number density = 23.582527 Si / 1000 Ang^3
#
#
#
# Elastic Constant Matrix: (Units=GPa)
#
#
# Indices 1 2 3 4 5 6 
#
# 1 108.2744 39.2510 42.6301 12.5932 -13.2000 -21.2216
# 2 39.2510 99.9654 33.0409 15.3803 -16.3074 -13.8322
# 3 42.6301 33.0409 112.1152 17.2617 -18.5429 -11.3638
# 4 12.5932 15.3803 17.2617 55.3060 -5.4095 -2.7896
# 5 -13.2000 -16.3074 -18.5429 -5.4095 60.0764 11.0767
# 6 -21.2216 -13.8322 -11.3638 -2.7896 11.0767 30.8384
#
#
#
# Elastic Compliance Matrix: (Units=1/GPa)
#
#
# Indices 1 2 3 4 5 6 
#
# 1 0.012940 -0.003031 -0.003304 -0.000776 -0.000239 0.006343
# 2 -0.003031 0.012657 -0.001778 -0.002005 0.001641 0.002166
# 3 -0.003304 -0.001778 0.011385 -0.002094 0.002083 0.000187
# 4 -0.000776 -0.002005 -0.002094 0.019487 0.000509 -0.000625
# 5 -0.000239 0.001641 0.002083 0.000509 0.018711 -0.005335
# 6 0.006343 0.002166 0.000187 -0.000625 -0.005335 0.039692
#
#
# Mechanical properties :
#
#
# Convention : Reuss Voigt Hill
#
# Bulk Modulus (GPa) = 48.17742 61.13322 54.65532
# Shear Modulus (GPa) = 36.22747 42.93968 39.58357
#
# Velocity S-wave (km/s) = 3.92369 4.27174 4.10141
# Velocity P-wave (km/s) = 6.40318 7.09294 6.75687
#
# Compressibility (1/GPa) = 0.02075661
#
# Stress axis : x y z
#
# Youngs Moduli (GPa) = 77.28159 79.00794 87.83116
#
# Poissons Ratio (x) = 0.23943 0.29021
# Poissons Ratio (y) = 0.23420 0.15618
# Poissons Ratio (z) = 0.25535 0.14049
#
# Static dielectric constant tensor:
#      x y z
#    x 4.474010 0.251860 -0.313040 
#    y 0.251860 4.759800 -0.160510 
#    z -0.313040 -0.160510 4.654790 
# 
# 
# High freq. dielectric constant tensor:
#      x y z
#    x 1.937060 -0.008070 -0.007250 
#    y -0.008070 1.930680 0.007830 
#    z -0.007250 0.007830 1.958780 
# 
# From -- ./inp_files/81733.got.cif
#   From: 2010.06.25/outbox.cif.g09.slc.cpg/sg2_41_cif.got.tgz:81733.got - 2010.06.27 13:26:56.
