data_PCOD8037846
_publ_section_title
;
Structure prediction by ZEFSAII (Michael W. Deem and Ramdas Pophale) SiO2 
 PCOD8037846
Probable space group: P -1
;
_chemical_formula_sum "Si O2"
_cell_formula_units_Z 16
_cell_length_a 11.284278
_cell_length_b 14.951873
_cell_length_c 9.340100
_cell_angle_alpha 37.558720
_cell_angle_beta 70.416009
_cell_angle_gamma 67.194337
_cell_volume 884.421068
_symmetry_space_group_name_H-M "P -1"
_symmetry_group_IT_number 2
_symmetry_cell_setting 'triclinic'
loop_
_space_group_symop_operation_xyz
x,y,z
-x,-y,-z
loop_
_atom_site_type_symbol
_atom_site_label
_atom_site_fract_x
_atom_site_fract_y
_atom_site_fract_z
Si Si1 0.826222 0.805580 0.383173
Si Si2 0.395023 0.694349 0.903471
Si Si3 0.432243 0.865703 0.236697
Si Si4 0.690278 0.147935 0.986168
Si Si5 0.962582 0.140553 0.940623
Si Si6 0.606649 0.641090 0.657194
Si Si7 0.789444 0.108866 0.486692
Si Si8 0.046318 0.089116 0.539517
O O1 0.746477 0.676428 0.579431
O O2 0.903257 0.803675 0.504035
O O3 0.929660 0.763864 0.262077
O O4 0.729925 0.966961 0.198286
O O5 0.530262 0.681259 0.785339
O O6 0.279096 0.764163 0.756057
O O7 0.400029 0.798421 0.908263
O O8 0.374805 0.533056 0.167136
O O9 0.384387 0.796737 0.199369
O O10 0.533724 0.733145 0.437480
O O11 0.310747 0.927802 0.309562
O O12 0.500000 0.000000 0.000000
O O13 0.815951 0.222725 0.857158
O O14 0.968574 0.073362 0.183184
O O15 0.000000 0.000000 0.000000
O O16 0.905401 0.171166 0.436355
O O17 0.850240 0.953294 0.576876
#
# Coordination Sequence:
#
# PCOD8037846 Si02
#       8
#     2   2   2   2   2   2   2   2
#     4  10  17  32  53  82 106 132 172 220 264 302
#     4  10  21  39  53  74 108 149 173 205 261 326
#     4  11  21  32  52  83 105 132 176 228 256 294
#     4  10  18  34  56  76 104 137 178 214 261 311
#     4   8  15  28  51  78 104 129 164 216 265 301
#     4  10  23  36  54  75 110 143 174 214 262 307
#     4  10  18  33  54  79 106 135 177 212 261 313
#     4   9  17  29  55  82 100 136 170 222 258 302
#
# _framework density 18.09093
#
# number of rings (size 3 to 8) (size 9 to 14) (size 15 to 20)
#    0.000    2.500    3.750    2.250    0.000    2.000 
#    0.000    1.250    0.000    0.000    0.000    0.000 
#    0.000    0.000    0.000    0.000    0.000    0.000 
#
# Total GULP energy -198308.601889 kJ/mol
# GULP energy per Si atom -12394.287618 kJ/mol
# Density = 1.804975 g / cm^3
# Si number density = 18.090930 Si / 1000 Ang^3
#
#
#
# Elastic Constant Matrix: (Units=GPa)
#
#
# Indices 1 2 3 4 5 6 
#
# 1 98.0466 22.5434 49.1988 11.6145 -1.9043 3.7642
# 2 22.5434 53.9045 30.9334 21.0945 3.5286 -0.3297
# 3 49.1988 30.9334 91.4772 9.2760 -4.1670 4.7390
# 4 11.6145 21.0945 9.2760 25.2976 3.1614 3.4697
# 5 -1.9043 3.5286 -4.1670 3.1614 27.4502 7.3482
# 6 3.7642 -0.3297 4.7390 3.4697 7.3482 22.9706
#
#
#
# Elastic Compliance Matrix: (Units=1/GPa)
#
#
# Indices 1 2 3 4 5 6 
#
# 1 0.014347 -0.000600 -0.007108 -0.003473 0.000538 -0.000541
# 2 -0.000600 0.034620 -0.009440 -0.025594 -0.005132 0.008051
# 3 -0.007108 -0.009440 0.017904 0.004696 0.004156 -0.004703
# 4 -0.003473 -0.025594 0.004696 0.062198 -0.000745 -0.009924
# 5 0.000538 -0.005132 0.004156 -0.000745 0.041653 -0.014232
# 6 -0.000541 0.008051 -0.004703 -0.009924 -0.014232 0.050760
#
#
# Mechanical properties :
#
#
# Convention : Reuss Voigt Hill
#
# Bulk Modulus (GPa) = 30.69925 49.86439 40.28182
# Shear Modulus (GPa) = 18.75207 24.52718 21.63963
#
# Velocity S-wave (km/s) = 3.22304 3.68608 3.46230
# Velocity P-wave (km/s) = 5.55490 6.76308 6.18854
#
# Compressibility (1/GPa) = 0.03257409
#
# Stress axis : x y z
#
# Youngs Moduli (GPa) = 69.70198 28.88464 55.85436
#
# Poissons Ratio (x) = 0.01734 0.39704
# Poissons Ratio (y) = 0.04184 0.52725
# Poissons Ratio (z) = 0.49547 0.27266
#
# Static dielectric constant tensor:
#      x y z
#    x 3.725990 -0.290330 -0.215380 
#    y -0.290330 3.313870 0.553610 
#    z -0.215380 0.553610 3.568090 
# 
# 
# High freq. dielectric constant tensor:
#      x y z
#    x 1.711170 -0.010680 0.004430 
#    y -0.010680 1.679490 0.038360 
#    z 0.004430 0.038360 1.678520 
# 
# From -- ./inp_files/269430.got.cif
#   From: 2010.06.25/outbox.cif.g09.slc.cpg/sg2_135_cif.got.tgz:269430.got - 2010.06.27 13:26:56.
