data_PCOD8037674
_publ_section_title
;
Structure prediction by ZEFSAII (Michael W. Deem and Ramdas Pophale) SiO2 
 PCOD8037674
Probable space group: P -1
;
_chemical_formula_sum "Si O2"
_cell_formula_units_Z 8
_cell_length_a 14.866188
_cell_length_b 4.808392
_cell_length_c 11.006661
_cell_angle_alpha 119.807509
_cell_angle_beta 153.491103
_cell_angle_gamma 73.833025
_cell_volume 275.155565
_symmetry_space_group_name_H-M "P -1"
_symmetry_group_IT_number 2
_symmetry_cell_setting 'triclinic'
loop_
_space_group_symop_operation_xyz
x,y,z
-x,-y,-z
loop_
_atom_site_type_symbol
_atom_site_label
_atom_site_fract_x
_atom_site_fract_y
_atom_site_fract_z
Si Si1 0.867224 0.085329 0.083897
Si Si2 0.391959 0.471778 0.174215
Si Si3 0.284874 0.192468 0.732184
Si Si4 0.865025 0.557405 0.738998
O O1 0.076565 0.284681 0.470349
O O2 0.976152 0.113291 0.086335
O O3 0.677051 0.223839 0.888562
O O4 0.740878 0.683180 0.894845
O O5 0.657745 0.636136 0.552752
O O6 0.317407 0.178474 0.913230
O O7 0.236380 0.802856 0.540308
O O8 0.500000 0.500000 0.000000
O O9 0.000000 0.500000 0.000000
#
# Coordination Sequence:
#
# PCOD8037674 Si02
#       4
#     2   2   2   2
#     4  12  27  49  81 113 153 200 260 314 384 449
#     4  12  27  48  82 113 149 201 261 318 377 451
#     4  12  25  51  82 113 153 200 256 322 381 445
#     4  12  30  52  75 114 161 203 251 315 384 461
#
# _framework density 29.074463999999999
#
# number of rings (size 3 to 8) (size 9 to 14) (size 15 to 20)
#    0.000    0.000    5.000    3.750    3.500    3.000 
#    0.000    0.000    0.000    0.000    0.000    0.000 
#    0.000    0.000    0.000    0.000    0.000    0.000 
#
# Total GULP energy -99225.248778 kJ/mol
# GULP energy per Si atom -12403.156097 kJ/mol
# Density = 2.900829 g / cm^3
# Si number density = 29.074464 Si / 1000 Ang^3
#
#
#
# Elastic Constant Matrix: (Units=GPa)
#
#
# Indices 1 2 3 4 5 6 
#
# 1 155.4771 39.5169 64.9806 5.1006 4.0715 30.1302
# 2 39.5169 127.7990 59.1513 -12.2630 13.5780 30.3468
# 3 64.9806 59.1513 211.4744 -30.4901 40.6970 20.1742
# 4 5.1006 -12.2630 -30.4901 66.3394 -6.7456 11.5817
# 5 4.0715 13.5780 40.6970 -6.7456 56.1311 -5.4021
# 6 30.1302 30.3468 20.1742 11.5817 -5.4021 59.7782
#
#
#
# Elastic Compliance Matrix: (Units=1/GPa)
#
#
# Indices 1 2 3 4 5 6 
#
# 1 0.008190 -0.001103 -0.002372 -0.001403 0.000992 -0.002406
# 2 -0.001103 0.010338 -0.001528 0.001957 -0.001529 -0.004694
# 3 -0.002372 -0.001528 0.007352 0.003080 -0.004565 -0.001519
# 4 -0.001403 0.001957 0.003080 0.017709 -0.000943 -0.004842
# 5 0.000992 -0.001529 -0.004565 -0.000943 0.021691 0.003960
# 6 -0.002406 -0.004694 -0.001519 -0.004842 0.003960 0.022133
#
#
# Mechanical properties :
#
#
# Convention : Reuss Voigt Hill
#
# Bulk Modulus (GPa) = 62.99680 91.33866 77.16773
# Shear Modulus (GPa) = 48.68030 58.52319 53.60175
#
# Velocity S-wave (km/s) = 4.09630 4.49137 4.29838
# Velocity P-wave (km/s) = 6.63983 7.64069 7.15778
#
# Compressibility (1/GPa) = 0.01587382
#
# Stress axis : x y z
#
# Youngs Moduli (GPa) = 122.10448 96.72850 136.00838
#
# Poissons Ratio (x) = 0.10673 0.32254
# Poissons Ratio (y) = 0.13473 0.20787
# Poissons Ratio (z) = 0.28957 0.14784
#
# Static dielectric constant tensor:
#      x y z
#    x 5.864610 -0.168790 -0.236760 
#    y -0.168790 5.493200 0.035000 
#    z -0.236760 0.035000 6.225340 
# 
# 
# High freq. dielectric constant tensor:
#      x y z
#    x 2.201790 0.002750 -0.004380 
#    y 0.002750 2.189720 -0.001970 
#    z -0.004380 -0.001970 2.225970 
# 
# From -- ./inp_files/16280.got.cif
#   From: 2010.06.25/outbox.cif.g09.slc.cpg/sg2_9_cif.got.tgz:16280.got - 2010.06.27 13:26:56.
