data_PCOD8037284
_publ_section_title
;
Structure prediction by ZEFSAII (Michael W. Deem and Ramdas Pophale) SiO2 
 PCOD8037284
Probable space group: P -1
;
_chemical_formula_sum "Si O2"
_cell_formula_units_Z 16
_cell_length_a 12.478753
_cell_length_b 10.749374
_cell_length_c 11.534406
_cell_angle_alpha 45.258273
_cell_angle_beta 65.212592
_cell_angle_gamma 98.385911
_cell_volume 727.988953
_symmetry_space_group_name_H-M "P -1"
_symmetry_group_IT_number 2
_symmetry_cell_setting 'triclinic'
loop_
_space_group_symop_operation_xyz
x,y,z
-x,-y,-z
loop_
_atom_site_type_symbol
_atom_site_label
_atom_site_fract_x
_atom_site_fract_y
_atom_site_fract_z
Si Si1 0.758909 0.022953 0.642042
Si Si2 0.453638 0.426419 0.438552
Si Si3 0.416379 0.791233 0.875405
Si Si4 0.204178 0.902640 0.860960
Si Si5 0.619443 0.277405 0.802050
Si Si6 0.978153 0.271839 0.167424
Si Si7 0.314535 0.438382 0.945767
Si Si8 0.925396 0.465149 0.434025
O O1 0.893475 0.124860 0.418803
O O2 0.850112 0.213472 0.579421
O O3 0.610238 0.988854 0.680503
O O4 0.694945 0.774577 0.879387
O O5 0.500000 0.500000 0.500000
O O6 0.465277 0.623779 0.240426
O O7 0.280146 0.157606 0.708049
O O8 0.565647 0.415113 0.314535
O O9 0.344625 0.898208 0.785435
O O10 0.330294 0.684102 0.110394
O O11 0.375097 0.596758 0.930663
O O12 0.137603 0.900530 0.770412
O O13 0.055216 0.686743 0.147236
O O14 0.776249 0.443660 0.539884
O O15 0.500000 0.000000 0.000000
O O16 0.147324 0.345102 0.036388
O O17 0.000000 0.500000 0.000000
O O18 0.000000 0.500000 0.500000
#
# Coordination Sequence:
#
# PCOD8037284 Si02
#       8
#     2   2   2   2   2   2   2   2
#     4  12  26  46  77 105 143 195 247 304 358 441
#     4  12  30  48  73 110 145 190 247 304 368 432
#     4  12  24  46  78 105 144 192 250 295 365 434
#     4  12  28  47  72 110 146 192 241 306 369 436
#     4  12  25  49  75 106 145 197 246 298 359 441
#     4  12  26  46  69 110 148 186 235 298 378 422
#     4  12  27  48  75 107 146 192 246 304 361 444
#     4  12  26  44  75 104 149 195 242 294 370 437
#
# _framework density 21.978356000000002
#
# number of rings (size 3 to 8) (size 9 to 14) (size 15 to 20)
#    0.000    0.000    6.250    2.250    7.000    2.500 
#    0.000    0.000    0.000    0.000    0.000    0.000 
#    0.000    0.000    0.000    0.000    0.000    0.000 
#
# Total GULP energy -198374.744513 kJ/mol
# GULP energy per Si atom -12398.421532 kJ/mol
# Density = 2.192833 g / cm^3
# Si number density = 21.978356 Si / 1000 Ang^3
#
#
#
# Elastic Constant Matrix: (Units=GPa)
#
#
# Indices 1 2 3 4 5 6 
#
# 1 123.4638 50.6353 29.8372 -4.6783 -15.0816 9.1397
# 2 50.6353 187.4110 61.1710 -6.2079 -2.9660 26.4806
# 3 29.8372 61.1710 93.8807 -11.0048 -9.0676 -13.7453
# 4 -4.6783 -6.2079 -11.0048 44.0722 0.2196 -6.4835
# 5 -15.0816 -2.9660 -9.0676 0.2196 33.0104 4.2276
# 6 9.1397 26.4806 -13.7453 -6.4835 4.2276 40.6032
#
#
#
# Elastic Compliance Matrix: (Units=1/GPa)
#
#
# Indices 1 2 3 4 5 6 
#
# 1 0.009933 -0.001630 -0.002038 -0.000043 0.004127 -0.002300
# 2 -0.001630 0.009094 -0.006878 -0.001797 -0.000768 -0.008100
# 3 -0.002038 -0.006878 0.018286 0.005099 0.001935 0.011748
# 4 -0.000043 -0.001797 0.005099 0.024710 0.000180 0.006835
# 5 0.004127 -0.000768 0.001935 0.000180 0.033048 -0.003185
# 6 -0.002300 -0.008100 0.011748 0.006835 -0.003185 0.035829
#
#
# Mechanical properties :
#
#
# Convention : Reuss Voigt Hill
#
# Bulk Modulus (GPa) = 61.64888 76.44917 69.04902
# Shear Modulus (GPa) = 31.76624 41.07796 36.42210
#
# Velocity S-wave (km/s) = 3.80589 4.32791 4.07526
# Velocity P-wave (km/s) = 6.88649 7.73522 7.32316
#
# Compressibility (1/GPa) = 0.01622090
#
# Stress axis : x y z
#
# Youngs Moduli (GPa) = 100.67270 109.96245 54.68649
#
# Poissons Ratio (x) = 0.17920 0.11146
# Poissons Ratio (y) = 0.16406 0.37615
# Poissons Ratio (z) = 0.20520 0.75635
#
# Static dielectric constant tensor:
#      x y z
#    x 4.436750 0.169550 -0.098140 
#    y 0.169550 4.590940 0.517620 
#    z -0.098140 0.517620 4.457710 
# 
# 
# High freq. dielectric constant tensor:
#      x y z
#    x 1.869860 0.005640 -0.009260 
#    y 0.005640 1.883450 0.007490 
#    z -0.009260 0.007490 1.874310 
# 
# From -- ./inp_files/357050.got.cif
#   From: 2010.06.25/outbox.cif.g09.slc.cpg/sg2_179_cif.got.tgz:357050.got - 2010.06.27 13:26:56.
