data_PCOD8037936
_publ_section_title
;
Structure prediction by ZEFSAII (Michael W. Deem and Ramdas Pophale) SiO2 
 PCOD8037936
Probable space group: P -1
;
_chemical_formula_sum "Si O2"
_cell_formula_units_Z 16
_cell_length_a 14.826177
_cell_length_b 9.040549
_cell_length_c 8.677158
_cell_angle_alpha 104.756705
_cell_angle_beta 100.088587
_cell_angle_gamma 41.239621
_cell_volume 741.166171
_symmetry_space_group_name_H-M "P -1"
_symmetry_group_IT_number 2
_symmetry_cell_setting 'triclinic'
loop_
_space_group_symop_operation_xyz
x,y,z
-x,-y,-z
loop_
_atom_site_type_symbol
_atom_site_label
_atom_site_fract_x
_atom_site_fract_y
_atom_site_fract_z
Si Si1 0.243593 0.522435 0.741164
Si Si2 0.401845 0.541612 0.285015
Si Si3 0.309035 0.949374 0.170040
Si Si4 0.857842 0.799995 0.403916
Si Si5 0.458792 0.219196 0.990955
Si Si6 0.655155 0.855793 0.519031
Si Si7 0.298448 0.740198 0.627065
Si Si8 0.981227 0.685772 0.744455
O O1 0.363520 0.322757 0.839827
O O2 0.254210 0.407595 0.557145
O O3 0.262749 0.673413 0.739869
O O4 0.093478 0.678493 0.809901
O O5 0.361813 0.744032 0.234412
O O6 0.310575 0.640997 0.438349
O O7 0.560642 0.348856 0.323036
O O8 0.375675 0.418946 0.147227
O O9 0.404225 0.849708 0.022165
O O10 0.319514 0.102493 0.296048
O O11 0.147746 0.126687 0.129495
O O12 0.706822 0.915950 0.424737
O O13 0.929200 0.761633 0.573688
O O14 0.951790 0.564550 0.274936
O O15 0.828413 0.984336 0.340291
O O16 0.500000 0.000000 0.000000
O O17 0.500000 0.000000 0.500000
#
# Coordination Sequence:
#
# PCOD8037936 Si02
#       8
#     2   2   2   2   2   2   2   2
#     4  11  24  39  65  98 131 165 217 266 318 380
#     4  11  24  41  65  98 132 164 216 268 327 383
#     4  11  21  44  66  92 131 174 207 266 327 372
#     4   9  19  36  60  96 132 165 205 262 324 375
#     4  12  28  43  64  96 130 171 219 268 323 379
#     4  10  17  32  63  93 122 154 214 260 305 363
#     4  11  22  38  70 101 126 167 214 273 320 374
#     4   9  20  40  64  94 133 169 210 258 321 390
#
# _framework density 21.587599999999998
#
# number of rings (size 3 to 8) (size 9 to 14) (size 15 to 20)
#    0.000    1.500    5.000    1.125    7.000    0.500 
#    0.000    1.250    0.000    0.000    0.000    0.000 
#    0.000    0.000    0.000    0.000    0.000    0.000 
#
# Total GULP energy -198314.392610 kJ/mol
# GULP energy per Si atom -12394.649538 kJ/mol
# Density = 2.153847 g / cm^3
# Si number density = 21.587600 Si / 1000 Ang^3
#
#
#
# Elastic Constant Matrix: (Units=GPa)
#
#
# Indices 1 2 3 4 5 6 
#
# 1 99.1830 51.4369 10.9892 -17.9248 -5.8999 -11.9941
# 2 51.4369 143.7281 29.6393 -15.1528 -4.6332 5.8445
# 3 10.9892 29.6393 49.7793 3.8925 -2.0208 9.3437
# 4 -17.9248 -15.1528 3.8925 21.3715 6.4740 -6.5111
# 5 -5.8999 -4.6332 -2.0208 6.4740 21.4648 4.1257
# 6 -11.9941 5.8445 9.3437 -6.5111 4.1257 43.7574
#
#
#
# Elastic Compliance Matrix: (Units=1/GPa)
#
#
# Indices 1 2 3 4 5 6 
#
# 1 0.015999 -0.003726 -0.004148 0.014924 -0.002886 0.008262
# 2 -0.003726 0.009938 -0.005461 0.005069 -0.000855 -0.000348
# 3 -0.004148 -0.005461 0.027748 -0.017606 0.007460 -0.009656
# 4 0.014924 0.005069 -0.017606 0.080136 -0.024750 0.021431
# 5 -0.002886 -0.000855 0.007460 -0.024750 0.055935 -0.011227
# 6 0.008262 -0.000348 -0.009656 0.021431 -0.011227 0.031473
#
#
# Mechanical properties :
#
#
# Convention : Reuss Voigt Hill
#
# Bulk Modulus (GPa) = 37.01627 52.98014 44.99820
# Shear Modulus (GPa) = 19.46260 30.69374 25.07817
#
# Velocity S-wave (km/s) = 3.00586 3.77480 3.41206
# Velocity P-wave (km/s) = 5.40659 6.60258 6.03428
#
# Compressibility (1/GPa) = 0.02701515
#
# Stress axis : x y z
#
# Youngs Moduli (GPa) = 62.50541 100.62415 36.03893
#
# Poissons Ratio (x) = 0.37489 0.14950
# Poissons Ratio (y) = 0.23288 0.19679
# Poissons Ratio (z) = 0.25929 0.54946
#
# Static dielectric constant tensor:
#      x y z
#    x 4.048960 -0.217550 0.002790 
#    y -0.217550 4.037170 0.226810 
#    z 0.002790 0.226810 3.753890 
# 
# 
# High freq. dielectric constant tensor:
#      x y z
#    x 1.839840 -0.002380 0.007970 
#    y -0.002380 1.851830 0.012240 
#    z 0.007970 0.012240 1.818130 
# 
# From -- ./inp_files/299291.got.cif
#   From: 2010.06.25/outbox.cif.g09.slc.cpg/sg2_150_cif.got.tgz:299291.got - 2010.06.27 13:26:56.
