data_PCOD8037631
_publ_section_title
;
Structure prediction by ZEFSAII (Michael W. Deem and Ramdas Pophale) SiO2 
 PCOD8037631
Probable space group: P -1
;
_chemical_formula_sum "Si O2"
_cell_formula_units_Z 14
_cell_length_a 11.515648
_cell_length_b 8.887782
_cell_length_c 23.755485
_cell_angle_alpha 28.190220
_cell_angle_beta 29.785510
_cell_angle_gamma 36.478210
_cell_volume 562.564145
_symmetry_space_group_name_H-M "P -1"
_symmetry_group_IT_number 2
_symmetry_cell_setting 'triclinic'
loop_
_space_group_symop_operation_xyz
x,y,z
-x,-y,-z
loop_
_atom_site_type_symbol
_atom_site_label
_atom_site_fract_x
_atom_site_fract_y
_atom_site_fract_z
Si Si1 0.020249 0.359433 0.196232
Si Si2 0.686056 0.298339 0.260692
Si Si3 0.452962 0.642185 0.141821
Si Si4 0.070758 0.406426 0.622239
Si Si5 0.638631 0.189846 0.120469
Si Si6 0.743781 0.577461 0.346204
Si Si7 0.327065 0.796611 0.307538
O O1 0.911327 0.389345 0.169594
O O2 0.824095 0.366723 0.325987
O O3 0.193699 0.016491 0.241496
O O4 0.150465 0.670381 0.046468
O O5 0.653764 0.452140 0.161520
O O6 0.452715 0.455137 0.341909
O O7 0.726302 0.909959 0.368153
O O8 0.475415 0.492946 0.118843
O O9 0.186627 0.637639 0.277011
O O10 0.500000 0.000000 0.000000
O O11 0.058087 0.494128 0.664984
O O12 0.142865 0.711557 0.459141
O O13 0.723022 0.949949 0.215267
O O14 0.507691 0.006222 0.189922
O O15 0.500000 0.500000 0.500000
#
# Coordination Sequence:
#
# PCOD8037631 Si02
#       7
#     2   2   2   2   2   2   2
#     4  12  28  47  78 108 150 196 243 308 372 429
#     4  12  26  48  72 107 152 191 247 300 368 437
#     4  12  29  48  74 108 149 195 250 299 368 446
#     4  12  27  47  76 107 149 201 240 311 368 433
#     4  12  25  50  76 108 150 192 246 309 364 442
#     4  12  25  48  79 111 144 194 249 304 373 435
#     4  12  27  47  76 111 147 193 255 300 370 438
#
# _framework density 24.886053
#
# number of rings (size 3 to 8) (size 9 to 14) (size 15 to 20)
#    0.000    0.000    4.286    4.714    4.000    5.714 
#    0.000    0.000    0.000    0.000    0.000    0.000 
#    0.000    0.000    0.000    0.000    0.000    0.000 
#
# Total GULP energy -173586.946540 kJ/mol
# GULP energy per Si atom -12399.067610 kJ/mol
# Density = 2.482941 g / cm^3
# Si number density = 24.886053 Si / 1000 Ang^3
#
#
#
# Elastic Constant Matrix: (Units=GPa)
#
#
# Indices 1 2 3 4 5 6 
#
# 1 144.5425 35.1114 39.1111 2.9437 0.0868 -12.2294
# 2 35.1114 63.4754 6.1516 -8.3071 8.5555 -1.1436
# 3 39.1111 6.1516 126.9335 4.1169 4.2054 -16.3992
# 4 2.9437 -8.3071 4.1169 35.3214 -2.7844 7.1098
# 5 0.0868 8.5555 4.2054 -2.7844 32.8427 -3.4059
# 6 -12.2294 -1.1436 -16.3992 7.1098 -3.4059 45.8041
#
#
#
# Elastic Compliance Matrix: (Units=1/GPa)
#
#
# Indices 1 2 3 4 5 6 
#
# 1 0.008993 -0.005200 -0.002266 -0.001958 0.001651 0.001886
# 2 -0.005200 0.019892 0.000393 0.005056 -0.004987 -0.001907
# 3 -0.002266 0.000393 0.008996 -0.001409 -0.001081 0.002764
# 4 -0.001958 0.005056 -0.001409 0.031037 0.000914 -0.005651
# 5 0.001651 -0.004987 -0.001081 0.000914 0.032185 0.002180
# 6 0.001886 -0.001907 0.002764 -0.005651 0.002180 0.024317
#
#
# Mechanical properties :
#
#
# Convention : Reuss Voigt Hill
#
# Bulk Modulus (GPa) = 42.13210 55.07773 48.60491
# Shear Modulus (GPa) = 33.90326 39.76545 36.83436
#
# Velocity S-wave (km/s) = 3.69499 4.00171 3.85141
# Velocity P-wave (km/s) = 5.93049 6.59785 6.27305
#
# Compressibility (1/GPa) = 0.02373487
#
# Stress axis : x y z
#
# Youngs Moduli (GPa) = 111.19492 50.27181 111.16014
#
# Poissons Ratio (x) = 0.26140 0.25194
# Poissons Ratio (y) = 0.57817 -0.04369
# Poissons Ratio (z) = 0.25202 -0.01976
#
# Static dielectric constant tensor:
#      x y z
#    x 4.723260 -0.035900 0.128230 
#    y -0.035900 4.783260 -0.042440 
#    z 0.128230 -0.042440 4.253940 
# 
# 
# High freq. dielectric constant tensor:
#      x y z
#    x 2.003730 0.004140 0.007600 
#    y 0.004140 2.001250 -0.006440 
#    z 0.007600 -0.006440 1.983380 
# 
# From -- ./inp_files/609976.got.cif
#   From: 2010.06.25/outbox.cif.g09.slc.cpg/sg2_305_cif.got.tgz:609976.got - 2010.06.27 13:26:56.
