data_PCOD8037330
_publ_section_title
;
Structure prediction by ZEFSAII (Michael W. Deem and Ramdas Pophale) SiO2 
 PCOD8037330
Probable space group: P -1
;
_chemical_formula_sum "Si O2"
_cell_formula_units_Z 16
_cell_length_a 14.873023
_cell_length_b 9.242409
_cell_length_c 9.182315
_cell_angle_alpha 114.750281
_cell_angle_beta 36.545666
_cell_angle_gamma 107.520031
_cell_volume 681.109959
_symmetry_space_group_name_H-M "P -1"
_symmetry_group_IT_number 2
_symmetry_cell_setting 'triclinic'
loop_
_space_group_symop_operation_xyz
x,y,z
-x,-y,-z
loop_
_atom_site_type_symbol
_atom_site_label
_atom_site_fract_x
_atom_site_fract_y
_atom_site_fract_z
Si Si1 0.079956 0.861707 0.933524
Si Si2 0.114499 0.576040 0.269693
Si Si3 0.437655 0.457668 0.720060
Si Si4 0.940193 0.644062 0.235340
Si Si5 0.369220 0.397075 0.248224
Si Si6 0.490863 0.065656 0.878152
Si Si7 0.598937 0.119904 0.344139
Si Si8 0.745714 0.282242 0.599002
O O1 0.225968 0.909711 0.854328
O O2 0.129332 0.722176 0.694265
O O3 0.961825 0.804120 0.181698
O O4 0.000000 0.000000 0.000000
O O5 0.180834 0.718957 0.336675
O O6 0.000000 0.500000 0.500000
O O7 0.024360 0.653620 0.284337
O O8 0.253745 0.457310 0.973640
O O9 0.500000 0.500000 0.500000
O O10 0.485583 0.586523 0.830646
O O11 0.527941 0.289530 0.564423
O O12 0.766376 0.619246 0.471095
O O13 0.000000 0.500000 0.000000
O O14 0.350933 0.547034 0.223721
O O15 0.385395 0.230233 0.069388
O O16 0.653762 0.122274 0.634744
O O17 0.424728 0.920356 0.812586
O O18 0.500000 0.000000 0.000000
O O19 0.500000 0.000000 0.500000
#
# Coordination Sequence:
#
# PCOD8037330 Si02
#       8
#     2   2   2   2   2   2   2   2
#     4  12  28  49  74 108 162 204 252 320 392 462
#     4  12  26  45  79 117 150 193 259 325 390 454
#     4  12  25  45  80 111 146 199 260 312 374 464
#     4  12  25  48  74 112 151 192 261 315 382 464
#     4  12  24  47  78 102 148 204 247 316 374 457
#     4  12  28  45  73 112 153 192 260 320 384 451
#     4  12  26  47  73 108 148 201 255 311 382 464
#     4  12  25  49  71 108 148 198 254 310 380 462
#
# _framework density 23.491067000000001
#
# number of rings (size 3 to 8) (size 9 to 14) (size 15 to 20)
#    0.000    0.000    6.250    2.625    5.250    4.000 
#    0.000    1.250    0.000    0.000    0.000    0.000 
#    0.000    0.000    0.000    0.000    0.000    0.000 
#
# Total GULP energy -198324.260176 kJ/mol
# GULP energy per Si atom -12395.266261 kJ/mol
# Density = 2.343760 g / cm^3
# Si number density = 23.491067 Si / 1000 Ang^3
#
#
#
# Elastic Constant Matrix: (Units=GPa)
#
#
# Indices 1 2 3 4 5 6 
#
# 1 123.1186 39.0355 37.5119 -6.2409 14.4165 -8.2136
# 2 39.0355 96.9086 26.2447 -17.0867 -5.8294 -15.5688
# 3 37.5119 26.2447 117.6103 -19.4854 -1.2316 -4.2703
# 4 -6.2409 -17.0867 -19.4854 48.6042 0.6501 9.1596
# 5 14.4165 -5.8294 -1.2316 0.6501 43.7365 -1.1623
# 6 -8.2136 -15.5688 -4.2703 9.1596 -1.1623 40.3482
#
#
#
# Elastic Compliance Matrix: (Units=1/GPa)
#
#
# Indices 1 2 3 4 5 6 
#
# 1 0.010651 -0.003915 -0.002738 -0.001148 -0.004079 0.000511
# 2 -0.003915 0.013514 -0.001091 0.003073 0.003113 0.003694
# 3 -0.002738 -0.001091 0.010178 0.003456 0.000975 -0.000658
# 4 -0.001148 0.003073 0.003456 0.023648 0.000426 -0.004038
# 5 -0.004079 0.003113 0.000975 0.000426 0.024674 0.001088
# 6 0.000511 0.003694 -0.000658 -0.004038 0.001088 0.027192
#
#
# Mechanical properties :
#
#
# Convention : Reuss Voigt Hill
#
# Bulk Modulus (GPa) = 53.03383 60.35797 56.69590
# Shear Modulus (GPa) = 37.98515 42.19413 40.08964
#
# Velocity S-wave (km/s) = 4.02556 4.24273 4.13557
# Velocity P-wave (km/s) = 6.65072 7.05343 6.85503
#
# Compressibility (1/GPa) = 0.01885589
#
# Stress axis : x y z
#
# Youngs Moduli (GPa) = 93.88673 73.99796 98.24718
#
# Poissons Ratio (x) = 0.28967 0.26900
# Poissons Ratio (y) = 0.36752 0.10721
# Poissons Ratio (z) = 0.25706 0.08075
#
# Static dielectric constant tensor:
#      x y z
#    x 3.665200 -0.547240 0.002110 
#    y -0.547240 3.836770 -0.535550 
#    z 0.002110 -0.535550 4.441070 
# 
# 
# High freq. dielectric constant tensor:
#      x y z
#    x 1.941070 -0.000440 0.011640 
#    y -0.000440 1.920140 -0.019730 
#    z 0.011640 -0.019730 1.951400 
# 
# From -- ./inp_files/299048.got.cif
#   From: 2010.06.25/outbox.cif.g09.slc.cpg/sg2_150_cif.got.tgz:299048.got - 2010.06.27 13:26:56.
