data_PCOD8037352
_publ_section_title
;
Structure prediction by ZEFSAII (Michael W. Deem and Ramdas Pophale) SiO2 
 PCOD8037352
Probable space group: P -1
;
_chemical_formula_sum "Si O2"
_cell_formula_units_Z 14
_cell_length_a 11.740731
_cell_length_b 8.465503
_cell_length_c 16.947292
_cell_angle_alpha 143.482404
_cell_angle_beta 38.121036
_cell_angle_gamma 129.184587
_cell_volume 618.770200
_symmetry_space_group_name_H-M "P -1"
_symmetry_group_IT_number 2
_symmetry_cell_setting 'triclinic'
loop_
_space_group_symop_operation_xyz
x,y,z
-x,-y,-z
loop_
_atom_site_type_symbol
_atom_site_label
_atom_site_fract_x
_atom_site_fract_y
_atom_site_fract_z
Si Si1 0.408043 0.504468 0.839638
Si Si2 0.219784 0.851109 0.952236
Si Si3 0.710665 0.429437 0.357935
Si Si4 0.194043 0.980239 0.728389
Si Si5 0.808045 0.342321 0.551407
Si Si6 0.465795 0.755002 0.069182
Si Si7 0.192980 0.002487 0.435287
O O1 0.290942 0.622474 0.879442
O O2 0.347910 0.196319 0.756273
O O3 0.627599 0.528128 0.711479
O O4 0.362145 0.666684 0.009846
O O5 0.235373 0.764726 0.819177
O O6 0.337989 0.116367 0.008598
O O7 0.007096 0.903072 0.102654
O O8 0.500000 0.500000 0.500000
O O9 0.806903 0.711890 0.408899
O O10 0.770975 0.286892 0.348518
O O11 0.206649 0.903331 0.599048
O O12 0.789691 0.232482 0.605594
O O13 0.000000 0.500000 0.500000
O O14 0.346872 0.967648 0.269069
O O15 0.500000 0.500000 0.000000
O O16 0.000000 0.000000 0.500000
#
# Coordination Sequence:
#
# PCOD8037352 Si02
#       7
#     2   2   2   2   2   2   2
#     4  12  26  48  74 103 147 186 235 297 351 420
#     4  12  27  46  75 106 142 189 237 293 352 421
#     4  12  24  48  72 105 142 184 236 288 355 417
#     4  12  27  46  76 106 144 185 238 295 351 421
#     4  12  26  48  72 105 141 186 239 290 355 420
#     4  12  26  48  71 104 145 187 238 289 356 414
#     4  12  28  44  74 104 143 187 234 295 350 422
#
# _framework density 22.625523999999999
#
# number of rings (size 3 to 8) (size 9 to 14) (size 15 to 20)
#    0.000    0.000    2.857    6.857    8.000    0.000 
#    0.000    0.000    0.000    0.000    0.000    0.000 
#    0.000    0.000    0.000    0.000    0.000    0.000 
#
# Total GULP energy -173674.718009 kJ/mol
# GULP energy per Si atom -12405.337001 kJ/mol
# Density = 2.257403 g / cm^3
# Si number density = 22.625524 Si / 1000 Ang^3
#
#
#
# Elastic Constant Matrix: (Units=GPa)
#
#
# Indices 1 2 3 4 5 6 
#
# 1 113.9623 32.3394 43.0624 -10.4878 -6.7893 9.2512
# 2 32.3394 108.2538 22.7743 5.3553 -3.3145 11.9164
# 3 43.0624 22.7743 109.6496 -13.3835 -0.3653 5.2993
# 4 -10.4878 5.3553 -13.3835 43.1251 5.6534 2.2801
# 5 -6.7893 -3.3145 -0.3653 5.6534 62.9025 4.2427
# 6 9.2512 11.9164 5.2993 2.2801 4.2427 39.2010
#
#
#
# Elastic Compliance Matrix: (Units=1/GPa)
#
#
# Indices 1 2 3 4 5 6 
#
# 1 0.011190 -0.002475 -0.003570 0.001876 0.000997 -0.001623
# 2 -0.002475 0.010674 -0.001410 -0.002324 0.000658 -0.002406
# 3 -0.003570 -0.001410 0.011180 0.002877 -0.000630 -0.000339
# 4 0.001876 -0.002324 0.002877 0.025170 -0.002073 -0.001365
# 5 0.000997 0.000658 -0.000630 -0.002073 0.016358 -0.002000
# 6 -0.001623 -0.002406 -0.000339 -0.001365 -0.002000 0.026966
#
#
# Mechanical properties :
#
#
# Convention : Reuss Voigt Hill
#
# Bulk Modulus (GPa) = 55.14646 58.69088 56.91867
# Shear Modulus (GPa) = 40.81904 44.62504 42.72204
#
# Velocity S-wave (km/s) = 4.25210 4.44591 4.35008
# Velocity P-wave (km/s) = 6.96660 7.23542 7.10228
#
# Compressibility (1/GPa) = 0.01813353
#
# Stress axis : x y z
#
# Youngs Moduli (GPa) = 89.36572 93.68861 89.44362
#
# Poissons Ratio (x) = 0.23193 0.31929
# Poissons Ratio (y) = 0.22122 0.12611
# Poissons Ratio (z) = 0.31901 0.13210
#
# Static dielectric constant tensor:
#      x y z
#    x 4.187020 0.090750 0.083420 
#    y 0.090750 4.117990 -0.147360 
#    z 0.083420 -0.147360 4.168600 
# 
# 
# High freq. dielectric constant tensor:
#      x y z
#    x 1.911750 0.004590 0.004910 
#    y 0.004590 1.897150 0.000430 
#    z 0.004910 0.000430 1.905970 
# 
# From -- ./inp_files/157444.got.cif
#   From: 2010.06.25/outbox.cif.g09.slc.cpg/sg2_79_cif.got.tgz:157444.got - 2010.06.27 13:26:56.
