data_PCOD8037472
_publ_section_title
;
Structure prediction by ZEFSAII (Michael W. Deem and Ramdas Pophale) SiO2 
 PCOD8037472
Probable space group: P -1
;
_chemical_formula_sum "Si O2"
_cell_formula_units_Z 12
_cell_length_a 13.417157
_cell_length_b 9.740626
_cell_length_c 8.600308
_cell_angle_alpha 30.284987
_cell_angle_beta 114.505423
_cell_angle_gamma 123.058617
_cell_volume 470.836873
_symmetry_space_group_name_H-M "P -1"
_symmetry_group_IT_number 2
_symmetry_cell_setting 'triclinic'
loop_
_space_group_symop_operation_xyz
x,y,z
-x,-y,-z
loop_
_atom_site_type_symbol
_atom_site_label
_atom_site_fract_x
_atom_site_fract_y
_atom_site_fract_z
Si Si1 0.675026 0.253162 0.424100
Si Si2 0.553160 0.245149 0.658458
Si Si3 0.090183 0.643089 0.052330
Si Si4 0.946126 0.687965 0.189856
Si Si5 0.755786 0.700517 0.532408
Si Si6 0.633648 0.674760 0.772359
O O1 0.625889 0.145814 0.671127
O O2 0.802271 0.535452 0.240125
O O3 0.685033 0.979206 0.607405
O O4 0.588592 0.385567 0.144399
O O5 0.636801 0.552137 0.495694
O O6 0.457480 0.318144 0.425871
O O7 0.500000 0.000000 0.000000
O O8 0.145510 0.408140 0.368024
O O9 0.003838 0.726546 0.023042
O O10 0.000000 0.500000 0.000000
O O11 0.204925 0.946309 0.795663
O O12 0.000000 0.500000 0.500000
O O13 0.000000 0.000000 0.000000
O O14 0.734974 0.629455 0.774286
#
# Coordination Sequence:
#
# PCOD8037472 Si02
#       6
#     2   2   2   2   2   2
#     4  12  27  48  73 107 147 191 243 303 365 436
#     4  12  27  49  76 108 146 195 248 305 367 436
#     4  12  25  45  72 106 143 188 237 294 358 430
#     4  12  25  45  72 105 144 190 239 296 363 432
#     4  12  26  46  72 106 145 188 240 297 356 430
#     4  12  26  47  73 106 146 194 241 299 366 432
#
# _framework density 25.486533000000001
#
# number of rings (size 3 to 8) (size 9 to 14) (size 15 to 20)
#    0.000    0.000    0.000   11.000    0.000    5.333 
#    0.000    0.000    0.000    0.000    0.000    0.000 
#    0.000    0.000    0.000    0.000    0.000    0.000 
#
# Total GULP energy -148724.171012 kJ/mol
# GULP energy per Si atom -12393.680918 kJ/mol
# Density = 2.542852 g / cm^3
# Si number density = 25.486533 Si / 1000 Ang^3
#
#
#
# Elastic Constant Matrix: (Units=GPa)
#
#
# Indices 1 2 3 4 5 6 
#
# 1 99.8648 75.5964 42.0257 -8.4423 -11.8114 -27.4020
# 2 75.5964 187.2127 60.4391 -18.0151 -12.9438 -14.8365
# 3 42.0257 60.4391 125.9386 2.7774 2.5288 -4.1964
# 4 -8.4423 -18.0151 2.7774 51.6519 -10.5009 -3.5389
# 5 -11.8114 -12.9438 2.5288 -10.5009 41.2287 -1.0254
# 6 -27.4020 -14.8365 -4.1964 -3.5389 -1.0254 58.8783
#
#
#
# Elastic Compliance Matrix: (Units=1/GPa)
#
#
# Indices 1 2 3 4 5 6 
#
# 1 0.018027 -0.004964 -0.003553 0.002856 0.004729 0.007139
# 2 -0.004964 0.008574 -0.002566 0.002739 0.002122 -0.000131
# 3 -0.003553 -0.002566 0.010425 -0.002814 -0.003224 -0.001782
# 4 0.002856 0.002739 -0.002814 0.022732 0.007723 0.003320
# 5 0.004729 0.002122 -0.003224 0.007723 0.028527 0.003467
# 6 0.007139 -0.000131 -0.001782 0.003320 0.003467 0.020407
#
#
# Mechanical properties :
#
#
# Convention : Reuss Voigt Hill
#
# Bulk Modulus (GPa) = 67.29788 85.45985 76.37887
# Shear Modulus (GPa) = 36.81616 46.01544 41.41580
#
# Velocity S-wave (km/s) = 3.80483 4.25370 4.03551
# Velocity P-wave (km/s) = 6.76497 7.59799 7.19355
#
# Compressibility (1/GPa) = 0.01485931
#
# Stress axis : x y z
#
# Youngs Moduli (GPa) = 55.47386 116.62696 95.92612
#
# Poissons Ratio (x) = 0.57899 0.34083
# Poissons Ratio (y) = 0.27540 0.24611
# Poissons Ratio (z) = 0.19710 0.29922
#
# Static dielectric constant tensor:
#      x y z
#    x 4.565210 -0.193240 -0.333520 
#    y -0.193240 4.995960 0.157610 
#    z -0.333520 0.157610 4.420340 
# 
# 
# High freq. dielectric constant tensor:
#      x y z
#    x 2.035110 -0.014510 0.001950 
#    y -0.014510 2.046700 -0.004600 
#    z 0.001950 -0.004600 2.015630 
# 
# From -- ./inp_files/291393.got.cif
#   From: 2010.06.25/outbox.cif.g09.slc.cpg/sg2_146_cif.got.tgz:291393.got - 2010.06.27 13:26:56.
