data_PCOD8037672
_publ_section_title
;
Structure prediction by ZEFSAII (Michael W. Deem and Ramdas Pophale) SiO2 
 PCOD8037672
Probable space group: P -1
;
_chemical_formula_sum "Si O2"
_cell_formula_units_Z 14
_cell_length_a 16.710655
_cell_length_b 11.091145
_cell_length_c 9.232391
_cell_angle_alpha 108.192083
_cell_angle_beta 109.830302
_cell_angle_gamma 20.583158
_cell_volume 565.829974
_symmetry_space_group_name_H-M "P -1"
_symmetry_group_IT_number 2
_symmetry_cell_setting 'triclinic'
loop_
_space_group_symop_operation_xyz
x,y,z
-x,-y,-z
loop_
_atom_site_type_symbol
_atom_site_label
_atom_site_fract_x
_atom_site_fract_y
_atom_site_fract_z
Si Si1 0.559582 0.378543 0.652014
Si Si2 0.748480 0.625541 0.443336
Si Si3 0.246678 0.666835 0.770103
Si Si4 0.013155 0.336168 0.244600
Si Si5 0.005209 0.618849 0.230895
Si Si6 0.859993 0.382197 0.915385
Si Si7 0.517275 0.668384 0.911835
O O1 0.500000 0.500000 0.500000
O O2 0.331783 0.633691 0.677097
O O3 0.648168 0.376156 0.797020
O O4 0.764681 0.992286 0.640538
O O5 0.785876 0.429973 0.343043
O O6 0.796398 0.648497 0.340239
O O7 0.950099 0.372766 0.587535
O O8 0.500000 0.000000 0.500000
O O9 0.436773 0.406051 0.916657
O O10 0.009065 0.058453 0.823850
O O11 0.061110 0.393213 0.197810
O O12 0.976159 0.268541 0.091381
O O13 0.170392 0.457557 0.153500
O O14 0.748499 0.986873 0.153872
O O15 0.606615 0.679441 0.908831
#
# Coordination Sequence:
#
# PCOD8037672 Si02
#       7
#     2   2   2   2   2   2   2
#     4  12  26  46  83 120 155 206 262 331 393 467
#     4  12  29  51  77 112 162 214 256 323 404 466
#     4  12  25  52  82 115 163 204 267 329 391 471
#     4  12  26  52  78 114 165 204 261 328 400 470
#     4  12  29  48  79 119 160 206 261 323 394 474
#     4  12  26  49  85 119 152 208 267 324 396 468
#     4  12  25  50  82 116 158 202 268 323 389 471
#
# _framework density 24.742415999999999
#
# number of rings (size 3 to 8) (size 9 to 14) (size 15 to 20)
#    0.000    0.000    4.286    5.143    4.000    2.286 
#    0.000    0.000    0.000    0.000    0.000    0.000 
#    0.000    0.000    0.000    0.000    0.000    0.000 
#
# Total GULP energy -173615.864996 kJ/mol
# GULP energy per Si atom -12401.133214 kJ/mol
# Density = 2.468610 g / cm^3
# Si number density = 24.742416 Si / 1000 Ang^3
#
#
#
# Elastic Constant Matrix: (Units=GPa)
#
#
# Indices 1 2 3 4 5 6 
#
# 1 137.0733 2.5479 25.6850 1.6507 -15.7179 -4.1956
# 2 2.5479 44.7065 3.4309 6.5949 -1.1131 8.7828
# 3 25.6850 3.4309 109.8569 6.9905 8.3972 -0.9458
# 4 1.6507 6.5949 6.9905 34.3177 -5.2438 -1.9023
# 5 -15.7179 -1.1131 8.3972 -5.2438 55.2671 0.7794
# 6 -4.1956 8.7828 -0.9458 -1.9023 0.7794 32.3184
#
#
#
# Elastic Compliance Matrix: (Units=1/GPa)
#
#
# Indices 1 2 3 4 5 6 
#
# 1 0.008025 -0.000537 -0.002090 0.000606 0.002631 0.001099
# 2 -0.000537 0.024551 -0.000386 -0.005000 0.000025 -0.007048
# 3 -0.002090 -0.000386 0.009921 -0.002198 -0.002319 0.000050
# 4 0.000606 -0.005000 -0.002198 0.031200 0.003322 0.003130
# 5 0.002631 0.000025 -0.002319 0.003322 0.019510 -0.000008
# 6 0.001099 -0.007048 0.000050 0.003130 -0.000008 0.033186
#
#
# Mechanical properties :
#
#
# Convention : Reuss Voigt Hill
#
# Bulk Modulus (GPa) = 27.41768 39.44049 33.42909
# Shear Modulus (GPa) = 34.58415 41.71217 38.14816
#
# Velocity S-wave (km/s) = 3.74273 4.11037 3.93085
# Velocity P-wave (km/s) = 5.45735 6.20499 5.84314
#
# Compressibility (1/GPa) = 0.03647281
#
# Stress axis : x y z
#
# Youngs Moduli (GPa) = 124.61158 40.73133 100.79740
#
# Poissons Ratio (x) = 0.02186 0.21064
# Poissons Ratio (y) = 0.06688 0.03888
# Poissons Ratio (z) = 0.26040 0.01571
#
# Static dielectric constant tensor:
#      x y z
#    x 4.888450 -0.054280 -0.080180 
#    y -0.054280 4.138280 0.084000 
#    z -0.080180 0.084000 4.679410 
# 
# 
# High freq. dielectric constant tensor:
#      x y z
#    x 2.005790 -0.006230 -0.002710 
#    y -0.006230 1.969380 0.001360 
#    z -0.002710 0.001360 2.000100 
# 
# From -- ./inp_files/333536.got.cif
#   From: 2010.06.25/outbox.cif.g09.slc.cpg/sg2_167_cif.got.tgz:333536.got - 2010.06.27 13:26:56.
