data_PCOD8037712
_publ_section_title
;
Structure prediction by ZEFSAII (Michael W. Deem and Ramdas Pophale) SiO2 
 PCOD8037712
Probable space group: P -1
;
_chemical_formula_sum "Si O2"
_cell_formula_units_Z 16
_cell_length_a 9.253812
_cell_length_b 8.761892
_cell_length_c 11.264925
_cell_angle_alpha 105.446005
_cell_angle_beta 113.727739
_cell_angle_gamma 110.444389
_cell_volume 689.744429
_symmetry_space_group_name_H-M "P -1"
_symmetry_group_IT_number 2
_symmetry_cell_setting 'triclinic'
loop_
_space_group_symop_operation_xyz
x,y,z
-x,-y,-z
loop_
_atom_site_type_symbol
_atom_site_label
_atom_site_fract_x
_atom_site_fract_y
_atom_site_fract_z
Si Si1 0.474127 0.655666 0.078271
Si Si2 0.275284 0.941534 0.825712
Si Si3 0.431361 0.760239 0.673244
Si Si4 0.557204 0.589175 0.345993
Si Si5 0.860915 0.304125 0.052578
Si Si6 0.756614 0.381743 0.650812
Si Si7 0.060624 0.074870 0.402824
Si Si8 0.211869 0.900137 0.247740
O O1 0.544069 0.683008 0.241117
O O2 0.603325 0.838542 0.084411
O O3 0.500000 0.500000 0.000000
O O4 0.262761 0.605019 0.996086
O O5 0.387269 0.865588 0.778889
O O6 0.248743 0.875147 0.938406
O O7 0.081096 0.873035 0.685744
O O8 0.451908 0.603885 0.715575
O O9 0.260318 0.668123 0.504517
O O10 0.621271 0.903212 0.699761
O O11 0.387668 0.550873 0.365090
O O12 0.746298 0.735669 0.500598
O O13 0.041484 0.456163 0.211733
O O14 0.903551 0.233813 0.929114
O O15 0.700035 0.197639 0.668715
O O16 0.071762 0.925207 0.290974
O O17 0.000000 0.000000 0.500000
#
# Coordination Sequence:
#
# PCOD8037712 Si02
#       8
#     2   2   2   2   2   2   2   2
#     4  12  27  46  73 107 155 202 244 311 377 448
#     4  12  27  49  76 111 153 194 257 309 372 446
#     4  12  26  48  81 108 148 203 247 317 373 441
#     4  12  26  47  74 111 148 192 255 309 375 442
#     4  12  28  48  74 113 151 202 253 305 374 455
#     4  12  26  48  76 108 154 193 254 311 375 443
#     4  12  27  48  77 113 144 195 259 310 376 446
#     4  12  27  47  78 106 153 202 249 304 378 448
#
# _framework density 23.196997
#
# number of rings (size 3 to 8) (size 9 to 14) (size 15 to 20)
#    0.000    0.000    5.000    3.750    5.250    4.500 
#    0.000    0.000    0.000    0.000    0.000    0.000 
#    0.000    0.000    0.000    0.000    0.000    0.000 
#
# Total GULP energy -198499.036704 kJ/mol
# GULP energy per Si atom -12406.189794 kJ/mol
# Density = 2.314420 g / cm^3
# Si number density = 23.196997 Si / 1000 Ang^3
#
#
#
# Elastic Constant Matrix: (Units=GPa)
#
#
# Indices 1 2 3 4 5 6 
#
# 1 126.2618 43.9777 32.6696 5.6081 -8.3200 -9.7273
# 2 43.9777 126.0557 18.4747 3.4128 -4.6040 -14.6878
# 3 32.6696 18.4747 72.9296 4.5393 10.1002 0.7315
# 4 5.6081 3.4128 4.5393 43.8669 3.2876 -0.7647
# 5 -8.3200 -4.6040 10.1002 3.2876 50.2621 -0.1698
# 6 -9.7273 -14.6878 0.7315 -0.7647 -0.1698 34.8929
#
#
#
# Elastic Compliance Matrix: (Units=1/GPa)
#
#
# Indices 1 2 3 4 5 6 
#
# 1 0.010266 -0.002640 -0.004225 -0.000815 0.002366 0.001833
# 2 -0.002640 0.009464 -0.001332 -0.000258 0.000725 0.003274
# 3 -0.004225 -0.001332 0.016582 -0.000801 -0.004108 -0.002124
# 4 -0.000815 -0.000258 -0.000801 0.023120 -0.001509 0.000180
# 5 0.002366 0.000725 -0.004108 -0.001509 0.021282 0.001122
# 6 0.001833 0.003274 -0.002124 0.000180 0.001122 0.030602
#
#
# Mechanical properties :
#
#
# Convention : Reuss Voigt Hill
#
# Bulk Modulus (GPa) = 50.20733 57.27680 53.74206
# Shear Modulus (GPa) = 37.21593 41.14605 39.18099
#
# Velocity S-wave (km/s) = 4.00977 4.21618 4.11427
# Velocity P-wave (km/s) = 6.56723 6.96036 6.76665
#
# Compressibility (1/GPa) = 0.01991741
#
# Stress axis : x y z
#
# Youngs Moduli (GPa) = 97.40580 105.66029 60.30551
#
# Poissons Ratio (x) = 0.27898 0.25481
# Poissons Ratio (y) = 0.25719 0.08033
# Poissons Ratio (z) = 0.41158 0.14074
#
# Static dielectric constant tensor:
#      x y z
#    x 4.198540 -0.073470 0.192440 
#    y -0.073470 4.390360 -0.038960 
#    z 0.192440 -0.038960 2.538320 
# 
# 
# High freq. dielectric constant tensor:
#      x y z
#    x 1.918710 -0.004480 -0.000560 
#    y -0.004480 1.930580 -0.006330 
#    z -0.000560 -0.006330 1.931200 
# 
# From -- ./inp_files/382987.got.cif
#   From: 2010.06.25/outbox.cif.g09.slc.cpg/sg2_192_cif.got.tgz:382987.got - 2010.06.27 13:26:56.
