data_PCOD8037703
_publ_section_title
;
Structure prediction by ZEFSAII (Michael W. Deem and Ramdas Pophale) SiO2 
 PCOD8037703
Probable space group: P -1
;
_chemical_formula_sum "Si O2"
_cell_formula_units_Z 14
_cell_length_a 8.556471
_cell_length_b 11.820781
_cell_length_c 9.072019
_cell_angle_alpha 100.058751
_cell_angle_beta 130.755328
_cell_angle_gamma 64.473761
_cell_volume 619.541847
_symmetry_space_group_name_H-M "P -1"
_symmetry_group_IT_number 2
_symmetry_cell_setting 'triclinic'
loop_
_space_group_symop_operation_xyz
x,y,z
-x,-y,-z
loop_
_atom_site_type_symbol
_atom_site_label
_atom_site_fract_x
_atom_site_fract_y
_atom_site_fract_z
Si Si1 0.770121 0.031255 0.283713
Si Si2 0.393047 0.687670 0.869287
Si Si3 0.817374 0.471334 0.471131
Si Si4 0.922047 0.847860 0.063608
Si Si5 0.411084 0.725156 0.219205
Si Si6 0.105265 0.394899 0.919053
Si Si7 0.545295 0.026363 0.698215
O O1 0.667693 0.171569 0.188710
O O2 0.822096 0.931689 0.163891
O O3 0.595219 0.016108 0.284385
O O4 0.000000 0.000000 0.500000
O O5 0.243634 0.631399 0.674878
O O6 0.339323 0.686609 0.009738
O O7 0.663051 0.601885 0.996947
O O8 0.591596 0.601383 0.384979
O O9 0.000000 0.500000 0.500000
O O10 0.923537 0.415475 0.681715
O O11 0.839626 0.736615 0.995393
O O12 0.194676 0.790295 0.207612
O O13 0.812126 0.937051 0.873886
O O14 0.520182 0.825078 0.284349
O O15 0.000000 0.500000 0.000000
O O16 0.500000 0.000000 0.500000
#
# Coordination Sequence:
#
# PCOD8037703 Si02
#       7
#     2   2   2   2   2   2   2
#     4  12  26  46  77 107 148 196 245 305 372 445
#     4  12  26  51  76 108 150 198 253 305 374 446
#     4  12  29  48  78 109 146 197 254 307 372 442
#     4  12  26  49  72 110 149 193 246 305 374 439
#     4  12  27  46  77 111 150 194 249 308 374 441
#     4  12  28  49  77 108 150 200 248 307 370 444
#     4  12  27  45  74 113 149 192 248 305 372 442
#
# _framework density 22.597342999999999
#
# number of rings (size 3 to 8) (size 9 to 14) (size 15 to 20)
#    0.000    0.000    4.286    4.714    8.000    3.429 
#    0.000    0.000    0.000    0.000    0.000    0.000 
#    0.000    0.000    0.000    0.000    0.000    0.000 
#
# Total GULP energy -173697.492060 kJ/mol
# GULP energy per Si atom -12406.963719 kJ/mol
# Density = 2.254591 g / cm^3
# Si number density = 22.597343 Si / 1000 Ang^3
#
#
#
# Elastic Constant Matrix: (Units=GPa)
#
#
# Indices 1 2 3 4 5 6 
#
# 1 102.7573 34.4847 17.4949 3.4000 3.7594 -16.4787
# 2 34.4847 136.8389 33.1165 18.5706 -4.2433 -12.6354
# 3 17.4949 33.1165 122.8884 18.0316 -7.7479 -20.4440
# 4 3.4000 18.5706 18.0316 42.3676 -1.8449 7.0666
# 5 3.7594 -4.2433 -7.7479 -1.8449 38.6039 1.2951
# 6 -16.4787 -12.6354 -20.4440 7.0666 1.2951 37.3419
#
#
#
# Elastic Compliance Matrix: (Units=1/GPa)
#
#
# Indices 1 2 3 4 5 6 
#
# 1 0.011326 -0.002376 -0.000303 -0.000505 -0.001589 0.004179
# 2 -0.002376 0.008866 -0.001168 -0.003491 0.000739 0.001947
# 3 -0.000303 -0.001168 0.010281 -0.004764 0.001537 0.005948
# 4 -0.000505 -0.003491 -0.004764 0.028799 0.000403 -0.009476
# 5 -0.001589 0.000739 0.001537 0.000403 0.026488 -0.000605
# 6 0.004179 0.001947 0.005948 -0.009476 -0.000605 0.034353
#
#
# Mechanical properties :
#
#
# Convention : Reuss Voigt Hill
#
# Bulk Modulus (GPa) = 43.90206 59.18631 51.54419
# Shear Modulus (GPa) = 36.92780 42.15523 39.54152
#
# Velocity S-wave (km/s) = 4.04687 4.32382 4.18764
# Velocity P-wave (km/s) = 6.42700 7.15373 6.80008
#
# Compressibility (1/GPa) = 0.02277797
#
# Stress axis : x y z
#
# Youngs Moduli (GPa) = 88.29628 112.79393 97.26757
#
# Poissons Ratio (x) = 0.26797 0.02948
# Poissons Ratio (y) = 0.20977 0.11363
# Poissons Ratio (z) = 0.02676 0.13177
#
# Static dielectric constant tensor:
#      x y z
#    x 4.146270 -0.031870 0.132070 
#    y -0.031870 4.340530 -0.161990 
#    z 0.132070 -0.161990 4.476090 
# 
# 
# High freq. dielectric constant tensor:
#      x y z
#    x 1.897280 0.001310 0.002960 
#    y 0.001310 1.913030 -0.005160 
#    z 0.002960 -0.005160 1.904020 
# 
# From -- ./inp_files/181079.got.cif
#   From: 2010.06.25/outbox.cif.g09.slc.cpg/sg2_91_cif.got.tgz:181079.got - 2010.06.27 13:26:56.
