data_PCOD8037749
_publ_section_title
;
Structure prediction by ZEFSAII (Michael W. Deem and Ramdas Pophale) SiO2 
 PCOD8037749
Probable space group: P -1
;
_chemical_formula_sum "Si O2"
_cell_formula_units_Z 14
_cell_length_a 11.577669
_cell_length_b 5.324674
_cell_length_c 14.326286
_cell_angle_alpha 76.960634
_cell_angle_beta 40.915363
_cell_angle_gamma 83.849050
_cell_volume 560.732139
_symmetry_space_group_name_H-M "P -1"
_symmetry_group_IT_number 2
_symmetry_cell_setting 'triclinic'
loop_
_space_group_symop_operation_xyz
x,y,z
-x,-y,-z
loop_
_atom_site_type_symbol
_atom_site_label
_atom_site_fract_x
_atom_site_fract_y
_atom_site_fract_z
Si Si1 0.880758 0.488434 0.373788
Si Si2 0.533983 0.460229 0.676064
Si Si3 0.132003 0.121958 0.330549
Si Si4 0.147713 0.921151 0.136339
Si Si5 0.641696 0.241008 0.382443
Si Si6 0.512812 0.131567 0.179536
Si Si7 0.972172 0.209756 0.076684
O O1 0.745883 0.554050 0.533460
O O2 0.757633 0.291455 0.400719
O O3 0.050711 0.376603 0.324112
O O4 0.969995 0.727501 0.238315
O O5 0.449161 0.505547 0.621032
O O6 0.445871 0.650523 0.785030
O O7 0.497953 0.159993 0.749905
O O8 0.328482 0.192704 0.242102
O O9 0.151800 0.939290 0.244242
O O10 0.000000 0.000000 0.500000
O O11 0.331427 0.824951 0.996013
O O12 0.109007 0.181363 0.082223
O O13 0.769677 0.151141 0.232723
O O14 0.500000 0.000000 0.500000
O O15 0.000000 0.500000 0.000000
O O16 0.000000 0.000000 0.000000
#
# Coordination Sequence:
#
# PCOD8037749 Si02
#       7
#     2   2   2   2   2   2   2
#     4  12  27  49  80 113 161 210 267 331 402 465
#     4  12  27  50  77 116 160 208 267 324 399 472
#     4  12  27  52  82 113 161 211 270 330 392 471
#     4  12  28  49  78 120 158 208 271 325 400 474
#     4  12  26  49  78 117 155 207 266 331 393 475
#     4  12  29  50  81 117 159 210 264 327 394 473
#     4  12  26  48  77 113 162 207 251 320 400 474
#
# _framework density 24.967358999999998
#
# number of rings (size 3 to 8) (size 9 to 14) (size 15 to 20)
#    0.000    0.000    2.857    6.000    4.000    4.000 
#    0.000    0.000    0.000    0.000    0.000    0.000 
#    0.000    0.000    0.000    0.000    0.000    0.000 
#
# Total GULP energy -173586.646605 kJ/mol
# GULP energy per Si atom -12399.046186 kJ/mol
# Density = 2.491053 g / cm^3
# Si number density = 24.967359 Si / 1000 Ang^3
#
#
#
# Elastic Constant Matrix: (Units=GPa)
#
#
# Indices 1 2 3 4 5 6 
#
# 1 117.9566 32.2000 27.4481 -6.8238 9.6926 -9.0794
# 2 32.2000 129.5447 46.1067 0.2769 13.3756 -6.6752
# 3 27.4481 46.1067 192.9224 13.9945 -3.9726 8.4742
# 4 -6.8238 0.2769 13.9945 32.4064 -2.1491 -6.1481
# 5 9.6926 13.3756 -3.9726 -2.1491 43.8274 2.7550
# 6 -9.0794 -6.6752 8.4742 -6.1481 2.7550 35.5764
#
#
#
# Elastic Compliance Matrix: (Units=1/GPa)
#
#
# Indices 1 2 3 4 5 6 
#
# 1 0.009831 -0.001579 -0.001434 0.003196 -0.001870 0.003252
# 2 -0.001579 0.009299 -0.002209 0.000778 -0.002790 0.002218
# 3 -0.001434 -0.002209 0.006333 -0.003485 0.001584 -0.003014
# 4 0.003196 0.000778 -0.003485 0.034497 -0.000056 0.007758
# 5 -0.001870 -0.002790 0.001584 -0.000056 0.024429 -0.003280
# 6 0.003252 0.002218 -0.003014 0.007758 -0.003280 0.031667
#
#
# Mechanical properties :
#
#
# Convention : Reuss Voigt Hill
#
# Bulk Modulus (GPa) = 66.58716 72.43705 69.51211
# Shear Modulus (GPa) = 38.02032 44.67328 41.34680
#
# Velocity S-wave (km/s) = 3.90654 4.23456 4.07385
# Velocity P-wave (km/s) = 6.86117 7.27904 7.07319
#
# Compressibility (1/GPa) = 0.01501791
#
# Stress axis : x y z
#
# Youngs Moduli (GPa) = 101.71416 107.54038 157.89698
#
# Poissons Ratio (x) = 0.16985 0.22650
# Poissons Ratio (y) = 0.16065 0.34878
# Poissons Ratio (z) = 0.14591 0.23755
#
# Static dielectric constant tensor:
#      x y z
#    x 4.638460 -0.357690 0.028210 
#    y -0.357690 4.456960 0.302270 
#    z 0.028210 0.302270 5.056780 
# 
# 
# High freq. dielectric constant tensor:
#      x y z
#    x 1.998760 -0.015090 -0.002410 
#    y -0.015090 1.995430 0.015310 
#    z -0.002410 0.015310 2.024550 
# 
# From -- ./inp_files/510793.got.cif
#   From: 2010.06.25/outbox.cif.g09.slc.cpg/sg2_256_cif.got.tgz:510793.got - 2010.06.27 13:26:56.
