data_PCOD8037707
_publ_section_title
;
Structure prediction by ZEFSAII (Michael W. Deem and Ramdas Pophale) SiO2 
 PCOD8037707
Probable space group: P -1
;
_chemical_formula_sum "Si O2"
_cell_formula_units_Z 10
_cell_length_a 8.984216
_cell_length_b 8.371906
_cell_length_c 9.149915
_cell_angle_alpha 95.276359
_cell_angle_beta 135.592966
_cell_angle_gamma 74.721178
_cell_volume 459.803900
_symmetry_space_group_name_H-M "P -1"
_symmetry_group_IT_number 2
_symmetry_cell_setting 'triclinic'
loop_
_space_group_symop_operation_xyz
x,y,z
-x,-y,-z
loop_
_atom_site_type_symbol
_atom_site_label
_atom_site_fract_x
_atom_site_fract_y
_atom_site_fract_z
Si Si1 0.152870 0.259610 0.958396
Si Si2 0.906506 0.039706 0.278772
Si Si3 0.288336 0.496712 0.444308
Si Si4 0.566185 0.365019 0.159544
Si Si5 0.265104 0.138728 0.347255
O O1 0.924501 0.404080 0.789467
O O2 0.179821 0.113050 0.848146
O O3 0.351511 0.341814 0.086899
O O4 0.164564 0.180594 0.119720
O O5 0.699447 0.201844 0.152410
O O6 0.098625 0.061679 0.310851
O O7 0.000000 0.000000 0.500000
O O8 0.500000 0.500000 0.500000
O O9 0.284647 0.581800 0.607282
O O10 0.287035 0.306343 0.454808
O O11 0.500000 0.500000 0.000000
O O12 0.500000 0.000000 0.500000
#
# Coordination Sequence:
#
# PCOD8037707 Si02
#       5
#     2   2   2   2   2
#     4  12  26  50  73 101 145 190 234 287 353 423
#     4  12  26  47  71 105 145 181 235 293 351 414
#     4  12  26  48  74 104 144 183 242 287 349 426
#     4  12  28  45  74 108 140 186 233 296 354 409
#     4  12  27  46  76 104 140 192 237 287 350 423
#
# _framework density 21.748401000000001
#
# number of rings (size 3 to 8) (size 9 to 14) (size 15 to 20)
#    0.000    0.000    4.000    5.400    8.400    1.600 
#    0.000    0.000    0.000    0.000    0.000    0.000 
#    0.000    0.000    0.000    0.000    0.000    0.000 
#
# Total GULP energy -124084.559600 kJ/mol
# GULP energy per Si atom -12408.455960 kJ/mol
# Density = 2.169890 g / cm^3
# Si number density = 21.748401 Si / 1000 Ang^3
#
#
#
# Elastic Constant Matrix: (Units=GPa)
#
#
# Indices 1 2 3 4 5 6 
#
# 1 109.9925 16.3487 51.7908 -18.7327 -6.6539 3.0996
# 2 16.3487 138.9814 51.6137 -11.9277 4.7965 -9.4844
# 3 51.7908 51.6137 140.4769 -16.0053 -6.2797 1.2319
# 4 -18.7327 -11.9277 -16.0053 57.4511 -6.6305 4.0797
# 5 -6.6539 4.7965 -6.2797 -6.6305 43.8778 -10.8463
# 6 3.0996 -9.4844 1.2319 4.0797 -10.8463 39.5769
#
#
#
# Elastic Compliance Matrix: (Units=1/GPa)
#
#
# Indices 1 2 3 4 5 6 
#
# 1 0.011508 0.000268 -0.003939 0.002921 0.001440 -0.000621
# 2 0.000268 0.008575 -0.003215 0.000750 -0.000789 0.001841
# 3 -0.003939 -0.003215 0.009923 0.000989 0.001188 -0.000547
# 4 0.002921 0.000750 0.000989 0.019235 0.003110 -0.001210
# 5 0.001440 -0.000789 0.001188 0.003110 0.025285 0.006270
# 6 -0.000621 0.001841 -0.000547 -0.001210 0.006270 0.027617
#
#
# Mechanical properties :
#
#
# Convention : Reuss Voigt Hill
#
# Bulk Modulus (GPa) = 61.60103 69.88414 65.74258
# Shear Modulus (GPa) = 41.21119 46.16099 43.68609
#
# Velocity S-wave (km/s) = 4.35778 4.61206 4.48672
# Velocity P-wave (km/s) = 7.32845 7.78230 7.55878
#
# Compressibility (1/GPa) = 0.01623350
#
# Stress axis : x y z
#
# Youngs Moduli (GPa) = 86.89336 116.61873 100.78087
#
# Poissons Ratio (x) = -0.03120 0.39693
# Poissons Ratio (y) = -0.02325 0.32403
# Poissons Ratio (z) = 0.34223 0.37495
#
# Static dielectric constant tensor:
#      x y z
#    x 3.849870 0.241780 -0.050670 
#    y 0.241780 3.950670 0.071320 
#    z -0.050670 0.071320 4.218660 
# 
# 
# High freq. dielectric constant tensor:
#      x y z
#    x 1.863580 -0.002270 -0.001870 
#    y -0.002270 1.879650 -0.000590 
#    z -0.001870 -0.000590 1.871860 
# 
# From -- ./inp_files/15176.got.cif
#   From: 2010.06.25/outbox.cif.g09.slc.cpg/sg2_8_cif.got.tgz:15176.got - 2010.06.27 13:26:56.
