data_PCOD8037966
_publ_section_title
;
Structure prediction by ZEFSAII (Michael W. Deem and Ramdas Pophale) SiO2 
 PCOD8037966
Probable space group: P -1
;
_chemical_formula_sum "Si O2"
_cell_formula_units_Z 14
_cell_length_a 15.357157
_cell_length_b 11.698545
_cell_length_c 7.994992
_cell_angle_alpha 78.879971
_cell_angle_beta 55.302300
_cell_angle_gamma 42.542100
_cell_volume 729.144123
_symmetry_space_group_name_H-M "P -1"
_symmetry_group_IT_number 2
_symmetry_cell_setting 'triclinic'
loop_
_space_group_symop_operation_xyz
x,y,z
-x,-y,-z
loop_
_atom_site_type_symbol
_atom_site_label
_atom_site_fract_x
_atom_site_fract_y
_atom_site_fract_z
Si Si1 0.390413 0.245028 0.656045
Si Si2 0.515646 0.468659 0.237413
Si Si3 0.294434 0.078558 0.780793
Si Si4 0.012111 0.180825 0.896131
Si Si5 0.445923 0.290990 0.239707
Si Si6 0.293804 0.463629 0.026148
Si Si7 0.238303 0.782298 0.674579
O O1 0.269778 0.235311 0.811004
O O2 0.340132 0.359152 0.508781
O O3 0.584253 0.034994 0.484431
O O4 0.377940 0.335866 0.806369
O O5 0.497123 0.383611 0.143325
O O6 0.328873 0.674201 0.431886
O O7 0.611291 0.323895 0.328227
O O8 0.629769 0.474423 0.043104
O O9 0.114432 0.177093 0.909405
O O10 0.384592 0.933170 0.877873
O O11 0.907078 0.350865 0.833010
O O12 0.132335 0.991690 0.713933
O O13 0.881967 0.220873 0.141431
O O14 0.334932 0.353585 0.179241
#
# Coordination Sequence:
#
# PCOD8037966 Si02
#       7
#     2   2   2   2   2   2   2
#     4   9  20  39  59  75 104 150 184 214 261 328
#     4  10  17  33  55  79 106 147 177 215 262 333
#     4   9  19  38  60  74 108 143 185 221 262 310
#     4  10  18  31  53  86 108 140 175 226 268 315
#     4  10  19  36  57  81 106 140 185 221 257 323
#     4  11  22  32  58  83 110 139 180 218 275 315
#     4   9  17  30  56  78 110 145 177 210 274 316
#
# _framework density 19.200595
#
# number of rings (size 3 to 8) (size 9 to 14) (size 15 to 20)
#    0.857    1.429    1.429    3.857    0.000    1.143 
#    0.000    1.429    9.429    0.000    0.000    0.000 
#    0.000    0.000    0.000    0.000    0.000    0.000 
#
# Total GULP energy -173502.866345 kJ/mol
# GULP energy per Si atom -12393.061882 kJ/mol
# Density = 1.915689 g / cm^3
# Si number density = 19.200595 Si / 1000 Ang^3
#
#
#
# Elastic Constant Matrix: (Units=GPa)
#
#
# Indices 1 2 3 4 5 6 
#
# 1 85.6238 55.7583 19.4407 -11.9705 -2.5587 -11.2458
# 2 55.7583 101.4340 25.2708 -0.7148 6.3806 -20.1922
# 3 19.4407 25.2708 37.3174 2.6687 6.5037 -14.9795
# 4 -11.9705 -0.7148 2.6687 24.4695 -8.8148 0.7824
# 5 -2.5587 6.3806 6.5037 -8.8148 29.2570 -2.8020
# 6 -11.2458 -20.1922 -14.9795 0.7824 -2.8020 34.5049
#
#
#
# Elastic Compliance Matrix: (Units=1/GPa)
#
#
# Indices 1 2 3 4 5 6 
#
# 1 0.023672 -0.012015 -0.008254 0.016237 0.011191 -0.002359
# 2 -0.012015 0.018509 -0.002426 -0.007512 -0.006283 0.005523
# 3 -0.008254 -0.002426 0.041030 -0.013355 -0.012090 0.013023
# 4 0.016237 -0.007512 -0.013355 0.058564 0.023256 -0.004342
# 5 0.011191 -0.006283 -0.012090 0.023256 0.046025 -0.002068
# 6 -0.002359 0.005523 0.013023 -0.004342 -0.002068 0.037029
#
#
# Mechanical properties :
#
#
# Convention : Reuss Voigt Hill
#
# Bulk Modulus (GPa) = 26.44026 47.25719 36.84872
# Shear Modulus (GPa) = 17.67872 25.90663 21.79268
#
# Velocity S-wave (km/s) = 3.03766 3.67721 3.37263
# Velocity P-wave (km/s) = 5.10917 6.53414 5.86509
#
# Compressibility (1/GPa) = 0.03782111
#
# Stress axis : x y z
#
# Youngs Moduli (GPa) = 42.24419 54.02658 24.37258
#
# Poissons Ratio (x) = 0.64914 0.20117
# Poissons Ratio (y) = 0.50757 0.05912
# Poissons Ratio (z) = 0.34868 0.13106
#
# Static dielectric constant tensor:
#      x y z
#    x 3.446750 0.023240 -0.095720 
#    y 0.023240 3.592680 0.080760 
#    z -0.095720 0.080760 3.122690 
# 
# 
# High freq. dielectric constant tensor:
#      x y z
#    x 1.743550 0.011070 -0.007210 
#    y 0.011070 1.741540 0.006480 
#    z -0.007210 0.006480 1.706950 
# 
# From -- ./inp_files/282448.got.cif
#   From: 2010.06.25/outbox.cif.g09.slc.cpg/sg2_142_cif.got.tgz:282448.got - 2010.06.27 13:26:56.
