data_PCOD8037154
_publ_section_title
;
Structure prediction by ZEFSAII (Michael W. Deem and Ramdas Pophale) SiO2 
 PCOD8037154
Probable space group: P -1
;
_chemical_formula_sum "Si O2"
_cell_formula_units_Z 16
_cell_length_a 9.426136
_cell_length_b 24.603431
_cell_length_c 8.547511
_cell_angle_alpha 139.151435
_cell_angle_beta 78.812899
_cell_angle_gamma 132.604441
_cell_volume 716.404447
_symmetry_space_group_name_H-M "P -1"
_symmetry_group_IT_number 2
_symmetry_cell_setting 'triclinic'
loop_
_space_group_symop_operation_xyz
x,y,z
-x,-y,-z
loop_
_atom_site_type_symbol
_atom_site_label
_atom_site_fract_x
_atom_site_fract_y
_atom_site_fract_z
Si Si1 0.435016 0.058913 0.081891
Si Si2 0.147987 0.185527 0.236853
Si Si3 0.996594 0.587113 0.770741
Si Si4 0.895885 0.991311 0.349564
Si Si5 0.449063 0.888789 0.191960
Si Si6 0.638605 0.701514 0.229356
Si Si7 0.489301 0.530115 0.393149
Si Si8 0.766184 0.353009 0.827858
O O1 0.611571 0.211734 0.455617
O O2 0.483534 0.081766 0.938721
O O3 0.500000 0.000000 0.000000
O O4 0.139743 0.935400 0.911413
O O5 0.339457 0.275328 0.538984
O O6 0.238065 0.299411 0.342739
O O7 0.163150 0.102323 0.976954
O O8 0.000000 0.500000 0.500000
O O9 0.713861 0.491676 0.632457
O O10 0.155838 0.725396 0.928640
O O11 0.123032 0.640140 0.029225
O O12 0.633511 0.910009 0.283095
O O13 0.000000 0.000000 0.500000
O O14 0.093343 0.153784 0.598522
O O15 0.500000 0.000000 0.500000
O O16 0.421501 0.659782 0.115518
O O17 0.567908 0.572427 0.934643
O O18 0.500000 0.500000 0.500000
O O19 0.000000 0.500000 0.000000
#
# Coordination Sequence:
#
# PCOD8037154 Si02
#       8
#     2   2   2   2   2   2   2   2
#     4  12  28  45  75 108 146 191 238 300 359 424
#     4  12  26  48  73 107 145 188 247 293 356 427
#     4  12  26  48  71 105 147 186 239 290 361 430
#     4  12  24  44  72 104 142 187 235 292 356 422
#     4  12  26  45  71 105 146 184 237 294 356 425
#     4  12  24  46  72 104 142 185 240 293 353 426
#     4  12  28  47  74 104 145 191 239 298 357 425
#     4  12  26  46  74 106 143 187 237 293 363 424
#
# _framework density 22.333755
#
# number of rings (size 3 to 8) (size 9 to 14) (size 15 to 20)
#    0.000    0.000    2.500    7.500    7.000    0.000 
#    0.000    0.000    0.000    0.000    0.000    0.000 
#    0.000    0.000    0.000    0.000    0.000    0.000 
#
# Total GULP energy -198520.207762 kJ/mol
# GULP energy per Si atom -12407.512985 kJ/mol
# Density = 2.228292 g / cm^3
# Si number density = 22.333755 Si / 1000 Ang^3
#
#
#
# Elastic Constant Matrix: (Units=GPa)
#
#
# Indices 1 2 3 4 5 6 
#
# 1 128.9231 32.3765 53.1573 -20.2612 -8.5794 0.2476
# 2 32.3765 136.1074 62.8702 7.3625 1.8657 -4.5791
# 3 53.1573 62.8702 139.0972 2.3512 -16.2904 9.1689
# 4 -20.2612 7.3625 2.3512 51.1838 -5.8573 -3.2906
# 5 -8.5794 1.8657 -16.2904 -5.8573 44.9635 -8.5578
# 6 0.2476 -4.5791 9.1689 -3.2906 -8.5578 34.6901
#
#
#
# Elastic Compliance Matrix: (Units=1/GPa)
#
#
# Indices 1 2 3 4 5 6 
#
# 1 0.010284 -0.001089 -0.003423 0.004675 0.001670 0.001543
# 2 -0.001089 0.009795 -0.004341 -0.001765 -0.002081 0.001767
# 3 -0.003423 -0.004341 0.010998 -0.001097 0.002824 -0.002863
# 4 0.004675 -0.001765 -0.001097 0.022362 0.004081 0.003151
# 5 0.001670 -0.002081 0.002824 0.004081 0.025263 0.005586
# 6 0.001543 0.001767 -0.002863 0.003151 0.005586 0.031483
#
#
# Mechanical properties :
#
#
# Convention : Reuss Voigt Hill
#
# Bulk Modulus (GPa) = 74.79552 77.88175 76.33863
# Shear Modulus (GPa) = 37.77896 43.21573 40.49735
#
# Velocity S-wave (km/s) = 4.11732 4.40363 4.26288
# Velocity P-wave (km/s) = 7.49438 7.79766 7.64752
#
# Compressibility (1/GPa) = 0.01336979
#
# Stress axis : x y z
#
# Youngs Moduli (GPa) = 97.23424 102.09279 90.92877
#
# Poissons Ratio (x) = 0.11118 0.31127
# Poissons Ratio (y) = 0.10589 0.39476
# Poissons Ratio (z) = 0.33285 0.44322
#
# Static dielectric constant tensor:
#      x y z
#    x 4.225550 -0.058350 0.013980 
#    y -0.058350 4.289040 0.032830 
#    z 0.013980 0.032830 4.262370 
# 
# 
# High freq. dielectric constant tensor:
#      x y z
#    x 1.893150 -0.000620 -0.003590 
#    y -0.000620 1.898620 0.003400 
#    z -0.003590 0.003400 1.896640 
# 
# From -- ./inp_files/226642.got.cif
#   From: 2010.06.25/outbox.cif.g09.slc.cpg/sg2_114_cif.got.tgz:226642.got - 2010.06.27 13:26:56.
