data_PCOD8037487
_publ_section_title
;
Structure prediction by ZEFSAII (Michael W. Deem and Ramdas Pophale) SiO2 
 PCOD8037487
Probable space group: P -1
;
_chemical_formula_sum "Si O2"
_cell_formula_units_Z 12
_cell_length_a 17.888754
_cell_length_b 9.965661
_cell_length_c 12.694511
_cell_angle_alpha 133.561850
_cell_angle_beta 20.000583
_cell_angle_gamma 131.492907
_cell_volume 559.874953
_symmetry_space_group_name_H-M "P -1"
_symmetry_group_IT_number 2
_symmetry_cell_setting 'triclinic'
loop_
_space_group_symop_operation_xyz
x,y,z
-x,-y,-z
loop_
_atom_site_type_symbol
_atom_site_label
_atom_site_fract_x
_atom_site_fract_y
_atom_site_fract_z
Si Si1 0.683482 0.947528 0.646657
Si Si2 0.560548 0.796033 0.337383
Si Si3 0.676545 0.464339 0.659651
Si Si4 0.423542 0.698694 0.695430
Si Si5 0.951380 0.809598 0.398324
Si Si6 0.045263 0.837197 0.768108
O O1 0.555920 0.801317 0.665913
O O2 0.880723 0.859505 0.400579
O O3 0.784532 0.106951 0.520965
O O4 0.500000 0.000000 0.000000
O O5 0.437954 0.638218 0.343865
O O6 0.484210 0.783737 0.550326
O O7 0.500000 0.000000 0.500000
O O8 0.819757 0.772026 0.973595
O O9 0.768950 0.670992 0.618443
O O10 0.864984 0.337472 0.384086
O O11 0.500000 0.500000 0.000000
O O12 0.500000 0.500000 0.500000
O O13 0.165593 0.696537 0.050896
O O14 0.000000 0.000000 0.500000
O O15 0.000000 0.000000 0.000000
#
# Coordination Sequence:
#
# PCOD8037487 Si02
#       6
#     2   2   2   2   2   2
#     4  12  25  46  74 106 147 191 244 300 367 436
#     4  12  25  45  76 106 145 190 240 305 364 432
#     4  12  29  48  73 112 148 191 249 301 365 441
#     4  12  26  44  71 105 143 185 247 302 362 427
#     4  12  28  47  74 105 148 197 241 299 369 431
#     4  12  25  47  77 107 146 194 243 299 371 435
#
# _framework density 21.433357000000001
#
# number of rings (size 3 to 8) (size 9 to 14) (size 15 to 20)
#    0.000    0.000    5.000    4.000    4.667    2.000 
#    0.000    0.000    0.000    0.000    0.000    0.000 
#    0.000    0.000    0.000    0.000    0.000    0.000 
#
# Total GULP energy -148793.857608 kJ/mol
# GULP energy per Si atom -12399.488134 kJ/mol
# Density = 2.138457 g / cm^3
# Si number density = 21.433357 Si / 1000 Ang^3
#
#
#
# Elastic Constant Matrix: (Units=GPa)
#
#
# Indices 1 2 3 4 5 6 
#
# 1 170.9543 67.5915 53.8926 4.8924 -5.7188 11.1373
# 2 67.5915 143.5727 49.3493 -1.8259 7.5958 4.1891
# 3 53.8926 49.3493 123.2339 0.9226 -2.1381 10.9552
# 4 4.8924 -1.8259 0.9226 39.3314 -5.6999 -4.0886
# 5 -5.7188 7.5958 -2.1381 -5.6999 52.7999 -1.5778
# 6 11.1373 4.1891 10.9552 -4.0886 -1.5778 41.9892
#
#
#
# Elastic Compliance Matrix: (Units=1/GPa)
#
#
# Indices 1 2 3 4 5 6 
#
# 1 0.007846 -0.003008 -0.002085 -0.001050 0.001046 -0.001300
# 2 -0.003008 0.009322 -0.002498 0.000676 -0.001679 0.000522
# 3 -0.002085 -0.002498 0.010202 -0.000222 0.000467 -0.001864
# 4 -0.001050 0.000676 -0.000222 0.026289 0.002705 0.002930
# 5 0.001046 -0.001679 0.000467 0.002705 0.019628 0.000769
# 6 -0.001300 0.000522 -0.001864 0.002930 0.000769 0.024909
#
#
# Mechanical properties :
#
#
# Convention : Reuss Voigt Hill
#
# Bulk Modulus (GPa) = 82.04847 86.60309 84.32578
# Shear Modulus (GPa) = 42.57454 44.61925 43.59689
#
# Velocity S-wave (km/s) = 4.46170 4.56759 4.51496
# Velocity P-wave (km/s) = 8.05644 8.26502 8.16140
#
# Compressibility (1/GPa) = 0.01218792
#
# Stress axis : x y z
#
# Youngs Moduli (GPa) = 127.45781 107.27277 98.01614
#
# Poissons Ratio (x) = 0.32264 0.20437
# Poissons Ratio (y) = 0.38335 0.24488
# Poissons Ratio (z) = 0.26576 0.26800
#
# Static dielectric constant tensor:
#      x y z
#    x 4.333980 0.042070 -0.227470 
#    y 0.042070 4.163980 -0.185060 
#    z -0.227470 -0.185060 4.229080 
# 
# 
# High freq. dielectric constant tensor:
#      x y z
#    x 1.867860 -0.003690 -0.007950 
#    y -0.003690 1.851280 -0.005360 
#    z -0.007950 -0.005360 1.857200 
# 
# From -- ./inp_files/149777.got.cif
#   From: 2010.06.25/outbox.cif.g09.slc.cpg/sg2_75_cif.got.tgz:149777.got - 2010.06.27 13:26:56.
