data_PCOD8037514
_publ_section_title
;
Structure prediction by ZEFSAII (Michael W. Deem and Ramdas Pophale) SiO2 
 PCOD8037514
Probable space group: P -1
;
_chemical_formula_sum "Si O2"
_cell_formula_units_Z 14
_cell_length_a 8.317626
_cell_length_b 8.683089
_cell_length_c 12.150627
_cell_angle_alpha 61.626013
_cell_angle_beta 72.885495
_cell_angle_gamma 110.909255
_cell_volume 595.421803
_symmetry_space_group_name_H-M "P -1"
_symmetry_group_IT_number 2
_symmetry_cell_setting 'triclinic'
loop_
_space_group_symop_operation_xyz
x,y,z
-x,-y,-z
loop_
_atom_site_type_symbol
_atom_site_label
_atom_site_fract_x
_atom_site_fract_y
_atom_site_fract_z
Si Si1 0.011089 0.208400 0.229980
Si Si2 0.746271 0.320982 0.928442
Si Si3 0.039521 0.636822 0.336859
Si Si4 0.620432 0.526642 0.359512
Si Si5 0.171074 0.010290 0.891387
Si Si6 0.626033 0.920164 0.552683
Si Si7 0.322694 0.109011 0.200899
O O1 0.078046 0.453438 0.121851
O O2 0.228857 0.242905 0.195193
O O3 0.897926 0.073377 0.189912
O O4 0.863372 0.080030 0.408297
O O5 0.796635 0.367967 0.771936
O O6 0.758207 0.124995 0.022433
O O7 0.514424 0.241517 0.032404
O O8 0.000000 0.500000 0.500000
O O9 0.830685 0.548412 0.339056
O O10 0.136357 0.881953 0.264918
O O11 0.500000 0.500000 0.500000
O O12 0.478582 0.327429 0.373922
O O13 0.648207 0.734077 0.228780
O O14 0.000000 0.000000 0.000000
O O15 0.608064 0.932087 0.683311
O O16 0.500000 0.000000 0.500000
#
# Coordination Sequence:
#
# PCOD8037514 Si02
#       7
#     2   2   2   2   2   2   2
#     4  12  25  49  70 109 150 189 243 302 361 429
#     4  12  27  46  73 110 145 192 241 301 367 432
#     4  12  26  49  73 105 148 190 241 301 362 434
#     4  12  25  48  73 108 142 192 243 294 360 434
#     4  12  25  46  75 104 151 189 242 300 364 428
#     4  12  26  46  77 108 145 194 247 293 361 434
#     4  12  26  48  72 108 147 191 242 302 362 428
#
# _framework density 23.512744999999999
#
# number of rings (size 3 to 8) (size 9 to 14) (size 15 to 20)
#    0.000    0.000    4.286    5.143    4.000    1.143 
#    2.571    0.000    0.000    0.000    0.000    0.000 
#    0.000    0.000    0.000    0.000    0.000    0.000 
#
# Total GULP energy -173619.540204 kJ/mol
# GULP energy per Si atom -12401.395729 kJ/mol
# Density = 2.345923 g / cm^3
# Si number density = 23.512745 Si / 1000 Ang^3
#
#
#
# Elastic Constant Matrix: (Units=GPa)
#
#
# Indices 1 2 3 4 5 6 
#
# 1 96.6762 19.2727 49.3025 0.2116 -13.6758 -16.2378
# 2 19.2727 100.9154 46.6809 -24.4660 -9.7451 -17.5539
# 3 49.3025 46.6809 173.2776 -1.7295 -22.5593 -17.8007
# 4 0.2116 -24.4660 -1.7295 63.9811 -5.6055 -0.4452
# 5 -13.6758 -9.7451 -22.5593 -5.6055 40.5574 2.0297
# 6 -16.2378 -17.5539 -17.8007 -0.4452 2.0297 33.4064
#
#
#
# Elastic Compliance Matrix: (Units=1/GPa)
#
#
# Indices 1 2 3 4 5 6 
#
# 1 0.012946 -0.000085 -0.002859 0.000102 0.002540 0.004572
# 2 -0.000085 0.013696 -0.002747 0.005395 0.002198 0.005630
# 3 -0.002859 -0.002747 0.007769 -0.000599 0.002557 0.001143
# 4 0.000102 0.005395 -0.000599 0.017988 0.003353 0.002601
# 5 0.002540 0.002198 0.002557 0.003353 0.027821 0.002106
# 6 0.004572 0.005630 0.001143 0.002601 0.002106 0.035631
#
#
# Mechanical properties :
#
#
# Convention : Reuss Voigt Hill
#
# Bulk Modulus (GPa) = 43.42445 66.82013 55.12229
# Shear Modulus (GPa) = 37.06202 44.62986 40.84594
#
# Velocity S-wave (km/s) = 3.97451 4.36146 4.17247
# Velocity P-wave (km/s) = 6.29054 7.33781 6.83427
#
# Compressibility (1/GPa) = 0.02302850
#
# Stress axis : x y z
#
# Youngs Moduli (GPa) = 77.24536 73.01532 128.71476
#
# Poissons Ratio (x) = 0.00617 0.36804
# Poissons Ratio (y) = 0.00653 0.35360
# Poissons Ratio (z) = 0.22087 0.20059
#
# Static dielectric constant tensor:
#      x y z
#    x 3.892230 -0.280850 -0.081880 
#    y -0.280850 4.461350 0.044080 
#    z -0.081880 0.044080 4.585890 
# 
# 
# High freq. dielectric constant tensor:
#      x y z
#    x 1.918820 -0.012710 -0.009820 
#    y -0.012710 1.951630 -0.002880 
#    z -0.009820 -0.002880 1.952180 
# 
# From -- ./inp_files/158588.got.cif
#   From: 2010.06.25/outbox.cif.g09.slc.cpg/sg2_80_cif.got.tgz:158588.got - 2010.06.27 13:26:56.
