data_PCOD8037773
_publ_section_title
;
Structure prediction by ZEFSAII (Michael W. Deem and Ramdas Pophale) SiO2 
 PCOD8037773
Probable space group: P -1
;
_chemical_formula_sum "Si O2"
_cell_formula_units_Z 14
_cell_length_a 9.008706
_cell_length_b 11.221692
_cell_length_c 14.156073
_cell_angle_alpha 128.980138
_cell_angle_beta 151.080233
_cell_angle_gamma 58.984875
_cell_volume 535.589923
_symmetry_space_group_name_H-M "P -1"
_symmetry_group_IT_number 2
_symmetry_cell_setting 'triclinic'
loop_
_space_group_symop_operation_xyz
x,y,z
-x,-y,-z
loop_
_atom_site_type_symbol
_atom_site_label
_atom_site_fract_x
_atom_site_fract_y
_atom_site_fract_z
Si Si1 0.633048 0.162597 0.113217
Si Si2 0.529525 0.285456 0.472756
Si Si3 0.790889 0.949549 0.693639
Si Si4 0.071726 0.270616 0.055267
Si Si5 0.867312 0.827624 0.318747
Si Si6 0.572739 0.537057 0.777768
Si Si7 0.509180 0.623514 0.147243
O O1 0.602851 0.305771 0.239203
O O2 0.002623 0.167469 0.303654
O O3 0.444687 0.186371 0.923386
O O4 0.500000 0.000000 0.000000
O O5 0.346971 0.124618 0.323915
O O6 0.392626 0.321954 0.312743
O O7 0.459273 0.415774 0.573384
O O8 0.891034 0.265817 0.651681
O O9 0.500000 0.000000 0.500000
O O10 0.041222 0.094299 0.920139
O O11 0.079776 0.386123 0.024419
O O12 0.798890 0.290752 0.986039
O O13 0.792736 0.749404 0.341314
O O14 0.000000 0.000000 0.500000
O O15 0.495499 0.451872 0.790188
O O16 0.500000 0.500000 0.000000
#
# Coordination Sequence:
#
# PCOD8037773 Si02
#       7
#     2   2   2   2   2   2   2
#     4  12  26  50  81 113 158 204 265 325 398 470
#     4  12  28  50  79 120 159 211 266 322 401 465
#     4  12  26  50  81 115 152 211 265 324 396 475
#     4  12  26  53  77 112 164 208 259 326 394 477
#     4  12  27  51  82 118 159 209 264 326 390 473
#     4  12  28  50  83 112 162 208 264 330 398 470
#     4  12  26  49  79 113 159 206 262 325 397 461
#
# _framework density 26.139403000000001
#
# number of rings (size 3 to 8) (size 9 to 14) (size 15 to 20)
#    0.000    0.000    2.857    6.429    2.000    1.714 
#    2.571    0.000    0.000    0.000    0.000    0.000 
#    0.000    0.000    0.000    0.000    0.000    0.000 
#
# Total GULP energy -173505.308112 kJ/mol
# GULP energy per Si atom -12393.236294 kJ/mol
# Density = 2.607991 g / cm^3
# Si number density = 26.139403 Si / 1000 Ang^3
#
#
#
# Elastic Constant Matrix: (Units=GPa)
#
#
# Indices 1 2 3 4 5 6 
#
# 1 202.6059 86.9245 67.0607 15.3803 22.0270 6.9651
# 2 86.9245 131.8775 58.1935 26.3615 5.3144 2.3432
# 3 67.0607 58.1935 103.8177 13.3760 1.0161 -1.8922
# 4 15.3803 26.3615 13.3760 48.5233 -1.2575 13.0310
# 5 22.0270 5.3144 1.0161 -1.2575 54.9121 13.6483
# 6 6.9651 2.3432 -1.8922 13.0310 13.6483 63.7753
#
#
#
# Elastic Compliance Matrix: (Units=1/GPa)
#
#
# Indices 1 2 3 4 5 6 
#
# 1 0.007814 -0.003830 -0.002937 0.000434 -0.002618 -0.000328
# 2 -0.003830 0.012872 -0.004101 -0.004864 0.000055 0.000806
# 3 -0.002937 -0.004101 0.013946 -0.000881 0.001090 0.000832
# 4 0.000434 -0.004864 -0.000881 0.024880 0.002239 -0.005458
# 5 -0.002618 0.000055 0.001090 0.002239 0.020407 -0.004509
# 6 -0.000328 0.000806 0.000832 -0.005458 -0.004509 0.017791
#
#
# Mechanical properties :
#
#
# Convention : Reuss Voigt Hill
#
# Bulk Modulus (GPa) = 77.53531 95.85095 86.69313
# Shear Modulus (GPa) = 40.40578 48.51695 44.46137
#
# Velocity S-wave (km/s) = 3.93591 4.31290 4.12871
# Velocity P-wave (km/s) = 7.09801 7.84540 7.48104
#
# Compressibility (1/GPa) = 0.01289735
#
# Stress axis : x y z
#
# Youngs Moduli (GPa) = 127.97842 77.68544 71.70560
#
# Poissons Ratio (x) = 0.29752 0.21059
# Poissons Ratio (y) = 0.49013 0.29405
# Poissons Ratio (z) = 0.37585 0.31857
#
# Static dielectric constant tensor:
#      x y z
#    x 6.809200 0.233370 0.227810 
#    y 0.233370 5.394200 0.223000 
#    z 0.227810 0.223000 4.454540 
# 
# 
# High freq. dielectric constant tensor:
#      x y z
#    x 2.077530 0.000840 0.014720 
#    y 0.000840 2.069660 0.017520 
#    z 0.014720 0.017520 2.027750 
# 
# From -- ./inp_files/500924.got.cif
#   From: 2010.06.25/outbox.cif.g09.slc.cpg/sg2_251_cif.got.tgz:500924.got - 2010.06.27 13:26:56.
