data_PCOD8037413
_publ_section_title
;
Structure prediction by ZEFSAII (Michael W. Deem and Ramdas Pophale) SiO2 
 PCOD8037413
Probable space group: P -1
;
_chemical_formula_sum "Si O2"
_cell_formula_units_Z 16
_cell_length_a 18.101548
_cell_length_b 8.778818
_cell_length_c 8.596255
_cell_angle_alpha 79.987950
_cell_angle_beta 40.335903
_cell_angle_gamma 59.109250
_cell_volume 698.179050
_symmetry_space_group_name_H-M "P -1"
_symmetry_group_IT_number 2
_symmetry_cell_setting 'triclinic'
loop_
_space_group_symop_operation_xyz
x,y,z
-x,-y,-z
loop_
_atom_site_type_symbol
_atom_site_label
_atom_site_fract_x
_atom_site_fract_y
_atom_site_fract_z
Si Si1 0.370838 0.506953 0.634762
Si Si2 0.098654 0.838960 0.164237
Si Si3 0.357071 0.164647 0.780574
Si Si4 0.360150 0.619219 0.305658
Si Si5 0.830110 0.404982 0.600789
Si Si6 0.654755 0.843122 0.847703
Si Si7 0.107255 0.173129 0.044310
Si Si8 0.826731 0.955921 0.391191
O O1 0.500000 0.500000 0.500000
O O2 0.355549 0.350584 0.760931
O O3 0.390168 0.475812 0.423735
O O4 0.224928 0.714999 0.860616
O O5 0.117518 0.709246 0.301294
O O6 0.950893 0.927012 0.300699
O O7 0.109981 0.009959 0.168205
O O8 0.231090 0.193948 0.876652
O O9 0.500000 0.000000 0.500000
O O10 0.347349 0.102834 0.979392
O O11 0.227737 0.682817 0.400199
O O12 0.315712 0.820834 0.415727
O O13 0.500000 0.500000 0.000000
O O14 0.700462 0.627600 0.798469
O O15 0.961912 0.374996 0.299157
O O16 0.777872 0.833615 0.562083
O O17 0.500000 0.000000 0.000000
O O18 0.111269 0.124364 0.865560
#
# Coordination Sequence:
#
# PCOD8037413 Si02
#       8
#     2   2   2   2   2   2   2   2
#     4  12  27  49  77 103 147 193 244 299 360 435
#     4  12  24  50  75 107 148 191 244 302 358 432
#     4  12  29  48  75 107 146 196 240 299 368 427
#     4  12  27  46  76 109 143 193 247 296 362 431
#     4  12  27  47  76 108 146 196 244 297 366 429
#     4  12  29  50  71 106 152 190 243 306 362 431
#     4  12  26  48  76 109 149 190 243 299 365 431
#     4  12  27  47  75 108 150 192 241 304 361 427
#
# _framework density 22.916758000000002
#
# number of rings (size 3 to 8) (size 9 to 14) (size 15 to 20)
#    0.000    0.000    3.750    5.250   10.500    1.500 
#    0.000    0.000    0.000    0.000    0.000    0.000 
#    0.000    0.000    0.000    0.000    0.000    0.000 
#
# Total GULP energy -198434.816286 kJ/mol
# GULP energy per Si atom -12402.176018 kJ/mol
# Density = 2.286460 g / cm^3
# Si number density = 22.916758 Si / 1000 Ang^3
#
#
#
# Elastic Constant Matrix: (Units=GPa)
#
#
# Indices 1 2 3 4 5 6 
#
# 1 130.6435 40.6508 54.8915 -2.5333 -7.1628 -5.8272
# 2 40.6508 103.1453 39.7159 3.5951 -2.8035 -0.0840
# 3 54.8915 39.7159 162.1026 10.8444 2.5471 -10.5848
# 4 -2.5333 3.5951 10.8444 42.7696 1.5748 -1.1001
# 5 -7.1628 -2.8035 2.5471 1.5748 53.0708 -9.5667
# 6 -5.8272 -0.0840 -10.5848 -1.1001 -9.5667 35.8622
#
#
#
# Elastic Compliance Matrix: (Units=1/GPa)
#
#
# Indices 1 2 3 4 5 6 
#
# 1 0.009831 -0.002856 -0.002670 0.001477 0.001484 0.001244
# 2 -0.002856 0.011576 -0.001888 -0.000694 0.000162 -0.000973
# 3 -0.002670 -0.001888 0.007780 -0.001912 -0.000475 0.001673
# 4 0.001477 -0.000694 -0.001912 0.024034 -0.000404 0.000304
# 5 0.001484 0.000162 -0.000475 -0.000404 0.020067 0.005442
# 6 0.001244 -0.000973 0.001673 0.000304 0.005442 0.030039
#
#
# Mechanical properties :
#
#
# Convention : Reuss Voigt Hill
#
# Bulk Modulus (GPa) = 69.65225 74.04530 71.84878
# Shear Modulus (GPa) = 40.66937 43.71607 42.19272
#
# Velocity S-wave (km/s) = 4.21724 4.37235 4.29549
# Velocity P-wave (km/s) = 7.36023 7.60727 7.48477
#
# Compressibility (1/GPa) = 0.01435704
#
# Stress axis : x y z
#
# Youngs Moduli (GPa) = 101.72422 86.38740 128.53024
#
# Poissons Ratio (x) = 0.24676 0.34316
# Poissons Ratio (y) = 0.29056 0.24273
# Poissons Ratio (z) = 0.27159 0.16314
#
# Static dielectric constant tensor:
#      x y z
#    x 4.012210 -0.018720 0.083560 
#    y -0.018720 4.138810 -0.010380 
#    z 0.083560 -0.010380 4.371710 
# 
# 
# High freq. dielectric constant tensor:
#      x y z
#    x 1.907340 -0.001910 0.006200 
#    y -0.001910 1.906500 0.004660 
#    z 0.006200 0.004660 1.934480 
# 
# From -- ./inp_files/328802.got.cif
#   From: 2010.06.25/outbox.cif.g09.slc.cpg/sg2_165_cif.got.tgz:328802.got - 2010.06.27 13:26:56.
