data_PCOD8037550
_publ_section_title
;
Structure prediction by ZEFSAII (Michael W. Deem and Ramdas Pophale) SiO2 
 PCOD8037550
Probable space group: P -1
;
_chemical_formula_sum "Si O2"
_cell_formula_units_Z 16
_cell_length_a 14.701353
_cell_length_b 9.249265
_cell_length_c 8.839328
_cell_angle_alpha 68.919406
_cell_angle_beta 82.649243
_cell_angle_gamma 41.239492
_cell_volume 719.183603
_symmetry_space_group_name_H-M "P -1"
_symmetry_group_IT_number 2
_symmetry_cell_setting 'triclinic'
loop_
_space_group_symop_operation_xyz
x,y,z
-x,-y,-z
loop_
_atom_site_type_symbol
_atom_site_label
_atom_site_fract_x
_atom_site_fract_y
_atom_site_fract_z
Si Si1 0.702050 0.876124 0.614877
Si Si2 0.373088 0.569813 0.919929
Si Si3 0.049167 0.068647 0.858075
Si Si4 0.640392 0.304185 0.454491
Si Si5 0.127669 0.781981 0.455367
Si Si6 0.990092 0.477323 0.836071
Si Si7 0.227439 0.329798 0.645350
Si Si8 0.479501 0.097464 0.132739
O O1 0.762984 0.704115 0.523914
O O2 0.582094 0.938636 0.711837
O O3 0.830450 0.736922 0.751516
O O4 0.654240 0.106310 0.481487
O O5 0.383634 0.563464 0.739922
O O6 0.218156 0.839840 0.884991
O O7 0.500000 0.500000 0.000000
O O8 0.384926 0.374979 0.042514
O O9 0.015175 0.266388 0.880888
O O10 0.947664 0.183775 0.691737
O O11 0.000000 0.000000 0.000000
O O12 0.500000 0.500000 0.500000
O O13 0.766025 0.207642 0.573512
O O14 0.220494 0.522895 0.604734
O O15 0.000000 0.000000 0.500000
O O16 0.087658 0.443375 0.710406
O O17 0.000000 0.500000 0.000000
O O18 0.361171 0.070562 0.786910
O O19 0.500000 0.000000 0.000000
#
# Coordination Sequence:
#
# PCOD8037550 Si02
#       8
#     2   2   2   2   2   2   2   2
#     4  12  25  47  73 105 143 191 246 300 361 434
#     4  12  27  48  72 106 151 193 241 302 367 439
#     4  12  28  47  73 109 149 192 242 299 372 437
#     4  12  27  46  75 107 144 192 248 301 368 434
#     4  12  26  47  76 107 148 190 242 307 365 436
#     4  12  27  46  73 107 146 189 241 302 368 437
#     4  12  26  47  74 104 143 190 245 300 364 435
#     4  12  26  47  72 106 148 193 242 297 367 439
#
# _framework density 22.247447999999999
#
# number of rings (size 3 to 8) (size 9 to 14) (size 15 to 20)
#    0.000    0.000    2.500    7.500    5.250    0.000 
#    0.000    0.000    0.000    0.000    0.000    0.000 
#    0.000    0.000    0.000    0.000    0.000    0.000 
#
# Total GULP energy -198308.885089 kJ/mol
# GULP energy per Si atom -12394.305318 kJ/mol
# Density = 2.219681 g / cm^3
# Si number density = 22.247448 Si / 1000 Ang^3
#
#
#
# Elastic Constant Matrix: (Units=GPa)
#
#
# Indices 1 2 3 4 5 6 
#
# 1 122.8754 47.4815 32.2165 3.8612 1.2585 2.6867
# 2 47.4815 121.9663 44.7676 6.5488 -1.1817 1.7465
# 3 32.2165 44.7676 97.9999 5.4830 7.2690 17.0376
# 4 3.8612 6.5488 5.4830 50.8678 1.3481 1.6723
# 5 1.2585 -1.1817 7.2690 1.3481 51.1858 -8.0491
# 6 2.6867 1.7465 17.0376 1.6723 -8.0491 47.2304
#
#
#
# Elastic Compliance Matrix: (Units=1/GPa)
#
#
# Indices 1 2 3 4 5 6 
#
# 1 0.009835 -0.003156 -0.001819 -0.000151 -0.000018 0.000216
# 2 -0.003156 0.011048 -0.004327 -0.000800 0.001215 0.001567
# 3 -0.001819 -0.004327 0.013929 -0.000559 -0.002840 -0.005225
# 4 -0.000151 -0.000800 -0.000559 0.019866 -0.000546 -0.000557
# 5 -0.000018 0.001215 -0.002840 -0.000546 0.020695 0.004527
# 6 0.000216 0.001567 -0.005225 -0.000557 0.004527 0.023779
#
#
# Mechanical properties :
#
#
# Convention : Reuss Voigt Hill
#
# Bulk Modulus (GPa) = 61.69970 65.75255 63.72612
# Shear Modulus (GPa) = 40.59753 44.41521 42.50637
#
# Velocity S-wave (km/s) = 4.27642 4.47298 4.37580
# Velocity P-wave (km/s) = 7.22339 7.50306 7.36455
#
# Compressibility (1/GPa) = 0.01620753
#
# Stress axis : x y z
#
# Youngs Moduli (GPa) = 101.67634 90.51140 71.79140
#
# Poissons Ratio (x) = 0.28568 0.13059
# Poissons Ratio (y) = 0.32092 0.31066
# Poissons Ratio (z) = 0.18495 0.39166
#
# Static dielectric constant tensor:
#      x y z
#    x 4.066990 -0.139120 0.080980 
#    y -0.139120 3.861360 0.128810 
#    z 0.080980 0.128810 3.827760 
# 
# 
# High freq. dielectric constant tensor:
#      x y z
#    x 1.889570 -0.001080 0.002920 
#    y -0.001080 1.900850 -0.004080 
#    z 0.002920 -0.004080 1.886520 
# 
# From -- ./inp_files/189165.got.cif
#   From: 2010.06.25/outbox.cif.g09.slc.cpg/sg2_95_cif.got.tgz:189165.got - 2010.06.27 13:26:56.
