data_PCOD8037014
_publ_section_title
;
Structure prediction by ZEFSAII (Michael W. Deem and Ramdas Pophale) SiO2 
 PCOD8037014
Probable space group: P -1
;
_chemical_formula_sum "Si O2"
_cell_formula_units_Z 16
_cell_length_a 9.314016
_cell_length_b 13.842222
_cell_length_c 14.458322
_cell_angle_alpha 31.701454
_cell_angle_beta 87.923239
_cell_angle_gamma 109.107543
_cell_volume 715.887762
_symmetry_space_group_name_H-M "P -1"
_symmetry_group_IT_number 2
_symmetry_cell_setting 'triclinic'
loop_
_space_group_symop_operation_xyz
x,y,z
-x,-y,-z
loop_
_atom_site_type_symbol
_atom_site_label
_atom_site_fract_x
_atom_site_fract_y
_atom_site_fract_z
Si Si1 0.879416 0.966187 0.776519
Si Si2 0.981440 0.434419 0.447889
Si Si3 0.799810 0.807592 0.107363
Si Si4 0.611004 0.062552 0.351621
Si Si5 0.412485 0.742763 0.442400
Si Si6 0.456787 0.602119 0.000325
Si Si7 0.858228 0.930950 0.476638
Si Si8 0.655984 0.024278 0.033357
O O1 0.668384 0.841846 0.841215
O O2 0.837879 0.811600 0.994509
O O3 0.018666 0.254610 0.572109
O O4 0.015433 0.972908 0.697869
O O5 0.000000 0.500000 0.500000
O O6 0.760343 0.262528 0.558537
O O7 0.138797 0.695308 0.178745
O O8 0.674419 0.525254 0.370112
O O9 0.673268 0.870907 0.087674
O O10 0.000000 0.000000 0.000000
O O11 0.650130 0.299283 0.111305
O O12 0.500000 0.000000 0.500000
O O13 0.490237 0.825799 0.477451
O O14 0.796806 0.094283 0.348626
O O15 0.589998 0.928109 0.216957
O O16 0.500000 0.500000 0.000000
O O17 0.322851 0.374222 0.263939
O O18 0.000000 0.000000 0.500000
O O19 0.500000 0.000000 0.000000
#
# Coordination Sequence:
#
# PCOD8037014 Si02
#       8
#     2   2   2   2   2   2   2   2
#     4  12  26  48  76 105 154 198 246 314 380 442
#     4  12  23  47  71 104 150 194 242 306 369 437
#     4  12  26  47  71 104 152 195 241 312 370 442
#     4  12  27  49  79 109 150 200 253 311 382 451
#     4  12  26  46  74 108 145 194 253 303 376 447
#     4  12  25  52  78 109 152 196 251 317 382 451
#     4  12  28  50  77 116 150 198 255 316 384 459
#     4  12  26  45  74 107 145 196 249 301 372 449
#
# _framework density 22.349871
#
# number of rings (size 3 to 8) (size 9 to 14) (size 15 to 20)
#    0.000    0.000    7.500    1.125    3.500    1.500 
#    0.000    0.000    0.000    0.000    0.000    0.000 
#    0.000    0.000    0.000    0.000    0.000    0.000 
#
# Total GULP energy -198295.773113 kJ/mol
# GULP energy per Si atom -12393.485820 kJ/mol
# Density = 2.229900 g / cm^3
# Si number density = 22.349871 Si / 1000 Ang^3
#
#
#
# Elastic Constant Matrix: (Units=GPa)
#
#
# Indices 1 2 3 4 5 6 
#
# 1 147.8853 48.9738 39.3167 10.6771 6.7151 -10.3503
# 2 48.9738 136.4838 37.7322 8.8350 -11.5163 -2.2813
# 3 39.3167 37.7322 137.7443 4.0914 -10.0942 -10.4504
# 4 10.6771 8.8350 4.0914 45.0431 -10.0868 1.7405
# 5 6.7151 -11.5163 -10.0942 -10.0868 43.7144 3.2344
# 6 -10.3503 -2.2813 -10.4504 1.7405 3.2344 32.9785
#
#
#
# Elastic Compliance Matrix: (Units=1/GPa)
#
#
# Indices 1 2 3 4 5 6 
#
# 1 0.008561 -0.002687 -0.001689 -0.002131 -0.003081 0.002380
# 2 -0.002687 0.008935 -0.001565 -0.000404 0.002381 -0.000933
# 3 -0.001689 -0.001565 0.008429 0.000254 0.001715 0.001851
# 4 -0.002131 -0.000404 0.000254 0.024213 0.006051 -0.002487
# 5 -0.003081 0.002381 0.001715 0.006051 0.026000 -0.003128
# 6 0.002380 -0.000933 0.001851 -0.002487 -0.003128 0.032030
#
#
# Mechanical properties :
#
#
# Convention : Reuss Voigt Hill
#
# Bulk Modulus (GPa) = 71.21134 74.90654 73.05894
# Shear Modulus (GPa) = 40.08549 44.08656 42.08603
#
# Velocity S-wave (km/s) = 4.23962 4.44617 4.34413
# Velocity P-wave (km/s) = 7.47644 7.74249 7.61063
#
# Compressibility (1/GPa) = 0.01404271
#
# Stress axis : x y z
#
# Youngs Moduli (GPa) = 116.80330 111.91654 118.63343
#
# Poissons Ratio (x) = 0.30074 0.20043
# Poissons Ratio (y) = 0.31388 0.18565
# Poissons Ratio (z) = 0.19734 0.17514
#
# Static dielectric constant tensor:
#      x y z
#    x 4.694570 -0.218660 -0.176840 
#    y -0.218660 4.163670 0.061490 
#    z -0.176840 0.061490 4.409970 
# 
# 
# High freq. dielectric constant tensor:
#      x y z
#    x 1.890140 -0.005070 0.003060 
#    y -0.005070 1.889910 -0.000350 
#    z 0.003060 -0.000350 1.886860 
# 
# From -- ./inp_files/505031.got.cif
#   From: 2010.06.25/outbox.cif.g09.slc.cpg/sg2_253_cif.got.tgz:505031.got - 2010.06.27 13:26:56.
