data_PCOD8037050
_publ_section_title
;
Structure prediction by ZEFSAII (Michael W. Deem and Ramdas Pophale) SiO2 
 PCOD8037050
Probable space group: P -1
;
_chemical_formula_sum "Si O2"
_cell_formula_units_Z 16
_cell_length_a 8.853424
_cell_length_b 8.950707
_cell_length_c 14.742727
_cell_angle_alpha 139.704514
_cell_angle_beta 110.373543
_cell_angle_gamma 67.332252
_cell_volume 694.316208
_symmetry_space_group_name_H-M "P -1"
_symmetry_group_IT_number 2
_symmetry_cell_setting 'triclinic'
loop_
_space_group_symop_operation_xyz
x,y,z
-x,-y,-z
loop_
_atom_site_type_symbol
_atom_site_label
_atom_site_fract_x
_atom_site_fract_y
_atom_site_fract_z
Si Si1 0.332493 0.956958 0.487640
Si Si2 0.204882 0.043756 0.316509
Si Si3 0.182823 0.025763 0.022885
Si Si4 0.816112 0.446539 0.687163
Si Si5 0.321093 0.656342 0.023359
Si Si6 0.325108 0.480596 0.491797
Si Si7 0.840598 0.103976 0.242687
Si Si8 0.158143 0.237487 0.745727
O O1 0.337246 0.678523 0.376366
O O2 0.500000 0.000000 0.500000
O O3 0.192294 0.033939 0.417866
O O4 0.290331 0.102996 0.639239
O O5 0.332572 0.210055 0.394777
O O6 0.024685 0.148284 0.288384
O O7 0.269914 0.785556 0.167860
O O8 0.222062 0.972463 0.901530
O O9 0.213843 0.287911 0.162139
O O10 0.312801 0.851178 0.032138
O O11 0.000000 0.000000 0.000000
O O12 0.819973 0.443642 0.577404
O O13 0.980395 0.282223 0.683115
O O14 0.500000 0.500000 0.000000
O O15 0.193844 0.491568 0.895757
O O16 0.500000 0.500000 0.500000
O O17 0.279116 0.650074 0.646413
O O18 0.835102 0.909020 0.228144
#
# Coordination Sequence:
#
# PCOD8037050 Si02
#       8
#     2   2   2   2   2   2   2   2
#     4  12  26  45  71 110 152 199 249 314 382 444
#     4  12  25  46  76 107 147 202 253 302 382 449
#     4  12  25  50  78 112 149 198 256 311 376 461
#     4  12  23  48  78 103 152 200 256 309 374 459
#     4  12  28  49  77 109 155 193 249 321 381 446
#     4  12  27  47  72 107 157 198 252 323 377 441
#     4  12  26  47  78 113 147 199 255 310 375 456
#     4  12  26  47  75 110 150 196 255 310 377 456
#
# _framework density 23.044256000000001
#
# number of rings (size 3 to 8) (size 9 to 14) (size 15 to 20)
#    0.000    0.000    6.250    3.000    5.250    1.000 
#    2.250    1.250    0.000    0.000    0.000    0.000 
#    0.000    0.000    0.000    0.000    0.000    0.000 
#
# Total GULP energy -198434.127980 kJ/mol
# GULP energy per Si atom -12402.132999 kJ/mol
# Density = 2.299181 g / cm^3
# Si number density = 23.044256 Si / 1000 Ang^3
#
#
#
# Elastic Constant Matrix: (Units=GPa)
#
#
# Indices 1 2 3 4 5 6 
#
# 1 106.0238 27.4282 60.6179 22.4685 -14.0807 8.8671
# 2 27.4282 121.5261 51.1759 -2.0149 -10.0909 9.2183
# 3 60.6179 51.1759 168.3445 17.7730 -7.0966 22.2664
# 4 22.4685 -2.0149 17.7730 51.6231 13.5003 0.7904
# 5 -14.0807 -10.0909 -7.0966 13.5003 34.1903 8.1977
# 6 8.8671 9.2183 22.2664 0.7904 8.1977 41.1692
#
#
#
# Elastic Compliance Matrix: (Units=1/GPa)
#
#
# Indices 1 2 3 4 5 6 
#
# 1 0.014595 -0.001059 -0.003450 -0.007395 0.008524 -0.002596
# 2 -0.001059 0.009762 -0.002531 0.001301 0.001631 -0.000939
# 3 -0.003450 -0.002531 0.008673 -0.001848 0.001223 -0.003589
# 4 -0.007395 0.001301 -0.001848 0.027096 -0.014882 0.004744
# 5 0.008524 0.001631 0.001223 -0.014882 0.041993 -0.010939
# 6 -0.002596 -0.000939 -0.003589 0.004744 -0.010939 0.029088
#
#
# Mechanical properties :
#
#
# Convention : Reuss Voigt Hill
#
# Bulk Modulus (GPa) = 52.76951 74.92648 63.84800
# Shear Modulus (GPa) = 32.98113 42.50801 37.74457
#
# Velocity S-wave (km/s) = 3.78724 4.29957 4.05151
# Velocity P-wave (km/s) = 6.48638 7.56526 7.04650
#
# Compressibility (1/GPa) = 0.01895034
#
# Stress axis : x y z
#
# Youngs Moduli (GPa) = 68.51811 102.44258 115.29888
#
# Poissons Ratio (x) = 0.10850 0.39777
# Poissons Ratio (y) = 0.07257 0.29177
# Poissons Ratio (z) = 0.23638 0.25924
#
# Static dielectric constant tensor:
#      x y z
#    x 4.032690 0.215630 0.015510 
#    y 0.215630 4.633940 -0.279940 
#    z 0.015510 -0.279940 4.600600 
# 
# 
# High freq. dielectric constant tensor:
#      x y z
#    x 1.898620 0.006630 0.010340 
#    y 0.006630 1.928110 -0.004970 
#    z 0.010340 -0.004970 1.928860 
# 
# From -- ./inp_files/495916.got.cif
#   From: 2010.06.25/outbox.cif.g09.slc.cpg/sg2_248_cif.got.tgz:495916.got - 2010.06.27 13:26:56.
