data_PCOD8037203
_publ_section_title
;
Structure prediction by ZEFSAII (Michael W. Deem and Ramdas Pophale) SiO2 
 PCOD8037203
Probable space group: P -1
;
_chemical_formula_sum "Si O2"
_cell_formula_units_Z 12
_cell_length_a 11.616359
_cell_length_b 13.433952
_cell_length_c 13.567265
_cell_angle_alpha 30.840771
_cell_angle_beta 149.329211
_cell_angle_gamma 150.432256
_cell_volume 478.840114
_symmetry_space_group_name_H-M "P -1"
_symmetry_group_IT_number 2
_symmetry_cell_setting 'triclinic'
loop_
_space_group_symop_operation_xyz
x,y,z
-x,-y,-z
loop_
_atom_site_type_symbol
_atom_site_label
_atom_site_fract_x
_atom_site_fract_y
_atom_site_fract_z
Si Si1 0.055649 0.302770 0.239948
Si Si2 0.818121 0.942616 0.628382
Si Si3 0.421449 0.752697 0.981897
Si Si4 0.705414 0.613218 0.456694
Si Si5 0.705695 0.198816 0.731871
Si Si6 0.731458 0.593537 0.014377
O O1 0.077651 0.169947 0.277945
O O2 0.283801 0.348569 0.448991
O O3 0.784840 0.159211 0.224478
O O4 0.000000 0.500000 0.000000
O O5 0.529907 0.909485 0.427525
O O6 0.778853 0.823928 0.805342
O O7 0.035099 0.205835 0.565155
O O8 0.329887 0.589953 0.959178
O O9 0.688299 0.988459 0.960515
O O10 0.459233 0.618023 0.217383
O O11 0.669405 0.369518 0.627799
O O12 0.999777 0.338141 0.786418
O O13 0.500000 0.500000 0.000000
#
# Coordination Sequence:
#
# PCOD8037203 Si02
#       6
#     2   2   2   2   2   2
#     4  12  24  45  73 109 154 187 234 290 358 438
#     4  12  25  47  70 111 144 190 242 289 363 431
#     4  12  26  47  73 110 145 190 239 293 365 424
#     4  12  25  45  73 108 150 185 235 294 354 436
#     4  12  24  48  76 102 149 185 242 298 355 425
#     4  12  27  51  76 103 142 191 248 303 355 421
#
# _framework density 25.060558
#
# number of rings (size 3 to 8) (size 9 to 14) (size 15 to 20)
#    0.000    0.000    8.333    0.500    0.000    6.000 
#    0.000    1.667    0.000    0.000    0.000    0.000 
#    0.000    0.000    0.000    0.000    0.000    0.000 
#
# Total GULP energy -148729.744986 kJ/mol
# GULP energy per Si atom -12394.145415 kJ/mol
# Density = 2.500352 g / cm^3
# Si number density = 25.060558 Si / 1000 Ang^3
#
#
#
# Elastic Constant Matrix: (Units=GPa)
#
#
# Indices 1 2 3 4 5 6 
#
# 1 82.7466 26.6608 36.0393 19.8697 -2.2476 25.8767
# 2 26.6608 130.1502 49.8106 5.6364 2.5634 11.4162
# 3 36.0393 49.8106 121.3508 10.8605 0.7212 5.4479
# 4 19.8697 5.6364 10.8605 62.7413 9.7920 6.8763
# 5 -2.2476 2.5634 0.7212 9.7920 27.0995 7.8494
# 6 25.8767 11.4162 5.4479 6.8763 7.8494 23.5683
#
#
#
# Elastic Compliance Matrix: (Units=1/GPa)
#
#
# Indices 1 2 3 4 5 6 
#
# 1 0.025561 -0.000535 -0.005615 -0.005897 0.012872 -0.029074
# 2 -0.000535 0.009441 -0.003598 0.000301 -0.000013 -0.003238
# 3 -0.005615 -0.003598 0.011139 -0.000162 -0.002127 0.006089
# 4 -0.005897 0.000301 -0.000162 0.018705 -0.008340 0.003687
# 5 0.012872 -0.000013 -0.002127 -0.008340 0.049013 -0.027526
# 6 -0.029074 -0.003238 0.006089 0.003687 -0.027526 0.082604
#
#
# Mechanical properties :
#
#
# Convention : Reuss Voigt Hill
#
# Bulk Modulus (GPa) = 37.53065 62.14100 49.83583
# Shear Modulus (GPa) = 22.23809 37.46427 29.85118
#
# Velocity S-wave (km/s) = 2.98211 3.87065 3.45507
# Velocity P-wave (km/s) = 5.18323 6.69523 5.98715
#
# Compressibility (1/GPa) = 0.02664489
#
# Stress axis : x y z
#
# Youngs Moduli (GPa) = 39.12243 105.91839 89.77636
#
# Poissons Ratio (x) = 0.05666 0.50410
# Poissons Ratio (y) = 0.02093 0.32301
# Poissons Ratio (z) = 0.21967 0.38109
#
# Static dielectric constant tensor:
#      x y z
#    x 4.489320 0.875550 0.339880 
#    y 0.875550 5.487750 0.457130 
#    z 0.339880 0.457130 5.427680 
# 
# 
# High freq. dielectric constant tensor:
#      x y z
#    x 1.946730 0.036630 -0.003010 
#    y 0.036630 2.041240 0.004910 
#    z -0.003010 0.004910 2.026970 
# 
# From -- ./inp_files/396870.got.cif
#   From: 2010.06.25/outbox.cif.g09.slc.cpg/sg2_199_cif.got.tgz:396870.got - 2010.06.27 13:26:56.
