data_PCOD8037480
_publ_section_title
;
Structure prediction by ZEFSAII (Michael W. Deem and Ramdas Pophale) SiO2 
 PCOD8037480
Probable space group: P -1
;
_chemical_formula_sum "Si O2"
_cell_formula_units_Z 14
_cell_length_a 17.468097
_cell_length_b 5.243262
_cell_length_c 25.021356
_cell_angle_alpha 117.345032
_cell_angle_beta 20.061045
_cell_angle_gamma 125.251447
_cell_volume 613.266903
_symmetry_space_group_name_H-M "P -1"
_symmetry_group_IT_number 2
_symmetry_cell_setting 'triclinic'
loop_
_space_group_symop_operation_xyz
x,y,z
-x,-y,-z
loop_
_atom_site_type_symbol
_atom_site_label
_atom_site_fract_x
_atom_site_fract_y
_atom_site_fract_z
Si Si1 0.461492 0.072891 0.271312
Si Si2 0.050706 0.319355 0.152127
Si Si3 0.203652 0.219705 0.930193
Si Si4 0.101236 0.873862 0.578247
Si Si5 0.580459 0.817374 0.887060
Si Si6 0.780886 0.753419 0.357179
Si Si7 0.134508 0.814207 0.367282
O O1 0.621482 0.419024 0.171548
O O2 0.635145 0.961040 0.178883
O O3 0.269450 0.112466 0.443099
O O4 0.306063 0.793395 0.301540
O O5 0.934277 0.567018 0.258195
O O6 0.043722 0.233432 0.086620
O O7 0.335114 0.472669 0.003360
O O8 0.897026 0.983724 0.252322
O O9 0.000000 0.000000 0.000000
O O10 0.805852 0.776696 0.761838
O O11 0.091261 0.527093 0.539346
O O12 0.224373 0.024921 0.568866
O O13 0.670988 0.004424 0.790187
O O14 0.500000 0.000000 0.000000
O O15 0.500000 0.500000 0.500000
O O16 0.000000 0.000000 0.500000
#
# Coordination Sequence:
#
# PCOD8037480 Si02
#       7
#     2   2   2   2   2   2   2
#     4  12  26  47  74 111 152 197 248 318 384 455
#     4  12  27  50  76 109 148 197 253 315 382 440
#     4  12  28  47  77 108 149 200 258 316 376 447
#     4  12  28  44  79 110 156 199 253 307 391 455
#     4  12  25  45  74 110 156 193 254 314 385 456
#     4  12  30  52  76 107 152 204 254 309 372 464
#     4  12  25  47  73 114 154 199 250 316 389 461
#
# _framework density 22.828558999999998
#
# number of rings (size 3 to 8) (size 9 to 14) (size 15 to 20)
#    0.000    0.000    4.286    4.714    6.000    1.143 
#    0.000    0.000    0.000    0.000    0.000    0.000 
#    0.000    0.000    0.000    0.000    0.000    0.000 
#
# Total GULP energy -173630.467086 kJ/mol
# GULP energy per Si atom -12402.176220 kJ/mol
# Density = 2.277660 g / cm^3
# Si number density = 22.828559 Si / 1000 Ang^3
#
#
#
# Elastic Constant Matrix: (Units=GPa)
#
#
# Indices 1 2 3 4 5 6 
#
# 1 136.3294 81.5076 77.9276 -17.8114 -5.2748 23.6048
# 2 81.5076 110.1815 55.2095 -2.5292 8.4108 12.5151
# 3 77.9276 55.2095 136.4325 -7.8765 28.0014 8.1792
# 4 -17.8114 -2.5292 -7.8765 44.7513 -5.3366 1.7977
# 5 -5.2748 8.4108 28.0014 -5.3366 43.2212 0.0257
# 6 23.6048 12.5151 8.1792 1.7977 0.0257 62.6268
#
#
#
# Elastic Compliance Matrix: (Units=1/GPa)
#
#
# Indices 1 2 3 4 5 6 
#
# 1 0.022494 -0.011915 -0.009799 0.008240 0.012433 -0.005059
# 2 -0.011915 0.017901 0.000432 -0.004381 -0.005759 0.000985
# 3 -0.009799 0.000432 0.014789 -0.002678 -0.011193 0.001757
# 4 0.008240 -0.004381 -0.002678 0.025821 0.006783 -0.002625
# 5 0.012433 -0.005759 -0.011193 0.006783 0.033865 -0.002282
# 6 -0.005059 0.000985 0.001757 -0.002625 -0.002282 0.017524
#
#
# Mechanical properties :
#
#
# Convention : Reuss Voigt Hill
#
# Bulk Modulus (GPa) = 79.24461 90.24808 84.74634
# Shear Modulus (GPa) = 27.90721 41.33978 34.62350
#
# Velocity S-wave (km/s) = 3.50018 4.26006 3.89868
# Velocity P-wave (km/s) = 7.15005 7.98851 7.58088
#
# Compressibility (1/GPa) = 0.01261915
#
# Stress axis : x y z
#
# Youngs Moduli (GPa) = 44.45701 55.86283 67.61679
#
# Poissons Ratio (x) = 0.66561 0.66257
# Poissons Ratio (y) = 0.52971 -0.02919
# Poissons Ratio (z) = 0.43563 -0.02411
#
# Static dielectric constant tensor:
#      x y z
#    x 3.886560 0.283600 0.025780 
#    y 0.283600 4.232870 0.090350 
#    z 0.025780 0.090350 4.152800 
# 
# 
# High freq. dielectric constant tensor:
#      x y z
#    x 1.914870 0.007700 0.007350 
#    y 0.007700 1.905130 0.001290 
#    z 0.007350 0.001290 1.920450 
# 
# From -- ./inp_files/52939.got.cif
#   From: 2010.06.25/outbox.cif.g09.slc.cpg/sg2_27_cif.got.tgz:52939.got - 2010.06.27 13:26:56.
