data_PCOD8037088
_publ_section_title
;
Structure prediction by ZEFSAII (Michael W. Deem and Ramdas Pophale) SiO2 
 PCOD8037088
Probable space group: P -1
;
_chemical_formula_sum "Si O2"
_cell_formula_units_Z 16
_cell_length_a 14.967827
_cell_length_b 16.299540
_cell_length_c 15.336120
_cell_angle_alpha 36.109706
_cell_angle_beta 160.844446
_cell_angle_gamma 146.096068
_cell_volume 678.978107
_symmetry_space_group_name_H-M "P -1"
_symmetry_group_IT_number 2
_symmetry_cell_setting 'triclinic'
loop_
_space_group_symop_operation_xyz
x,y,z
-x,-y,-z
loop_
_atom_site_type_symbol
_atom_site_label
_atom_site_fract_x
_atom_site_fract_y
_atom_site_fract_z
Si Si1 0.899739 0.913227 0.251564
Si Si2 0.488918 0.914769 0.719302
Si Si3 0.421344 0.332133 0.105868
Si Si4 0.776025 0.239195 0.650120
Si Si5 0.101254 0.556488 0.253801
Si Si6 0.484801 0.616056 0.200177
Si Si7 0.700160 0.308733 0.857596
Si Si8 0.078969 0.120606 0.395294
O O1 0.685676 0.783521 0.224108
O O2 0.166341 0.871023 0.497408
O O3 0.727734 0.953712 0.980774
O O4 0.014099 0.057881 0.292375
O O5 0.486160 0.770188 0.789002
O O6 0.575903 0.065281 0.612803
O O7 0.598318 0.330775 0.358915
O O8 0.500000 0.500000 0.000000
O O9 0.075933 0.260284 0.859550
O O10 0.856721 0.300495 0.770233
O O11 0.339845 0.492407 0.561596
O O12 0.112519 0.587233 0.134404
O O13 0.778800 0.433262 0.070411
O O14 0.387596 0.600219 0.225392
O O15 0.420084 0.202433 0.641409
O O16 0.891976 0.224458 0.153258
O O17 0.000000 0.000000 0.500000
#
# Coordination Sequence:
#
# PCOD8037088 Si02
#       8
#     2   2   2   2   2   2   2   2
#     4  12  26  43  73 106 146 189 248 293 358 411
#     4  12  27  49  78 109 146 189 244 294 360 440
#     4  12  28  49  80 112 147 183 233 299 371 439
#     4  12  26  50  77 108 148 189 238 296 366 430
#     4  12  26  44  71 101 145 187 246 288 364 434
#     4  12  26  43  68 103 149 195 236 304 351 419
#     4  12  25  45  69  99 142 193 245 294 361 414
#     4  12  24  42  68  98 137 186 241 302 349 414
#
# _framework density 23.564824999999999
#
# number of rings (size 3 to 8) (size 9 to 14) (size 15 to 20)
#    0.000    0.000    1.250    9.000    7.000    0.000 
#    0.000    0.000    0.000    0.000    0.000    0.000 
#    0.000    0.000    0.000    0.000    0.000    0.000 
#
# Total GULP energy -198498.360105 kJ/mol
# GULP energy per Si atom -12406.147507 kJ/mol
# Density = 2.351119 g / cm^3
# Si number density = 23.564825 Si / 1000 Ang^3
#
#
#
# Elastic Constant Matrix: (Units=GPa)
#
#
# Indices 1 2 3 4 5 6 
#
# 1 83.4207 30.6718 33.0020 2.8437 2.7794 4.2745
# 2 30.6718 133.6679 47.6926 18.1839 4.4887 -22.7304
# 3 33.0020 47.6926 168.4285 16.0303 5.9819 -12.2207
# 4 2.8437 18.1839 16.0303 50.4842 2.7678 -15.4650
# 5 2.7794 4.4887 5.9819 2.7678 44.0811 -3.9800
# 6 4.2745 -22.7304 -12.2207 -15.4650 -3.9800 56.0041
#
#
#
# Elastic Compliance Matrix: (Units=1/GPa)
#
#
# Indices 1 2 3 4 5 6 
#
# 1 0.014056 -0.002934 -0.002114 0.000131 -0.000555 -0.002728
# 2 -0.002934 0.009562 -0.001728 -0.001730 -0.000153 0.003240
# 3 -0.002114 -0.001728 0.007024 -0.001276 -0.000509 0.000604
# 4 0.000131 -0.001730 -0.001276 0.022444 -0.000602 0.005165
# 5 -0.000555 -0.000153 -0.000509 -0.000602 0.022963 0.001335
# 6 -0.002728 0.003240 0.000604 0.005165 0.001335 0.021032
#
#
# Mechanical properties :
#
#
# Convention : Reuss Voigt Hill
#
# Bulk Modulus (GPa) = 58.51093 67.58333 63.04713
# Shear Modulus (GPa) = 42.98083 48.39060 45.68572
#
# Velocity S-wave (km/s) = 4.27539 4.53648 4.40787
# Velocity P-wave (km/s) = 7.01824 7.49544 7.26076
#
# Compressibility (1/GPa) = 0.01709082
#
# Stress axis : x y z
#
# Youngs Moduli (GPa) = 71.14162 104.57775 142.36807
#
# Poissons Ratio (x) = 0.30686 0.30098
# Poissons Ratio (y) = 0.20875 0.24596
# Poissons Ratio (z) = 0.15040 0.18067
#
# Static dielectric constant tensor:
#      x y z
#    x 4.238800 0.004930 0.035910 
#    y 0.004930 4.293810 0.115170 
#    z 0.035910 0.115170 4.468210 
# 
# 
# High freq. dielectric constant tensor:
#      x y z
#    x 1.937250 -0.002690 0.004580 
#    y -0.002690 1.942400 0.009400 
#    z 0.004580 0.009400 1.954910 
# 
# From -- ./inp_files/534304.got.cif
#   From: 2010.06.25/outbox.cif.g09.slc.cpg/sg2_268_cif.got.tgz:534304.got - 2010.06.27 13:26:56.
