data_PCOD8037932
_publ_section_title
;
Structure prediction by ZEFSAII (Michael W. Deem and Ramdas Pophale) SiO2 
 PCOD8037932
Probable space group: P -1
;
_chemical_formula_sum "Si O2"
_cell_formula_units_Z 14
_cell_length_a 7.875488
_cell_length_b 10.039098
_cell_length_c 11.467573
_cell_angle_alpha 126.727772
_cell_angle_beta 91.966093
_cell_angle_gamma 70.839260
_cell_volume 670.524292
_symmetry_space_group_name_H-M "P -1"
_symmetry_group_IT_number 2
_symmetry_cell_setting 'triclinic'
loop_
_space_group_symop_operation_xyz
x,y,z
-x,-y,-z
loop_
_atom_site_type_symbol
_atom_site_label
_atom_site_fract_x
_atom_site_fract_y
_atom_site_fract_z
Si Si1 0.371891 0.558122 0.415503
Si Si2 0.183564 0.827647 0.898013
Si Si3 0.226345 0.952242 0.196195
Si Si4 0.814498 0.066882 0.297903
Si Si5 0.694350 0.567283 0.312253
Si Si6 0.189911 0.343406 0.399812
Si Si7 0.571128 0.887172 0.326117
O O1 0.500000 0.500000 0.500000
O O2 0.218460 0.760692 0.530415
O O3 0.496727 0.544889 0.298023
O O4 0.277673 0.412213 0.329342
O O5 0.268710 0.857462 0.792908
O O6 0.152698 0.637490 0.794780
O O7 0.299816 0.829198 0.017791
O O8 0.000000 0.000000 0.000000
O O9 0.391669 0.884339 0.255416
O O10 0.173017 0.159762 0.266852
O O11 0.034550 0.944846 0.237817
O O12 0.697210 0.955945 0.284529
O O13 0.698742 0.680817 0.488069
O O14 0.700082 0.682420 0.259222
O O15 0.000000 0.500000 0.500000
O O16 0.500000 0.000000 0.500000
#
# Coordination Sequence:
#
# PCOD8037932 Si02
#       7
#     2   2   2   2   2   2   2
#     4  10  17  32  61  90 118 156 206 259 319 349
#     4  10  22  43  67  91 128 166 212 272 313 370
#     4  11  24  40  64  94 131 168 215 255 321 384
#     4  11  21  42  66  95 130 163 210 272 316 370
#     4  11  22  40  63  89 130 164 205 269 314 371
#     4  11  18  34  62  96 117 157 220 266 303 365
#     4  12  24  41  63  96 134 170 206 261 323 380
#
# _framework density 20.879183999999999
#
# number of rings (size 3 to 8) (size 9 to 14) (size 15 to 20)
#    0.000    1.143    7.143    1.714    0.000    1.714 
#    2.571    2.857    0.000    0.000    0.000    0.000 
#    0.000    0.000    0.000    0.000    0.000    0.000 
#
# Total GULP energy -173457.886259 kJ/mol
# GULP energy per Si atom -12389.849018 kJ/mol
# Density = 2.083166 g / cm^3
# Si number density = 20.879184 Si / 1000 Ang^3
#
#
#
# Elastic Constant Matrix: (Units=GPa)
#
#
# Indices 1 2 3 4 5 6 
#
# 1 89.8277 31.6167 5.9329 -9.1753 0.4105 13.5047
# 2 31.6167 129.4890 23.3289 4.3389 -3.5343 10.9354
# 3 5.9329 23.3289 77.8449 1.7261 0.3393 4.1116
# 4 -9.1753 4.3389 1.7261 28.1237 -8.2958 1.9463
# 5 0.4105 -3.5343 0.3393 -8.2958 24.0266 -1.4700
# 6 13.5047 10.9354 4.1116 1.9463 -1.4700 29.6459
#
#
#
# Elastic Compliance Matrix: (Units=1/GPa)
#
#
# Indices 1 2 3 4 5 6 
#
# 1 0.013565 -0.003023 0.000030 0.005529 0.000903 -0.005387
# 2 -0.003023 0.009098 -0.002377 -0.001946 0.000660 -0.001489
# 3 0.000030 -0.002377 0.013628 -0.000632 -0.000824 -0.001026
# 4 0.005529 -0.001946 -0.000632 0.042069 0.013922 -0.003785
# 5 0.000903 0.000660 -0.000824 0.013922 0.046573 0.000855
# 6 -0.005387 -0.001489 -0.001026 -0.003785 0.000855 0.037168
#
#
# Mechanical properties :
#
#
# Convention : Reuss Voigt Hill
#
# Bulk Modulus (GPa) = 39.13842 46.54650 42.84246
# Shear Modulus (GPa) = 27.56984 32.11145 29.84065
#
# Velocity S-wave (km/s) = 3.63774 3.92594 3.78458
# Velocity P-wave (km/s) = 6.03573 6.54923 6.29771
#
# Compressibility (1/GPa) = 0.02555034
#
# Stress axis : x y z
#
# Youngs Moduli (GPa) = 73.71924 109.91331 73.37840
#
# Poissons Ratio (x) = 0.33230 -0.00221
# Poissons Ratio (y) = 0.22287 0.17444
# Poissons Ratio (z) = -0.00222 0.26129
#
# Static dielectric constant tensor:
#      x y z
#    x 4.415460 0.742890 0.329450 
#    y 0.742890 5.975510 -0.414340 
#    z 0.329450 -0.414340 4.889420 
# 
# 
# High freq. dielectric constant tensor:
#      x y z
#    x 1.809410 0.003690 -0.004200 
#    y 0.003690 1.814000 0.014650 
#    z -0.004200 0.014650 1.798390 
# 
# From -- ./inp_files/203006.got.cif
#   From: 2010.06.25/outbox.cif.g09.slc.cpg/sg2_102_cif.got.tgz:203006.got - 2010.06.27 13:26:56.
