data_PCOD8037498
_publ_section_title
;
Structure prediction by ZEFSAII (Michael W. Deem and Ramdas Pophale) SiO2 
 PCOD8037498
Probable space group: P -1
;
_chemical_formula_sum "Si O2"
_cell_formula_units_Z 16
_cell_length_a 15.882617
_cell_length_b 7.856913
_cell_length_c 8.976639
_cell_angle_alpha 91.482383
_cell_angle_beta 135.026055
_cell_angle_gamma 113.504963
_cell_volume 638.811024
_symmetry_space_group_name_H-M "P -1"
_symmetry_group_IT_number 2
_symmetry_cell_setting 'triclinic'
loop_
_space_group_symop_operation_xyz
x,y,z
-x,-y,-z
loop_
_atom_site_type_symbol
_atom_site_label
_atom_site_fract_x
_atom_site_fract_y
_atom_site_fract_z
Si Si1 0.398298 0.255561 0.346408
Si Si2 0.397181 0.122999 0.665266
Si Si3 0.138759 0.634538 0.076265
Si Si4 0.919557 0.024875 0.036622
Si Si5 0.859391 0.952258 0.488785
Si Si6 0.076557 0.418436 0.682489
Si Si7 0.400447 0.752186 0.621916
Si Si8 0.663363 0.495152 0.168296
O O1 0.500000 0.500000 0.500000
O O2 0.412563 0.152428 0.509025
O O3 0.450177 0.191546 0.266125
O O4 0.234138 0.198880 0.120119
O O5 0.224674 0.007931 0.488747
O O6 0.438916 0.963577 0.756323
O O7 0.499700 0.344072 0.888892
O O8 0.280357 0.683351 0.341399
O O9 0.144801 0.838911 0.052141
O O10 0.113092 0.495365 0.898700
O O11 0.000000 0.500000 0.000000
O O12 0.037190 0.110629 0.317987
O O13 0.000000 0.000000 0.000000
O O14 0.728693 0.741985 0.233997
O O15 0.966332 0.162191 0.529758
O O16 0.232116 0.534609 0.798670
O O17 0.000000 0.500000 0.500000
O O18 0.339763 0.566783 0.663888
#
# Coordination Sequence:
#
# PCOD8037498 Si02
#       8
#     2   2   2   2   2   2   2   2
#     4  12  28  46  78 113 153 195 258 316 388 451
#     4  12  25  51  76 109 152 203 252 320 378 451
#     4  12  25  45  81 110 153 200 253 317 378 451
#     4  12  25  47  77 112 151 197 250 319 384 450
#     4  12  26  49  74 112 152 198 260 310 379 454
#     4  12  27  49  76 114 153 201 254 311 385 452
#     4  12  26  50  75 115 152 200 261 310 378 456
#     4  12  28  48  76 108 159 203 252 313 383 451
#
# _framework density 25.046530000000001
#
# number of rings (size 3 to 8) (size 9 to 14) (size 15 to 20)
#    0.000    0.000    2.500    7.500    7.000    0.000 
#    2.250    0.000    0.000    0.000    0.000    0.000 
#    0.000    0.000    0.000    0.000    0.000    0.000 
#
# Total GULP energy -198372.535571 kJ/mol
# GULP energy per Si atom -12398.283473 kJ/mol
# Density = 2.498952 g / cm^3
# Si number density = 25.046530 Si / 1000 Ang^3
#
#
#
# Elastic Constant Matrix: (Units=GPa)
#
#
# Indices 1 2 3 4 5 6 
#
# 1 156.1010 11.4511 48.8790 -9.2682 24.2550 17.9417
# 2 11.4511 91.2571 40.5253 4.1498 2.8748 6.3042
# 3 48.8790 40.5253 124.8896 12.6643 10.7748 6.5851
# 4 -9.2682 4.1498 12.6643 40.8072 3.7937 -2.5514
# 5 24.2550 2.8748 10.7748 3.7937 47.5741 3.0191
# 6 17.9417 6.3042 6.5851 -2.5514 3.0191 41.5297
#
#
#
# Elastic Compliance Matrix: (Units=1/GPa)
#
#
# Indices 1 2 3 4 5 6 
#
# 1 0.008487 0.000596 -0.003365 0.003080 -0.003671 -0.002768
# 2 0.000596 0.012918 -0.004352 0.000078 -0.000008 -0.001523
# 3 -0.003365 -0.004352 0.011130 -0.003744 -0.000253 0.000138
# 4 0.003080 0.000078 -0.003744 0.026700 -0.002926 0.001104
# 5 -0.003671 -0.000008 -0.000253 -0.002926 0.023198 -0.000239
# 6 -0.002768 -0.001523 0.000138 0.001104 -0.000239 0.025569
#
#
# Mechanical properties :
#
#
# Convention : Reuss Voigt Hill
#
# Bulk Modulus (GPa) = 54.66220 63.77317 59.21769
# Shear Modulus (GPa) = 38.95857 44.07501 41.51679
#
# Velocity S-wave (km/s) = 3.94820 4.19946 4.07576
# Velocity P-wave (km/s) = 6.53115 7.00222 6.77079
#
# Compressibility (1/GPa) = 0.01829418
#
# Stress axis : x y z
#
# Youngs Moduli (GPa) = 117.82282 77.41296 89.84535
#
# Poissons Ratio (x) = -0.04614 0.30231
# Poissons Ratio (y) = -0.07022 0.39099
# Poissons Ratio (z) = 0.39645 0.33688
#
# Static dielectric constant tensor:
#      x y z
#    x 4.760910 0.219020 0.178330 
#    y 0.219020 4.914770 0.142740 
#    z 0.178330 0.142740 4.566880 
# 
# 
# High freq. dielectric constant tensor:
#      x y z
#    x 2.021440 0.001610 0.011830 
#    y 0.001610 2.002610 0.010700 
#    z 0.011830 0.010700 2.001380 
# 
# From -- ./inp_files/298967.got.cif
#   From: 2010.06.25/outbox.cif.g09.slc.cpg/sg2_150_cif.got.tgz:298967.got - 2010.06.27 13:26:56.
