data_PCOD8037596
_publ_section_title
;
Structure prediction by ZEFSAII (Michael W. Deem and Ramdas Pophale) SiO2 
 PCOD8037596
Probable space group: P -1
;
_chemical_formula_sum "Si O2"
_cell_formula_units_Z 12
_cell_length_a 8.867619
_cell_length_b 8.865186
_cell_length_c 13.589107
_cell_angle_alpha 85.487716
_cell_angle_beta 36.083470
_cell_angle_gamma 68.570998
_cell_volume 538.043888
_symmetry_space_group_name_H-M "P -1"
_symmetry_group_IT_number 2
_symmetry_cell_setting 'triclinic'
loop_
_space_group_symop_operation_xyz
x,y,z
-x,-y,-z
loop_
_atom_site_type_symbol
_atom_site_label
_atom_site_fract_x
_atom_site_fract_y
_atom_site_fract_z
Si Si1 0.386563 0.640585 0.466640
Si Si2 0.862148 0.757734 0.194029
Si Si3 0.905173 0.263375 0.712450
Si Si4 0.532656 0.885778 0.710602
Si Si5 0.457175 0.564250 0.805001
Si Si6 0.742521 0.968069 0.792669
O O1 0.500000 0.500000 0.500000
O O2 0.584272 0.730418 0.351945
O O3 0.394997 0.548572 0.364688
O O4 0.048279 0.786684 0.662933
O O5 0.032892 0.733396 0.206446
O O6 0.745535 0.954453 0.206984
O O7 0.113452 0.613519 0.995221
O O8 0.649507 0.456813 0.803378
O O9 0.201388 0.213659 0.500517
O O10 0.795701 0.129216 0.754439
O O11 0.442505 0.749373 0.803405
O O12 0.621398 0.965736 0.749561
O O13 0.500000 0.000000 0.000000
#
# Coordination Sequence:
#
# PCOD8037596 Si02
#       6
#     2   2   2   2   2   2
#     4  12  28  46  72 104 144 182 235 291 344 413
#     4  12  27  46  74 105 142 183 233 287 349 415
#     4  12  25  48  73 101 143 185 233 288 347 412
#     4  12  25  48  73 101 143 185 233 288 347 412
#     4  12  27  46  74 105 142 183 233 287 349 415
#     4  12  28  47  72 102 142 188 232 287 352 411
#
# _framework density 22.303013
#
# number of rings (size 3 to 8) (size 9 to 14) (size 15 to 20)
#    0.000    0.000    3.333    6.000    9.333    0.000 
#    0.000    0.000    0.000    0.000    0.000    0.000 
#    0.000    0.000    0.000    0.000    0.000    0.000 
#
# Total GULP energy -148895.602840 kJ/mol
# GULP energy per Si atom -12407.966903 kJ/mol
# Density = 2.225225 g / cm^3
# Si number density = 22.303013 Si / 1000 Ang^3
#
#
#
# Elastic Constant Matrix: (Units=GPa)
#
#
# Indices 1 2 3 4 5 6 
#
# 1 107.7468 48.3309 21.4048 -10.2913 -12.0905 -8.7055
# 2 48.3309 120.7685 35.2652 -13.7928 -22.3653 -32.3078
# 3 21.4048 35.2652 147.4666 13.0226 -30.7822 -17.5335
# 4 -10.2913 -13.7928 13.0226 17.0406 -17.5318 -2.3526
# 5 -12.0905 -22.3653 -30.7822 -17.5318 21.9181 8.8713
# 6 -8.7055 -32.3078 -17.5335 -2.3526 8.8713 48.8987
#
#
#
# Elastic Compliance Matrix: (Units=1/GPa)
#
#
# Indices 1 2 3 4 5 6 
#
# 1 0.010638 -0.007430 -0.001338 -0.009528 -0.010376 -0.002071
# 2 -0.007430 0.003362 -0.003287 -0.033092 -0.033453 0.004197
# 3 -0.001338 -0.003287 0.008578 -0.010857 -0.000849 0.000298
# 4 -0.009528 -0.033092 -0.010857 -0.108867 -0.138272 -0.007605
# 5 -0.010376 -0.033453 -0.000849 -0.138272 -0.100930 -0.012596
# 6 -0.002071 0.004197 0.000298 -0.007605 -0.012596 0.024881
#
#
# Mechanical properties :
#
#
# Convention : Reuss Voigt Hill
#
# Bulk Modulus (GPa) = -652.55566 65.10929 -293.72319
# Shear Modulus (GPa) = -36.03925 35.63685 -0.20120
#
# Velocity S-wave (km/s) = -4.02418 4.00165 -0.30068
# Velocity P-wave (km/s) = 17.74298 7.11388 11.49361
#
# Compressibility (1/GPa) = -0.00153244
#
# Stress axis : x y z
#
# Youngs Moduli (GPa) = 94.00188 297.44119 116.57234
#
# Poissons Ratio (x) = 2.21012 0.15596
# Poissons Ratio (y) = 0.69848 0.38318
# Poissons Ratio (z) = 0.12577 0.97771
#
# Static dielectric constant tensor:
#      x y z
#    x 4.063030 -0.012620 -0.318950 
#    y -0.012620 2.844580 3.007720 
#    z -0.318950 3.007720 -2.525800 
# 
# 
# High freq. dielectric constant tensor:
#      x y z
#    x 1.886960 -0.008260 -0.003320 
#    y -0.008260 1.896270 0.000680 
#    z -0.003320 0.000680 1.899580 
# 
# From -- ./inp_files/145477.got.cif
#   From: 2010.06.25/outbox.cif.g09.slc.cpg/sg2_73_cif.got.tgz:145477.got - 2010.06.27 13:26:56.
