data_PCOD8037816
_publ_section_title
;
Structure prediction by ZEFSAII (Michael W. Deem and Ramdas Pophale) SiO2 
 PCOD8037816
Probable space group: P -1
;
_chemical_formula_sum "Si O2"
_cell_formula_units_Z 10
_cell_length_a 14.932501
_cell_length_b 12.868570
_cell_length_c 5.383257
_cell_angle_alpha 123.780931
_cell_angle_beta 121.143094
_cell_angle_gamma 29.578350
_cell_volume 422.981694
_symmetry_space_group_name_H-M "P -1"
_symmetry_group_IT_number 2
_symmetry_cell_setting 'triclinic'
loop_
_space_group_symop_operation_xyz
x,y,z
-x,-y,-z
loop_
_atom_site_type_symbol
_atom_site_label
_atom_site_fract_x
_atom_site_fract_y
_atom_site_fract_z
Si Si1 0.070030 0.566241 0.265994
Si Si2 0.536106 0.887612 0.647326
Si Si3 0.377956 0.620947 0.239683
Si Si4 0.773679 0.998875 0.669496
Si Si5 0.038220 0.829992 0.205542
O O1 0.261964 0.361598 0.398457
O O2 0.077892 0.668664 0.211739
O O3 0.926830 0.747164 0.505445
O O4 0.000000 0.500000 0.000000
O O5 0.500000 0.000000 0.500000
O O6 0.417377 0.881796 0.424485
O O7 0.500000 0.000000 0.000000
O O8 0.500000 0.500000 0.500000
O O9 0.223367 0.662613 0.079514
O O10 0.259454 0.864520 0.406864
O O11 0.500000 0.500000 0.000000
O O12 0.846031 0.997418 0.015007
O O13 0.000000 0.000000 0.500000
#
# Coordination Sequence:
#
# PCOD8037816 Si02
#       5
#     2   2   2   2   2
#     4  12  27  51  83 116 162 216 268 332 408 484
#     4  12  29  50  77 116 164 212 268 332 404 482
#     4  12  28  49  79 118 159 212 269 334 403 479
#     4  12  28  48  82 115 163 208 276 331 404 485
#     4  12  27  51  81 116 164 213 273 336 406 485
#
# _framework density 23.641684000000001
#
# number of rings (size 3 to 8) (size 9 to 14) (size 15 to 20)
#    0.000    0.000    4.000    4.200    8.400    1.600 
#    0.000    0.000    0.000    0.000    0.000    0.000 
#    0.000    0.000    0.000    0.000    0.000    0.000 
#
# Total GULP energy -123887.964323 kJ/mol
# GULP energy per Si atom -12388.796432 kJ/mol
# Density = 2.358787 g / cm^3
# Si number density = 23.641684 Si / 1000 Ang^3
#
#
#
# Elastic Constant Matrix: (Units=GPa)
#
#
# Indices 1 2 3 4 5 6 
#
# 1 158.8061 65.3396 64.2300 -14.4300 27.9597 15.0937
# 2 65.3396 215.2690 74.7717 -19.6816 13.6895 13.9919
# 3 64.2300 74.7717 157.0141 -18.5151 18.6240 4.6518
# 4 -14.4300 -19.6816 -18.5151 57.7610 -4.4879 4.2109
# 5 27.9597 13.6895 18.6240 -4.4879 53.0087 -5.8171
# 6 15.0937 13.9919 4.6518 4.2109 -5.8171 60.1313
#
#
#
# Elastic Compliance Matrix: (Units=1/GPa)
#
#
# Indices 1 2 3 4 5 6 
#
# 1 0.008713 -0.001402 -0.002312 0.000832 -0.003580 -0.002087
# 2 -0.001402 0.005967 -0.002104 0.001072 -0.000076 -0.000956
# 3 -0.002312 -0.002104 0.008604 0.001362 -0.001123 0.000200
# 4 0.000832 0.001072 0.001362 0.018470 0.000168 -0.001841
# 5 -0.003580 -0.000076 -0.001123 0.000168 0.021519 0.003073
# 6 -0.002087 -0.000956 0.000200 -0.001841 0.003073 0.017787
#
#
# Mechanical properties :
#
#
# Convention : Reuss Voigt Hill
#
# Bulk Modulus (GPa) = 85.85308 104.41910 95.13609
# Shear Modulus (GPa) = 51.77091 55.96338 53.86714
#
# Velocity S-wave (km/s) = 4.68462 4.87061 4.77852
# Velocity P-wave (km/s) = 8.10272 8.71170 8.41272
#
# Compressibility (1/GPa) = 0.01164781
#
# Stress axis : x y z
#
# Youngs Moduli (GPa) = 114.76770 167.59356 116.21923
#
# Poissons Ratio (x) = 0.23502 0.26870
# Poissons Ratio (y) = 0.16094 0.24453
# Poissons Ratio (z) = 0.26534 0.35262
#
# Static dielectric constant tensor:
#      x y z
#    x 4.659980 -0.321190 0.067590 
#    y -0.321190 5.051480 0.003630 
#    z 0.067590 0.003630 3.991980 
# 
# 
# High freq. dielectric constant tensor:
#      x y z
#    x 1.955880 -0.002730 0.018670 
#    y -0.002730 1.968390 -0.001440 
#    z 0.018670 -0.001440 1.938180 
# 
# From -- ./inp_files/19380.got.cif
#   From: 2010.06.25/outbox.cif.g09.slc.cpg/sg2_10_cif.got.tgz:19380.got - 2010.06.27 13:26:56.
