data_PCOD8037736
_publ_section_title
;
Structure prediction by ZEFSAII (Michael W. Deem and Ramdas Pophale) SiO2 
 PCOD8037736
Probable space group: P -1
;
_chemical_formula_sum "Si O2"
_cell_formula_units_Z 16
_cell_length_a 8.164628
_cell_length_b 18.034920
_cell_length_c 13.112068
_cell_angle_alpha 46.487471
_cell_angle_beta 133.691929
_cell_angle_gamma 147.731466
_cell_volume 717.546158
_symmetry_space_group_name_H-M "P -1"
_symmetry_group_IT_number 2
_symmetry_cell_setting 'triclinic'
loop_
_space_group_symop_operation_xyz
x,y,z
-x,-y,-z
loop_
_atom_site_type_symbol
_atom_site_label
_atom_site_fract_x
_atom_site_fract_y
_atom_site_fract_z
Si Si1 0.859200 0.894466 0.634282
Si Si2 0.711827 0.640842 0.389628
Si Si3 0.644342 0.888906 0.919559
Si Si4 0.376265 0.596339 0.087850
Si Si5 0.788685 0.037518 0.639039
Si Si6 0.748790 0.573915 0.124548
Si Si7 0.260727 0.862912 0.955674
Si Si8 0.159205 0.600869 0.570340
O O1 0.531582 0.745629 0.589284
O O2 0.074080 0.868773 0.785597
O O3 0.850438 0.957012 0.675076
O O4 0.000000 0.000000 0.500000
O O5 0.500000 0.500000 0.500000
O O6 0.469872 0.613925 0.229799
O O7 0.888368 0.791021 0.381058
O O8 0.992891 0.657205 0.456520
O O9 0.440676 0.842510 0.977843
O O10 0.636277 0.967744 0.750691
O O11 0.546894 0.747899 0.966634
O O12 0.000000 0.000000 0.000000
O O13 0.538319 0.547437 0.154574
O O14 0.000000 0.500000 0.000000
O O15 0.500000 0.000000 0.500000
O O16 0.878581 0.499175 0.265042
O O17 0.500000 0.500000 0.000000
O O18 0.047163 0.737884 0.066058
O O19 0.500000 0.000000 0.000000
O O20 0.000000 0.500000 0.500000
#
# Coordination Sequence:
#
# PCOD8037736 Si02
#       8
#     2   2   2   2   2   2   2   2
#     4  12  28  48  77 112 147 198 252 306 379 451
#     4  12  30  48  75 111 150 198 253 308 380 448
#     4  12  26  48  73 106 148 192 251 302 376 446
#     4  12  28  47  75 110 152 199 248 311 377 447
#     4  12  26  49  76 105 151 195 244 314 372 449
#     4  12  26  49  74 106 154 196 252 308 374 445
#     4  12  28  45  77 110 146 198 248 310 373 446
#     4  12  28  50  75 107 153 199 248 313 375 444
#
# _framework density 22.298217000000001
#
# number of rings (size 3 to 8) (size 9 to 14) (size 15 to 20)
#    0.000    0.000    5.000    3.750    8.750    0.000 
#    0.000    0.000    0.000    0.000    0.000    0.000 
#    0.000    0.000    0.000    0.000    0.000    0.000 
#
# Total GULP energy -198242.451823 kJ/mol
# GULP energy per Si atom -12390.153239 kJ/mol
# Density = 2.224747 g / cm^3
# Si number density = 22.298217 Si / 1000 Ang^3
#
#
#
# Elastic Constant Matrix: (Units=GPa)
#
#
# Indices 1 2 3 4 5 6 
#
# 1 86.9746 28.0784 16.7739 3.8773 -1.1472 3.6100
# 2 28.0784 189.6746 62.9018 7.9801 -11.0088 8.2925
# 3 16.7739 62.9018 153.8482 11.3302 -5.7433 16.6774
# 4 3.8773 7.9801 11.3302 50.4892 4.7242 -1.5703
# 5 -1.1472 -11.0088 -5.7433 4.7242 42.7587 -2.3194
# 6 3.6100 8.2925 16.6774 -1.5703 -2.3194 42.1268
#
#
#
# Elastic Compliance Matrix: (Units=1/GPa)
#
#
# Indices 1 2 3 4 5 6 
#
# 1 0.012162 -0.001564 -0.000593 -0.000559 -0.000123 -0.000527
# 2 -0.001564 0.006383 -0.002338 -0.000493 0.001334 -0.000142
# 3 -0.000593 -0.002338 0.007936 -0.001493 0.000469 -0.002661
# 4 -0.000559 -0.000493 -0.001493 0.020542 -0.002538 0.001362
# 5 -0.000123 0.001334 0.000469 -0.002538 0.024114 0.000795
# 6 -0.000527 -0.000142 -0.002661 0.001362 0.000795 0.024959
#
#
# Mechanical properties :
#
#
# Convention : Reuss Voigt Hill
#
# Bulk Modulus (GPa) = 57.16933 71.77844 64.47388
# Shear Modulus (GPa) = 45.07874 48.59114 46.83494
#
# Velocity S-wave (km/s) = 4.50113 4.67320 4.58797
# Velocity P-wave (km/s) = 7.26001 7.83444 7.55269
#
# Compressibility (1/GPa) = 0.01749190
#
# Stress axis : x y z
#
# Youngs Moduli (GPa) = 82.22242 156.65430 126.00481
#
# Poissons Ratio (x) = 0.24508 0.07468
# Poissons Ratio (y) = 0.12863 0.29458
# Poissons Ratio (z) = 0.04873 0.36623
#
# Static dielectric constant tensor:
#      x y z
#    x 3.395480 -0.124810 -0.160550 
#    y -0.124810 4.269470 0.036620 
#    z -0.160550 0.036620 3.623510 
# 
# 
# High freq. dielectric constant tensor:
#      x y z
#    x 1.873210 -0.001020 0.006180 
#    y -0.001020 1.903090 0.004170 
#    z 0.006180 0.004170 1.904960 
# 
# From -- ./inp_files/507286.got.cif
#   From: 2010.06.25/outbox.cif.g09.slc.cpg/sg2_254_cif.got.tgz:507286.got - 2010.06.27 13:26:56.
