data_PCOD8037416
_publ_section_title
;
Structure prediction by ZEFSAII (Michael W. Deem and Ramdas Pophale) SiO2 
 PCOD8037416
Probable space group: P -1
;
_chemical_formula_sum "Si O2"
_cell_formula_units_Z 12
_cell_length_a 18.196904
_cell_length_b 5.297927
_cell_length_c 5.360966
_cell_angle_alpha 90.500681
_cell_angle_beta 98.242385
_cell_angle_gamma 115.817258
_cell_volume 458.965279
_symmetry_space_group_name_H-M "P -1"
_symmetry_group_IT_number 2
_symmetry_cell_setting 'triclinic'
loop_
_space_group_symop_operation_xyz
x,y,z
-x,-y,-z
loop_
_atom_site_type_symbol
_atom_site_label
_atom_site_fract_x
_atom_site_fract_y
_atom_site_fract_z
Si Si1 0.212557 0.068718 0.356364
Si Si2 0.320833 0.483533 0.053248
Si Si3 0.500010 0.750272 0.337663
Si Si4 0.093240 0.233413 0.545336
Si Si5 0.320802 0.979112 0.767766
Si Si6 0.093244 0.546326 0.047645
O O1 0.154746 0.086431 0.553486
O O2 0.272123 0.929277 0.480974
O O3 0.154781 0.877805 0.101319
O O4 0.272242 0.386829 0.291517
O O5 0.294519 0.192141 0.896936
O O6 0.289714 0.684902 0.895398
O O7 0.419554 0.637223 0.126160
O O8 0.500000 0.500000 0.500000
O O9 0.580489 0.878715 0.206667
O O10 0.500000 0.000000 0.500000
O O11 0.108502 0.412531 0.303969
O O12 0.000000 0.000000 0.500000
O O13 0.113676 0.420738 0.806568
O O14 0.000000 0.500000 0.000000
#
# Coordination Sequence:
#
# PCOD8037416 Si02
#       6
#     2   2   2   2   2   2
#     4  12  32  49  80 122 172 210 290 363 424 514
#     4  12  29  51  82 119 167 223 280 350 432 507
#     4  12  24  50  82 113 167 222 281 342 424 514
#     4  12  29  53  85 119 165 223 290 354 439 521
#     4  12  29  51  82 119 167 223 280 350 432 507
#     4  12  29  53  85 119 165 223 290 354 439 521
#
# _framework density 26.145766999999999
#
# number of rings (size 3 to 8) (size 9 to 14) (size 15 to 20)
#    0.000    0.000    3.333    4.000    9.333    0.000 
#    0.000    0.000    0.000    0.000    0.000    0.000 
#    0.000    0.000    0.000    0.000    0.000    0.000 
#
# Total GULP energy -148844.548488 kJ/mol
# GULP energy per Si atom -12403.712374 kJ/mol
# Density = 2.608626 g / cm^3
# Si number density = 26.145767 Si / 1000 Ang^3
#
#
#
# Elastic Constant Matrix: (Units=GPa)
#
#
# Indices 1 2 3 4 5 6 
#
# 1 150.9173 83.2506 54.3582 5.4009 -0.0839 19.6477
# 2 83.2506 147.2292 69.4165 -7.0191 12.6238 -19.3263
# 3 54.3582 69.4165 153.4548 -11.0449 -0.9692 -4.9896
# 4 5.4009 -7.0191 -11.0449 60.1682 -11.6328 3.3787
# 5 -0.0839 12.6238 -0.9692 -11.6328 42.3824 10.8424
# 6 19.6477 -19.3263 -4.9896 3.3787 10.8424 57.9758
#
#
#
# Elastic Compliance Matrix: (Units=1/GPa)
#
#
# Indices 1 2 3 4 5 6 
#
# 1 0.012410 -0.007878 -0.001129 -0.001037 0.004009 -0.007618
# 2 -0.007878 0.014618 -0.003589 -0.000002 -0.006620 0.008472
# 3 -0.001129 -0.003589 0.008654 0.001658 0.001850 -0.000511
# 4 -0.001037 -0.000002 0.001658 0.018154 0.005423 -0.001579
# 5 0.004009 -0.006620 0.001850 0.005423 0.029467 -0.009233
# 6 -0.007618 0.008472 -0.000511 -0.001579 -0.009233 0.024429
#
#
# Mechanical properties :
#
#
# Convention : Reuss Voigt Hill
#
# Bulk Modulus (GPa) = 95.32204 96.18355 95.75279
# Shear Modulus (GPa) = 36.65108 48.41032 42.53070
#
# Velocity S-wave (km/s) = 3.74812 4.30764 4.03758
# Velocity P-wave (km/s) = 7.43426 7.84909 7.64449
#
# Compressibility (1/GPa) = 0.01049075
#
# Stress axis : x y z
#
# Youngs Moduli (GPa) = 80.58173 68.40771 115.54927
#
# Poissons Ratio (x) = 0.53891 0.13049
# Poissons Ratio (y) = 0.63481 0.41466
# Poissons Ratio (z) = 0.09100 0.24549
#
# Static dielectric constant tensor:
#      x y z
#    x 4.852070 -0.012550 0.084430 
#    y -0.012550 4.918720 -0.070440 
#    z 0.084430 -0.070440 4.699000 
# 
# 
# High freq. dielectric constant tensor:
#      x y z
#    x 2.072520 0.010170 0.007340 
#    y 0.010170 2.063930 0.000610 
#    z 0.007340 0.000610 2.047370 
# 
# From -- ./inp_files/102738.got.cif
#   From: 2010.06.25/outbox.cif.g09.slc.cpg/sg2_52_cif.got.tgz:102738.got - 2010.06.27 13:26:56.
