data_PCOD8037997
_publ_section_title
;
Structure prediction by ZEFSAII (Michael W. Deem and Ramdas Pophale) SiO2 
 PCOD8037997
Probable space group: P -1
;
_chemical_formula_sum "Si O2"
_cell_formula_units_Z 14
_cell_length_a 12.000000
_cell_length_b 12.000000
_cell_length_c 15.000000
_cell_angle_alpha 140.000000
_cell_angle_beta 150.000000
_cell_angle_gamma 50.000000
_cell_volume 692.779491
_symmetry_space_group_name_H-M "P -1"
_symmetry_group_IT_number 2
_symmetry_cell_setting 'triclinic'
loop_
_space_group_symop_operation_xyz
x,y,z
-x,-y,-z
loop_
_atom_site_type_symbol
_atom_site_label
_atom_site_fract_x
_atom_site_fract_y
_atom_site_fract_z
Si Si1 0.029389 0.701804 0.120599
Si Si2 0.460957 0.174710 0.130727
Si Si3 0.168395 0.559118 0.517848
Si Si4 0.728410 0.571030 0.306873
Si Si5 0.050667 0.276845 0.130321
Si Si6 0.531848 0.135646 0.363603
Si Si7 0.370789 0.765498 0.080105
O O1 0.252471 0.782398 0.378729
O O2 0.000000 0.500000 0.000000
O O3 0.800911 0.790915 0.042582
O O4 0.044217 0.723122 0.036479
O O5 0.612636 0.319071 0.272850
O O6 0.551618 0.174432 0.295356
O O7 0.500000 0.000000 0.000000
O O8 0.237617 0.423596 0.559528
O O9 0.086347 0.470890 0.313924
O O10 0.954584 0.655161 0.467343
O O11 0.519986 0.681314 0.207550
O O12 0.685307 0.370979 0.121786
O O13 0.292721 0.202074 0.267573
O O14 0.857092 0.177387 0.995558
O O15 0.514151 0.929319 0.239218
#
# Coordination Sequence:
#
# PCOD8037997 Si02
#       7
#     2   2   2   2   2   2   2
#     4  11  25  43  64  94 127 169 216 252 304 385
#     4  11  25  42  65  95 128 164 208 262 316 368
#     4  10  20  41  64  89 127 164 208 255 318 362
#     4   9  21  38  65  93 122 163 205 262 307 376
#     4  10  23  41  64  92 121 169 206 257 313 370
#     4  11  24  43  62  93 129 161 206 262 310 370
#     4  10  21  40  62  94 125 159 212 253 315 371
#
# _framework density 20.208449999999999
#
# number of rings (size 3 to 8) (size 9 to 14) (size 15 to 20)
#    0.000    1.714    0.000    3.000    6.000    3.429 
#   10.286    0.000    0.000    0.000    0.000    0.000 
#    0.000    0.000    0.000    0.000    0.000    0.000 
#
# Total GULP energy -173474.904136 kJ/mol
# GULP energy per Si atom -12391.064581 kJ/mol
# Density = 2.016246 g / cm^3
# Si number density = 20.208450 Si / 1000 Ang^3
#
#
#
# Elastic Constant Matrix: (Units=GPa)
#
#
# Indices 1 2 3 4 5 6 
#
# 1 115.2799 43.6944 54.6888 -8.4300 3.6275 -5.6337
# 2 43.6944 93.8086 51.9172 -16.0197 3.1256 -5.6586
# 3 54.6888 51.9172 151.0603 -31.7769 6.6228 2.3502
# 4 -8.4300 -16.0197 -31.7769 43.3279 6.4809 4.2402
# 5 3.6275 3.1256 6.6228 6.4809 44.4372 -4.1521
# 6 -5.6337 -5.6586 2.3502 4.2402 -4.1521 28.3756
#
#
#
# Elastic Compliance Matrix: (Units=1/GPa)
#
#
# Indices 1 2 3 4 5 6 
#
# 1 0.011657 -0.003764 -0.003360 -0.001842 0.000284 0.002159
# 2 -0.003764 0.014725 -0.003257 0.002174 -0.000366 0.002080
# 3 -0.003360 -0.003257 0.010485 0.006524 -0.002338 -0.003502
# 4 -0.001842 0.002174 0.006524 0.029751 -0.005854 -0.005775
# 5 0.000284 -0.000366 -0.002338 -0.005854 0.024137 0.004584
# 6 0.002159 0.002080 -0.003502 -0.005775 0.004584 0.037909
#
#
# Mechanical properties :
#
#
# Convention : Reuss Voigt Hill
#
# Bulk Modulus (GPa) = 62.09231 73.41661 67.75446
# Shear Modulus (GPa) = 32.30107 37.21802 34.75955
#
# Velocity S-wave (km/s) = 4.00233 4.29617 4.15185
# Velocity P-wave (km/s) = 7.22155 7.81140 7.52226
#
# Compressibility (1/GPa) = 0.01610505
#
# Stress axis : x y z
#
# Youngs Moduli (GPa) = 85.78488 67.91355 95.37253
#
# Poissons Ratio (x) = 0.25561 0.32047
# Poissons Ratio (y) = 0.32287 0.31063
# Poissons Ratio (z) = 0.28825 0.22119
#
# Static dielectric constant tensor:
#      x y z
#    x 4.009450 -0.007640 0.140710 
#    y -0.007640 3.653180 -0.251450 
#    z 0.140710 -0.251450 4.338290 
# 
# 
# High freq. dielectric constant tensor:
#      x y z
#    x 1.810750 -0.001290 0.001650 
#    y -0.001290 1.785010 -0.023500 
#    z 0.001650 -0.023500 1.823720 
# 
# From -- ./inp_files/419248.got.cif
#   From: 2010.06.25/outbox.ucp.g09.slc.cvg/sg2_210_cif.got.tgz:419248.got - 2010.06.28 11:54:26.
