data_PCOD8037520
_publ_section_title
;
Structure prediction by ZEFSAII (Michael W. Deem and Ramdas Pophale) SiO2 
 PCOD8037520
Probable space group: P -1
;
_chemical_formula_sum "Si O2"
_cell_formula_units_Z 16
_cell_length_a 11.919874
_cell_length_b 17.696841
_cell_length_c 14.505433
_cell_angle_alpha 31.561363
_cell_angle_beta 50.277965
_cell_angle_gamma 28.931260
_cell_volume 702.650116
_symmetry_space_group_name_H-M "P -1"
_symmetry_group_IT_number 2
_symmetry_cell_setting 'triclinic'
loop_
_space_group_symop_operation_xyz
x,y,z
-x,-y,-z
loop_
_atom_site_type_symbol
_atom_site_label
_atom_site_fract_x
_atom_site_fract_y
_atom_site_fract_z
Si Si1 0.010845 0.843548 0.601847
Si Si2 0.914437 0.188276 0.607018
Si Si3 0.475549 0.913964 0.349474
Si Si4 0.735263 0.046152 0.933837
Si Si5 0.346735 0.331198 0.685228
Si Si6 0.596437 0.704915 0.985579
Si Si7 0.530840 0.144230 0.311887
Si Si8 0.107786 0.494937 0.302251
O O1 0.161287 0.749951 0.525110
O O2 0.152614 0.598566 0.836254
O O3 0.000000 0.000000 0.500000
O O4 0.720082 0.024811 0.553075
O O5 0.895526 0.043858 0.806608
O O6 0.716098 0.448165 0.497726
O O7 0.200473 0.012662 0.636197
O O8 0.517504 0.807544 0.338797
O O9 0.740666 0.703672 0.486287
O O10 0.356790 0.170262 0.131579
O O11 0.536927 0.133796 0.874247
O O12 0.599754 0.210276 0.927849
O O13 0.933889 0.762618 0.156550
O O14 0.074288 0.472166 0.688073
O O15 0.482806 0.807487 0.837727
O O16 0.301342 0.405496 0.217994
O O17 0.500000 0.000000 0.500000
#
# Coordination Sequence:
#
# PCOD8037520 Si02
#       8
#     2   2   2   2   2   2   2   2
#     4  12  28  48  73 107 149 191 241 300 365 430
#     4  12  26  50  72 103 151 195 241 299 362 430
#     4  12  26  47  75 108 143 192 243 304 357 427
#     4  12  29  45  70 110 149 192 241 298 361 433
#     4  12  25  46  76 104 147 192 242 300 362 424
#     4  12  27  47  74 108 145 189 248 294 363 430
#     4  12  25  48  76 107 142 194 241 305 357 426
#     4  12  26  47  73 106 147 189 247 297 359 430
#
# _framework density 22.770935000000001
#
# number of rings (size 3 to 8) (size 9 to 14) (size 15 to 20)
#    0.000    0.000    6.250    2.250    7.000    2.000 
#    0.000    0.000    0.000    0.000    0.000    0.000 
#    0.000    0.000    0.000    0.000    0.000    0.000 
#
# Total GULP energy -198425.882578 kJ/mol
# GULP energy per Si atom -12401.617661 kJ/mol
# Density = 2.271911 g / cm^3
# Si number density = 22.770935 Si / 1000 Ang^3
#
#
#
# Elastic Constant Matrix: (Units=GPa)
#
#
# Indices 1 2 3 4 5 6 
#
# 1 88.8246 38.8134 58.8199 -3.5990 -5.8983 8.7296
# 2 38.8134 108.1434 41.9524 2.7500 4.3731 12.4105
# 3 58.8199 41.9524 137.8020 -7.3065 -2.4336 1.1902
# 4 -3.5990 2.7500 -7.3065 47.1407 8.1682 -1.4290
# 5 -5.8983 4.3731 -2.4336 8.1682 37.4409 4.5543
# 6 8.7296 12.4105 1.1902 -1.4290 4.5543 50.5381
#
#
#
# Elastic Compliance Matrix: (Units=1/GPa)
#
#
# Indices 1 2 3 4 5 6 
#
# 1 0.017429 -0.003701 -0.006240 -0.000016 0.003047 -0.002230
# 2 -0.003701 0.011700 -0.002049 -0.001069 -0.001598 -0.002072
# 3 -0.006240 -0.002049 0.010598 0.001422 -0.000538 0.001420
# 4 -0.000016 -0.001069 0.001422 0.022370 -0.004824 0.001299
# 5 0.003047 -0.001598 -0.000538 -0.004824 0.028739 -0.002848
# 6 -0.002230 -0.002072 0.001420 0.001299 -0.002848 0.020941
#
#
# Mechanical properties :
#
#
# Convention : Reuss Voigt Hill
#
# Bulk Modulus (GPa) = 63.51189 68.21573 65.86381
# Shear Modulus (GPa) = 35.45959 40.03622 37.74790
#
# Velocity S-wave (km/s) = 3.95046 4.19766 4.07593
# Velocity P-wave (km/s) = 6.98286 7.31547 7.15110
#
# Compressibility (1/GPa) = 0.01574508
#
# Stress axis : x y z
#
# Youngs Moduli (GPa) = 57.37682 85.47136 94.35903
#
# Poissons Ratio (x) = 0.31636 0.58882
# Poissons Ratio (y) = 0.21237 0.19334
# Poissons Ratio (z) = 0.35805 0.17513
#
# Static dielectric constant tensor:
#      x y z
#    x 4.053230 0.013670 -0.017380 
#    y 0.013670 4.577250 -0.072340 
#    z -0.017380 -0.072340 4.051750 
# 
# 
# High freq. dielectric constant tensor:
#      x y z
#    x 1.892620 0.007200 0.003690 
#    y 0.007200 1.920170 -0.004480 
#    z 0.003690 -0.004480 1.899530 
# 
# From -- ./inp_files/209480.got.cif
#   From: 2010.06.25/outbox.cif.g09.slc.cpg/sg2_105_cif.got.tgz:209480.got - 2010.06.27 13:26:56.
