data_PCOD8037843
_publ_section_title
;
Structure prediction by ZEFSAII (Michael W. Deem and Ramdas Pophale) SiO2 
 PCOD8037843
Probable space group: P -1
;
_chemical_formula_sum "Si O2"
_cell_formula_units_Z 16
_cell_length_a 11.045304
_cell_length_b 11.754669
_cell_length_c 16.662733
_cell_angle_alpha 111.315136
_cell_angle_beta 158.435045
_cell_angle_gamma 68.746837
_cell_volume 738.883683
_symmetry_space_group_name_H-M "P -1"
_symmetry_group_IT_number 2
_symmetry_cell_setting 'triclinic'
loop_
_space_group_symop_operation_xyz
x,y,z
-x,-y,-z
loop_
_atom_site_type_symbol
_atom_site_label
_atom_site_fract_x
_atom_site_fract_y
_atom_site_fract_z
Si Si1 0.448980 0.184946 0.862993
Si Si2 0.594151 0.939260 0.959050
Si Si3 0.867250 0.363286 0.252730
Si Si4 0.956343 0.241871 0.443601
Si Si5 0.706677 0.505188 0.979293
Si Si6 0.022999 0.757068 0.264396
Si Si7 0.602331 0.465987 0.365380
Si Si8 0.350140 0.381844 0.345312
O O1 0.307510 0.195278 0.687621
O O2 0.147828 0.202172 0.746021
O O3 0.634070 0.048614 0.948480
O O4 0.714313 0.284921 0.067830
O O5 0.309675 0.856935 0.730956
O O6 0.934922 0.855778 0.164661
O O7 0.500000 0.000000 0.000000
O O8 0.976569 0.270161 0.368591
O O9 0.601511 0.473798 0.145285
O O10 0.186065 0.430174 0.434447
O O11 0.863783 0.367598 0.463344
O O12 0.603998 0.469480 0.817340
O O13 0.885032 0.631410 0.117593
O O14 0.962928 0.390588 0.135158
O O15 0.423449 0.739005 0.517631
O O16 0.370652 0.397590 0.265489
O O17 0.500000 0.500000 0.500000
#
# Coordination Sequence:
#
# PCOD8037843 Si02
#       8
#     2   2   2   2   2   2   2   2
#     4  10  19  32  51  80 111 142 180 222 276 317
#     4  10  17  32  53  72 114 142 176 234 276 306
#     4  10  21  36  51  83 122 141 170 224 274 329
#     4  11  18  32  53  78 111 147 178 216 281 323
#     4   9  17  33  52  73 109 144 177 217 265 319
#     4   9  16  31  48  75 108 136 173 233 268 302
#     4  11  20  34  53  78 117 148 171 220 278 326
#     4  10  20  33  51  78 111 142 187 221 261 326
#
# _framework density 21.654287
#
# number of rings (size 3 to 8) (size 9 to 14) (size 15 to 20)
#    0.000    2.000    6.250    2.250    0.000    0.500 
#    4.500    0.000    0.000    0.000    0.000    4.375 
#    0.000    0.125    0.000    0.000    0.000    0.000 
#
# Total GULP energy -198218.277817 kJ/mol
# GULP energy per Si atom -12388.642364 kJ/mol
# Density = 2.160500 g / cm^3
# Si number density = 21.654287 Si / 1000 Ang^3
#
#
#
# Elastic Constant Matrix: (Units=GPa)
#
#
# Indices 1 2 3 4 5 6 
#
# 1 26.7007 12.5648 26.6696 -7.4290 -10.1587 11.7353
# 2 12.5648 86.1289 63.0763 -16.8734 0.7261 -0.3617
# 3 26.6696 63.0763 129.5921 -20.5614 -19.4976 7.1728
# 4 -7.4290 -16.8734 -20.5614 42.5943 -1.3022 -3.1604
# 5 -10.1587 0.7261 -19.4976 -1.3022 26.7736 -0.0041
# 6 11.7353 -0.3617 7.1728 -3.1604 -0.0041 12.1183
#
#
#
# Elastic Compliance Matrix: (Units=1/GPa)
#
#
# Indices 1 2 3 4 5 6 
#
# 1 0.108024 -0.012696 -0.003685 0.005706 0.038911 -0.101307
# 2 -0.012696 0.022060 -0.010839 0.002372 -0.013191 0.019983
# 3 -0.003685 -0.010839 0.016116 0.002759 0.010766 -0.005571
# 4 0.005706 0.002372 0.002759 0.026905 0.005418 -0.000069
# 5 0.038911 -0.013191 0.010766 0.005418 0.060569 -0.043014
# 6 -0.101307 0.019983 -0.005571 -0.000069 -0.043014 0.184486
#
#
# Mechanical properties :
#
#
# Convention : Reuss Voigt Hill
#
# Bulk Modulus (GPa) = 10.89780 49.67145 30.28462
# Shear Modulus (GPa) = 9.93666 25.63798 17.78732
#
# Velocity S-wave (km/s) = 2.14447 3.44462 2.86916
# Velocity P-wave (km/s) = 3.34293 6.22966 4.99919
#
# Compressibility (1/GPa) = 0.09176167
#
# Stress axis : x y z
#
# Youngs Moduli (GPa) = 9.25716 45.33039 62.04918
#
# Poissons Ratio (x) = 0.57553 0.22862
# Poissons Ratio (y) = 0.11753 0.67254
# Poissons Ratio (z) = 0.03411 0.49133
#
# Static dielectric constant tensor:
#      x y z
#    x 0.518920 -0.729120 0.590180 
#    y -0.729120 4.532750 -0.445860 
#    z 0.590180 -0.445860 4.582930 
# 
# 
# High freq. dielectric constant tensor:
#      x y z
#    x 1.811950 0.007180 -0.035560 
#    y 0.007180 1.830150 -0.015040 
#    z -0.035560 -0.015040 1.856930 
# 
# From -- ./inp_files/337370.got.cif
#   From: 2010.06.25/outbox.cif.g09.slc.cpg/sg2_169_cif.got.tgz:337370.got - 2010.06.27 13:26:56.
