data_PCOD8037207
_publ_section_title
;
Structure prediction by ZEFSAII (Michael W. Deem and Ramdas Pophale) SiO2 
 PCOD8037207
Probable space group: P -1
;
_chemical_formula_sum "Si O2"
_cell_formula_units_Z 16
_cell_length_a 12.528471
_cell_length_b 8.723135
_cell_length_c 17.168288
_cell_angle_alpha 38.533572
_cell_angle_beta 138.645063
_cell_angle_gamma 137.895831
_cell_volume 715.638935
_symmetry_space_group_name_H-M "P -1"
_symmetry_group_IT_number 2
_symmetry_cell_setting 'triclinic'
loop_
_space_group_symop_operation_xyz
x,y,z
-x,-y,-z
loop_
_atom_site_type_symbol
_atom_site_label
_atom_site_fract_x
_atom_site_fract_y
_atom_site_fract_z
Si Si1 0.317987 0.025238 0.899213
Si Si2 0.695854 0.809966 0.593507
Si Si3 0.355799 0.375905 0.640601
Si Si4 0.402487 0.997233 0.695858
Si Si5 0.007036 0.411860 0.180445
Si Si6 0.754737 0.016859 0.948463
Si Si7 0.861446 0.559057 0.192030
Si Si8 0.110363 0.661911 0.423951
O O1 0.163058 0.755594 0.895465
O O2 0.324388 0.276081 0.752002
O O3 0.304012 0.092398 0.954179
O O4 0.500000 0.000000 0.000000
O O5 0.554658 0.569560 0.658212
O O6 0.857919 0.736029 0.686293
O O7 0.606369 0.878033 0.442039
O O8 0.757148 0.054859 0.588301
O O9 0.219054 0.514797 0.496874
O O10 0.314158 0.124552 0.660859
O O11 0.303144 0.681706 0.767719
O O12 0.604687 0.063129 0.798150
O O13 0.085188 0.702790 0.069305
O O14 0.959802 0.441808 0.231650
O O15 0.805762 0.783595 0.030380
O O16 0.984235 0.704335 0.273502
O O17 0.000000 0.500000 0.500000
#
# Coordination Sequence:
#
# PCOD8037207 Si02
#       8
#     2   2   2   2   2   2   2   2
#     4  12  24  45  74 104 143 190 240 291 363 431
#     4  12  26  47  74 108 142 190 239 299 359 421
#     4  12  25  47  71 107 142 187 239 294 360 426
#     4  12  25  46  74 103 149 188 239 292 357 433
#     4  12  25  47  74 104 142 189 242 299 357 428
#     4  12  26  47  68 108 144 190 238 296 360 425
#     4  12  26  45  71 104 145 189 238 296 360 429
#     4  12  26  46  70 107 141 187 239 298 357 420
#
# _framework density 22.357644000000001
#
# number of rings (size 3 to 8) (size 9 to 14) (size 15 to 20)
#    0.000    0.000    5.000    4.875    1.750    2.000 
#    0.000    0.000    0.000    0.000    0.000    0.000 
#    0.000    0.000    0.000    0.000    0.000    0.000 
#
# Total GULP energy -198504.823773 kJ/mol
# GULP energy per Si atom -12406.551486 kJ/mol
# Density = 2.230676 g / cm^3
# Si number density = 22.357644 Si / 1000 Ang^3
#
#
#
# Elastic Constant Matrix: (Units=GPa)
#
#
# Indices 1 2 3 4 5 6 
#
# 1 74.3055 36.3568 29.3407 6.2848 13.5094 5.5132
# 2 36.3568 135.6195 69.1707 1.8759 2.4303 9.4705
# 3 29.3407 69.1707 91.8159 -3.4854 19.3248 -1.4792
# 4 6.2848 1.8759 -3.4854 39.5507 -0.7854 -2.4080
# 5 13.5094 2.4303 19.3248 -0.7854 45.1357 -4.1246
# 6 5.5132 9.4705 -1.4792 -2.4080 -4.1246 39.0026
#
#
#
# Elastic Compliance Matrix: (Units=1/GPa)
#
#
# Indices 1 2 3 4 5 6 
#
# 1 0.017111 -0.003062 -0.002433 -0.003017 -0.004186 -0.002396
# 2 -0.003062 0.013543 -0.010215 -0.001145 0.004279 -0.002861
# 3 -0.002433 -0.010215 0.021080 0.002765 -0.007424 0.003009
# 4 -0.003017 -0.001145 0.002765 0.026221 0.000464 0.002477
# 5 -0.004186 0.004279 -0.007424 0.000464 0.026557 0.002108
# 6 -0.002396 -0.002861 0.003009 0.002477 0.002108 0.027163
#
#
# Mechanical properties :
#
#
# Convention : Reuss Voigt Hill
#
# Bulk Modulus (GPa) = 49.22550 63.49749 56.36149
# Shear Modulus (GPa) = 29.43463 35.86266 32.64864
#
# Velocity S-wave (km/s) = 3.63235 4.00940 3.82552
# Velocity P-wave (km/s) = 6.29738 7.06372 6.69153
#
# Compressibility (1/GPa) = 0.02031468
#
# Stress axis : x y z
#
# Youngs Moduli (GPa) = 58.44171 73.83736 47.43745
#
# Poissons Ratio (x) = 0.22609 0.11543
# Poissons Ratio (y) = 0.17895 0.48456
# Poissons Ratio (z) = 0.14221 0.75423
#
# Static dielectric constant tensor:
#      x y z
#    x 3.764930 0.136130 0.245810 
#    y 0.136130 4.169970 -0.153880 
#    z 0.245810 -0.153880 4.092420 
# 
# 
# High freq. dielectric constant tensor:
#      x y z
#    x 1.889060 0.003210 0.006330 
#    y 0.003210 1.893370 -0.005010 
#    z 0.006330 -0.005010 1.887680 
# 
# From -- ./inp_files/190162.got.cif
#   From: 2010.06.25/outbox.cif.g09.slc.cpg/sg2_96_cif.got.tgz:190162.got - 2010.06.27 13:26:56.
