data_PCOD8037273
_publ_section_title
;
Structure prediction by ZEFSAII (Michael W. Deem and Ramdas Pophale) SiO2 
 PCOD8037273
Probable space group: P -1
;
_chemical_formula_sum "Si O2"
_cell_formula_units_Z 12
_cell_length_a 16.700424
_cell_length_b 11.832196
_cell_length_c 19.617843
_cell_angle_alpha 21.848134
_cell_angle_beta 21.677226
_cell_angle_gamma 33.893075
_cell_volume 517.817274
_symmetry_space_group_name_H-M "P -1"
_symmetry_group_IT_number 2
_symmetry_cell_setting 'triclinic'
loop_
_space_group_symop_operation_xyz
x,y,z
-x,-y,-z
loop_
_atom_site_type_symbol
_atom_site_label
_atom_site_fract_x
_atom_site_fract_y
_atom_site_fract_z
Si Si1 0.319411 0.654771 0.520840
Si Si2 0.411325 0.209396 0.398386
Si Si3 0.885399 0.377744 0.088397
Si Si4 0.907078 0.384422 0.564139
Si Si5 0.579968 0.809413 0.101938
Si Si6 0.322944 0.360047 0.162239
O O1 0.500000 0.500000 0.500000
O O2 0.366091 0.655641 0.402920
O O3 0.324863 0.000022 0.351090
O O4 0.073267 0.436609 0.848413
O O5 0.263898 0.412830 0.439872
O O6 0.500000 0.000000 0.500000
O O7 0.241072 0.987440 0.603783
O O8 0.613587 0.438979 0.069665
O O9 0.692577 0.552955 0.122815
O O10 0.000000 0.500000 0.000000
O O11 0.000000 0.500000 0.500000
O O12 0.086051 0.400117 0.353992
O O13 0.764362 0.027665 0.883469
O O14 0.500000 0.000000 0.000000
O O15 0.500000 0.500000 0.000000
#
# Coordination Sequence:
#
# PCOD8037273 Si02
#       6
#     2   2   2   2   2   2
#     4  12  26  44  74 106 138 187 242 289 349 422
#     4  12  28  46  71 108 149 181 232 299 357 411
#     4  12  25  44  73 106 138 183 242 286 344 426
#     4  12  24  46  76 102 140 192 238 283 351 428
#     4  12  26  45  71 105 144 181 231 298 354 407
#     4  12  25  45  74 104 140 189 239 288 350 424
#
# _framework density 23.174195999999998
#
# number of rings (size 3 to 8) (size 9 to 14) (size 15 to 20)
#    0.000    0.000    6.667    3.000    2.333    2.667 
#    0.000    0.000    0.000    0.000    0.000    0.000 
#    0.000    0.000    0.000    0.000    0.000    0.000 
#
# Total GULP energy -148826.782128 kJ/mol
# GULP energy per Si atom -12402.231844 kJ/mol
# Density = 2.312145 g / cm^3
# Si number density = 23.174196 Si / 1000 Ang^3
#
#
#
# Elastic Constant Matrix: (Units=GPa)
#
#
# Indices 1 2 3 4 5 6 
#
# 1 66.4807 25.5255 19.0466 16.3931 32.2071 -1.2808
# 2 25.5255 191.2201 63.0837 29.2012 32.6358 -4.8007
# 3 19.0466 63.0837 131.3791 15.8963 21.0441 10.5417
# 4 16.3931 29.2012 15.8963 53.0725 10.7665 4.0803
# 5 32.2071 32.6358 21.0441 10.7665 41.8143 -6.3073
# 6 -1.2808 -4.8007 10.5417 4.0803 -6.3073 27.8801
#
#
#
# Elastic Compliance Matrix: (Units=1/GPa)
#
#
# Indices 1 2 3 4 5 6 
#
# 1 0.024970 0.000479 -0.000159 -0.003913 -0.018883 -0.002410
# 2 0.000479 0.007140 -0.002750 -0.002668 -0.003588 0.001870
# 3 -0.000159 -0.002750 0.009938 -0.000345 -0.003391 -0.004955
# 4 -0.003913 -0.002668 -0.000345 0.022138 -0.001030 -0.003982
# 5 -0.018883 -0.003588 -0.003391 -0.001030 0.044751 0.010072
# 6 -0.002410 0.001870 -0.004955 -0.003982 0.010072 0.040814
#
#
# Mechanical properties :
#
#
# Convention : Reuss Voigt Hill
#
# Bulk Modulus (GPa) = 26.89063 67.15463 47.02263
# Shear Modulus (GPa) = 29.93916 43.31500 36.62708
#
# Velocity S-wave (km/s) = 3.59823 4.32800 3.97988
# Velocity P-wave (km/s) = 5.37511 7.34960 6.43850
#
# Compressibility (1/GPa) = 0.03718768
#
# Stress axis : x y z
#
# Youngs Moduli (GPa) = 40.04839 140.06066 100.62747
#
# Poissons Ratio (x) = -0.06708 0.01596
# Poissons Ratio (y) = -0.01918 0.27674
# Poissons Ratio (z) = 0.00635 0.38518
#
# Static dielectric constant tensor:
#      x y z
#    x 3.761650 -0.053090 -0.118210 
#    y -0.053090 4.460080 -0.237460 
#    z -0.118210 -0.237460 4.518900 
# 
# 
# High freq. dielectric constant tensor:
#      x y z
#    x 1.900390 -0.002210 0.003310 
#    y -0.002210 1.944840 -0.001230 
#    z 0.003310 -0.001230 1.929050 
# 
# From -- ./inp_files/150574.got.cif
#   From: 2010.06.25/outbox.cif.g09.slc.cpg/sg2_76_cif.got.tgz:150574.got - 2010.06.27 13:26:56.
