data_PCOD8037536
_publ_section_title
;
Structure prediction by ZEFSAII (Michael W. Deem and Ramdas Pophale) SiO2 
 PCOD8037536
Probable space group: P -1
;
_chemical_formula_sum "Si O2"
_cell_formula_units_Z 12
_cell_length_a 9.565364
_cell_length_b 5.537409
_cell_length_c 21.904100
_cell_angle_alpha 102.730022
_cell_angle_beta 151.079241
_cell_angle_gamma 68.373418
_cell_volume 507.910323
_symmetry_space_group_name_H-M "P -1"
_symmetry_group_IT_number 2
_symmetry_cell_setting 'triclinic'
loop_
_space_group_symop_operation_xyz
x,y,z
-x,-y,-z
loop_
_atom_site_type_symbol
_atom_site_label
_atom_site_fract_x
_atom_site_fract_y
_atom_site_fract_z
Si Si1 0.840758 0.281944 0.921763
Si Si2 0.757833 0.677791 0.252729
Si Si3 0.819397 0.116850 0.376947
Si Si4 0.332591 0.287864 0.919749
Si Si5 0.685033 0.776186 0.510904
Si Si6 0.283719 0.627037 0.250724
O O1 0.498036 0.442637 0.829994
O O2 0.843922 0.186091 0.846856
O O3 0.000000 0.500000 0.000000
O O4 0.000000 0.000000 0.000000
O O5 0.711432 0.771395 0.170591
O O6 0.120097 0.489417 0.391185
O O7 0.668848 0.929756 0.277237
O O8 0.537010 0.375750 0.302185
O O9 0.059693 0.154949 0.423900
O O10 0.000000 0.000000 0.500000
O O11 0.994574 0.438306 0.828670
O O12 0.500000 0.500000 0.000000
O O13 0.500000 0.000000 0.000000
O O14 0.434913 0.749811 0.366752
O O15 0.500000 0.000000 0.500000
#
# Coordination Sequence:
#
# PCOD8037536 Si02
#       6
#     2   2   2   2   2   2
#     4  12  26  48  80 112 154 207 260 321 385 459
#     4  12  27  50  78 113 158 201 265 327 394 474
#     4  12  25  46  79 116 154 197 259 323 400 469
#     4  12  31  53  79 115 162 214 267 320 392 475
#     4  12  28  48  78 116 155 203 255 328 407 467
#     4  12  26  51  80 116 154 204 264 329 392 469
#
# _framework density 23.626218999999999
#
# number of rings (size 3 to 8) (size 9 to 14) (size 15 to 20)
#    0.000    0.000    3.333    5.500    7.000    2.667 
#    0.000    0.000    0.000    0.000    0.000    0.000 
#    0.000    0.000    0.000    0.000    0.000    0.000 
#
# Total GULP energy -148758.881894 kJ/mol
# GULP energy per Si atom -12396.573491 kJ/mol
# Density = 2.357244 g / cm^3
# Si number density = 23.626219 Si / 1000 Ang^3
#
#
#
# Elastic Constant Matrix: (Units=GPa)
#
#
# Indices 1 2 3 4 5 6 
#
# 1 198.0329 73.3783 95.3147 6.1207 -1.7872 -16.8476
# 2 73.3783 153.4622 72.7610 10.7027 -8.0820 -8.2767
# 3 95.3147 72.7610 160.2161 13.3500 -17.5168 1.0686
# 4 6.1207 10.7027 13.3500 14.9249 -0.2791 -1.2719
# 5 -1.7872 -8.0820 -17.5168 -0.2791 73.0669 -1.2584
# 6 -16.8476 -8.2767 1.0686 -1.2719 -1.2584 48.6420
#
#
#
# Elastic Compliance Matrix: (Units=1/GPa)
#
#
# Indices 1 2 3 4 5 6 
#
# 1 0.007868 -0.001860 -0.004123 0.001993 -0.000951 0.002527
# 2 -0.001860 0.008955 -0.002666 -0.003195 0.000309 0.000863
# 3 -0.004123 -0.002666 0.010656 -0.006079 0.002097 -0.002220
# 4 0.001993 -0.003195 -0.006079 0.074072 -0.001441 0.002180
# 5 -0.000951 0.000309 0.002097 -0.001441 0.014194 0.000007
# 6 0.002527 0.000863 -0.002220 0.002180 0.000007 0.021686
#
#
# Mechanical properties :
#
#
# Convention : Reuss Voigt Hill
#
# Bulk Modulus (GPa) = 98.22381 110.51325 104.36853
# Shear Modulus (GPa) = 31.62081 45.34392 38.48236
#
# Velocity S-wave (km/s) = 3.66235 4.38564 4.04022
# Velocity P-wave (km/s) = 7.71674 8.51601 8.12621
#
# Compressibility (1/GPa) = 0.01018083
#
# Stress axis : x y z
#
# Youngs Moduli (GPa) = 127.09596 111.66438 93.84570
#
# Poissons Ratio (x) = 0.20771 0.38691
# Poissons Ratio (y) = 0.23641 0.25021
# Poissons Ratio (z) = 0.52400 0.29772
#
# Static dielectric constant tensor:
#      x y z
#    x 4.698930 0.036710 -0.048250 
#    y 0.036710 4.126610 -0.000670 
#    z -0.048250 -0.000670 4.966750 
# 
# 
# High freq. dielectric constant tensor:
#      x y z
#    x 1.967480 -0.001640 -0.002960 
#    y -0.001640 1.925760 -0.001600 
#    z -0.002960 -0.001600 1.965820 
# 
# From -- ./inp_files/22877.got.cif
#   From: 2010.06.25/outbox.cif.g09.slc.cpg/sg2_12_cif.got.tgz:22877.got - 2010.06.27 13:26:56.
