data_PCOD8037793
_publ_section_title
;
Structure prediction by ZEFSAII (Michael W. Deem and Ramdas Pophale) SiO2 
 PCOD8037793
Probable space group: P -1
;
_chemical_formula_sum "Si O2"
_cell_formula_units_Z 16
_cell_length_a 5.366000
_cell_length_b 19.046604
_cell_length_c 8.624451
_cell_angle_alpha 122.586864
_cell_angle_beta 56.598677
_cell_angle_gamma 107.861239
_cell_volume 619.959819
_symmetry_space_group_name_H-M "P -1"
_symmetry_group_IT_number 2
_symmetry_cell_setting 'triclinic'
loop_
_space_group_symop_operation_xyz
x,y,z
-x,-y,-z
loop_
_atom_site_type_symbol
_atom_site_label
_atom_site_fract_x
_atom_site_fract_y
_atom_site_fract_z
Si Si1 0.148392 0.239167 0.285177
Si Si2 0.703131 0.117394 0.445549
Si Si3 0.371345 0.853369 0.157856
Si Si4 0.377298 0.372267 0.608464
Si Si5 0.928237 0.319356 0.913690
Si Si6 0.999900 0.372900 0.282957
Si Si7 0.564236 0.461401 0.100462
Si Si8 0.716395 0.979549 0.762378
O O1 0.285143 0.317347 0.427059
O O2 0.853869 0.202190 0.425088
O O3 0.101162 0.279094 0.179790
O O4 0.373995 0.164362 0.079541
O O5 0.517744 0.133255 0.686438
O O6 0.467210 0.083146 0.361397
O O7 0.975336 0.056003 0.320248
O O8 0.142288 0.776960 0.156817
O O9 0.201268 0.935825 0.258581
O O10 0.732707 0.389943 0.515284
O O11 0.251260 0.467636 0.777821
O O12 0.270077 0.322296 0.739694
O O13 0.875129 0.368829 0.147801
O O14 0.734711 0.373007 0.919698
O O15 0.262131 0.441571 0.279819
O O16 0.500000 0.500000 0.000000
O O17 0.500000 0.000000 0.000000
#
# Coordination Sequence:
#
# PCOD8037793 Si02
#       8
#     2   2   2   2   2   2   2   2
#     4  12  28  47  77 114 149 208 258 323 391 468
#     4  12  29  52  80 119 161 212 258 326 405 471
#     4  12  26  52  78 112 162 198 266 319 396 477
#     4  12  27  48  75 108 154 198 263 320 389 473
#     4  12  27  50  74 113 150 205 256 329 390 470
#     4  12  27  46  76 110 148 206 258 320 403 452
#     4  12  27  49  75 109 154 204 261 321 396 472
#     4  12  28  52  85 120 159 210 262 327 397 480
#
# _framework density 25.808123999999999
#
# number of rings (size 3 to 8) (size 9 to 14) (size 15 to 20)
#    0.000    0.000    6.250    1.875    5.250    4.000 
#    0.000    0.000    0.000    0.000    0.000    0.000 
#    0.000    0.000    0.000    0.000    0.000    0.000 
#
# Total GULP energy -198271.594082 kJ/mol
# GULP energy per Si atom -12391.974630 kJ/mol
# Density = 2.574938 g / cm^3
# Si number density = 25.808124 Si / 1000 Ang^3
#
#
#
# Elastic Constant Matrix: (Units=GPa)
#
#
# Indices 1 2 3 4 5 6 
#
# 1 55.7566 23.6386 6.9718 6.2843 6.8435 4.6828
# 2 23.6386 160.3877 32.8426 -13.4729 2.2957 10.3637
# 3 6.9718 32.8426 99.4921 5.0239 11.3899 20.9312
# 4 6.2843 -13.4729 5.0239 43.7463 9.3151 -4.2835
# 5 6.8435 2.2957 11.3899 9.3151 32.5734 -3.7342
# 6 4.6828 10.3637 20.9312 -4.2835 -3.7342 31.6352
#
#
#
# Elastic Compliance Matrix: (Units=1/GPa)
#
#
# Indices 1 2 3 4 5 6 
#
# 1 0.020339 -0.003218 0.000996 -0.003569 -0.003780 -0.003545
# 2 -0.003218 0.007451 -0.002414 0.003010 0.000141 0.000057
# 3 0.000996 -0.002414 0.013399 -0.002226 -0.005134 -0.009129
# 4 -0.003569 0.003010 -0.002226 0.026152 -0.005718 0.003881
# 5 -0.003780 0.000141 -0.005134 -0.005718 0.035758 0.007357
# 6 -0.003545 0.000057 -0.009129 0.003881 0.007357 0.039551
#
#
# Mechanical properties :
#
#
# Convention : Reuss Voigt Hill
#
# Bulk Modulus (GPa) = 31.33248 49.17136 40.25192
# Shear Modulus (GPa) = 30.75770 38.40320 34.58045
#
# Velocity S-wave (km/s) = 3.45597 3.86168 3.66444
# Velocity P-wave (km/s) = 5.30017 6.24319 5.79091
#
# Compressibility (1/GPa) = 0.03191576
#
# Stress axis : x y z
#
# Youngs Moduli (GPa) = 49.16669 134.21619 74.63241
#
# Poissons Ratio (x) = 0.43194 -0.07433
# Poissons Ratio (y) = 0.15823 0.18017
# Poissons Ratio (z) = -0.04896 0.32401
#
# Static dielectric constant tensor:
#      x y z
#    x 4.423190 -0.022620 -0.081180 
#    y -0.022620 5.232100 -0.002280 
#    z -0.081180 -0.002280 4.918940 
# 
# 
# High freq. dielectric constant tensor:
#      x y z
#    x 2.004890 0.005690 -0.003260 
#    y 0.005690 2.062980 -0.011090 
#    z -0.003260 -0.011090 2.046140 
# 
# From -- ./inp_files/139321.got.cif
#   From: 2010.06.25/outbox.cif.g09.slc.cpg/sg2_70_cif.got.tgz:139321.got - 2010.06.27 13:26:56.
