data_PCOD8037168
_publ_section_title
;
Structure prediction by ZEFSAII (Michael W. Deem and Ramdas Pophale) SiO2 
 PCOD8037168
Probable space group: P -1
;
_chemical_formula_sum "Si O2"
_cell_formula_units_Z 14
_cell_length_a 24.387540
_cell_length_b 9.060775
_cell_length_c 8.992088
_cell_angle_alpha 134.174123
_cell_angle_beta 39.368047
_cell_angle_gamma 151.661321
_cell_volume 597.373606
_symmetry_space_group_name_H-M "P -1"
_symmetry_group_IT_number 2
_symmetry_cell_setting 'triclinic'
loop_
_space_group_symop_operation_xyz
x,y,z
-x,-y,-z
loop_
_atom_site_type_symbol
_atom_site_label
_atom_site_fract_x
_atom_site_fract_y
_atom_site_fract_z
Si Si1 0.270574 0.351829 0.349867
Si Si2 0.882220 0.922531 0.122651
Si Si3 0.370458 0.132724 0.012312
Si Si4 0.982159 0.914504 0.646960
Si Si5 0.413675 0.931545 0.268594
Si Si6 0.217941 0.810592 0.408498
Si Si7 0.379031 0.693834 0.656826
O O1 0.268756 0.108360 0.128717
O O2 0.317837 0.576275 0.272637
O O3 0.368682 0.543495 0.421659
O O4 0.128072 0.147225 0.569512
O O5 0.751895 0.555476 0.148668
O O6 0.857052 0.105859 0.364936
O O7 0.917012 0.992491 0.922554
O O8 0.000000 0.000000 0.000000
O O9 0.312907 0.970609 0.180190
O O10 0.500000 0.500000 0.000000
O O11 0.395157 0.960979 0.755690
O O12 0.897381 0.561577 0.611650
O O13 0.000000 0.000000 0.500000
O O14 0.318509 0.948219 0.431031
O O15 0.502531 0.165801 0.385046
O O16 0.500000 0.000000 0.000000
#
# Coordination Sequence:
#
# PCOD8037168 Si02
#       7
#     2   2   2   2   2   2   2
#     4  12  26  46  71 110 142 191 248 297 363 440
#     4  12  26  48  74 108 146 192 246 300 365 439
#     4  12  24  44  74 107 142 191 244 291 369 433
#     4  12  26  48  74 104 149 189 243 309 366 431
#     4  12  24  48  75 105 154 188 242 307 366 437
#     4  12  26  47  76 111 143 197 243 300 374 428
#     4  12  25  45  75 104 149 188 241 300 361 432
#
# _framework density 23.435919999999999
#
# number of rings (size 3 to 8) (size 9 to 14) (size 15 to 20)
#    0.000    0.000    8.571    0.429    2.000    2.286 
#    2.571    0.000    0.000    0.000    0.000    0.000 
#    0.000    0.000    0.000    0.000    0.000    0.000 
#
# Total GULP energy -173454.928736 kJ/mol
# GULP energy per Si atom -12389.637767 kJ/mol
# Density = 2.338258 g / cm^3
# Si number density = 23.435920 Si / 1000 Ang^3
#
#
#
# Elastic Constant Matrix: (Units=GPa)
#
#
# Indices 1 2 3 4 5 6 
#
# 1 112.4606 34.0218 24.4505 0.5602 -13.4495 -2.8961
# 2 34.0218 142.1619 26.4923 -23.6676 0.5416 -6.6011
# 3 24.4505 26.4923 65.1322 -4.2859 -5.8824 3.8473
# 4 0.5602 -23.6676 -4.2859 48.6229 -9.3803 0.7502
# 5 -13.4495 0.5416 -5.8824 -9.3803 43.0696 -6.0484
# 6 -2.8961 -6.6011 3.8473 0.7502 -6.0484 36.8113
#
#
#
# Elastic Compliance Matrix: (Units=1/GPa)
#
#
# Indices 1 2 3 4 5 6 
#
# 1 0.010550 -0.002061 -0.002990 -0.000847 0.002905 0.001268
# 2 -0.002061 0.008761 -0.002620 0.004031 -0.000009 0.001599
# 3 -0.002990 -0.002620 0.017844 0.000627 0.001341 -0.002362
# 4 -0.000847 0.004031 0.000627 0.023550 0.005031 0.000937
# 5 0.002905 -0.000009 0.001341 0.005031 0.026002 0.004257
# 6 0.001268 0.001599 -0.002362 0.000937 0.004257 0.028479
#
#
# Mechanical properties :
#
#
# Convention : Reuss Voigt Hill
#
# Bulk Modulus (GPa) = 45.84586 54.40932 50.12759
# Shear Modulus (GPa) = 36.28480 41.35343 38.81911
#
# Velocity S-wave (km/s) = 3.93906 4.20519 4.07430
# Velocity P-wave (km/s) = 6.34767 6.84432 6.60067
#
# Compressibility (1/GPa) = 0.02181222
#
# Stress axis : x y z
#
# Youngs Moduli (GPa) = 94.78736 114.14219 56.04263
#
# Poissons Ratio (x) = 0.23522 0.16759
# Poissons Ratio (y) = 0.19533 0.14683
# Poissons Ratio (z) = 0.28346 0.29904
#
# Static dielectric constant tensor:
#      x y z
#    x 4.871660 -0.123220 -0.776380 
#    y -0.123220 4.660460 -0.258100 
#    z -0.776380 -0.258100 5.426990 
# 
# 
# High freq. dielectric constant tensor:
#      x y z
#    x 1.920790 -0.007980 -0.003950 
#    y -0.007980 1.941110 -0.031130 
#    z -0.003950 -0.031130 1.948060 
# 
# From -- ./inp_files/352396.got.cif
#   From: 2010.06.25/outbox.cif.g09.slc.cpg/sg2_177_cif.got.tgz:352396.got - 2010.06.27 13:26:56.
