data_PCOD8037397
_publ_section_title
;
Structure prediction by ZEFSAII (Michael W. Deem and Ramdas Pophale) SiO2 
 PCOD8037397
Probable space group: P -1
;
_chemical_formula_sum "Si O2"
_cell_formula_units_Z 16
_cell_length_a 14.332362
_cell_length_b 8.907810
_cell_length_c 11.459396
_cell_angle_alpha 98.312732
_cell_angle_beta 30.438195
_cell_angle_gamma 106.873289
_cell_volume 692.214911
_symmetry_space_group_name_H-M "P -1"
_symmetry_group_IT_number 2
_symmetry_cell_setting 'triclinic'
loop_
_space_group_symop_operation_xyz
x,y,z
-x,-y,-z
loop_
_atom_site_type_symbol
_atom_site_label
_atom_site_fract_x
_atom_site_fract_y
_atom_site_fract_z
Si Si1 0.889391 0.063363 0.882097
Si Si2 0.683390 0.862468 0.574519
Si Si3 0.707740 0.214400 0.518135
Si Si4 0.321031 0.281855 0.951250
Si Si5 0.849097 0.322757 0.121193
Si Si6 0.017329 0.665204 0.559926
Si Si7 0.549598 0.423373 0.325320
Si Si8 0.650083 0.124242 0.934690
O O1 0.733677 0.062170 0.950793
O O2 0.102028 0.095446 0.595938
O O3 0.926405 0.187290 0.964939
O O4 0.808111 0.879692 0.998212
O O5 0.654665 0.714787 0.500591
O O6 0.663378 0.024017 0.557756
O O7 0.494087 0.780831 0.854053
O O8 0.525152 0.262621 0.769084
O O9 0.740301 0.258101 0.352019
O O10 0.895700 0.320368 0.400966
O O11 0.360342 0.439892 0.850592
O O12 0.191513 0.305048 0.204540
O O13 0.704526 0.335637 0.176966
O O14 0.000000 0.500000 0.000000
O O15 0.166012 0.793397 0.332921
O O16 0.000000 0.500000 0.500000
O O17 0.500000 0.500000 0.500000
O O18 0.500000 0.000000 0.000000
#
# Coordination Sequence:
#
# PCOD8037397 Si02
#       8
#     2   2   2   2   2   2   2   2
#     4  12  27  47  80 111 149 201 244 308 374 447
#     4  12  26  48  72 111 147 197 247 308 374 443
#     4  12  26  49  75 108 152 193 250 303 379 443
#     4  12  25  48  75 110 146 193 251 300 380 439
#     4  12  27  47  76 113 155 197 248 308 374 453
#     4  12  28  47  75 106 148 193 250 316 362 446
#     4  12  25  45  74 109 151 194 244 307 374 446
#     4  12  24  49  75 105 146 190 251 303 369 435
#
# _framework density 23.11421
#
# number of rings (size 3 to 8) (size 9 to 14) (size 15 to 20)
#    0.000    0.000    6.250    2.250    3.500    5.000 
#    0.000    0.000    0.000    0.000    0.000    0.000 
#    0.000    0.000    0.000    0.000    0.000    0.000 
#
# Total GULP energy -198217.349711 kJ/mol
# GULP energy per Si atom -12388.584357 kJ/mol
# Density = 2.306160 g / cm^3
# Si number density = 23.114210 Si / 1000 Ang^3
#
#
#
# Elastic Constant Matrix: (Units=GPa)
#
#
# Indices 1 2 3 4 5 6 
#
# 1 92.6309 47.1480 39.4762 -5.3936 -10.0895 13.5722
# 2 47.1480 159.5301 52.2231 -0.9893 2.3573 19.8578
# 3 39.4762 52.2231 153.9253 7.8061 -13.6821 -2.5490
# 4 -5.3936 -0.9893 7.8061 38.4523 -2.7536 -4.4735
# 5 -10.0895 2.3573 -13.6821 -2.7536 32.0870 -0.9443
# 6 13.5722 19.8578 -2.5490 -4.4735 -0.9443 26.1862
#
#
#
# Elastic Compliance Matrix: (Units=1/GPa)
#
#
# Indices 1 2 3 4 5 6 
#
# 1 0.014680 -0.002864 -0.002659 0.002189 0.003728 -0.005187
# 2 -0.002864 0.008666 -0.002522 -0.000511 -0.002819 -0.005522
# 3 -0.002659 -0.002522 0.008436 -0.001479 0.002936 0.003965
# 4 0.002189 -0.000511 -0.001479 0.027231 0.002545 0.003853
# 5 0.003728 -0.002819 0.002936 0.002545 0.034078 0.002155
# 6 -0.005187 -0.005522 0.003965 0.003853 0.002155 0.046186
#
#
# Mechanical properties :
#
#
# Convention : Reuss Voigt Hill
#
# Bulk Modulus (GPa) = 63.72368 75.97564 69.84966
# Shear Modulus (GPa) = 31.13389 37.16103 34.14746
#
# Velocity S-wave (km/s) = 3.67408 4.01398 3.84778
# Velocity P-wave (km/s) = 6.75480 7.37724 7.07287
#
# Compressibility (1/GPa) = 0.01569275
#
# Stress axis : x y z
#
# Youngs Moduli (GPa) = 68.12070 115.39067 118.54330
#
# Poissons Ratio (x) = 0.33048 0.31517
# Poissons Ratio (y) = 0.19510 0.29894
# Poissons Ratio (z) = 0.18111 0.29099
#
# Static dielectric constant tensor:
#      x y z
#    x 3.681380 -0.096470 0.149840 
#    y -0.096470 4.222980 0.477150 
#    z 0.149840 0.477150 4.410270 
# 
# 
# High freq. dielectric constant tensor:
#      x y z
#    x 1.894930 0.010530 -0.013730 
#    y 0.010530 1.930450 0.003550 
#    z -0.013730 0.003550 1.938300 
# 
# From -- ./inp_files/447619.got.cif
#   From: 2010.06.25/outbox.cif.g09.slc.cpg/sg2_224_cif.got.tgz:447619.got - 2010.06.27 13:26:56.
