data_PCOD8037591
_publ_section_title
;
Structure prediction by ZEFSAII (Michael W. Deem and Ramdas Pophale) SiO2 
 PCOD8037591
Probable space group: P -1
;
_chemical_formula_sum "Si O2"
_cell_formula_units_Z 16
_cell_length_a 8.759951
_cell_length_b 27.795542
_cell_length_c 8.007974
_cell_angle_alpha 43.819398
_cell_angle_beta 46.985264
_cell_angle_gamma 31.611334
_cell_volume 695.204685
_symmetry_space_group_name_H-M "P -1"
_symmetry_group_IT_number 2
_symmetry_cell_setting 'triclinic'
loop_
_space_group_symop_operation_xyz
x,y,z
-x,-y,-z
loop_
_atom_site_type_symbol
_atom_site_label
_atom_site_fract_x
_atom_site_fract_y
_atom_site_fract_z
Si Si1 0.663921 0.100632 0.987441
Si Si2 0.367832 0.106665 0.864473
Si Si3 0.674554 0.571427 0.500094
Si Si4 0.532293 0.520697 0.240753
Si Si5 0.795652 0.641226 0.938694
Si Si6 0.248660 0.733591 0.921419
Si Si7 0.224778 0.771491 0.482937
Si Si8 0.694310 0.820948 0.616981
O O1 0.525359 0.107967 0.246717
O O2 0.509957 0.104001 0.932451
O O3 0.634283 0.190028 0.776504
O O4 0.000000 0.000000 0.000000
O O5 0.450374 0.133551 0.572141
O O6 0.009283 0.191839 0.936581
O O7 0.500000 0.000000 0.000000
O O8 0.573398 0.515529 0.711323
O O9 0.477484 0.653638 0.582068
O O10 0.000000 0.500000 0.500000
O O11 0.649208 0.618399 0.226658
O O12 0.500000 0.500000 0.500000
O O13 0.309950 0.637356 0.091304
O O14 0.875660 0.460755 0.104163
O O15 0.814056 0.714168 0.818058
O O16 0.558212 0.698899 0.820832
O O17 0.119958 0.797735 0.687230
O O18 0.961360 0.812792 0.451642
#
# Coordination Sequence:
#
# PCOD8037591 Si02
#       8
#     2   2   2   2   2   2   2   2
#     4  12  29  50  80 111 146 197 251 307 376 442
#     4  12  29  51  79 113 149 198 249 308 377 442
#     4  12  27  42  72 106 148 194 243 299 368 439
#     4  12  26  45  71 106 146 195 250 301 368 443
#     4  12  25  48  70 109 145 197 244 304 370 437
#     4  12  27  46  77 107 151 197 249 307 371 445
#     4  12  26  49  73 112 147 191 247 307 372 442
#     4  12  26  50  81 106 155 190 247 313 367 445
#
# _framework density 23.014806
#
# number of rings (size 3 to 8) (size 9 to 14) (size 15 to 20)
#    0.000    0.000    5.000    4.125    8.750    2.500 
#    0.000    0.000    0.000    0.000    0.000    0.000 
#    0.000    0.000    0.000    0.000    0.000    0.000 
#
# Total GULP energy -198456.187063 kJ/mol
# GULP energy per Si atom -12403.511691 kJ/mol
# Density = 2.296242 g / cm^3
# Si number density = 23.014806 Si / 1000 Ang^3
#
#
#
# Elastic Constant Matrix: (Units=GPa)
#
#
# Indices 1 2 3 4 5 6 
#
# 1 121.3366 47.5697 39.9626 9.1279 -8.1419 -0.2645
# 2 47.5697 156.9838 37.5215 6.4657 -9.7066 4.5481
# 3 39.9626 37.5215 106.6483 8.3117 5.9748 9.9431
# 4 9.1279 6.4657 8.3117 34.5078 7.2483 -1.9972
# 5 -8.1419 -9.7066 5.9748 7.2483 53.6393 -1.1671
# 6 -0.2645 4.5481 9.9431 -1.9972 -1.1671 38.0074
#
#
#
# Elastic Compliance Matrix: (Units=1/GPa)
#
#
# Indices 1 2 3 4 5 6 
#
# 1 0.010435 -0.002245 -0.003180 -0.001889 0.001812 0.001130
# 2 -0.002245 0.007607 -0.001813 -0.000699 0.001322 -0.000448
# 3 -0.003180 -0.001813 0.011706 -0.001394 -0.001992 -0.003002
# 4 -0.001889 -0.000699 -0.001394 0.030982 -0.004402 0.001928
# 5 0.001812 0.001322 -0.001992 -0.004402 0.019991 0.000758
# 6 0.001130 -0.000448 -0.003002 0.001928 0.000758 0.027282
#
#
# Mechanical properties :
#
#
# Convention : Reuss Voigt Hill
#
# Bulk Modulus (GPa) = 65.47695 70.56403 68.02049
# Shear Modulus (GPa) = 39.19426 42.55855 40.87640
#
# Velocity S-wave (km/s) = 4.13122 4.30488 4.21894
# Velocity P-wave (km/s) = 7.16014 7.44554 7.30424
#
# Compressibility (1/GPa) = 0.01527255
#
# Stress axis : x y z
#
# Youngs Moduli (GPa) = 95.83024 131.45403 85.42473
#
# Poissons Ratio (x) = 0.29511 0.27165
# Poissons Ratio (y) = 0.21513 0.15488
# Poissons Ratio (z) = 0.30474 0.23834
#
# Static dielectric constant tensor:
#      x y z
#    x 4.610500 -0.046130 -0.512250 
#    y -0.046130 4.335500 0.257190 
#    z -0.512250 0.257190 6.643700 
# 
# 
# High freq. dielectric constant tensor:
#      x y z
#    x 1.920950 0.005920 0.000790 
#    y 0.005920 1.915880 0.003810 
#    z 0.000790 0.003810 1.916660 
# 
# From -- ./inp_files/227982.got.cif
#   From: 2010.06.25/outbox.cif.g09.slc.cpg/sg2_114_cif.got.tgz:227982.got - 2010.06.27 13:26:56.
