data_PCOD8037732
_publ_section_title
;
Structure prediction by ZEFSAII (Michael W. Deem and Ramdas Pophale) SiO2 
 PCOD8037732
Probable space group: P -1
;
_chemical_formula_sum "Si O2"
_cell_formula_units_Z 14
_cell_length_a 8.364029
_cell_length_b 9.394029
_cell_length_c 8.864215
_cell_angle_alpha 67.632123
_cell_angle_beta 66.836987
_cell_angle_gamma 71.951608
_cell_volume 581.558419
_symmetry_space_group_name_H-M "P -1"
_symmetry_group_IT_number 2
_symmetry_cell_setting 'triclinic'
loop_
_space_group_symop_operation_xyz
x,y,z
-x,-y,-z
loop_
_atom_site_type_symbol
_atom_site_label
_atom_site_fract_x
_atom_site_fract_y
_atom_site_fract_z
Si Si1 0.675252 0.881249 0.502016
Si Si2 0.106456 0.930522 0.840987
Si Si3 0.997659 0.501938 0.679390
Si Si4 0.617573 0.634502 0.412598
Si Si5 0.535100 0.816418 0.086537
Si Si6 0.328154 0.641670 0.032025
Si Si7 0.846736 0.804977 0.772060
O O1 0.638555 0.704996 0.545342
O O2 0.728727 0.903150 0.646080
O O3 0.500000 0.000000 0.500000
O O4 0.813460 0.925411 0.312106
O O5 0.965706 0.903640 0.778756
O O6 0.259226 0.771704 0.872996
O O7 0.000000 0.000000 0.000000
O O8 0.188707 0.426152 0.702799
O O9 0.000000 0.500000 0.500000
O O10 0.844733 0.422597 0.834697
O O11 0.974013 0.674589 0.683211
O O12 0.500000 0.500000 0.500000
O O13 0.537460 0.780144 0.277300
O O14 0.373635 0.743851 0.112690
O O15 0.715874 0.739122 0.963562
O O16 0.500000 0.000000 0.000000
O O17 0.500000 0.500000 0.000000
#
# Coordination Sequence:
#
# PCOD8037732 Si02
#       7
#     2   2   2   2   2   2   2
#     4  12  27  49  76 113 157 198 258 325 397 474
#     4  12  28  50  79 111 155 209 265 328 401 476
#     4  12  26  48  76 111 159 202 259 326 391 469
#     4  12  28  49  80 114 155 208 264 325 397 471
#     4  12  26  48  77 113 157 204 264 324 394 472
#     4  12  26  47  78 112 155 205 269 327 394 470
#     4  12  26  47  79 114 153 205 260 320 396 470
#
# _framework density 24.073248
#
# number of rings (size 3 to 8) (size 9 to 14) (size 15 to 20)
#    0.000    0.000    2.857    7.286    4.000    1.143 
#    5.143    0.000    0.000    0.000    0.000    0.000 
#    0.000    0.000    0.000    0.000    0.000    0.000 
#
# Total GULP energy -173505.903096 kJ/mol
# GULP energy per Si atom -12393.278793 kJ/mol
# Density = 2.401846 g / cm^3
# Si number density = 24.073248 Si / 1000 Ang^3
#
#
#
# Elastic Constant Matrix: (Units=GPa)
#
#
# Indices 1 2 3 4 5 6 
#
# 1 172.4322 68.9120 37.4648 -0.6334 4.0413 18.0158
# 2 68.9120 137.5755 30.5055 6.0049 5.1981 13.7395
# 3 37.4648 30.5055 99.2480 -2.4574 7.5330 17.0828
# 4 -0.6334 6.0049 -2.4574 43.3313 1.3576 3.8507
# 5 4.0413 5.1981 7.5330 1.3576 54.3007 -2.0215
# 6 18.0158 13.7395 17.0828 3.8507 -2.0215 52.2455
#
#
#
# Elastic Compliance Matrix: (Units=1/GPa)
#
#
# Indices 1 2 3 4 5 6 
#
# 1 0.007629 -0.003361 -0.001607 0.000602 -0.000085 -0.001269
# 2 -0.003361 0.009436 -0.001503 -0.001362 -0.000438 -0.000748
# 3 -0.001607 -0.001503 0.011815 0.001174 -0.001519 -0.003059
# 4 0.000602 -0.001362 0.001174 0.023543 -0.000740 -0.001997
# 5 -0.000085 -0.000438 -0.001519 -0.000740 0.018746 0.001421
# 6 -0.001269 -0.000748 -0.003059 -0.001997 0.001421 0.020977
#
#
# Mechanical properties :
#
#
# Convention : Reuss Voigt Hill
#
# Bulk Modulus (GPa) = 62.74504 75.89114 69.31809
# Shear Modulus (GPa) = 45.28913 48.13373 46.71143
#
# Velocity S-wave (km/s) = 4.34211 4.47639 4.40976
# Velocity P-wave (km/s) = 7.15956 7.63616 7.40170
#
# Compressibility (1/GPa) = 0.01593751
#
# Stress axis : x y z
#
# Youngs Moduli (GPa) = 131.08616 105.97257 84.63591
#
# Poissons Ratio (x) = 0.35620 0.13599
# Poissons Ratio (y) = 0.44061 0.12724
# Poissons Ratio (z) = 0.21063 0.15932
#
# Static dielectric constant tensor:
#      x y z
#    x 4.349790 -2.371930 -0.343740 
#    y -2.371930 -6.264480 -1.843430 
#    z -0.343740 -1.843430 4.008060 
# 
# 
# High freq. dielectric constant tensor:
#      x y z
#    x 1.982190 0.001270 0.003470 
#    y 0.001270 1.966700 0.002480 
#    z 0.003470 0.002480 1.951460 
# 
# From -- ./inp_files/157174.got.cif
#   From: 2010.06.25/outbox.cif.g09.slc.cpg/sg2_79_cif.got.tgz:157174.got - 2010.06.27 13:26:56.
