data_PCOD8037624
_publ_section_title
;
Structure prediction by ZEFSAII (Michael W. Deem and Ramdas Pophale) SiO2 
 PCOD8037624
Probable space group: P -1
;
_chemical_formula_sum "Si O2"
_cell_formula_units_Z 12
_cell_length_a 14.863599
_cell_length_b 9.447474
_cell_length_c 12.166706
_cell_angle_alpha 143.635069
_cell_angle_beta 29.245504
_cell_angle_gamma 135.348704
_cell_volume 494.680805
_symmetry_space_group_name_H-M "P -1"
_symmetry_group_IT_number 2
_symmetry_cell_setting 'triclinic'
loop_
_space_group_symop_operation_xyz
x,y,z
-x,-y,-z
loop_
_atom_site_type_symbol
_atom_site_label
_atom_site_fract_x
_atom_site_fract_y
_atom_site_fract_z
Si Si1 0.891691 0.011904 0.506697
Si Si2 0.712319 0.561700 0.299723
Si Si3 0.220047 0.480384 0.046067
Si Si4 0.516904 0.737291 0.195641
Si Si5 0.205202 0.898149 0.963208
Si Si6 0.872617 0.221345 0.264763
O O1 0.774490 0.769509 0.449720
O O2 0.748208 0.231882 0.799617
O O3 0.000000 0.000000 0.500000
O O4 0.037293 0.062033 0.282756
O O5 0.500000 0.500000 0.500000
O O6 0.803819 0.308455 0.065080
O O7 0.762794 0.627960 0.162347
O O8 0.008078 0.444090 0.292630
O O9 0.359681 0.318108 0.864190
O O10 0.311265 0.813391 0.489928
O O11 0.608240 0.940305 0.146810
O O12 0.500000 0.500000 0.000000
O O13 0.183572 0.748982 0.782193
O O14 0.000000 0.000000 0.000000
#
# Coordination Sequence:
#
# PCOD8037624 Si02
#       6
#     2   2   2   2   2   2
#     4  12  26  49  79 115 154 205 262 321 392 465
#     4  12  28  47  78 111 154 206 261 322 393 462
#     4  12  27  51  79 112 157 203 257 324 392 467
#     4  12  30  48  77 119 155 201 262 323 389 467
#     4  12  25  48  78 110 155 199 259 319 387 465
#     4  12  26  48  80 111 156 204 258 313 391 466
#
# _framework density 24.258067
#
# number of rings (size 3 to 8) (size 9 to 14) (size 15 to 20)
#    0.000    0.000    5.000    4.000    7.000    3.333 
#    0.000    0.000    0.000    0.000    0.000    0.000 
#    0.000    0.000    0.000    0.000    0.000    0.000 
#
# Total GULP energy -148714.812598 kJ/mol
# GULP energy per Si atom -12392.901050 kJ/mol
# Density = 2.420285 g / cm^3
# Si number density = 24.258067 Si / 1000 Ang^3
#
#
#
# Elastic Constant Matrix: (Units=GPa)
#
#
# Indices 1 2 3 4 5 6 
#
# 1 75.9852 48.5082 17.7253 -8.3623 11.4928 33.0746
# 2 48.5082 152.3319 49.1361 -10.6612 -2.2980 27.7169
# 3 17.7253 49.1361 126.1875 -17.9537 -2.0073 23.6889
# 4 -8.3623 -10.6612 -17.9537 50.7865 8.7047 -1.6964
# 5 11.4928 -2.2980 -2.0073 8.7047 37.9112 -1.8473
# 6 33.0746 27.7169 23.6889 -1.6964 -1.8473 40.9740
#
#
#
# Elastic Compliance Matrix: (Units=1/GPa)
#
#
# Indices 1 2 3 4 5 6 
#
# 1 0.026889 -0.005635 0.002712 0.005351 -0.010539 -0.019715
# 2 -0.005635 0.009284 -0.002839 -0.000360 0.002203 -0.000006
# 3 0.002712 -0.002839 0.010281 0.003548 -0.001563 -0.006136
# 4 0.005351 -0.000360 0.003548 0.022758 -0.006949 -0.005498
# 5 -0.010539 0.002203 -0.001563 -0.006949 0.031660 0.009060
# 6 -0.019715 -0.000006 -0.006136 -0.005498 0.009060 0.044053
#
#
# Mechanical properties :
#
#
# Convention : Reuss Voigt Hill
#
# Bulk Modulus (GPa) = 28.62762 65.02709 46.82736
# Shear Modulus (GPa) = 29.74583 41.87667 35.81125
#
# Velocity S-wave (km/s) = 3.50555 4.15938 3.84638
# Velocity P-wave (km/s) = 5.31150 7.06625 6.25076
#
# Compressibility (1/GPa) = 0.03493130
#
# Stress axis : x y z
#
# Youngs Moduli (GPa) = 37.18939 107.71678 97.26690
#
# Poissons Ratio (x) = 0.60694 -0.26376
# Poissons Ratio (y) = 0.20955 0.27609
# Poissons Ratio (z) = -0.10085 0.30576
#
# Static dielectric constant tensor:
#      x y z
#    x 7.970730 -1.505080 -2.739830 
#    y -1.505080 4.650330 1.153230 
#    z -2.739830 1.153230 6.162460 
# 
# 
# High freq. dielectric constant tensor:
#      x y z
#    x 1.966200 0.005550 0.001160 
#    y 0.005550 1.977270 0.001700 
#    z 0.001160 0.001700 1.971100 
# 
# From -- ./inp_files/274264.got.cif
#   From: 2010.06.25/outbox.cif.g09.slc.cpg/sg2_138_cif.got.tgz:274264.got - 2010.06.27 13:26:56.
