data_PCOD8037692
_publ_section_title
;
Structure prediction by ZEFSAII (Michael W. Deem and Ramdas Pophale) SiO2 
 PCOD8037692
Probable space group: P -1
;
_chemical_formula_sum "Si O2"
_cell_formula_units_Z 10
_cell_length_a 13.150177
_cell_length_b 6.656229
_cell_length_c 8.771710
_cell_angle_alpha 113.613774
_cell_angle_beta 58.245710
_cell_angle_gamma 139.868395
_cell_volume 420.798374
_symmetry_space_group_name_H-M "P -1"
_symmetry_group_IT_number 2
_symmetry_cell_setting 'triclinic'
loop_
_space_group_symop_operation_xyz
x,y,z
-x,-y,-z
loop_
_atom_site_type_symbol
_atom_site_label
_atom_site_fract_x
_atom_site_fract_y
_atom_site_fract_z
Si Si1 0.673745 0.831943 0.019381
Si Si2 0.500365 0.036048 0.191869
Si Si3 0.977446 0.673753 0.182938
Si Si4 0.174119 0.711940 0.516040
Si Si5 0.255517 0.272385 0.752387
O O1 0.689024 0.244925 0.678505
O O2 0.500000 0.500000 0.000000
O O3 0.758740 0.819507 0.089829
O O4 0.628628 0.023846 0.159030
O O5 0.568759 0.362616 0.289567
O O6 0.500000 0.000000 0.000000
O O7 0.860234 0.465052 0.355608
O O8 0.902636 0.781901 0.183644
O O9 0.175040 0.983638 0.171238
O O10 0.000000 0.500000 0.000000
O O11 0.000000 0.500000 0.500000
O O12 0.253082 0.055260 0.582957
#
# Coordination Sequence:
#
# PCOD8037692 Si02
#       5
#     2   2   2   2   2
#     4  12  26  45  81 110 150 201 250 307 382 447
#     4  12  26  49  77 112 151 199 255 307 373 453
#     4  12  26  50  77 113 151 198 254 314 377 449
#     4  12  30  48  77 115 154 198 257 314 377 448
#     4  12  26  48  81 109 158 195 252 311 383 441
#
# _framework density 23.764348999999999
#
# number of rings (size 3 to 8) (size 9 to 14) (size 15 to 20)
#    0.000    0.000    6.000    2.400    2.800    5.600 
#    0.000    0.000    0.000    0.000    0.000    0.000 
#    0.000    0.000    0.000    0.000    0.000    0.000 
#
# Total GULP energy -123981.009995 kJ/mol
# GULP energy per Si atom -12398.100999 kJ/mol
# Density = 2.371026 g / cm^3
# Si number density = 23.764349 Si / 1000 Ang^3
#
#
#
# Elastic Constant Matrix: (Units=GPa)
#
#
# Indices 1 2 3 4 5 6 
#
# 1 185.0992 82.2405 58.1327 -29.4924 -8.9325 6.5869
# 2 82.2405 149.3287 61.7345 -7.3705 -5.3314 8.2861
# 3 58.1327 61.7345 109.9764 -14.1508 0.7139 9.9800
# 4 -29.4924 -7.3705 -14.1508 43.9432 14.6246 -1.4988
# 5 -8.9325 -5.3314 0.7139 14.6246 37.1209 -4.4902
# 6 6.5869 8.2861 9.9800 -1.4988 -4.4902 60.5031
#
#
#
# Elastic Compliance Matrix: (Units=1/GPa)
#
#
# Indices 1 2 3 4 5 6 
#
# 1 0.008257 -0.003606 -0.001763 0.004452 -0.000254 -0.000023
# 2 -0.003606 0.010385 -0.004248 -0.002623 0.001707 -0.000267
# 3 -0.001763 -0.004248 0.012964 0.003125 -0.002695 -0.001487
# 4 0.004452 -0.002623 0.003125 0.030044 -0.011291 -0.000735
# 5 -0.000254 0.001707 -0.002695 -0.011291 0.031904 0.002327
# 6 -0.000023 -0.000267 -0.001487 -0.000735 0.002327 0.016967
#
#
# Mechanical properties :
#
#
# Convention : Reuss Voigt Hill
#
# Bulk Modulus (GPa) = 80.83532 94.29108 87.56320
# Shear Modulus (GPa) = 37.34714 44.46657 40.90686
#
# Velocity S-wave (km/s) = 3.96859 4.33037 4.15342
# Velocity P-wave (km/s) = 7.42219 8.04776 7.74130
#
# Compressibility (1/GPa) = 0.01237083
#
# Stress axis : x y z
#
# Youngs Moduli (GPa) = 121.11593 96.29226 77.13691
#
# Poissons Ratio (x) = 0.34725 0.13602
# Poissons Ratio (y) = 0.43677 0.32766
# Poissons Ratio (z) = 0.21358 0.40903
#
# Static dielectric constant tensor:
#      x y z
#    x 3.898980 -1.544940 -0.248050 
#    y -1.544940 1.365800 -0.483740 
#    z -0.248050 -0.483740 3.967120 
# 
# 
# High freq. dielectric constant tensor:
#      x y z
#    x 1.965400 0.006350 0.006240 
#    y 0.006350 1.964990 0.006860 
#    z 0.006240 0.006860 1.918150 
# 
# From -- ./inp_files/4283.got.cif
#   From: 2010.06.25/outbox.cif.g09.slc.cpg/sg2_3_cif.got.tgz:4283.got - 2010.06.27 13:26:56.
