data_PCOD8037236
_publ_section_title
;
Structure prediction by ZEFSAII (Michael W. Deem and Ramdas Pophale) SiO2 
 PCOD8037236
Probable space group: P -1
;
_chemical_formula_sum "Si O2"
_cell_formula_units_Z 16
_cell_length_a 18.181812
_cell_length_b 17.732952
_cell_length_c 8.590729
_cell_angle_alpha 150.540565
_cell_angle_beta 140.352753
_cell_angle_gamma 31.303608
_cell_volume 704.082712
_symmetry_space_group_name_H-M "P -1"
_symmetry_group_IT_number 2
_symmetry_cell_setting 'triclinic'
loop_
_space_group_symop_operation_xyz
x,y,z
-x,-y,-z
loop_
_atom_site_type_symbol
_atom_site_label
_atom_site_fract_x
_atom_site_fract_y
_atom_site_fract_z
Si Si1 0.855008 0.522605 0.783532
Si Si2 0.248502 0.404168 0.909902
Si Si3 0.538424 0.301752 0.265325
Si Si4 0.581894 0.297280 0.699186
Si Si5 0.406453 0.162544 0.258147
Si Si6 0.109936 0.817053 0.945692
Si Si7 0.257257 0.109605 0.188848
Si Si8 0.029084 0.807510 0.138586
O O1 0.749959 0.696032 0.812857
O O2 0.860588 0.350225 0.413288
O O3 0.794133 0.550881 0.903313
O O4 0.000000 0.500000 0.000000
O O5 0.222177 0.253441 0.530877
O O6 0.416014 0.292197 0.978756
O O7 0.172849 0.606576 0.062181
O O8 0.500000 0.500000 0.500000
O O9 0.551757 0.289584 0.453569
O O10 0.677446 0.112626 0.071231
O O11 0.507016 0.230479 0.569811
O O12 0.500000 0.500000 0.000000
O O13 0.750638 0.187419 0.801212
O O14 0.374251 0.098557 0.249359
O O15 0.500000 0.000000 0.000000
O O16 0.036426 0.814908 0.978582
O O17 0.000000 0.000000 0.000000
O O18 0.100789 0.198004 0.023571
O O19 0.000000 0.000000 0.500000
#
# Coordination Sequence:
#
# PCOD8037236 Si02
#       8
#     2   2   2   2   2   2   2   2
#     4  12  25  45  70 107 143 187 242 297 360 435
#     4  12  24  46  70 105 147 186 242 297 363 435
#     4  12  26  46  71 106 144 190 239 301 365 437
#     4  12  25  49  74 105 146 191 249 299 365 437
#     4  12  25  46  75 104 148 195 241 302 366 430
#     4  12  27  48  74 107 142 196 249 300 364 433
#     4  12  26  47  70 110 145 197 246 301 372 433
#     4  12  26  47  74 106 151 197 244 304 367 437
#
# _framework density 22.724602000000001
#
# number of rings (size 3 to 8) (size 9 to 14) (size 15 to 20)
#    0.000    0.000    3.750    6.000    3.500    1.000 
#    2.250    0.000    0.000    0.000    0.000    0.000 
#    0.000    0.000    0.000    0.000    0.000    0.000 
#
# Total GULP energy -198213.405549 kJ/mol
# GULP energy per Si atom -12388.337847 kJ/mol
# Density = 2.267288 g / cm^3
# Si number density = 22.724602 Si / 1000 Ang^3
#
#
#
# Elastic Constant Matrix: (Units=GPa)
#
#
# Indices 1 2 3 4 5 6 
#
# 1 -49.6519 -80.8524 -14.9578 35.7031 48.1256 -54.5736
# 2 -80.8524 86.1941 18.8514 27.8888 35.8445 -41.5375
# 3 -14.9578 18.8514 152.6292 18.8529 4.7878 -21.5977
# 4 35.7031 27.8888 18.8529 36.9768 -27.7723 22.8288
# 5 48.1256 35.8445 4.7878 -27.7723 34.0548 7.9382
# 6 -54.5736 -41.5375 -21.5977 22.8288 7.9382 23.6209
#
#
#
# Elastic Compliance Matrix: (Units=1/GPa)
#
#
# Indices 1 2 3 4 5 6 
#
# 1 0.004317 -0.003661 -0.001171 0.007505 0.005591 -0.006666
# 2 -0.003661 0.006061 -0.001770 0.002399 0.001524 -0.002250
# 3 -0.001171 -0.001770 0.007039 -0.001431 0.000970 0.001677
# 4 0.007505 0.002399 -0.001431 0.017879 0.001039 0.002622
# 5 0.005591 0.001524 0.000970 0.001039 0.018402 0.009297
# 6 -0.006666 -0.002250 0.001677 0.002622 0.009297 0.018852
#
#
# Mechanical properties :
#
#
# Convention : Reuss Voigt Hill
#
# Bulk Modulus (GPa) = 237.27073 3.91709 120.59391
# Shear Modulus (GPa) = 57.36754 36.67252 47.02003
#
# Velocity S-wave (km/s) = 5.02986 4.02155 4.55370
# Velocity P-wave (km/s) = 11.76311 4.82610 8.99061
#
# Compressibility (1/GPa) = 0.00421459
#
# Stress axis : x y z
#
# Youngs Moduli (GPa) = 231.64789 164.99850 142.05995
#
# Poissons Ratio (x) = 0.60402 0.16629
# Poissons Ratio (y) = 0.84801 0.25142
# Poissons Ratio (z) = 0.27115 0.29202
#
# Static dielectric constant tensor:
#      x y z
#    x 4.529900 -0.178810 -0.060240 
#    y -0.178810 5.207810 -0.202060 
#    z -0.060240 -0.202060 4.371910 
# 
# 
# High freq. dielectric constant tensor:
#      x y z
#    x 1.897900 -0.014680 0.000590 
#    y -0.014680 1.912040 0.005360 
#    z 0.000590 0.005360 1.924860 
# 
# From -- ./inp_files/336848.got.cif
#   From: 2010.06.25/outbox.cif.g09.slc.cpg/sg2_169_cif.got.tgz:336848.got - 2010.06.27 13:26:56.
