data_PCOD8037781
_publ_section_title
;
Structure prediction by ZEFSAII (Michael W. Deem and Ramdas Pophale) SiO2 
 PCOD8037781
Probable space group: P -1
;
_chemical_formula_sum "Si O2"
_cell_formula_units_Z 16
_cell_length_a 11.361416
_cell_length_b 8.805147
_cell_length_c 17.864677
_cell_angle_alpha 148.325347
_cell_angle_beta 46.927356
_cell_angle_gamma 124.829248
_cell_volume 685.276808
_symmetry_space_group_name_H-M "P -1"
_symmetry_group_IT_number 2
_symmetry_cell_setting 'triclinic'
loop_
_space_group_symop_operation_xyz
x,y,z
-x,-y,-z
loop_
_atom_site_type_symbol
_atom_site_label
_atom_site_fract_x
_atom_site_fract_y
_atom_site_fract_z
Si Si1 0.274201 0.609409 0.884975
Si Si2 0.567992 0.184260 0.356022
Si Si3 0.620117 0.363519 0.830790
Si Si4 0.740323 0.069864 0.387053
Si Si5 0.856952 0.224703 0.143719
Si Si6 0.960842 0.212364 0.673279
Si Si7 0.093038 0.015568 0.237448
Si Si8 0.631655 0.556377 0.742561
O O1 0.267828 0.268476 0.735160
O O2 0.200358 0.781298 0.919246
O O3 0.460174 0.693758 0.848634
O O4 0.164689 0.712250 0.046206
O O5 0.500000 0.500000 0.500000
O O6 0.714473 0.106305 0.205655
O O7 0.428841 0.957212 0.306910
O O8 0.630993 0.168663 0.406614
O O9 0.789915 0.367627 0.799716
O O10 0.630861 0.557559 0.833166
O O11 0.500000 0.500000 0.000000
O O12 0.665238 0.234164 0.560644
O O13 0.929442 0.133128 0.316620
O O14 0.902951 0.548520 0.282170
O O15 0.000000 0.000000 0.000000
O O16 0.956730 0.028432 0.673701
O O17 0.000000 0.000000 0.500000
O O18 0.227984 0.251940 0.270777
#
# Coordination Sequence:
#
# PCOD8037781 Si02
#       8
#     2   2   2   2   2   2   2   2
#     4  12  26  50  77 104 147 193 250 301 356 431
#     4  12  28  47  75 108 146 193 243 300 365 430
#     4  12  28  48  73 106 153 191 239 300 368 434
#     4  12  26  50  77 104 147 193 250 301 356 431
#     4  12  28  47  75 108 146 193 243 300 365 430
#     4  12  28  48  73 106 153 191 239 300 368 434
#     4  12  28  48  77 109 145 195 245 301 364 431
#     4  12  28  48  77 109 145 195 245 301 364 431
#
# _framework density 23.348227999999999
#
# number of rings (size 3 to 8) (size 9 to 14) (size 15 to 20)
#    0.000    0.000    2.500    6.000   14.000    0.000 
#    0.000    0.000    0.000    0.000    0.000    0.000 
#    0.000    0.000    0.000    0.000    0.000    0.000 
#
# Total GULP energy -198515.475745 kJ/mol
# GULP energy per Si atom -12407.217234 kJ/mol
# Density = 2.329509 g / cm^3
# Si number density = 23.348228 Si / 1000 Ang^3
#
#
#
# Elastic Constant Matrix: (Units=GPa)
#
#
# Indices 1 2 3 4 5 6 
#
# 1 114.5587 16.2154 10.7658 7.1235 -10.7563 -1.3297
# 2 16.2154 91.8501 4.3501 0.3415 12.0779 -7.2651
# 3 10.7658 4.3501 106.8284 -11.2013 1.6530 -16.0492
# 4 7.1235 0.3415 -11.2013 38.2643 0.3781 -5.0672
# 5 -10.7563 12.0779 1.6530 0.3781 46.1648 -1.8089
# 6 -1.3297 -7.2651 -16.0492 -5.0672 -1.8089 40.4508
#
#
#
# Elastic Compliance Matrix: (Units=1/GPa)
#
#
# Indices 1 2 3 4 5 6 
#
# 1 0.009530 -0.002037 -0.001263 -0.002247 0.002789 -0.000710
# 2 -0.002037 0.011861 0.000149 0.000622 -0.003508 0.002043
# 3 -0.001263 0.000149 0.010607 0.003962 -0.000563 0.004665
# 4 -0.002247 0.000622 0.003962 0.028394 -0.000860 0.005128
# 5 0.002789 -0.003508 -0.000563 -0.000860 0.023263 0.000171
# 6 -0.000710 0.002043 0.004665 0.005128 0.000171 0.027566
#
#
# Mechanical properties :
#
#
# Convention : Reuss Voigt Hill
#
# Bulk Modulus (GPa) = 38.91879 41.76665 40.34272
# Shear Modulus (GPa) = 39.65495 43.76970 41.71233
#
# Velocity S-wave (km/s) = 4.12565 4.33442 4.23132
# Velocity P-wave (km/s) = 6.27692 6.55568 6.41781
#
# Compressibility (1/GPa) = 0.02569453
#
# Stress axis : x y z
#
# Youngs Moduli (GPa) = 104.93669 84.31345 94.27761
#
# Poissons Ratio (x) = 0.17176 0.11907
# Poissons Ratio (y) = 0.21377 -0.01403
# Poissons Ratio (z) = 0.13253 -0.01255
#
# Static dielectric constant tensor:
#      x y z
#    x 4.783590 0.182970 -0.023130 
#    y 0.182970 4.317960 -0.126480 
#    z -0.023130 -0.126480 4.295830 
# 
# 
# High freq. dielectric constant tensor:
#      x y z
#    x 1.945990 0.007970 -0.002920 
#    y 0.007970 1.928670 -0.006160 
#    z -0.002920 -0.006160 1.938940 
# 
# From -- ./inp_files/567109.got.cif
#   From: 2010.06.25/outbox.cif.g09.slc.cpg/sg2_284_cif.got.tgz:567109.got - 2010.06.27 13:26:56.
