data_PCOD8037163
_publ_section_title
;
Structure prediction by ZEFSAII (Michael W. Deem and Ramdas Pophale) SiO2 
 PCOD8037163
Probable space group: P -1
;
_chemical_formula_sum "Si O2"
_cell_formula_units_Z 16
_cell_length_a 8.803122
_cell_length_b 17.175678
_cell_length_c 11.929967
_cell_angle_alpha 148.594246
_cell_angle_beta 116.920812
_cell_angle_gamma 47.948592
_cell_volume 664.181870
_symmetry_space_group_name_H-M "P -1"
_symmetry_group_IT_number 2
_symmetry_cell_setting 'triclinic'
loop_
_space_group_symop_operation_xyz
x,y,z
-x,-y,-z
loop_
_atom_site_type_symbol
_atom_site_label
_atom_site_fract_x
_atom_site_fract_y
_atom_site_fract_z
Si Si1 0.891472 0.935381 0.307501
Si Si2 0.730187 0.724426 0.994496
Si Si3 0.062335 0.800614 0.816666
Si Si4 0.369383 0.968916 0.333689
Si Si5 0.462655 0.696874 0.466204
Si Si6 0.269323 0.705715 0.993152
Si Si7 0.293971 0.209479 0.192189
Si Si8 0.884107 0.321588 0.554673
O O1 0.651185 0.114265 0.412921
O O2 0.000000 0.000000 0.500000
O O3 0.031118 0.822395 0.106172
O O4 0.864336 0.788655 0.178290
O O5 0.766873 0.713311 0.859757
O O6 0.816827 0.521213 0.821635
O O7 0.483978 0.885194 0.148091
O O8 0.883143 0.793411 0.806749
O O9 0.148817 0.662954 0.570612
O O10 0.255184 0.718551 0.868552
O O11 0.000000 0.000000 0.000000
O O12 0.368230 0.807737 0.195911
O O13 0.500000 0.000000 0.500000
O O14 0.130088 0.157503 0.466787
O O15 0.648982 0.668619 0.571534
O O16 0.269100 0.722438 0.499811
O O17 0.577982 0.516649 0.199335
O O18 0.500000 0.000000 0.000000
#
# Coordination Sequence:
#
# PCOD8037163 Si02
#       8
#     2   2   2   2   2   2   2   2
#     4  12  27  49  72 102 147 191 242 304 354 422
#     4  12  27  46  74 111 142 189 241 299 363 426
#     4  12  24  44  76 106 147 189 232 298 366 431
#     4  12  27  48  74 105 143 191 247 299 351 424
#     4  12  27  46  76 107 145 192 238 294 365 433
#     4  12  25  47  75 105 145 186 240 294 362 426
#     4  12  24  44  73 110 147 185 235 298 366 431
#     4  12  27  46  75 107 145 190 238 297 365 428
#
# _framework density 24.089787000000001
#
# number of rings (size 3 to 8) (size 9 to 14) (size 15 to 20)
#    0.000    0.000    6.250    3.000    3.500    4.000 
#    0.000    0.000    0.000    0.000    0.000    0.000 
#    0.000    0.000    0.000    0.000    0.000    0.000 
#
# Total GULP energy -198337.818615 kJ/mol
# GULP energy per Si atom -12396.113663 kJ/mol
# Density = 2.403496 g / cm^3
# Si number density = 24.089787 Si / 1000 Ang^3
#
#
#
# Elastic Constant Matrix: (Units=GPa)
#
#
# Indices 1 2 3 4 5 6 
#
# 1 105.3324 32.1563 56.0467 11.5394 30.7409 -5.0175
# 2 32.1563 56.6835 46.3122 1.6926 -3.4323 -11.3260
# 3 56.0467 46.3122 142.3584 20.8306 15.4956 -15.2901
# 4 11.5394 1.6926 20.8306 36.8853 -6.5832 4.1739
# 5 30.7409 -3.4323 15.4956 -6.5832 47.5982 -3.2442
# 6 -5.0175 -11.3260 -15.2901 4.1739 -3.2442 32.1667
#
#
#
# Elastic Compliance Matrix: (Units=1/GPa)
#
#
# Indices 1 2 3 4 5 6 
#
# 1 0.017498 -0.009393 -0.001815 -0.006006 -0.012348 -0.001907
# 2 -0.009393 0.031591 -0.008466 0.007851 0.012587 0.005885
# 3 -0.001815 -0.008466 0.012325 -0.007108 -0.004223 0.003091
# 4 -0.006006 0.007851 -0.007108 0.035223 0.011291 -0.004983
# 5 -0.012348 0.012587 -0.004223 0.011291 0.032989 0.002361
# 6 -0.001907 0.005885 0.003091 -0.004983 0.002361 0.035217
#
#
# Mechanical properties :
#
#
# Convention : Reuss Voigt Hill
#
# Bulk Modulus (GPa) = 45.31890 63.71162 54.51526
# Shear Modulus (GPa) = 23.63560 34.65398 29.14479
#
# Velocity S-wave (km/s) = 3.13572 3.79692 3.48205
# Velocity P-wave (km/s) = 5.65364 6.76218 6.23261
#
# Compressibility (1/GPa) = 0.02206585
#
# Stress axis : x y z
#
# Youngs Moduli (GPa) = 57.14974 31.65463 81.13595
#
# Poissons Ratio (x) = 0.29732 0.14728
# Poissons Ratio (y) = 0.53679 0.68690
# Poissons Ratio (z) = 0.10374 0.26799
#
# Static dielectric constant tensor:
#      x y z
#    x 4.607260 -0.015960 0.180390 
#    y -0.015960 4.177660 -0.052070 
#    z 0.180390 -0.052070 4.871660 
# 
# 
# High freq. dielectric constant tensor:
#      x y z
#    x 1.974670 -0.004340 0.012770 
#    y -0.004340 1.927950 0.006920 
#    z 0.012770 0.006920 1.982790 
# 
# From -- ./inp_files/299744.got.cif
#   From: 2010.06.25/outbox.cif.g09.slc.cpg/sg2_150_cif.got.tgz:299744.got - 2010.06.27 13:26:56.
