data_PCOD8037015
_publ_section_title
;
Structure prediction by ZEFSAII (Michael W. Deem and Ramdas Pophale) SiO2 
 PCOD8037015
Probable space group: P -1
;
_chemical_formula_sum "Si O2"
_cell_formula_units_Z 16
_cell_length_a 9.717595
_cell_length_b 17.465877
_cell_length_c 11.984147
_cell_angle_alpha 50.156243
_cell_angle_beta 40.923324
_cell_angle_gamma 82.833039
_cell_volume 715.750258
_symmetry_space_group_name_H-M "P -1"
_symmetry_group_IT_number 2
_symmetry_cell_setting 'triclinic'
loop_
_space_group_symop_operation_xyz
x,y,z
-x,-y,-z
loop_
_atom_site_type_symbol
_atom_site_label
_atom_site_fract_x
_atom_site_fract_y
_atom_site_fract_z
Si Si1 0.255110 0.139992 0.280523
Si Si2 0.401997 0.919324 0.750663
Si Si3 0.248907 0.383011 0.584601
Si Si4 0.746618 0.391301 0.576892
Si Si5 0.301297 0.627694 0.630008
Si Si6 0.206666 0.399542 0.344833
Si Si7 0.716774 0.938857 0.161910
Si Si8 0.157619 0.895662 0.267878
O O1 0.421083 0.119472 0.281662
O O2 0.089495 0.171707 0.421296
O O3 0.471717 0.262523 0.942032
O O4 0.000000 0.000000 0.500000
O O5 0.500000 0.000000 0.500000
O O6 0.435502 0.013896 0.737734
O O7 0.063544 0.777841 0.063591
O O8 0.238204 0.485294 0.555606
O O9 0.500663 0.404221 0.471877
O O10 0.331690 0.418287 0.371783
O O11 0.742987 0.347951 0.492383
O O12 0.053639 0.456481 0.384754
O O13 0.467346 0.768537 0.468975
O O14 0.000000 0.500000 0.000000
O O15 0.947122 0.235460 0.616924
O O16 0.500000 0.500000 0.000000
O O17 0.844241 0.006467 0.898447
O O18 0.000000 0.000000 0.000000
O O19 0.500000 0.000000 0.000000
#
# Coordination Sequence:
#
# PCOD8037015 Si02
#       8
#     2   2   2   2   2   2   2   2
#     4  12  26  45  74 107 142 190 238 297 363 427
#     4  12  27  44  75 107 142 188 240 297 361 425
#     4  12  26  48  70 106 147 186 244 297 357 428
#     4  12  27  47  73 106 148 186 240 302 358 427
#     4  12  28  48  72 107 146 195 240 294 364 426
#     4  12  24  45  73 106 140 189 238 292 359 426
#     4  12  23  47  72 101 144 184 239 295 349 430
#     4  12  25  45  70 105 143 183 234 296 358 427
#
# _framework density 22.354165999999999
#
# number of rings (size 3 to 8) (size 9 to 14) (size 15 to 20)
#    0.000    0.000    3.750    6.000    5.250    2.000 
#    0.000    0.000    0.000    0.000    0.000    0.000 
#    0.000    0.000    0.000    0.000    0.000    0.000 
#
# Total GULP energy -198451.571243 kJ/mol
# GULP energy per Si atom -12403.223203 kJ/mol
# Density = 2.230329 g / cm^3
# Si number density = 22.354166 Si / 1000 Ang^3
#
#
#
# Elastic Constant Matrix: (Units=GPa)
#
#
# Indices 1 2 3 4 5 6 
#
# 1 107.1574 2.3830 44.7979 5.3701 12.8079 -1.4372
# 2 2.3830 102.8191 31.6534 -5.6239 -0.2214 -6.2601
# 3 44.7979 31.6534 157.7444 6.7969 11.9130 0.2626
# 4 5.3701 -5.6239 6.7969 43.4583 2.2732 -0.9294
# 5 12.8079 -0.2214 11.9130 2.2732 40.5120 6.8709
# 6 -1.4372 -6.2601 0.2626 -0.9294 6.8709 41.1177
#
#
#
# Elastic Compliance Matrix: (Units=1/GPa)
#
#
# Indices 1 2 3 4 5 6 
#
# 1 0.010945 0.000693 -0.003018 -0.000630 -0.002693 0.000943
# 2 0.000693 0.010651 -0.002423 0.001698 0.000173 0.001671
# 3 -0.003018 -0.002423 0.007825 -0.001107 -0.001240 -0.000342
# 4 -0.000630 0.001698 -0.001107 0.023551 -0.000946 0.000934
# 5 -0.002693 0.000173 -0.001240 -0.000946 0.026725 -0.004547
# 6 0.000943 0.001671 -0.000342 0.000934 -0.004547 0.025391
#
#
# Mechanical properties :
#
#
# Convention : Reuss Voigt Hill
#
# Bulk Modulus (GPa) = 50.19333 58.37662 54.28497
# Shear Modulus (GPa) = 41.24571 44.27669 42.76120
#
# Velocity S-wave (km/s) = 4.30012 4.45532 4.37841
# Velocity P-wave (km/s) = 6.86711 7.25518 7.06381
#
# Compressibility (1/GPa) = 0.01992297
#
# Stress axis : x y z
#
# Youngs Moduli (GPa) = 91.36951 93.89086 127.80226
#
# Poissons Ratio (x) = -0.06504 0.38573
# Poissons Ratio (y) = -0.06329 0.30966
# Poissons Ratio (z) = 0.27577 0.22749
#
# Static dielectric constant tensor:
#      x y z
#    x 4.172550 0.163580 0.174210 
#    y 0.163580 1.186570 -2.063590 
#    z 0.174210 -2.063590 2.664840 
# 
# 
# High freq. dielectric constant tensor:
#      x y z
#    x 1.898340 -0.000510 0.002640 
#    y -0.000510 1.889280 -0.000370 
#    z 0.002640 -0.000370 1.893390 
# 
# From -- ./inp_files/398345.got.cif
#   From: 2010.06.25/outbox.cif.g09.slc.cpg/sg2_200_cif.got.tgz:398345.got - 2010.06.27 13:26:56.
