data_PCOD8037460
_publ_section_title
;
Structure prediction by ZEFSAII (Michael W. Deem and Ramdas Pophale) SiO2 
 PCOD8037460
Probable space group: P -1
;
_chemical_formula_sum "Si O2"
_cell_formula_units_Z 14
_cell_length_a 8.639219
_cell_length_b 12.763813
_cell_length_c 8.673336
_cell_angle_alpha 71.174716
_cell_angle_beta 49.411482
_cell_angle_gamma 54.393377
_cell_volume 588.057253
_symmetry_space_group_name_H-M "P -1"
_symmetry_group_IT_number 2
_symmetry_cell_setting 'triclinic'
loop_
_space_group_symop_operation_xyz
x,y,z
-x,-y,-z
loop_
_atom_site_type_symbol
_atom_site_label
_atom_site_fract_x
_atom_site_fract_y
_atom_site_fract_z
Si Si1 0.864629 0.184290 0.668153
Si Si2 0.352416 0.947814 0.539799
Si Si3 0.740876 0.449895 0.780734
Si Si4 0.041375 0.716169 0.734797
Si Si5 0.469448 0.126033 0.882930
Si Si6 0.494535 0.672899 0.601722
Si Si7 0.919418 0.530940 0.214153
O O1 0.824403 0.312433 0.715029
O O2 0.948213 0.181571 0.436597
O O3 0.627218 0.177005 0.838542
O O4 0.073925 0.056344 0.675436
O O5 0.449830 0.908074 0.325934
O O6 0.398215 0.817865 0.658472
O O7 0.500000 0.000000 0.500000
O O8 0.691209 0.564169 0.639368
O O9 0.931502 0.429344 0.795007
O O10 0.500000 0.500000 0.000000
O O11 0.268136 0.657262 0.730732
O O12 0.059617 0.600944 0.673110
O O13 0.810631 0.768789 0.968332
O O14 0.500000 0.000000 0.000000
O O15 0.640642 0.646879 0.356418
O O16 0.000000 0.500000 0.000000
#
# Coordination Sequence:
#
# PCOD8037460 Si02
#       7
#     2   2   2   2   2   2   2
#     4  12  26  51  76 110 151 202 251 312 378 449
#     4  12  27  46  76 110 153 197 253 312 375 444
#     4  12  28  48  76 113 153 195 252 314 382 451
#     4  12  25  44  79 107 148 199 255 308 376 447
#     4  12  25  48  78 107 148 204 257 305 376 457
#     4  12  26  47  74 111 151 196 252 314 376 447
#     4  12  26  46  77 110 152 200 251 307 384 456
#
# _framework density 23.807205
#
# number of rings (size 3 to 8) (size 9 to 14) (size 15 to 20)
#    0.000    0.000    4.286    5.571    4.000    2.286 
#    0.000    2.143    0.000    0.000    0.000    0.000 
#    0.000    0.000    0.000    0.000    0.000    0.000 
#
# Total GULP energy -173599.542111 kJ/mol
# GULP energy per Si atom -12399.967294 kJ/mol
# Density = 2.375302 g / cm^3
# Si number density = 23.807205 Si / 1000 Ang^3
#
#
#
# Elastic Constant Matrix: (Units=GPa)
#
#
# Indices 1 2 3 4 5 6 
#
# 1 173.1665 64.8081 56.6636 13.4569 -22.8117 17.1237
# 2 64.8081 169.2530 42.4448 13.8323 -1.6335 8.4410
# 3 56.6636 42.4448 107.4668 16.8880 -28.5290 1.2593
# 4 13.4569 13.8323 16.8880 38.5150 -3.6065 -10.0654
# 5 -22.8117 -1.6335 -28.5290 -3.6065 43.3153 2.8501
# 6 17.1237 8.4410 1.2593 -10.0654 2.8501 44.5963
#
#
#
# Elastic Compliance Matrix: (Units=1/GPa)
#
#
# Indices 1 2 3 4 5 6 
#
# 1 0.008196 -0.002211 -0.002446 -0.001577 0.002700 -0.003188
# 2 -0.002211 0.007420 -0.002184 -0.001326 -0.002391 -0.000640
# 3 -0.002446 -0.002184 0.014104 -0.003943 0.007619 -0.000422
# 4 -0.001577 -0.001326 -0.003943 0.030671 -0.001449 0.007983
# 5 0.002700 -0.002391 0.007619 -0.001449 0.029514 -0.003013
# 6 -0.003188 -0.000640 -0.000422 0.007983 -0.003013 0.025775
#
#
# Mechanical properties :
#
#
# Convention : Reuss Voigt Hill
#
# Bulk Modulus (GPa) = 62.34872 86.41324 74.38098
# Shear Modulus (GPa) = 37.11735 44.34997 40.73366
#
# Velocity S-wave (km/s) = 3.95280 4.32079 4.14089
# Velocity P-wave (km/s) = 6.86139 7.82740 7.36026
#
# Compressibility (1/GPa) = 0.01603882
#
# Stress axis : x y z
#
# Youngs Moduli (GPa) = 122.00618 134.77602 70.89956
#
# Poissons Ratio (x) = 0.29799 0.17344
# Poissons Ratio (y) = 0.26975 0.15481
# Poissons Ratio (z) = 0.29846 0.29429
#
# Static dielectric constant tensor:
#      x y z
#    x 4.453790 -0.142970 0.052630 
#    y -0.142970 4.814740 0.085010 
#    z 0.052630 0.085010 4.549010 
# 
# 
# High freq. dielectric constant tensor:
#      x y z
#    x 1.940980 0.004260 -0.017590 
#    y 0.004260 1.970760 0.001920 
#    z -0.017590 0.001920 1.952650 
# 
# From -- ./inp_files/186309.got.cif
#   From: 2010.06.25/outbox.cif.g09.slc.cpg/sg2_94_cif.got.tgz:186309.got - 2010.06.27 13:26:56.
