data_PCOD8037864
_publ_section_title
;
Structure prediction by ZEFSAII (Michael W. Deem and Ramdas Pophale) SiO2 
 PCOD8037864
Probable space group: P -1
;
_chemical_formula_sum "Si O2"
_cell_formula_units_Z 16
_cell_length_a 19.833358
_cell_length_b 13.033325
_cell_length_c 8.837365
_cell_angle_alpha 74.228829
_cell_angle_beta 78.935733
_cell_angle_gamma 144.627167
_cell_volume 852.771248
_symmetry_space_group_name_H-M "P -1"
_symmetry_group_IT_number 2
_symmetry_cell_setting 'triclinic'
loop_
_space_group_symop_operation_xyz
x,y,z
-x,-y,-z
loop_
_atom_site_type_symbol
_atom_site_label
_atom_site_fract_x
_atom_site_fract_y
_atom_site_fract_z
Si Si1 0.816625 0.576586 0.316144
Si Si2 0.094667 0.060082 0.220847
Si Si3 0.026835 0.183077 0.326651
Si Si4 0.730062 0.079819 0.226671
Si Si5 0.476016 0.088138 0.837194
Si Si6 0.405283 0.756509 0.957806
Si Si7 0.593398 0.387127 0.255348
Si Si8 0.944987 0.593357 0.020191
O O1 0.677062 0.358838 0.595690
O O2 0.734898 0.546251 0.250392
O O3 0.854235 0.523405 0.226503
O O4 0.997666 0.869393 0.196478
O O5 0.994282 0.029855 0.303575
O O6 0.300835 0.367484 0.971568
O O7 0.093842 0.985778 0.403742
O O8 0.014138 0.270334 0.193791
O O9 0.219835 0.443144 0.205784
O O10 0.868274 0.184520 0.094957
O O11 0.621306 0.948044 0.173580
O O12 0.587158 0.831751 0.506662
O O13 0.821594 0.319080 0.143111
O O14 0.379531 0.846188 0.911080
O O15 0.461363 0.076739 0.029451
O O16 0.468461 0.794511 0.759217
#
# Coordination Sequence:
#
# PCOD8037864 Si02
#       8
#     2   2   2   2   2   2   2   2
#     4  11  19  32  57  85 108 139 183 228 265 316
#     4  10  20  34  55  83 109 140 184 227 267 310
#     4  10  19  35  56  82 108 145 177 226 269 320
#     4  10  22  38  54  81 113 147 176 219 278 325
#     4  10  19  31  57  82 112 134 181 228 271 318
#     4  10  17  32  55  84 106 138 181 229 273 309
#     4  10  20  35  55  80 110 140 185 223 269 314
#     4  11  21  37  58  79 113 144 179 222 274 329
#
# _framework density 18.762359
#
# number of rings (size 3 to 8) (size 9 to 14) (size 15 to 20)
#    0.000    1.750    5.000    1.125    0.000    2.000 
#    0.000    2.500    0.000    4.500    0.000    0.000 
#    0.000    0.000    0.000    0.000    0.000    0.000 
#
# Total GULP energy -198283.480468 kJ/mol
# GULP energy per Si atom -12392.717529 kJ/mol
# Density = 1.871966 g / cm^3
# Si number density = 18.762359 Si / 1000 Ang^3
#
#
#
# Elastic Constant Matrix: (Units=GPa)
#
#
# Indices 1 2 3 4 5 6 
#
# 1 60.0648 11.4723 27.6107 -6.3103 -1.7252 11.0289
# 2 11.4723 62.4839 6.2349 2.1645 1.5169 2.7806
# 3 27.6107 6.2349 78.1482 -8.1347 6.2199 12.3198
# 4 -6.3103 2.1645 -8.1347 23.2179 2.0799 4.0002
# 5 -1.7252 1.5169 6.2199 2.0799 26.8987 -4.9791
# 6 11.0289 2.7806 12.3198 4.0002 -4.9791 21.7177
#
#
#
# Elastic Compliance Matrix: (Units=1/GPa)
#
#
# Indices 1 2 3 4 5 6 
#
# 1 0.022062 -0.003329 -0.005691 0.005673 0.000929 -0.008381
# 2 -0.003329 0.016759 -0.000353 -0.002513 -0.000882 0.000006
# 3 -0.005691 -0.000353 0.017674 0.007002 -0.006814 -0.009942
# 4 0.005673 -0.002513 0.007002 0.051128 -0.008374 -0.017868
# 5 0.000929 -0.000882 -0.006814 -0.008374 0.042236 0.014732
# 6 -0.008381 0.000006 -0.009942 -0.017868 0.014732 0.062609
#
#
# Mechanical properties :
#
#
# Convention : Reuss Voigt Hill
#
# Bulk Modulus (GPa) = 26.49178 32.37028 29.43103
# Shear Modulus (GPa) = 20.50881 24.72547 22.61714
#
# Velocity S-wave (km/s) = 3.30977 3.63412 3.47573
# Velocity P-wave (km/s) = 5.36250 5.90757 5.64162
#
# Compressibility (1/GPa) = 0.03774756
#
# Stress axis : x y z
#
# Youngs Moduli (GPa) = 45.32608 59.67023 56.58143
#
# Poissons Ratio (x) = 0.19864 0.32203
# Poissons Ratio (y) = 0.15089 0.01999
# Poissons Ratio (z) = 0.25797 0.02108
#
# Static dielectric constant tensor:
#      x y z
#    x 3.192050 -0.031630 0.212190 
#    y -0.031630 3.461440 -0.072460 
#    z 0.212190 -0.072460 3.557800 
# 
# 
# High freq. dielectric constant tensor:
#      x y z
#    x 1.690690 0.001410 0.026160 
#    y 0.001410 1.735820 -0.003110 
#    z 0.026160 -0.003110 1.731260 
# 
# From -- ./inp_files/180309.got.cif
#   From: 2010.06.25/outbox.cif.g09.slc.cpg/sg2_91_cif.got.tgz:180309.got - 2010.06.27 13:26:56.
