data_PCOD8037568
_publ_section_title
;
Structure prediction by ZEFSAII (Michael W. Deem and Ramdas Pophale) SiO2 
 PCOD8037568
Probable space group: P -1
;
_chemical_formula_sum "Si O2"
_cell_formula_units_Z 12
_cell_length_a 8.207290
_cell_length_b 7.344732
_cell_length_c 14.492513
_cell_angle_alpha 118.802526
_cell_angle_beta 111.679460
_cell_angle_gamma 37.790203
_cell_volume 468.993948
_symmetry_space_group_name_H-M "P -1"
_symmetry_group_IT_number 2
_symmetry_cell_setting 'triclinic'
loop_
_space_group_symop_operation_xyz
x,y,z
-x,-y,-z
loop_
_atom_site_type_symbol
_atom_site_label
_atom_site_fract_x
_atom_site_fract_y
_atom_site_fract_z
Si Si1 0.149087 0.271680 0.691864
Si Si2 0.241418 0.765996 0.241044
Si Si3 0.884833 0.580715 0.894338
Si Si4 0.263557 0.860581 0.064206
Si Si5 0.228439 0.559124 0.640354
Si Si6 0.349047 0.421644 0.432457
O O1 0.111120 0.503977 0.675585
O O2 0.122936 0.365726 0.815744
O O3 0.903304 0.334154 0.630167
O O4 0.441996 0.922526 0.652333
O O5 0.276601 0.490313 0.161413
O O6 0.248395 0.889696 0.178129
O O7 0.477101 0.625724 0.321894
O O8 0.963841 0.067229 0.308011
O O9 0.692291 0.947506 0.921328
O O10 0.000000 0.500000 0.000000
O O11 0.500000 0.500000 0.000000
O O12 0.000000 0.000000 0.000000
O O13 0.238639 0.441789 0.513215
O O14 0.500000 0.500000 0.500000
#
# Coordination Sequence:
#
# PCOD8037568 Si02
#       6
#     2   2   2   2   2   2
#     4  12  26  47  73 110 148 199 248 306 376 446
#     4  12  26  47  75 111 152 195 250 309 377 446
#     4  12  28  50  78 112 153 204 255 312 376 449
#     4  12  27  49  74 107 152 201 254 314 373 440
#     4  12  25  48  76 110 150 196 248 310 376 451
#     4  12  25  47  75 109 149 192 250 309 374 448
#
# _framework density 25.586684999999999
#
# number of rings (size 3 to 8) (size 9 to 14) (size 15 to 20)
#    0.000    0.000    3.333    6.500    0.000    2.000 
#    0.000    0.000    0.000    0.000    0.000    0.000 
#    0.000    0.000    0.000    0.000    0.000    0.000 
#
# Total GULP energy -148873.629932 kJ/mol
# GULP energy per Si atom -12406.135828 kJ/mol
# Density = 2.552845 g / cm^3
# Si number density = 25.586685 Si / 1000 Ang^3
#
#
#
# Elastic Constant Matrix: (Units=GPa)
#
#
# Indices 1 2 3 4 5 6 
#
# 1 90.1422 23.0213 20.5928 3.4623 -3.8920 22.6042
# 2 23.0213 161.0147 67.4761 15.5083 -8.6735 0.1288
# 3 20.5928 67.4761 181.7240 3.2045 -30.5390 5.9028
# 4 3.4623 15.5083 3.2045 45.2678 1.9597 2.7136
# 5 -3.8920 -8.6735 -30.5390 1.9597 41.8679 1.6049
# 6 22.6042 0.1288 5.9028 2.7136 1.6049 51.4723
#
#
#
# Elastic Compliance Matrix: (Units=1/GPa)
#
#
# Indices 1 2 3 4 5 6 
#
# 1 0.013092 -0.001569 -0.000600 -0.000110 0.000677 -0.005692
# 2 -0.001569 0.007813 -0.002802 -0.002404 -0.000502 0.001133
# 3 -0.000600 -0.002802 0.007437 0.000316 0.004802 -0.000749
# 4 -0.000110 -0.002404 0.000316 0.023026 -0.001311 -0.001155
# 5 0.000677 -0.000502 0.004802 -0.001311 0.027470 -0.001634
# 6 -0.005692 0.001133 -0.000749 -0.001155 -0.001634 0.022122
#
#
# Mechanical properties :
#
#
# Convention : Reuss Voigt Hill
#
# Bulk Modulus (GPa) = 54.34841 72.78461 63.56651
# Shear Modulus (GPa) = 42.72160 49.17431 45.94796
#
# Velocity S-wave (km/s) = 4.09061 4.38867 4.24226
# Velocity P-wave (km/s) = 6.60286 7.36129 6.99237
#
# Compressibility (1/GPa) = 0.01839980
#
# Stress axis : x y z
#
# Youngs Moduli (GPa) = 76.38162 127.99604 134.46167
#
# Poissons Ratio (x) = 0.20078 0.08074
# Poissons Ratio (y) = 0.11981 0.37676
# Poissons Ratio (z) = 0.04587 0.35864
#
# Static dielectric constant tensor:
#      x y z
#    x 5.280530 0.543270 0.008930 
#    y 0.543270 4.974860 0.170380 
#    z 0.008930 0.170380 5.151250 
# 
# 
# High freq. dielectric constant tensor:
#      x y z
#    x 2.030340 0.008830 -0.007070 
#    y 0.008830 2.026590 -0.002560 
#    z -0.007070 -0.002560 2.043440 
# 
# From -- ./inp_files/495633.got.cif
#   From: 2010.06.25/outbox.cif.g09.slc.cpg/sg2_248_cif.got.tgz:495633.got - 2010.06.27 13:26:56.
