data_PCOD8037462
_publ_section_title
;
Structure prediction by ZEFSAII (Michael W. Deem and Ramdas Pophale) SiO2 
 PCOD8037462
Probable space group: P -1
;
_chemical_formula_sum "Si O2"
_cell_formula_units_Z 16
_cell_length_a 11.624207
_cell_length_b 5.271705
_cell_length_c 12.507860
_cell_angle_alpha 100.510317
_cell_angle_beta 61.749628
_cell_angle_gamma 102.951168
_cell_volume 655.395840
_symmetry_space_group_name_H-M "P -1"
_symmetry_group_IT_number 2
_symmetry_cell_setting 'triclinic'
loop_
_space_group_symop_operation_xyz
x,y,z
-x,-y,-z
loop_
_atom_site_type_symbol
_atom_site_label
_atom_site_fract_x
_atom_site_fract_y
_atom_site_fract_z
Si Si1 0.919599 0.208243 0.497511
Si Si2 0.007883 0.218463 0.924495
Si Si3 0.355050 0.378116 0.083999
Si Si4 0.654103 0.318070 0.685605
Si Si5 0.731280 0.193123 0.981675
Si Si6 0.204958 0.029014 0.668410
Si Si7 0.408082 0.924187 0.747980
Si Si8 0.390759 0.377495 0.459681
O O1 0.777707 0.156998 0.621316
O O2 0.000000 0.500000 0.500000
O O3 0.897774 0.171976 0.373440
O O4 0.000000 0.000000 0.500000
O O5 0.135587 0.207334 0.794427
O O6 0.880461 0.143273 0.901387
O O7 0.000000 0.500000 0.000000
O O8 0.000000 0.000000 0.000000
O O9 0.315421 0.446759 0.225784
O O10 0.270509 0.523818 0.048820
O O11 0.348148 0.064694 0.059448
O O12 0.500000 0.500000 0.000000
O O13 0.496656 0.201593 0.762045
O O14 0.672774 0.410762 0.561799
O O15 0.685588 0.201537 0.125417
O O16 0.316888 0.913327 0.680394
O O17 0.273000 0.212470 0.560965
O O18 0.533429 0.778224 0.669202
O O19 0.500000 0.500000 0.500000
#
# Coordination Sequence:
#
# PCOD8037462 Si02
#       8
#     2   2   2   2   2   2   2   2
#     4  12  30  52  74 108 156 209 257 309 375 468
#     4  12  29  51  79 113 153 206 259 321 389 464
#     4  12  27  47  76 112 155 206 249 317 389 462
#     4  12  27  47  78 112 156 200 266 316 394 456
#     4  12  28  49  76 111 161 202 260 315 390 457
#     4  12  27  51  79 116 156 205 262 323 397 458
#     4  12  25  47  79 117 152 193 260 337 385 459
#     4  12  25  44  79 113 151 196 248 330 398 449
#
# _framework density 24.412728000000001
#
# number of rings (size 3 to 8) (size 9 to 14) (size 15 to 20)
#    0.000    0.000    5.000    3.750    7.000    2.000 
#    0.000    0.000    0.000    0.000    0.000    0.000 
#    0.000    0.000    0.000    0.000    0.000    0.000 
#
# Total GULP energy -198222.003994 kJ/mol
# GULP energy per Si atom -12388.875250 kJ/mol
# Density = 2.435716 g / cm^3
# Si number density = 24.412728 Si / 1000 Ang^3
#
#
#
# Elastic Constant Matrix: (Units=GPa)
#
#
# Indices 1 2 3 4 5 6 
#
# 1 137.3760 26.1611 30.8178 -0.5922 0.7672 -9.0353
# 2 26.1611 103.0851 19.1382 3.1810 6.7782 -0.8010
# 3 30.8178 19.1382 97.7251 19.4796 8.6184 -2.3203
# 4 -0.5922 3.1810 19.4796 30.7322 -9.3279 6.8251
# 5 0.7672 6.7782 8.6184 -9.3279 43.5580 5.0024
# 6 -9.0353 -0.8010 -2.3203 6.8251 5.0024 42.3395
#
#
#
# Elastic Compliance Matrix: (Units=1/GPa)
#
#
# Indices 1 2 3 4 5 6 
#
# 1 0.008306 -0.001716 -0.002773 0.002150 0.001001 0.001123
# 2 -0.001716 0.010489 -0.001205 -0.000846 -0.001555 0.000086
# 3 -0.002773 -0.001205 0.014047 -0.010969 -0.005183 0.002536
# 4 0.002150 -0.000846 -0.010969 0.045598 0.013068 -0.009053
# 5 0.001001 -0.001555 -0.005183 0.013068 0.027635 -0.005471
# 6 0.001123 0.000086 0.002536 -0.009053 -0.005471 0.026105
#
#
# Mechanical properties :
#
#
# Convention : Reuss Voigt Hill
#
# Bulk Modulus (GPa) = 46.61496 54.49114 50.55305
# Shear Modulus (GPa) = 33.17424 40.79720 36.98572
#
# Velocity S-wave (km/s) = 3.69031 4.09240 3.89655
# Velocity P-wave (km/s) = 6.10687 6.68577 6.40287
#
# Compressibility (1/GPa) = 0.02145234
#
# Stress axis : x y z
#
# Youngs Moduli (GPa) = 120.39715 95.33758 71.18923
#
# Poissons Ratio (x) = 0.16364 0.19743
# Poissons Ratio (y) = 0.20665 0.08579
# Poissons Ratio (z) = 0.33389 0.11489
#
# Static dielectric constant tensor:
#      x y z
#    x 4.900500 0.216880 -0.165790 
#    y 0.216880 4.050320 0.229150 
#    z -0.165790 0.229150 4.781160 
# 
# 
# High freq. dielectric constant tensor:
#      x y z
#    x 1.991740 -0.001200 -0.002420 
#    y -0.001200 1.965340 0.011580 
#    z -0.002420 0.011580 1.979240 
# 
# From -- ./inp_files/410729.got.cif
#   From: 2010.06.25/outbox.cif.g09.slc.cpg/sg2_206_cif.got.tgz:410729.got - 2010.06.27 13:26:56.
