data_PCOD8037538
_publ_section_title
;
Structure prediction by ZEFSAII (Michael W. Deem and Ramdas Pophale) SiO2 
 PCOD8037538
Probable space group: P -1
;
_chemical_formula_sum "Si O2"
_cell_formula_units_Z 12
_cell_length_a 5.271775
_cell_length_b 10.650935
_cell_length_c 10.306234
_cell_angle_alpha 67.148116
_cell_angle_beta 71.173352
_cell_angle_gamma 99.803315
_cell_volume 474.869160
_symmetry_space_group_name_H-M "P -1"
_symmetry_group_IT_number 2
_symmetry_cell_setting 'triclinic'
loop_
_space_group_symop_operation_xyz
x,y,z
-x,-y,-z
loop_
_atom_site_type_symbol
_atom_site_label
_atom_site_fract_x
_atom_site_fract_y
_atom_site_fract_z
Si Si1 0.024877 0.936292 0.723088
Si Si2 0.508692 0.749300 0.080679
Si Si3 0.480186 0.962948 0.208573
Si Si4 0.010673 0.199039 0.476344
Si Si5 0.462328 0.497337 0.356872
Si Si6 0.968071 0.615310 0.059462
O O1 0.016088 0.810784 0.672318
O O2 0.704926 0.926938 0.834462
O O3 0.149380 0.084599 0.558172
O O4 0.231033 0.942079 0.806690
O O5 0.553345 0.901300 0.086348
O O6 0.381208 0.632430 0.263198
O O7 0.801069 0.723749 0.987237
O O8 0.269115 0.719689 0.021132
O O9 0.295928 0.836416 0.387740
O O10 0.212362 0.357409 0.409760
O O11 0.500000 0.500000 0.500000
O O12 0.771721 0.511065 0.243083
O O13 0.000000 0.500000 0.000000
#
# Coordination Sequence:
#
# PCOD8037538 Si02
#       6
#     2   2   2   2   2   2
#     4   9  19  30  47  70 111 146 173 207 266 316
#     4  10  21  34  57  79 106 142 179 221 267 321
#     4  10  17  32  48  73 105 134 178 216 257 313
#     4   9  19  30  47  73 112 143 173 212 265 316
#     4  10  21  34  54  85 115 138 174 223 275 315
#     4  10  22  39  54  78 111 145 181 213 269 330
#
# _framework density 25.270118
#
# number of rings (size 3 to 8) (size 9 to 14) (size 15 to 20)
#    2.000    0.333    0.000    4.000    0.000    4.000 
#    0.000    0.000    0.000    0.000    0.000    7.000 
#    0.000    0.000    0.000    0.000    0.000    0.000 
#
# Total GULP energy -148740.329709 kJ/mol
# GULP energy per Si atom -12395.027476 kJ/mol
# Density = 2.521260 g / cm^3
# Si number density = 25.270118 Si / 1000 Ang^3
#
#
#
# Elastic Constant Matrix: (Units=GPa)
#
#
# Indices 1 2 3 4 5 6 
#
# 1 203.3228 97.6800 62.2048 13.3466 1.9061 17.8230
# 2 97.6800 168.8194 69.5070 38.9664 11.6924 16.0498
# 3 62.2048 69.5070 117.8048 24.6197 -21.9583 6.1971
# 4 13.3466 38.9664 24.6197 51.4553 0.6744 -2.3707
# 5 1.9061 11.6924 -21.9583 0.6744 40.9688 -0.2306
# 6 17.8230 16.0498 6.1971 -2.3707 -0.2306 51.3049
#
#
#
# Elastic Compliance Matrix: (Units=1/GPa)
#
#
# Indices 1 2 3 4 5 6 
#
# 1 0.007290 -0.003635 -0.002121 0.001834 -0.000475 -0.001057
# 2 -0.003635 0.012004 -0.004914 -0.005822 -0.005807 -0.002194
# 3 -0.002121 -0.004914 0.014881 -0.002956 0.009528 0.000383
# 4 0.001834 -0.005822 -0.002956 0.024911 -0.000403 0.002690
# 5 -0.000475 -0.005807 0.009528 -0.000403 0.031207 0.000952
# 6 -0.001057 -0.002194 0.000383 0.002690 0.000952 0.020627
#
#
# Mechanical properties :
#
#
# Convention : Reuss Voigt Hill
#
# Bulk Modulus (GPa) = 77.90174 105.41453 91.65814
# Shear Modulus (GPa) = 36.61949 46.11613 41.36781
#
# Velocity S-wave (km/s) = 3.81086 4.27655 4.05041
# Velocity P-wave (km/s) = 7.08930 8.13578 7.63050
#
# Compressibility (1/GPa) = 0.01283668
#
# Stress axis : x y z
#
# Youngs Moduli (GPa) = 137.17206 83.30331 67.19773
#
# Poissons Ratio (x) = 0.30279 0.14253
# Poissons Ratio (y) = 0.49860 0.33019
# Poissons Ratio (z) = 0.29094 0.40933
#
# Static dielectric constant tensor:
#      x y z
#    x 4.339590 -0.107240 0.157540 
#    y -0.107240 4.506810 0.410110 
#    z 0.157540 0.410110 6.130780 
# 
# 
# High freq. dielectric constant tensor:
#      x y z
#    x 2.003470 0.000370 0.004820 
#    y 0.000370 2.014150 -0.014220 
#    z 0.004820 -0.014220 2.046310 
# 
# From -- ./inp_files/92623.got.cif
#   From: 2010.06.25/outbox.cif.g09.slc.cpg/sg2_47_cif.got.tgz:92623.got - 2010.06.27 13:26:56.
