data_PCOD8037567
_publ_section_title
;
Structure prediction by ZEFSAII (Michael W. Deem and Ramdas Pophale) SiO2 
 PCOD8037567
Probable space group: P -1
;
_chemical_formula_sum "Si O2"
_cell_formula_units_Z 14
_cell_length_a 18.682832
_cell_length_b 9.190980
_cell_length_c 8.429901
_cell_angle_alpha 108.787545
_cell_angle_beta 31.681231
_cell_angle_gamma 120.832937
_cell_volume 631.544725
_symmetry_space_group_name_H-M "P -1"
_symmetry_group_IT_number 2
_symmetry_cell_setting 'triclinic'
loop_
_space_group_symop_operation_xyz
x,y,z
-x,-y,-z
loop_
_atom_site_type_symbol
_atom_site_label
_atom_site_fract_x
_atom_site_fract_y
_atom_site_fract_z
Si Si1 0.453305 0.647814 0.610906
Si Si2 0.985917 0.912941 0.326356
Si Si3 0.417789 0.742049 0.363286
Si Si4 0.868811 0.513801 0.354430
Si Si5 0.702243 0.998248 0.390970
Si Si6 0.832117 0.370322 0.709530
Si Si7 0.734591 0.993542 0.693667
O O1 0.500000 0.500000 0.500000
O O2 0.479003 0.711965 0.403985
O O3 0.554018 0.809227 0.591896
O O4 0.275849 0.570388 0.970365
O O5 0.928139 0.707436 0.376836
O O6 0.000000 0.000000 0.500000
O O7 0.864719 0.935495 0.451920
O O8 0.153817 0.009799 0.963671
O O9 0.290522 0.552865 0.469006
O O10 0.331280 0.859181 0.584630
O O11 0.566574 0.837345 0.002872
O O12 0.824553 0.385034 0.540915
O O13 0.000000 0.500000 0.000000
O O14 0.734353 0.044848 0.530376
O O15 0.779589 0.166989 0.775408
O O16 0.000000 0.500000 0.500000
#
# Coordination Sequence:
#
# PCOD8037567 Si02
#       7
#     2   2   2   2   2   2   2
#     4  12  30  45  72 109 144 188 239 302 360 426
#     4  12  28  45  74 109 149 190 241 296 358 424
#     4  12  25  49  77 100 146 192 239 293 363 433
#     4  12  25  47  75 107 142 192 242 295 357 426
#     4  12  25  50  73 103 146 192 239 289 364 434
#     4  12  26  45  74 105 146 184 242 294 358 429
#     4  12  26  47  74 108 141 192 237 297 358 426
#
# _framework density 22.167867999999999
#
# number of rings (size 3 to 8) (size 9 to 14) (size 15 to 20)
#    0.000    0.000    4.286    4.714   10.000    0.571 
#    0.000    0.000    0.000    0.000    0.000    0.000 
#    0.000    0.000    0.000    0.000    0.000    0.000 
#
# Total GULP energy -173703.099795 kJ/mol
# GULP energy per Si atom -12407.364271 kJ/mol
# Density = 2.211741 g / cm^3
# Si number density = 22.167868 Si / 1000 Ang^3
#
#
#
# Elastic Constant Matrix: (Units=GPa)
#
#
# Indices 1 2 3 4 5 6 
#
# 1 108.1383 45.9575 37.7444 5.6346 -2.3792 -4.6504
# 2 45.9575 140.7743 42.1103 3.0637 -8.7102 10.4591
# 3 37.7444 42.1103 162.7472 1.9711 -6.7872 -2.1482
# 4 5.6346 3.0637 1.9711 37.1156 3.0802 -8.5280
# 5 -2.3792 -8.7102 -6.7872 3.0802 44.7483 -3.0999
# 6 -4.6504 10.4591 -2.1482 -8.5280 -3.0999 42.4564
#
#
#
# Elastic Compliance Matrix: (Units=1/GPa)
#
#
# Indices 1 2 3 4 5 6 
#
# 1 0.011391 -0.003312 -0.001755 -0.000945 -0.000117 0.001777
# 2 -0.003312 0.008936 -0.001519 -0.000881 0.001204 -0.002730
# 3 -0.001755 -0.001519 0.006981 0.000102 0.000705 0.000607
# 4 -0.000945 -0.000881 0.000102 0.028620 -0.001779 0.005738
# 5 -0.000117 0.001204 0.000705 -0.001779 0.022877 0.001039
# 6 0.001777 -0.002730 0.000607 0.005738 0.001039 0.025680
#
#
# Mechanical properties :
#
#
# Convention : Reuss Voigt Hill
#
# Bulk Modulus (GPa) = 70.74658 73.69826 72.22242
# Shear Modulus (GPa) = 40.86065 43.92058 42.39061
#
# Velocity S-wave (km/s) = 4.29795 4.45598 4.37768
# Velocity P-wave (km/s) = 7.52417 7.73253 7.62906
#
# Compressibility (1/GPa) = 0.01413496
#
# Stress axis : x y z
#
# Youngs Moduli (GPa) = 87.79136 111.90821 143.25302
#
# Poissons Ratio (x) = 0.37069 0.25136
# Poissons Ratio (y) = 0.29080 0.21761
# Poissons Ratio (z) = 0.15404 0.16999
#
# Static dielectric constant tensor:
#      x y z
#    x 4.085310 0.037900 -0.176890 
#    y 0.037900 4.157760 -0.104720 
#    z -0.176890 -0.104720 4.148830 
# 
# 
# High freq. dielectric constant tensor:
#      x y z
#    x 1.880470 0.006270 -0.006410 
#    y 0.006270 1.882580 -0.007200 
#    z -0.006410 -0.007200 1.888370 
# 
# From -- ./inp_files/156755.got.cif
#   From: 2010.06.25/outbox.cif.g09.slc.cpg/sg2_79_cif.got.tgz:156755.got - 2010.06.27 13:26:56.
