data_PCOD8037541
_publ_section_title
;
Structure prediction by ZEFSAII (Michael W. Deem and Ramdas Pophale) SiO2 
 PCOD8037541
Probable space group: P -1
;
_chemical_formula_sum "Si O2"
_cell_formula_units_Z 12
_cell_length_a 10.170788
_cell_length_b 11.925533
_cell_length_c 5.228002
_cell_angle_alpha 92.650336
_cell_angle_beta 131.572108
_cell_angle_gamma 89.606831
_cell_volume 473.646751
_symmetry_space_group_name_H-M "P -1"
_symmetry_group_IT_number 2
_symmetry_cell_setting 'triclinic'
loop_
_space_group_symop_operation_xyz
x,y,z
-x,-y,-z
loop_
_atom_site_type_symbol
_atom_site_label
_atom_site_fract_x
_atom_site_fract_y
_atom_site_fract_z
Si Si1 0.203346 0.896725 0.144887
Si Si2 0.109261 0.485172 0.389622
Si Si3 0.706587 0.977981 0.236498
Si Si4 0.437018 0.620383 0.868579
Si Si5 0.475539 0.251919 0.492168
Si Si6 0.838672 0.772501 0.612090
O O1 0.391353 0.842250 0.433065
O O2 0.179720 0.977129 0.366766
O O3 0.955815 0.196450 0.079026
O O4 0.209607 0.965276 0.898302
O O5 0.233409 0.596402 0.544735
O O6 0.194987 0.361326 0.500581
O O7 0.000000 0.500000 0.500000
O O8 0.000000 0.500000 0.000000
O O9 0.748297 0.844787 0.274266
O O10 0.500000 0.000000 0.000000
O O11 0.533948 0.658907 0.737716
O O12 0.500000 0.500000 0.000000
O O13 0.454602 0.703262 0.138872
O O14 0.277807 0.201429 0.280773
#
# Coordination Sequence:
#
# PCOD8037541 Si02
#       6
#     2   2   2   2   2   2
#     4  12  27  50  75 111 154 188 249 307 366 448
#     4  12  28  48  73 109 150 191 253 304 360 441
#     4  12  27  51  77 111 151 193 246 310 372 442
#     4  12  25  47  71 106 148 195 246 304 363 429
#     4  12  27  46  78 110 149 198 248 300 373 440
#     4  12  28  48  81 109 149 202 246 303 378 435
#
# _framework density 25.335336000000002
#
# number of rings (size 3 to 8) (size 9 to 14) (size 15 to 20)
#    0.000    0.000    3.333    6.000    2.333    4.000 
#    0.000    0.000    0.000    0.000    0.000    0.000 
#    0.000    0.000    0.000    0.000    0.000    0.000 
#
# Total GULP energy -148771.370648 kJ/mol
# GULP energy per Si atom -12397.614221 kJ/mol
# Density = 2.527767 g / cm^3
# Si number density = 25.335336 Si / 1000 Ang^3
#
#
#
# Elastic Constant Matrix: (Units=GPa)
#
#
# Indices 1 2 3 4 5 6 
#
# 1 157.8055 42.9779 50.7322 -9.0166 -11.1545 37.6285
# 2 42.9779 126.4455 29.3235 -20.7179 -8.3795 16.5511
# 3 50.7322 29.3235 111.9449 0.1490 -32.7650 19.9638
# 4 -9.0166 -20.7179 0.1490 54.1505 6.0743 1.3502
# 5 -11.1545 -8.3795 -32.7650 6.0743 43.5206 -11.4447
# 6 37.6285 16.5511 19.9638 1.3502 -11.4447 52.5633
#
#
#
# Elastic Compliance Matrix: (Units=1/GPa)
#
#
# Indices 1 2 3 4 5 6 
#
# 1 0.008991 -0.001528 -0.003356 0.001280 -0.002052 -0.005160
# 2 -0.001528 0.009564 -0.001777 0.003534 -0.000776 -0.001503
# 3 -0.003356 -0.001777 0.013698 -0.002327 0.009400 -0.000134
# 4 0.001280 0.003534 -0.002327 0.020587 -0.004304 -0.002611
# 5 -0.002052 -0.000776 0.009400 -0.004304 0.031313 0.005072
# 6 -0.005160 -0.001503 -0.000134 -0.002611 0.005072 0.024414
#
#
# Mechanical properties :
#
#
# Convention : Reuss Voigt Hill
#
# Bulk Modulus (GPa) = 52.82640 71.36257 62.09449
# Shear Modulus (GPa) = 39.00186 48.25769 43.62977
#
# Velocity S-wave (km/s) = 3.92781 4.36909 4.15431
# Velocity P-wave (km/s) = 6.43944 7.32668 6.89734
#
# Compressibility (1/GPa) = 0.01892993
#
# Stress axis : x y z
#
# Youngs Moduli (GPa) = 111.22708 104.55499 73.00565
#
# Poissons Ratio (x) = 0.15979 0.24503
# Poissons Ratio (y) = 0.16999 0.12971
# Poissons Ratio (z) = 0.37332 0.18576
#
# Static dielectric constant tensor:
#      x y z
#    x 4.950180 -0.594650 -0.628700 
#    y -0.594650 4.623520 -0.316530 
#    z -0.628700 -0.316530 4.473970 
# 
# 
# High freq. dielectric constant tensor:
#      x y z
#    x 2.028080 0.010700 0.004990 
#    y 0.010700 2.023850 -0.001750 
#    z 0.004990 -0.001750 2.025420 
# 
# From -- ./inp_files/62595.got.cif
#   From: 2010.06.25/outbox.cif.g09.slc.cpg/sg2_32_cif.got.tgz:62595.got - 2010.06.27 13:26:56.
