data_PCOD8037810
_publ_section_title
;
Structure prediction by ZEFSAII (Michael W. Deem and Ramdas Pophale) SiO2 
 PCOD8037810
Probable space group: P -1
;
_chemical_formula_sum "Si O2"
_cell_formula_units_Z 12
_cell_length_a 5.150289
_cell_length_b 21.670360
_cell_length_c 4.821148
_cell_angle_alpha 87.774434
_cell_angle_beta 58.320808
_cell_angle_gamma 92.904421
_cell_volume 455.962531
_symmetry_space_group_name_H-M "P -1"
_symmetry_group_IT_number 2
_symmetry_cell_setting 'triclinic'
loop_
_space_group_symop_operation_xyz
x,y,z
-x,-y,-z
loop_
_atom_site_type_symbol
_atom_site_label
_atom_site_fract_x
_atom_site_fract_y
_atom_site_fract_z
Si Si1 0.767052 0.042638 0.984261
Si Si2 0.018765 0.629121 0.707618
Si Si3 0.484546 0.545463 0.251049
Si Si4 0.304323 0.208069 0.991916
Si Si5 0.251731 0.875342 0.506099
Si Si6 0.413769 0.290364 0.399657
O O1 0.084808 0.914616 0.357113
O O2 0.500000 0.000000 0.000000
O O3 0.000000 0.000000 0.000000
O O4 0.641826 0.084222 0.293061
O O5 0.169148 0.578620 0.439386
O O6 0.705678 0.737178 0.235145
O O7 0.283388 0.663859 0.741121
O O8 0.862335 0.675282 0.583472
O O9 0.500000 0.500000 0.500000
O O10 0.500000 0.500000 0.000000
O O11 0.770084 0.597567 0.067536
O O12 0.446249 0.147661 0.802232
O O13 0.960531 0.185691 0.280168
O O14 0.487421 0.235254 0.155810
#
# Coordination Sequence:
#
# PCOD8037810 Si02
#       6
#     2   2   2   2   2   2
#     4  12  27  50  78 113 153 202 255 315 380 454
#     4  12  29  52  80 114 155 203 256 317 381 456
#     4  12  28  50  78 113 154 201 254 314 381 454
#     4  12  28  50  78 113 154 202 254 315 381 454
#     4  12  27  50  77 112 154 201 254 315 381 454
#     4  12  29  52  79 115 154 203 257 316 382 456
#
# _framework density 26.31795
#
# number of rings (size 3 to 8) (size 9 to 14) (size 15 to 20)
#    0.000    0.000    0.000    8.000    0.000   18.667 
#    0.000    0.000    0.000    0.000    0.000    0.000 
#    0.000    0.000    0.000    0.000    0.000    0.000 
#
# Total GULP energy -148873.353413 kJ/mol
# GULP energy per Si atom -12406.112784 kJ/mol
# Density = 2.625805 g / cm^3
# Si number density = 26.317950 Si / 1000 Ang^3
#
#
#
# Elastic Constant Matrix: (Units=GPa)
#
#
# Indices 1 2 3 4 5 6 
#
# 1 128.3135 32.5958 25.7895 -6.4571 12.6318 4.5682
# 2 32.5958 103.9924 21.1966 -14.3820 8.9459 -3.7742
# 3 25.7895 21.1966 113.1215 -24.6817 16.7239 -6.1542
# 4 -6.4571 -14.3820 -24.6817 43.9324 -0.9124 15.9060
# 5 12.6318 8.9459 16.7239 -0.9124 51.5959 6.4779
# 6 4.5682 -3.7742 -6.1542 15.9060 6.4779 26.3239
#
#
#
# Elastic Compliance Matrix: (Units=1/GPa)
#
#
# Indices 1 2 3 4 5 6 
#
# 1 0.008904 -0.002424 -0.001441 0.000517 -0.000995 -0.002297
# 2 -0.002424 0.011003 -0.000749 0.002618 -0.001089 0.000509
# 3 -0.001441 -0.000749 0.010982 0.005637 -0.002982 0.000038
# 4 0.000517 0.002618 0.005637 0.033720 0.000563 -0.018910
# 5 -0.000995 -0.001089 -0.002982 0.000563 0.021585 -0.006333
# 6 -0.002297 0.000509 0.000038 -0.018910 -0.006333 0.051453
#
#
# Mechanical properties :
#
#
# Convention : Reuss Voigt Hill
#
# Bulk Modulus (GPa) = 46.16550 56.06568 51.11559
# Shear Modulus (GPa) = 32.44727 42.09346 37.27036
#
# Velocity S-wave (km/s) = 3.51507 4.00361 3.76727
# Velocity P-wave (km/s) = 5.83556 6.53616 6.19577
#
# Compressibility (1/GPa) = 0.02166120
#
# Stress axis : x y z
#
# Youngs Moduli (GPa) = 112.30316 90.88689 91.05984
#
# Poissons Ratio (x) = 0.22028 0.13122
# Poissons Ratio (y) = 0.27218 0.06823
# Poissons Ratio (z) = 0.16183 0.06810
#
# Static dielectric constant tensor:
#      x y z
#    x 4.645580 -0.030930 0.210750 
#    y -0.030930 5.359420 0.032230 
#    z 0.210750 0.032230 5.070340 
# 
# 
# High freq. dielectric constant tensor:
#      x y z
#    x 2.054940 -0.002630 0.013710 
#    y -0.002630 2.083280 0.002460 
#    z 0.013710 0.002460 2.072470 
# 
# From -- ./inp_files/9819.got.cif
#   From: 2010.06.25/outbox.cif.g09.slc.cpg/sg2_5_cif.got.tgz:9819.got - 2010.06.27 13:26:56.
