data_PCOD8037092
_publ_section_title
;
Structure prediction by ZEFSAII (Michael W. Deem and Ramdas Pophale) SiO2 
 PCOD8037092
Probable space group: P -1
;
_chemical_formula_sum "Si O2"
_cell_formula_units_Z 16
_cell_length_a 9.637358
_cell_length_b 15.208369
_cell_length_c 5.253495
_cell_angle_alpha 78.727318
_cell_angle_beta 78.243118
_cell_angle_gamma 108.205581
_cell_volume 687.746012
_symmetry_space_group_name_H-M "P -1"
_symmetry_group_IT_number 2
_symmetry_cell_setting 'triclinic'
loop_
_space_group_symop_operation_xyz
x,y,z
-x,-y,-z
loop_
_atom_site_type_symbol
_atom_site_label
_atom_site_fract_x
_atom_site_fract_y
_atom_site_fract_z
Si Si1 0.726625 0.714354 0.842095
Si Si2 0.169452 0.062082 0.328802
Si Si3 0.631819 0.981845 0.321524
Si Si4 0.615922 0.190302 0.671740
Si Si5 0.160365 0.883367 0.156640
Si Si6 0.113924 0.297691 0.718697
Si Si7 0.610941 0.305055 0.099650
Si Si8 0.060592 0.562123 0.191732
O O1 0.806055 0.828360 0.803129
O O2 0.802147 0.676506 0.600834
O O3 0.546191 0.675566 0.877110
O O4 0.760428 0.672335 0.120558
O O5 0.281158 0.069692 0.513390
O O6 0.191375 0.997734 0.125823
O O7 0.000000 0.000000 0.500000
O O8 0.542359 0.900445 0.194328
O O9 0.500000 0.000000 0.500000
O O10 0.733876 0.092687 0.145435
O O11 0.767053 0.161088 0.620585
O O12 0.622853 0.263192 0.398261
O O13 0.618003 0.234073 0.920466
O O14 0.987075 0.817217 0.195751
O O15 0.995124 0.348708 0.800446
O O16 0.756876 0.401932 0.934071
O O17 0.000000 0.500000 0.500000
O O18 0.000000 0.500000 0.000000
#
# Coordination Sequence:
#
# PCOD8037092 Si02
#       8
#     2   2   2   2   2   2   2   2
#     4  12  27  47  69 114 153 206 237 296 358 442
#     4  12  25  39  63  97 155 201 256 283 343 409
#     4  12  25  40  61 100 142 201 256 310 340 398
#     4  12  24  42  70 105 146 198 255 305 353 415
#     4  12  26  40  68 102 150 203 256 306 348 405
#     4  12  28  49  77 105 154 191 248 294 381 441
#     4  12  26  47  79 108 148 191 245 305 373 447
#     4  12  28  54  86 116 137 178 243 315 386 461
#
# _framework density 23.264406000000001
#
# number of rings (size 3 to 8) (size 9 to 14) (size 15 to 20)
#    0.000    0.000    5.000    4.875    3.500    1.000 
#    0.000    3.750    0.000    0.000    0.000    0.000 
#    0.000    0.000    0.000    0.000    0.000    0.000 
#
# Total GULP energy -198238.692094 kJ/mol
# GULP energy per Si atom -12389.918256 kJ/mol
# Density = 2.321145 g / cm^3
# Si number density = 23.264406 Si / 1000 Ang^3
#
#
#
# Elastic Constant Matrix: (Units=GPa)
#
#
# Indices 1 2 3 4 5 6 
#
# 1 103.0869 12.0629 22.7029 3.2520 -12.5642 6.8746
# 2 12.0629 79.3150 16.0605 17.4962 -15.3663 9.0308
# 3 22.7029 16.0605 111.0761 7.1189 -0.4853 2.1160
# 4 3.2520 17.4962 7.1189 39.5096 7.6206 -2.1905
# 5 -12.5642 -15.3663 -0.4853 7.6206 41.5671 -7.9600
# 6 6.8746 9.0308 2.1160 -2.1905 -7.9600 27.2262
#
#
#
# Elastic Compliance Matrix: (Units=1/GPa)
#
#
# Indices 1 2 3 4 5 6 
#
# 1 0.010687 -0.000194 -0.002041 -0.001101 0.003014 -0.001683
# 2 -0.000194 0.016679 -0.001713 -0.008615 0.006895 -0.004027
# 3 -0.002041 -0.001713 0.009704 -0.000625 -0.001026 -0.000021
# 4 -0.001101 -0.008615 -0.000625 0.031169 -0.008632 0.003168
# 5 0.003014 0.006895 -0.001026 -0.008632 0.030070 0.005128
# 6 -0.001683 -0.004027 -0.000021 0.003168 0.005128 0.040246
#
#
# Mechanical properties :
#
#
# Convention : Reuss Voigt Hill
#
# Bulk Modulus (GPa) = 34.27589 43.90342 39.08965
# Shear Modulus (GPa) = 32.01542 37.83736 34.92639
#
# Velocity S-wave (km/s) = 3.71368 4.03725 3.87884
# Velocity P-wave (km/s) = 5.75793 6.37534 6.07448
#
# Compressibility (1/GPa) = 0.02917503
#
# Stress axis : x y z
#
# Youngs Moduli (GPa) = 93.57194 59.95526 103.05486
#
# Poissons Ratio (x) = 0.01161 0.21029
# Poissons Ratio (y) = 0.01813 0.17654
# Poissons Ratio (z) = 0.19094 0.10271
#
# Static dielectric constant tensor:
#      x y z
#    x 4.208790 0.438400 0.211090 
#    y 0.438400 3.362840 -0.207650 
#    z 0.211090 -0.207650 3.862510 
# 
# 
# High freq. dielectric constant tensor:
#      x y z
#    x 1.938430 0.010640 -0.007210 
#    y 0.010640 1.905440 0.016860 
#    z -0.007210 0.016860 1.929410 
# 
# From -- ./inp_files/37951.got.cif
#   From: 2010.06.25/outbox.cif.g09.slc.cpg/sg2_19_cif.got.tgz:37951.got - 2010.06.27 13:26:56.
