data_PCOD8037901
_publ_section_title
;
Structure prediction by ZEFSAII (Michael W. Deem and Ramdas Pophale) SiO2 
 PCOD8037901
Probable space group: P -1
;
_chemical_formula_sum "Si O2"
_cell_formula_units_Z 16
_cell_length_a 12.000000
_cell_length_b 12.000000
_cell_length_c 12.000000
_cell_angle_alpha 120.000000
_cell_angle_beta 130.000000
_cell_angle_gamma 100.000000
_cell_volume 763.164900
_symmetry_space_group_name_H-M "P -1"
_symmetry_group_IT_number 2
_symmetry_cell_setting 'triclinic'
loop_
_space_group_symop_operation_xyz
x,y,z
-x,-y,-z
loop_
_atom_site_type_symbol
_atom_site_label
_atom_site_fract_x
_atom_site_fract_y
_atom_site_fract_z
Si Si1 0.737403 0.132071 0.531599
Si Si2 0.722601 0.784803 0.454012
Si Si3 0.209679 0.451685 0.313029
Si Si4 0.490271 0.738135 0.079628
Si Si5 0.473840 0.587339 0.770310
Si Si6 0.385003 0.714156 0.344334
Si Si7 0.918934 0.804999 0.077794
Si Si8 0.915691 0.479671 0.154660
O O1 0.584617 0.122427 0.505267
O O2 0.907003 0.173573 0.742042
O O3 0.865137 0.291148 0.596076
O O4 0.573986 0.934939 0.259656
O O5 0.638961 0.738275 0.248670
O O6 0.701067 0.624540 0.396028
O O7 0.598977 0.807246 0.464296
O O8 0.978320 0.984521 0.737224
O O9 0.387404 0.571381 0.585661
O O10 0.323952 0.582673 0.341572
O O11 0.997149 0.388702 0.187418
O O12 0.127215 0.258943 0.115105
O O13 0.505157 0.721641 0.948439
O O14 0.238041 0.565827 0.870231
O O15 0.698305 0.658046 0.935059
O O16 0.186976 0.583168 0.065076
#
# Coordination Sequence:
#
# PCOD8037901 Si02
#       8
#     2   2   2   2   2   2   2   2
#     4  10  19  36  64  92 110 143 196 249 285 331
#     4  10  23  37  64  87 110 155 198 240 279 339
#     4  11  21  38  63  84 119 155 184 241 296 337
#     4  10  24  38  61  86 115 158 191 235 283 343
#     4  12  25  42  51  84 132 156 188 225 283 360
#     4  10  18  38  63  93 113 138 195 253 296 319
#     4  11  21  37  62  88 112 154 191 240 292 330
#     4  10  19  38  64  88 113 144 195 248 287 331
#
# _framework density 20.965325
#
# number of rings (size 3 to 8) (size 9 to 14) (size 15 to 20)
#    0.000    1.500    3.750    2.250    1.750    5.500 
#    0.000    2.500    0.000    0.000    0.000    0.000 
#    0.000    0.000    0.000    0.000    0.000    0.000 
#
# Total GULP energy -198286.568106 kJ/mol
# GULP energy per Si atom -12392.910507 kJ/mol
# Density = 2.091761 g / cm^3
# Si number density = 20.965325 Si / 1000 Ang^3
#
#
#
# Elastic Constant Matrix: (Units=GPa)
#
#
# Indices 1 2 3 4 5 6 
#
# 1 72.0471 15.4809 37.1941 -14.0729 -24.6163 8.2489
# 2 15.4809 33.9882 30.8485 -2.2378 -2.5899 -2.4362
# 3 37.1941 30.8485 85.3845 -11.8539 -22.2567 8.1504
# 4 -14.0729 -2.2378 -11.8539 28.5754 3.1196 -6.4983
# 5 -24.6163 -2.5899 -22.2567 3.1196 29.7223 2.7254
# 6 8.2489 -2.4362 8.1504 -6.4983 2.7254 20.3786
#
#
#
# Elastic Compliance Matrix: (Units=1/GPa)
#
#
# Indices 1 2 3 4 5 6 
#
# 1 0.026228 -0.011091 0.000358 0.006957 0.021462 -0.012738
# 2 -0.011091 0.056396 -0.024608 -0.003281 -0.024491 0.023303
# 3 0.000358 -0.024608 0.027667 0.004026 0.019871 -0.015526
# 4 0.006957 -0.003281 0.004026 0.041250 0.003439 0.007875
# 5 0.021462 -0.024491 0.019871 0.003439 0.066311 -0.027334
# 6 -0.012738 0.023303 -0.015526 0.007875 -0.027334 0.069389
#
#
# Mechanical properties :
#
#
# Convention : Reuss Voigt Hill
#
# Bulk Modulus (GPa) = 25.24605 39.82962 32.53783
# Shear Modulus (GPa) = 13.47246 22.92834 18.20040
#
# Velocity S-wave (km/s) = 2.53772 3.31060 2.94958
# Velocity P-wave (km/s) = 4.54474 5.80108 5.21091
#
# Compressibility (1/GPa) = 0.03961016
#
# Stress axis : x y z
#
# Youngs Moduli (GPa) = 38.12654 17.73161 36.14418
#
# Poissons Ratio (x) = 0.19666 -0.01293
# Poissons Ratio (y) = 0.42286 0.88943
# Poissons Ratio (z) = -0.01364 0.43634
#
# Static dielectric constant tensor:
#      x y z
#    x 3.753690 -0.002880 -0.083450 
#    y -0.002880 3.622870 0.275490 
#    z -0.083450 0.275490 4.039290 
# 
# 
# High freq. dielectric constant tensor:
#      x y z
#    x 1.818780 0.001790 -0.004940 
#    y 0.001790 1.791400 0.013030 
#    z -0.004940 0.013030 1.816430 
# 
# From -- ./inp_files/269573.got.cif
#   From: 2010.06.25/outbox.ucp.g09.slc.cvg/sg2_135_cif.got.tgz:269573.got - 2010.06.28 11:54:26.
