data_PCOD8037921
_publ_section_title
;
Structure prediction by ZEFSAII (Michael W. Deem and Ramdas Pophale) SiO2 
 PCOD8037921
Probable space group: P -1
;
_chemical_formula_sum "Si O2"
_cell_formula_units_Z 14
_cell_length_a 15.371830
_cell_length_b 8.919554
_cell_length_c 14.756124
_cell_angle_alpha 41.943991
_cell_angle_beta 138.508566
_cell_angle_gamma 154.656363
_cell_volume 557.588107
_symmetry_space_group_name_H-M "P -1"
_symmetry_group_IT_number 2
_symmetry_cell_setting 'triclinic'
loop_
_space_group_symop_operation_xyz
x,y,z
-x,-y,-z
loop_
_atom_site_type_symbol
_atom_site_label
_atom_site_fract_x
_atom_site_fract_y
_atom_site_fract_z
Si Si1 0.729751 0.328082 0.876904
Si Si2 0.089063 0.785631 0.825561
Si Si3 0.786601 0.194689 0.699956
Si Si4 0.437267 0.307611 0.630292
Si Si5 0.780154 0.661285 0.431948
Si Si6 0.098369 0.509896 0.659069
Si Si7 0.529914 0.313579 0.166580
O O1 0.627453 0.430023 0.773331
O O2 0.970331 0.682030 0.873197
O O3 0.602979 0.061014 0.813548
O O4 0.731823 0.164337 0.038491
O O5 0.943163 0.501107 0.760284
O O6 0.209381 0.182870 0.723806
O O7 0.725903 0.326923 0.528603
O O8 0.913104 0.195582 0.729690
O O9 0.576503 0.807798 0.759208
O O10 0.500000 0.500000 0.500000
O O11 0.404075 0.477130 0.590791
O O12 0.235687 0.877928 0.655322
O O13 0.000000 0.000000 0.500000
O O14 0.229885 0.464440 0.750634
O O15 0.000000 0.500000 0.500000
O O16 0.500000 0.500000 0.000000
#
# Coordination Sequence:
#
# PCOD8037921 Si02
#       7
#     2   2   2   2   2   2   2
#     4   9  20  34  59  88 122 155 200 252 307 375
#     4   9  17  35  56  90 119 154 193 249 315 367
#     4  10  21  41  66  88 129 161 208 261 321 371
#     4  11  20  37  60  90 127 155 203 262 313 367
#     4  10  17  32  59  88 115 153 190 251 314 358
#     4  11  24  42  65  92 125 171 217 259 312 387
#     4  10  23  44  60  87 128 172 207 262 312 373
#
# _framework density 25.108139999999999
#
# number of rings (size 3 to 8) (size 9 to 14) (size 15 to 20)
#    0.000    2.000    2.857    3.429    0.000    2.857 
#    5.143    1.429    0.000    0.000    0.000    0.000 
#    0.000    0.000    0.000    0.000    0.000    0.000 
#
# Total GULP energy -173435.060705 kJ/mol
# GULP energy per Si atom -12388.218622 kJ/mol
# Density = 2.505099 g / cm^3
# Si number density = 25.108140 Si / 1000 Ang^3
#
#
#
# Elastic Constant Matrix: (Units=GPa)
#
#
# Indices 1 2 3 4 5 6 
#
# 1 106.9775 40.2356 39.9482 -2.2031 10.8944 50.8884
# 2 40.2356 80.6531 45.9961 -7.4424 10.4065 38.4901
# 3 39.9482 45.9961 209.4548 0.8683 13.9275 44.0375
# 4 -2.2031 -7.4424 0.8683 35.9643 16.8145 -1.5000
# 5 10.8944 10.4065 13.9275 16.8145 32.8610 0.9361
# 6 50.8884 38.4901 44.0375 -1.5000 0.9361 47.0708
#
#
#
# Elastic Compliance Matrix: (Units=1/GPa)
#
#
# Indices 1 2 3 4 5 6 
#
# 1 0.021779 0.003269 0.001590 0.006106 -0.011277 -0.027287
# 2 0.003269 0.024491 -0.000404 0.010632 -0.013466 -0.022576
# 3 0.001590 -0.000404 0.006293 0.001184 -0.003468 -0.007169
# 4 0.006106 0.010632 0.001184 0.042468 -0.027210 -0.014509
# 5 -0.011277 -0.013466 -0.003468 -0.027210 0.053129 0.024523
# 6 -0.027287 -0.022576 -0.007169 -0.014509 0.024523 0.074962
#
#
# Mechanical properties :
#
#
# Convention : Reuss Voigt Hill
#
# Bulk Modulus (GPa) = 16.26738 72.16057 44.21398
# Shear Modulus (GPa) = 21.30367 41.23957 31.27162
#
# Velocity S-wave (km/s) = 2.91602 4.05715 3.53296
# Velocity P-wave (km/s) = 4.22263 7.12387 5.85577
#
# Compressibility (1/GPa) = 0.06147271
#
# Stress axis : x y z
#
# Youngs Moduli (GPa) = 45.91612 40.83173 158.91327
#
# Poissons Ratio (x) = -0.13348 -0.25265
# Poissons Ratio (y) = -0.15010 0.06416
# Poissons Ratio (z) = -0.07300 0.01649
#
# Static dielectric constant tensor:
#      x y z
#    x 4.577760 0.345570 0.090440 
#    y 0.345570 5.117710 -0.048890 
#    z 0.090440 -0.048890 4.917740 
# 
# 
# High freq. dielectric constant tensor:
#      x y z
#    x 1.989750 0.015050 -0.001870 
#    y 0.015050 2.003910 0.007920 
#    z -0.001870 0.007920 2.009990 
# 
# From -- ./inp_files/315380.got.cif
#   From: 2010.06.25/outbox.cif.g09.slc.cpg/sg2_158_cif.got.tgz:315380.got - 2010.06.27 13:26:56.
