data_PCOD8037082
_publ_section_title
;
Structure prediction by ZEFSAII (Michael W. Deem and Ramdas Pophale) SiO2 
 PCOD8037082
Probable space group: P -1
;
_chemical_formula_sum "Si O2"
_cell_formula_units_Z 16
_cell_length_a 12.668783
_cell_length_b 14.980093
_cell_length_c 8.780972
_cell_angle_alpha 39.760671
_cell_angle_beta 120.090284
_cell_angle_gamma 97.597621
_cell_volume 820.009268
_symmetry_space_group_name_H-M "P -1"
_symmetry_group_IT_number 2
_symmetry_cell_setting 'triclinic'
loop_
_space_group_symop_operation_xyz
x,y,z
-x,-y,-z
loop_
_atom_site_type_symbol
_atom_site_label
_atom_site_fract_x
_atom_site_fract_y
_atom_site_fract_z
Si Si1 0.571143 0.334493 0.851143
Si Si2 0.390386 0.970091 0.867455
Si Si3 0.613087 0.865165 0.656663
Si Si4 0.144123 0.139571 0.015749
Si Si5 0.850080 0.978488 0.153837
Si Si6 0.572618 0.580738 0.045894
Si Si7 0.839135 0.168597 0.429617
Si Si8 0.835379 0.284537 0.605014
O O1 0.500000 0.500000 0.500000
O O2 0.503913 0.347176 0.948698
O O3 0.546568 0.214123 0.883869
O O4 0.734582 0.268778 0.087995
O O5 0.356761 0.069633 0.560574
O O6 0.248817 0.029300 0.778797
O O7 0.500000 0.000000 0.000000
O O8 0.755736 0.788709 0.954283
O O9 0.500000 0.000000 0.500000
O O10 0.570891 0.729137 0.761272
O O11 0.185685 0.978606 0.348958
O O12 0.164234 0.108722 0.891243
O O13 0.987421 0.262141 0.777509
O O14 0.006488 0.890785 0.443007
O O15 0.808616 0.157137 0.845739
O O16 0.727371 0.454596 0.361838
O O17 0.500000 0.500000 0.000000
O O18 0.814185 0.274267 0.422855
#
# Coordination Sequence:
#
# PCOD8037082 Si02
#       8
#     2   2   2   2   2   2   2   2
#     4  12  25  41  62  94 127 161 209 264 309 368
#     4  12  26  40  61  93 128 164 212 256 314 366
#     4  12  24  42  65  89 127 169 209 261 307 374
#     4   9  18  39  66  94 122 160 212 255 310 370
#     4   9  20  37  68  94 123 161 205 261 311 371
#     4  12  25  41  66  91 125 168 212 255 314 372
#     4   9  17  39  64  94 125 160 210 254 307 376
#     4   9  19  37  67  95 121 163 206 258 310 373
#
# _framework density 19.511976000000001
#
# number of rings (size 3 to 8) (size 9 to 14) (size 15 to 20)
#    0.000    1.500    3.750    3.000    5.250    1.000 
#    2.250    0.000    0.000    2.250    0.000    0.000 
#    0.000    0.000    0.000    0.000    0.000    0.000 
#
# Total GULP energy -198404.040652 kJ/mol
# GULP energy per Si atom -12400.252541 kJ/mol
# Density = 1.946757 g / cm^3
# Si number density = 19.511976 Si / 1000 Ang^3
#
#
#
# Elastic Constant Matrix: (Units=GPa)
#
#
# Indices 1 2 3 4 5 6 
#
# 1 145.3775 57.6356 52.8313 -0.8627 5.4526 -6.0292
# 2 57.6356 110.7898 47.9024 1.4879 11.4849 16.8927
# 3 52.8313 47.9024 123.8011 -0.1823 11.1654 6.4867
# 4 -0.8627 1.4879 -0.1823 30.3200 1.2762 1.1761
# 5 5.4526 11.4849 11.1654 1.2762 35.4049 1.4626
# 6 -6.0292 16.8927 6.4867 1.1761 1.4626 30.8593
#
#
#
# Elastic Compliance Matrix: (Units=1/GPa)
#
#
# Indices 1 2 3 4 5 6 
#
# 1 0.009988 -0.004887 -0.002702 0.000279 0.000676 0.005152
# 2 -0.004887 0.014277 -0.002779 -0.000433 -0.002655 -0.008044
# 3 -0.002702 -0.002779 0.010543 0.000250 -0.001969 -0.001139
# 4 0.000279 -0.000433 0.000250 0.033098 -0.001135 -0.000969
# 5 0.000676 -0.002655 -0.001969 -0.001135 0.029637 0.000638
# 6 0.005152 -0.008044 -0.001139 -0.000969 0.000638 0.038061
#
#
# Mechanical properties :
#
#
# Convention : Reuss Voigt Hill
#
# Bulk Modulus (GPa) = 71.05533 77.41189 74.23361
# Shear Modulus (GPa) = 31.04986 34.09011 32.56998
#
# Velocity S-wave (km/s) = 3.99347 4.18441 4.09005
# Velocity P-wave (km/s) = 7.59994 7.94392 7.77383
#
# Compressibility (1/GPa) = 0.01407354
#
# Stress axis : x y z
#
# Youngs Moduli (GPa) = 100.11966 70.04053 94.84754
#
# Poissons Ratio (x) = 0.34231 0.25626
# Poissons Ratio (y) = 0.48931 0.26354
# Poissons Ratio (z) = 0.27051 0.19461
#
# Static dielectric constant tensor:
#      x y z
#    x 3.678890 -0.038160 0.195120 
#    y -0.038160 3.809540 0.076620 
#    z 0.195120 0.076620 3.571600 
# 
# 
# High freq. dielectric constant tensor:
#      x y z
#    x 1.765370 -0.001200 0.017560 
#    y -0.001200 1.756030 0.007730 
#    z 0.017560 0.007730 1.752150 
# 
# From -- ./inp_files/271620.got.cif
#   From: 2010.06.25/outbox.cif.g09.slc.cpg/sg2_136_cif.got.tgz:271620.got - 2010.06.27 13:26:56.
