data_PCOD8037662
_publ_section_title
;
Structure prediction by ZEFSAII (Michael W. Deem and Ramdas Pophale) SiO2 
 PCOD8037662
Probable space group: P -1
;
_chemical_formula_sum "Si O2"
_cell_formula_units_Z 16
_cell_length_a 12.712884
_cell_length_b 8.804241
_cell_length_c 8.400890
_cell_angle_alpha 52.584694
_cell_angle_beta 98.078521
_cell_angle_gamma 108.484008
_cell_volume 706.603339
_symmetry_space_group_name_H-M "P -1"
_symmetry_group_IT_number 2
_symmetry_cell_setting 'triclinic'
loop_
_space_group_symop_operation_xyz
x,y,z
-x,-y,-z
loop_
_atom_site_type_symbol
_atom_site_label
_atom_site_fract_x
_atom_site_fract_y
_atom_site_fract_z
Si Si1 0.606931 0.159442 0.848731
Si Si2 0.975109 0.355030 0.436964
Si Si3 0.243288 0.702034 0.760860
Si Si4 0.643950 0.624421 0.612884
Si Si5 0.994072 0.024771 0.170269
Si Si6 0.552657 0.211944 0.450443
Si Si7 0.144501 0.368288 0.187776
Si Si8 0.740692 0.969401 0.213356
O O1 0.620454 0.386851 0.757446
O O2 0.603315 0.162305 0.657365
O O3 0.707405 0.077486 0.983311
O O4 0.500000 0.000000 0.000000
O O5 0.859115 0.360453 0.339932
O O6 0.000000 0.500000 0.500000
O O7 0.071969 0.416075 0.286501
O O8 0.957500 0.130777 0.631070
O O9 0.346777 0.659072 0.720617
O O10 0.278736 0.929476 0.687738
O O11 0.211822 0.577807 0.994236
O O12 0.535152 0.662690 0.640585
O O13 0.759699 0.725165 0.669069
O O14 0.665741 0.735867 0.371816
O O15 0.067170 0.238644 0.115482
O O16 0.868046 0.984197 0.217410
O O17 0.000000 0.000000 0.000000
O O18 0.500000 0.000000 0.500000
#
# Coordination Sequence:
#
# PCOD8037662 Si02
#       8
#     2   2   2   2   2   2   2   2
#     4  12  27  50  79 107 146 204 253 318 378 450
#     4  12  27  46  75 111 149 198 255 311 381 457
#     4  12  26  46  75 108 154 199 243 320 376 445
#     4  12  26  49  80 109 149 202 256 311 384 446
#     4  12  28  46  74 116 151 200 252 311 383 462
#     4  12  28  49  73 112 151 192 258 312 375 455
#     4  12  26  49  77 108 153 204 248 315 384 449
#     4  12  25  50  76 110 154 197 252 312 387 447
#
# _framework density 22.643537999999999
#
# number of rings (size 3 to 8) (size 9 to 14) (size 15 to 20)
#    0.000    0.000    6.250    2.625    5.250    1.500 
#    0.000    0.000    0.000    0.000    0.000    0.000 
#    0.000    0.000    0.000    0.000    0.000    0.000 
#
# Total GULP energy -198366.620098 kJ/mol
# GULP energy per Si atom -12397.913756 kJ/mol
# Density = 2.259200 g / cm^3
# Si number density = 22.643538 Si / 1000 Ang^3
#
#
#
# Elastic Constant Matrix: (Units=GPa)
#
#
# Indices 1 2 3 4 5 6 
#
# 1 162.1455 40.1345 59.3480 9.4520 -5.6693 -6.7550
# 2 40.1345 109.4871 47.9335 13.7528 -0.7206 2.9621
# 3 59.3480 47.9335 121.2838 -8.2255 -12.3687 -5.5926
# 4 9.4520 13.7528 -8.2255 48.5680 -1.6347 0.9006
# 5 -5.6693 -0.7206 -12.3687 -1.6347 45.7385 1.6447
# 6 -6.7550 2.9621 -5.5926 0.9006 1.6447 26.2404
#
#
#
# Elastic Compliance Matrix: (Units=1/GPa)
#
#
# Indices 1 2 3 4 5 6 
#
# 1 0.007892 -0.001195 -0.003453 -0.001813 -0.000093 0.001499
# 2 -0.001195 0.012224 -0.004767 -0.004034 -0.001300 -0.002483
# 3 -0.003453 -0.004767 0.012497 0.004201 0.002955 0.001983
# 4 -0.001813 -0.004034 0.004201 0.022852 0.001665 -0.000005
# 5 -0.000093 -0.001300 0.002955 0.001665 0.022716 -0.000728
# 6 0.001499 -0.002483 0.001983 -0.000005 -0.000728 0.039244
#
#
# Mechanical properties :
#
#
# Convention : Reuss Voigt Hill
#
# Bulk Modulus (GPa) = 72.55433 76.41650 74.48541
# Shear Modulus (GPa) = 35.49927 40.47606 37.98767
#
# Velocity S-wave (km/s) = 3.96377 4.23251 4.10034
# Velocity P-wave (km/s) = 7.28424 7.59647 7.44199
#
# Compressibility (1/GPa) = 0.01378278
#
# Stress axis : x y z
#
# Youngs Moduli (GPa) = 126.71568 81.80779 80.02217
#
# Poissons Ratio (x) = 0.09772 0.27631
# Poissons Ratio (y) = 0.15137 0.38148
# Poissons Ratio (z) = 0.43754 0.38999
#
# Static dielectric constant tensor:
#      x y z
#    x 4.636440 -0.249250 0.128500 
#    y -0.249250 4.617880 0.168120 
#    z 0.128500 0.168120 4.831010 
# 
# 
# High freq. dielectric constant tensor:
#      x y z
#    x 1.910510 0.012120 0.005260 
#    y 0.012120 1.890630 -0.004840 
#    z 0.005260 -0.004840 1.911050 
# 
# From -- ./inp_files/242133.got.cif
#   From: 2010.06.25/outbox.cif.g09.slc.cpg/sg2_122_cif.got.tgz:242133.got - 2010.06.27 13:26:56.
