data_PCOD8037739
_publ_section_title
;
Structure prediction by ZEFSAII (Michael W. Deem and Ramdas Pophale) SiO2 
 PCOD8037739
Probable space group: P -1
;
_chemical_formula_sum "Si O2"
_cell_formula_units_Z 16
_cell_length_a 14.424273
_cell_length_b 11.592348
_cell_length_c 9.076367
_cell_angle_alpha 130.958220
_cell_angle_beta 112.576420
_cell_angle_gamma 105.947058
_cell_volume 694.064934
_symmetry_space_group_name_H-M "P -1"
_symmetry_group_IT_number 2
_symmetry_cell_setting 'triclinic'
loop_
_space_group_symop_operation_xyz
x,y,z
-x,-y,-z
loop_
_atom_site_type_symbol
_atom_site_label
_atom_site_fract_x
_atom_site_fract_y
_atom_site_fract_z
Si Si1 0.525480 0.812763 0.144274
Si Si2 0.151313 0.085630 0.167374
Si Si3 0.483084 0.097220 0.278228
Si Si4 0.428158 0.553669 0.591170
Si Si5 0.783182 0.900887 0.445219
Si Si6 0.316672 0.544885 0.054562
Si Si7 0.868535 0.252278 0.290634
Si Si8 0.003572 0.353534 0.778613
O O1 0.668637 0.912893 0.405360
O O2 0.369535 0.639363 0.998741
O O3 0.556320 0.013898 0.263168
O O4 0.521510 0.681672 0.904626
O O5 0.257986 0.317644 0.331789
O O6 0.192226 0.114122 0.384872
O O7 0.131769 0.908899 0.921146
O O8 0.000000 0.000000 0.000000
O O9 0.570334 0.284017 0.356991
O O10 0.532069 0.244996 0.579372
O O11 0.301316 0.875112 0.949744
O O12 0.500000 0.500000 0.500000
O O13 0.930855 0.129625 0.638072
O O14 0.724660 0.681140 0.141333
O O15 0.175816 0.496918 0.964461
O O16 0.905191 0.276538 0.506930
O O17 0.000000 0.500000 0.500000
O O18 0.000000 0.500000 0.000000
#
# Coordination Sequence:
#
# PCOD8037739 Si02
#       8
#     2   2   2   2   2   2   2   2
#     4  12  26  48  75 112 154 201 260 320 394 460
#     4  12  28  49  79 113 154 203 262 323 395 470
#     4  12  27  46  81 115 155 206 262 324 387 468
#     4  12  26  49  76 113 156 200 258 322 391 465
#     4  12  26  49  78 114 158 206 265 325 393 468
#     4  12  26  48  79 113 155 206 265 325 386 467
#     4  12  27  50  78 112 161 206 254 321 398 469
#     4  12  28  50  77 115 161 211 261 322 397 472
#
# _framework density 23.052598
#
# number of rings (size 3 to 8) (size 9 to 14) (size 15 to 20)
#    0.000    0.000    2.500    6.750    5.250    1.000 
#    0.000    0.000    0.000    0.000    0.000    0.000 
#    0.000    0.000    0.000    0.000    0.000    0.000 
#
# Total GULP energy -198347.156728 kJ/mol
# GULP energy per Si atom -12396.697295 kJ/mol
# Density = 2.300013 g / cm^3
# Si number density = 23.052598 Si / 1000 Ang^3
#
#
#
# Elastic Constant Matrix: (Units=GPa)
#
#
# Indices 1 2 3 4 5 6 
#
# 1 129.6762 55.9658 44.6695 -8.1957 21.2540 -2.7830
# 2 55.9658 135.3589 55.9823 31.9484 26.9563 16.4137
# 3 44.6695 55.9823 132.4776 0.9754 4.9834 1.7135
# 4 -8.1957 31.9484 0.9754 39.5202 -2.0951 -7.1321
# 5 21.2540 26.9563 4.9834 -2.0951 36.8825 -10.5665
# 6 -2.7830 16.4137 1.7135 -7.1321 -10.5665 38.3285
#
#
#
# Elastic Compliance Matrix: (Units=1/GPa)
#
#
# Indices 1 2 3 4 5 6 
#
# 1 0.012168 -0.008557 -0.000735 0.010857 0.002008 0.007155
# 2 -0.008557 0.030040 -0.008292 -0.031877 -0.025158 -0.025982
# 3 -0.000735 -0.008292 0.010883 0.007841 0.007317 0.006487
# 4 0.010857 -0.031877 0.007841 0.060691 0.028991 0.033374
# 5 0.002008 -0.025158 0.007317 0.028991 0.053833 0.030828
# 6 0.007155 -0.025982 0.006487 0.033374 0.030828 0.052155
#
#
# Mechanical properties :
#
#
# Convention : Reuss Voigt Hill
#
# Bulk Modulus (GPa) = 55.79184 78.97200 67.38192
# Shear Modulus (GPa) = 19.16355 39.00591 29.08473
#
# Velocity S-wave (km/s) = 2.88635 4.11790 3.55585
# Velocity P-wave (km/s) = 5.94664 7.54594 6.79352
#
# Compressibility (1/GPa) = 0.01792377
#
# Stress axis : x y z
#
# Youngs Moduli (GPa) = 82.17976 33.28947 91.88431
#
# Poissons Ratio (x) = 0.28486 0.06753
# Poissons Ratio (y) = 0.70323 0.76187
# Poissons Ratio (z) = 0.06040 0.27602
#
# Static dielectric constant tensor:
#      x y z
#    x 4.509400 0.146230 0.175360 
#    y 0.146230 4.368340 0.108360 
#    z 0.175360 0.108360 4.774040 
# 
# 
# High freq. dielectric constant tensor:
#      x y z
#    x 1.921210 0.001900 -0.008970 
#    y 0.001900 1.931430 0.002040 
#    z -0.008970 0.002040 1.925530 
# 
# From -- ./inp_files/308568.got.cif
#   From: 2010.06.25/outbox.cif.g09.slc.cpg/sg2_155_cif.got.tgz:308568.got - 2010.06.27 13:26:56.
