data_PCOD8037405
_publ_section_title
;
Structure prediction by ZEFSAII (Michael W. Deem and Ramdas Pophale) SiO2 
 PCOD8037405
Probable space group: P -1
;
_chemical_formula_sum "Si O2"
_cell_formula_units_Z 16
_cell_length_a 6.818472
_cell_length_b 9.137626
_cell_length_c 25.637099
_cell_angle_alpha 41.452607
_cell_angle_beta 106.481070
_cell_angle_gamma 131.351819
_cell_volume 718.302438
_symmetry_space_group_name_H-M "P -1"
_symmetry_group_IT_number 2
_symmetry_cell_setting 'triclinic'
loop_
_space_group_symop_operation_xyz
x,y,z
-x,-y,-z
loop_
_atom_site_type_symbol
_atom_site_label
_atom_site_fract_x
_atom_site_fract_y
_atom_site_fract_z
Si Si1 0.334442 0.307185 0.933117
Si Si2 0.343425 0.636762 0.152003
Si Si3 0.331227 0.700642 0.959585
Si Si4 0.869321 0.817842 0.659277
Si Si5 0.229039 0.514568 0.357931
Si Si6 0.368164 0.439836 0.562412
Si Si7 0.303359 0.757061 0.823800
Si Si8 0.787335 0.227672 0.492323
O O1 0.436316 0.235705 0.911980
O O2 0.366263 0.584572 0.841016
O O3 0.546264 0.420864 0.968281
O O4 0.000000 0.000000 0.000000
O O5 0.372970 0.472409 0.243800
O O6 0.016187 0.395297 0.170551
O O7 0.441057 0.937882 0.104185
O O8 0.336730 0.676415 0.904920
O O9 0.000000 0.500000 0.000000
O O10 0.941949 0.700865 0.648742
O O11 0.804136 0.015637 0.582512
O O12 0.147312 0.064946 0.651091
O O13 0.393781 0.414359 0.413995
O O14 0.036441 0.450869 0.408369
O O15 0.452189 0.875730 0.264650
O O16 0.500000 0.500000 0.500000
O O17 0.220132 0.567975 0.523077
O O18 0.500000 0.000000 0.500000
#
# Coordination Sequence:
#
# PCOD8037405 Si02
#       8
#     2   2   2   2   2   2   2   2
#     4  12  26  47  76 107 144 191 247 299 368 447
#     4  12  26  47  73 108 147 185 242 310 365 430
#     4  12  24  49  77  99 147 195 235 298 378 436
#     4  12  25  47  71 103 145 189 238 300 362 420
#     4  12  26  47  71 104 146 191 241 296 361 430
#     4  12  25  44  75 100 138 193 240 290 359 423
#     4  12  26  46  73 109 143 186 245 305 362 441
#     4  12  26  47  73 105 147 195 245 295 352 435
#
# _framework density 22.274740000000001
#
# number of rings (size 3 to 8) (size 9 to 14) (size 15 to 20)
#    0.000    0.000    7.500    3.000    1.750    0.000 
#    6.750    0.000    0.000    0.000    0.000    0.000 
#    0.000    0.000    0.000    0.000    0.000    0.000 
#
# Total GULP energy -198281.966172 kJ/mol
# GULP energy per Si atom -12392.622886 kJ/mol
# Density = 2.222404 g / cm^3
# Si number density = 22.274740 Si / 1000 Ang^3
#
#
#
# Elastic Constant Matrix: (Units=GPa)
#
#
# Indices 1 2 3 4 5 6 
#
# 1 121.5543 35.5255 49.4319 -7.4427 -0.3940 -1.5246
# 2 35.5255 91.5597 24.5342 -7.9621 2.2157 -2.5475
# 3 49.4319 24.5342 112.8077 -2.3596 -0.7314 -3.3134
# 4 -7.4427 -7.9621 -2.3596 38.4295 -4.3275 4.1741
# 5 -0.3940 2.2157 -0.7314 -4.3275 24.8253 -8.6117
# 6 -1.5246 -2.5475 -3.3134 4.1741 -8.6117 36.5441
#
#
#
# Elastic Compliance Matrix: (Units=1/GPa)
#
#
# Indices 1 2 3 4 5 6 
#
# 1 0.010843 -0.003020 -0.004069 0.001297 0.000493 -0.000159
# 2 -0.003020 0.012651 -0.001388 0.001834 -0.000819 0.000227
# 3 -0.004069 -0.001388 0.010972 -0.000432 0.000628 0.000926
# 4 0.001297 0.001834 -0.000432 0.027288 0.003887 -0.002058
# 5 0.000493 -0.000819 0.000628 0.003887 0.044554 0.010076
# 6 -0.000159 0.000227 0.000926 -0.002058 0.010076 0.030067
#
#
# Mechanical properties :
#
#
# Convention : Reuss Voigt Hill
#
# Bulk Modulus (GPa) = 57.10620 60.54501 58.82560
# Shear Modulus (GPa) = 31.41355 34.38843 32.90099
#
# Velocity S-wave (km/s) = 3.75944 3.93342 3.84742
# Velocity P-wave (km/s) = 6.67363 6.91875 6.79730
#
# Compressibility (1/GPa) = 0.01751123
#
# Stress axis : x y z
#
# Youngs Moduli (GPa) = 92.22333 79.04247 91.14296
#
# Poissons Ratio (x) = 0.23875 0.37085
# Poissons Ratio (y) = 0.27856 0.12653
# Poissons Ratio (z) = 0.37525 0.10973
#
# Static dielectric constant tensor:
#      x y z
#    x 4.495590 0.139510 0.058760 
#    y 0.139510 4.205080 0.001250 
#    z 0.058760 0.001250 4.163280 
# 
# 
# High freq. dielectric constant tensor:
#      x y z
#    x 1.872040 0.000830 0.006570 
#    y 0.000830 1.899940 -0.003270 
#    z 0.006570 -0.003270 1.887880 
# 
# From -- ./inp_files/124733.got.cif
#   From: 2010.06.25/outbox.cif.g09.slc.cpg/sg2_63_cif.got.tgz:124733.got - 2010.06.27 13:26:56.
