data_PCOD8037504
_publ_section_title
;
Structure prediction by ZEFSAII (Michael W. Deem and Ramdas Pophale) SiO2 
 PCOD8037504
Probable space group: P -1
;
_chemical_formula_sum "Si O2"
_cell_formula_units_Z 14
_cell_length_a 15.530399
_cell_length_b 4.878316
_cell_length_c 20.183615
_cell_angle_alpha 66.745915
_cell_angle_beta 153.701383
_cell_angle_gamma 99.559961
_cell_volume 552.197120
_symmetry_space_group_name_H-M "P -1"
_symmetry_group_IT_number 2
_symmetry_cell_setting 'triclinic'
loop_
_space_group_symop_operation_xyz
x,y,z
-x,-y,-z
loop_
_atom_site_type_symbol
_atom_site_label
_atom_site_fract_x
_atom_site_fract_y
_atom_site_fract_z
Si Si1 0.291535 0.715002 0.290425
Si Si2 0.877007 0.974893 0.630822
Si Si3 0.465380 0.096781 0.817564
Si Si4 0.226924 0.670684 0.692067
Si Si5 0.969593 0.680503 0.863087
Si Si6 0.865463 0.656812 0.218871
Si Si7 0.416076 0.542136 0.244119
O O1 0.500000 0.500000 0.500000
O O2 0.102527 0.600314 0.180298
O O3 0.355277 0.698841 0.259903
O O4 0.185195 0.102059 0.203696
O O5 0.930590 0.924553 0.750613
O O6 0.975330 0.621540 0.695688
O O7 0.616445 0.165781 0.421322
O O8 0.986089 0.200445 0.655541
O O9 0.260146 0.410007 0.680737
O O10 0.515545 0.206750 0.771197
O O11 0.417009 0.781494 0.804498
O O12 0.675629 0.973239 0.021193
O O13 0.244231 0.490839 0.790980
O O14 0.000000 0.000000 0.500000
O O15 0.220983 0.508743 0.075322
#
# Coordination Sequence:
#
# PCOD8037504 Si02
#       7
#     2   2   2   2   2   2   2
#     4  12  27  50  77 109 149 199 246 311 377 446
#     4  12  26  46  76 108 149 196 248 310 369 439
#     4  12  26  45  73 109 144 201 244 307 371 437
#     4  12  25  46  72 107 151 192 252 300 369 443
#     4  12  27  50  74 109 151 194 251 309 375 447
#     4  12  25  48  72 108 151 196 248 306 369 443
#     4  12  28  48  79 109 153 194 257 307 377 447
#
# _framework density 25.353265
#
# number of rings (size 3 to 8) (size 9 to 14) (size 15 to 20)
#    0.000    0.000    2.857    6.857    0.000    2.286 
#    0.000    0.000    0.000    0.000    0.000    0.000 
#    0.000    0.000    0.000    0.000    0.000    0.000 
#
# Total GULP energy -173739.502939 kJ/mol
# GULP energy per Si atom -12409.964496 kJ/mol
# Density = 2.529556 g / cm^3
# Si number density = 25.353265 Si / 1000 Ang^3
#
#
#
# Elastic Constant Matrix: (Units=GPa)
#
#
# Indices 1 2 3 4 5 6 
#
# 1 145.7293 15.8293 38.1774 -3.6360 -16.2752 14.3205
# 2 15.8293 83.8831 20.9513 -4.1598 1.8925 -3.8253
# 3 38.1774 20.9513 157.2152 9.1827 -8.7152 6.1020
# 4 -3.6360 -4.1598 9.1827 40.9496 -3.3558 4.8298
# 5 -16.2752 1.8925 -8.7152 -3.3558 40.1505 -2.3004
# 6 14.3205 -3.8253 6.1020 4.8298 -2.3004 25.6412
#
#
#
# Elastic Compliance Matrix: (Units=1/GPa)
#
#
# Indices 1 2 3 4 5 6 
#
# 1 0.008235 -0.001344 -0.001584 0.001720 0.002945 -0.004483
# 2 -0.001344 0.012787 -0.001618 0.001119 -0.001249 0.002720
# 3 -0.001584 -0.001618 0.007133 -0.001762 0.000798 -0.000651
# 4 0.001720 0.001119 -0.001762 0.025853 0.002133 -0.005052
# 5 0.002945 -0.001249 0.000798 0.002133 0.026508 -0.000045
# 6 -0.004483 0.002720 -0.000651 -0.005052 -0.000045 0.043012
#
#
# Mechanical properties :
#
#
# Convention : Reuss Voigt Hill
#
# Bulk Modulus (GPa) = 52.45533 59.63817 56.04675
# Shear Modulus (GPa) = 35.97802 42.13957 39.05879
#
# Velocity S-wave (km/s) = 3.77114 4.08130 3.92928
# Velocity P-wave (km/s) = 6.30053 6.76634 6.53758
#
# Compressibility (1/GPa) = 0.01906384
#
# Stress axis : x y z
#
# Youngs Moduli (GPa) = 121.42904 78.20561 140.18588
#
# Poissons Ratio (x) = 0.10511 0.22205
# Poissons Ratio (y) = 0.16320 0.22680
# Poissons Ratio (z) = 0.19234 0.12653
#
# Static dielectric constant tensor:
#      x y z
#    x 4.774260 0.240440 0.050930 
#    y 0.240440 4.808630 0.065900 
#    z 0.050930 0.065900 4.735970 
# 
# 
# High freq. dielectric constant tensor:
#      x y z
#    x 2.024560 0.006230 0.000780 
#    y 0.006230 2.017180 -0.001590 
#    z 0.000780 -0.001590 2.026230 
# 
# From -- ./inp_files/596552.got.cif
#   From: 2010.06.25/outbox.cif.g09.slc.cpg/sg2_299_cif.got.tgz:596552.got - 2010.06.27 13:26:56.
