data_PCOD8037495
_publ_section_title
;
Structure prediction by ZEFSAII (Michael W. Deem and Ramdas Pophale) SiO2 
 PCOD8037495
Probable space group: P -1
;
_chemical_formula_sum "Si O2"
_cell_formula_units_Z 14
_cell_length_a 13.910366
_cell_length_b 22.300231
_cell_length_c 27.950743
_cell_angle_alpha 11.456501
_cell_angle_beta 21.239286
_cell_angle_gamma 21.575327
_cell_volume 607.393004
_symmetry_space_group_name_H-M "P -1"
_symmetry_group_IT_number 2
_symmetry_cell_setting 'triclinic'
loop_
_space_group_symop_operation_xyz
x,y,z
-x,-y,-z
loop_
_atom_site_type_symbol
_atom_site_label
_atom_site_fract_x
_atom_site_fract_y
_atom_site_fract_z
Si Si1 0.232609 0.818412 0.998000
Si Si2 0.229431 0.623402 0.906290
Si Si3 0.843641 0.394459 0.198656
Si Si4 0.997060 0.683719 0.670814
Si Si5 0.266954 0.434361 0.460098
Si Si6 0.575873 0.323674 0.706372
Si Si7 0.972372 0.697289 0.558279
O O1 0.342132 0.068699 0.720914
O O2 0.499260 0.592640 0.075222
O O3 0.119160 0.602917 0.182746
O O4 0.000000 0.000000 0.000000
O O5 0.233057 0.982054 0.614655
O O6 0.952972 0.545984 0.074994
O O7 0.195330 0.537514 0.045438
O O8 0.516607 0.527773 0.242778
O O9 0.892952 0.029763 0.467025
O O10 0.000000 0.500000 0.000000
O O11 0.307182 0.593520 0.615796
O O12 0.983553 0.674022 0.627848
O O13 0.232930 0.614531 0.386207
O O14 0.000000 0.500000 0.500000
O O15 0.732951 0.312140 0.592577
O O16 0.500000 0.000000 0.000000
#
# Coordination Sequence:
#
# PCOD8037495 Si02
#       7
#     2   2   2   2   2   2   2
#     4  12  28  49  74 107 157 206 251 321 395 458
#     4  12  25  51  77 107 157 197 261 321 380 460
#     4  12  25  47  79 110 146 205 258 317 387 457
#     4  12  25  45  77 110 150 195 259 313 379 458
#     4  12  28  48  77 114 153 205 264 318 390 468
#     4  12  25  48  75 110 154 199 255 324 380 452
#     4  12  27  46  76 116 149 209 251 317 392 461
#
# _framework density 23.049327000000002
#
# number of rings (size 3 to 8) (size 9 to 14) (size 15 to 20)
#    0.000    0.000    7.143    2.143    4.000    0.571 
#    2.571    0.000    0.000    0.000    0.000    0.000 
#    0.000    0.000    0.000    0.000    0.000    0.000 
#
# Total GULP energy -173550.192228 kJ/mol
# GULP energy per Si atom -12396.442302 kJ/mol
# Density = 2.299687 g / cm^3
# Si number density = 23.049327 Si / 1000 Ang^3
#
#
#
# Elastic Constant Matrix: (Units=GPa)
#
#
# Indices 1 2 3 4 5 6 
#
# 1 115.5543 37.3350 47.5333 1.7107 0.6656 9.4052
# 2 37.3350 146.7362 20.4536 7.2896 6.2512 -3.9567
# 3 47.5333 20.4536 106.5288 -0.6764 -9.7089 14.8947
# 4 1.7107 7.2896 -0.6764 44.1384 8.4870 1.4286
# 5 0.6656 6.2512 -9.7089 8.4870 42.3077 7.4408
# 6 9.4052 -3.9567 14.8947 1.4286 7.4408 41.0799
#
#
#
# Elastic Compliance Matrix: (Units=1/GPa)
#
#
# Indices 1 2 3 4 5 6 
#
# 1 0.011340 -0.002250 -0.004548 0.000033 -0.000714 -0.001036
# 2 -0.002250 0.007668 -0.000864 -0.000978 -0.001427 0.001860
# 3 -0.004548 -0.000864 0.012530 -0.000090 0.003845 -0.004279
# 4 0.000033 -0.000978 -0.000090 0.023705 -0.004622 -0.000056
# 5 -0.000714 -0.001427 0.003845 -0.004622 0.026732 -0.006049
# 6 -0.001036 0.001860 -0.004279 -0.000056 -0.006049 0.027408
#
#
# Mechanical properties :
#
#
# Convention : Reuss Voigt Hill
#
# Bulk Modulus (GPa) = 61.67990 64.38478 63.03234
# Shear Modulus (GPa) = 38.42838 43.07171 40.75005
#
# Velocity S-wave (km/s) = 4.08759 4.32751 4.20926
# Velocity P-wave (km/s) = 7.00685 7.27763 7.14352
#
# Compressibility (1/GPa) = 0.01621274
#
# Stress axis : x y z
#
# Youngs Moduli (GPa) = 88.18575 130.42000 79.80604
#
# Poissons Ratio (x) = 0.29351 0.36294
# Poissons Ratio (y) = 0.19846 0.06897
# Poissons Ratio (z) = 0.40104 0.11271
#
# Static dielectric constant tensor:
#      x y z
#    x 4.136600 0.317930 -0.044900 
#    y 0.317930 4.867970 0.337340 
#    z -0.044900 0.337340 4.483920 
# 
# 
# High freq. dielectric constant tensor:
#      x y z
#    x 1.899610 0.007710 0.000480 
#    y 0.007710 1.925380 0.004820 
#    z 0.000480 0.004820 1.928690 
# 
# From -- ./inp_files/623700.got.cif
#   From: 2010.06.25/outbox.cif.g09.slc.cpg/sg2_312_cif.got.tgz:623700.got - 2010.06.27 13:26:56.
