data_PCOD8037994
_publ_section_title
;
Structure prediction by ZEFSAII (Michael W. Deem and Ramdas Pophale) SiO2 
 PCOD8037994
Probable space group: P -1
;
_chemical_formula_sum "Si O2"
_cell_formula_units_Z 16
_cell_length_a 11.899745
_cell_length_b 13.164085
_cell_length_c 7.965503
_cell_angle_alpha 44.154461
_cell_angle_beta 89.548062
_cell_angle_gamma 109.090425
_cell_volume 763.615419
_symmetry_space_group_name_H-M "P -1"
_symmetry_group_IT_number 2
_symmetry_cell_setting 'triclinic'
loop_
_space_group_symop_operation_xyz
x,y,z
-x,-y,-z
loop_
_atom_site_type_symbol
_atom_site_label
_atom_site_fract_x
_atom_site_fract_y
_atom_site_fract_z
Si Si1 0.521315 0.942317 0.772169
Si Si2 0.377647 0.478353 0.726466
Si Si3 0.841785 0.444729 0.387447
Si Si4 0.606711 0.778162 0.206408
Si Si5 0.306997 0.039979 0.697191
Si Si6 0.140078 0.679070 0.106361
Si Si7 0.288707 0.710946 0.743024
Si Si8 0.511084 0.677396 0.854134
O O1 0.411562 0.978410 0.801108
O O2 0.616156 0.089861 0.468197
O O3 0.465350 0.758919 0.907646
O O4 0.601852 0.934667 0.937578
O O5 0.236135 0.456244 0.769651
O O6 0.467190 0.651168 0.431241
O O7 0.347103 0.316872 0.807969
O O8 0.461620 0.470042 0.900643
O O9 0.810852 0.357293 0.673920
O O10 0.800320 0.312472 0.390632
O O11 0.989661 0.572611 0.217917
O O12 0.707242 0.863611 0.255084
O O13 0.353729 0.177008 0.386832
O O14 0.174147 0.873222 0.861751
O O15 0.204816 0.634559 0.001655
O O16 0.382410 0.625997 0.799072
#
# Coordination Sequence:
#
# PCOD8037994 Si02
#       8
#     2   2   2   2   2   2   2   2
#     4  10  17  33  56  89 114 141 181 250 290 331
#     4  10  22  40  52  87 126 148 190 230 289 357
#     4  11  25  40  59  85 117 159 192 238 283 343
#     4  10  21  31  59  84 114 154 183 237 298 340
#     4  11  18  34  57  86 113 146 195 239 290 333
#     4  11  23  41  62  85 115 149 203 244 278 336
#     4  11  20  38  65  87 116 147 191 244 297 333
#     4  10  20  34  59  87 120 146 180 243 293 345
#
# _framework density 20.952957000000001
#
# number of rings (size 3 to 8) (size 9 to 14) (size 15 to 20)
#    0.000    1.500    2.500    4.500    3.500    2.000 
#    0.000    1.250    0.000    0.000    0.000    0.000 
#    0.000    0.000    0.000    0.000    0.000    0.000 
#
# Total GULP energy -198297.310973 kJ/mol
# GULP energy per Si atom -12393.581936 kJ/mol
# Density = 2.090527 g / cm^3
# Si number density = 20.952957 Si / 1000 Ang^3
#
#
#
# Elastic Constant Matrix: (Units=GPa)
#
#
# Indices 1 2 3 4 5 6 
#
# 1 86.2210 30.0282 49.3834 2.7493 2.7942 11.6474
# 2 30.0282 77.7288 18.7478 13.4130 -0.9522 19.0509
# 3 49.3834 18.7478 113.8666 8.8261 -1.0119 7.3742
# 4 2.7493 13.4130 8.8261 35.7047 -0.1911 -1.4860
# 5 2.7942 -0.9522 -1.0119 -0.1911 30.1419 -4.2866
# 6 11.6474 19.0509 7.3742 -1.4860 -4.2866 21.6669
#
#
#
# Elastic Compliance Matrix: (Units=1/GPa)
#
#
# Indices 1 2 3 4 5 6 
#
# 1 0.017615 -0.004698 -0.006820 0.001941 -0.002478 -0.003374
# 2 -0.004698 0.019792 0.000398 -0.007835 -0.001221 -0.015791
# 3 -0.006820 0.000398 0.011932 -0.002600 0.000924 -0.000741
# 4 0.001941 -0.007835 -0.002600 0.031829 0.000982 0.009108
# 5 -0.002478 -0.001221 0.000924 0.000982 0.034688 0.009021
# 6 -0.003374 -0.015791 -0.000741 0.009108 0.009021 0.064513
#
#
# Mechanical properties :
#
#
# Convention : Reuss Voigt Hill
#
# Bulk Modulus (GPa) = 36.90244 52.68170 44.79207
# Shear Modulus (GPa) = 23.62498 29.47982 26.55240
#
# Velocity S-wave (km/s) = 3.36151 3.75501 3.56369
# Velocity P-wave (km/s) = 5.71984 6.63306 6.19331
#
# Compressibility (1/GPa) = 0.02709848
#
# Stress axis : x y z
#
# Youngs Moduli (GPa) = 56.77101 50.52631 83.80785
#
# Poissons Ratio (x) = 0.23739 0.57155
# Poissons Ratio (y) = 0.26673 -0.03337
# Poissons Ratio (z) = 0.38717 -0.02012
#
# Static dielectric constant tensor:
#      x y z
#    x 3.505630 -0.044430 0.133310 
#    y -0.044430 4.253010 0.169740 
#    z 0.133310 0.169740 3.887720 
# 
# 
# High freq. dielectric constant tensor:
#      x y z
#    x 1.782780 -0.017330 0.011790 
#    y -0.017330 1.856830 0.013130 
#    z 0.011790 0.013130 1.821140 
# 
# From -- ./inp_files/260297.got.cif
#   From: 2010.06.25/outbox.cif.g09.slc.cpg/sg2_131_cif.got.tgz:260297.got - 2010.06.27 13:26:56.
