data_PCOD8037179
_publ_section_title
;
Structure prediction by ZEFSAII (Michael W. Deem and Ramdas Pophale) SiO2 
 PCOD8037179
Probable space group: P -1
;
_chemical_formula_sum "Si O2"
_cell_formula_units_Z 16
_cell_length_a 12.306239
_cell_length_b 14.918019
_cell_length_c 15.249959
_cell_angle_alpha 150.275497
_cell_angle_beta 141.113338
_cell_angle_gamma 60.417801
_cell_volume 706.373797
_symmetry_space_group_name_H-M "P -1"
_symmetry_group_IT_number 2
_symmetry_cell_setting 'triclinic'
loop_
_space_group_symop_operation_xyz
x,y,z
-x,-y,-z
loop_
_atom_site_type_symbol
_atom_site_label
_atom_site_fract_x
_atom_site_fract_y
_atom_site_fract_z
Si Si1 0.588855 0.968606 0.614615
Si Si2 0.909008 0.304171 0.348413
Si Si3 0.997979 0.015382 0.909930
Si Si4 0.917634 0.311982 0.713985
Si Si5 0.512952 0.862887 0.141196
Si Si6 0.286050 0.748087 0.649071
Si Si7 0.628704 0.533873 0.886023
Si Si8 0.575039 0.548272 0.489969
O O1 0.478571 0.712287 0.352413
O O2 0.500000 0.000000 0.500000
O O3 0.833398 0.072548 0.831196
O O4 0.566892 0.115054 0.795906
O O5 0.915189 0.325149 0.476256
O O6 0.000000 0.500000 0.500000
O O7 0.652892 0.142480 0.033637
O O8 0.054907 0.216558 0.354172
O O9 0.231313 0.194983 0.172688
O O10 0.000000 0.000000 0.000000
O O11 0.803883 0.333463 0.575795
O O12 0.751295 0.075676 0.453439
O O13 0.000000 0.500000 0.000000
O O14 0.118267 0.316979 0.809719
O O15 0.520291 0.647352 0.956396
O O16 0.350954 0.604984 0.616737
O O17 0.500000 0.000000 0.000000
O O18 0.601152 0.506784 0.739855
O O19 0.500000 0.500000 0.500000
#
# Coordination Sequence:
#
# PCOD8037179 Si02
#       8
#     2   2   2   2   2   2   2   2
#     4  12  29  47  72 107 153 201 255 312 383 465
#     4  12  24  44  76 108 147 192 256 320 374 444
#     4  12  24  45  74 104 147 201 249 313 385 446
#     4  12  26  46  76 109 159 203 246 317 395 456
#     4  12  25  47  76 106 151 199 249 320 382 446
#     4  12  25  45  73 109 144 194 259 308 369 457
#     4  12  25  48  74 108 151 200 250 316 389 450
#     4  12  25  42  74 109 145 193 259 308 373 459
#
# _framework density 22.650897000000001
#
# number of rings (size 3 to 8) (size 9 to 14) (size 15 to 20)
#    0.000    0.000    6.250    3.375    1.750    2.500 
#    0.000    0.000    0.000    0.000    0.000    0.000 
#    0.000    0.000    0.000    0.000    0.000    0.000 
#
# Total GULP energy -198216.073173 kJ/mol
# GULP energy per Si atom -12388.504573 kJ/mol
# Density = 2.259934 g / cm^3
# Si number density = 22.650897 Si / 1000 Ang^3
#
#
#
# Elastic Constant Matrix: (Units=GPa)
#
#
# Indices 1 2 3 4 5 6 
#
# 1 136.9703 41.4548 31.8378 7.7245 -12.1824 6.1019
# 2 41.4548 125.1592 33.0994 -8.3895 -13.9679 6.1199
# 3 31.8378 33.0994 91.2606 -5.5017 -0.0799 7.3917
# 4 7.7245 -8.3895 -5.5017 43.3774 -3.6645 0.6934
# 5 -12.1824 -13.9679 -0.0799 -3.6645 41.5342 -3.0738
# 6 6.1019 6.1199 7.3917 0.6934 -3.0738 48.2002
#
#
#
# Elastic Compliance Matrix: (Units=1/GPa)
#
#
# Indices 1 2 3 4 5 6 
#
# 1 0.008808 -0.002242 -0.002362 -0.002160 0.001610 -0.000335
# 2 -0.002242 0.009918 -0.002644 0.002229 0.002838 -0.000421
# 3 -0.002362 -0.002644 0.012945 0.001445 -0.001538 -0.001469
# 4 -0.002160 0.002229 0.001445 0.024247 0.002226 -0.000438
# 5 0.001610 0.002838 -0.001538 0.002226 0.025792 0.001285
# 6 -0.000335 -0.000421 -0.001469 -0.000438 0.001285 0.021156
#
#
# Mechanical properties :
#
#
# Convention : Reuss Voigt Hill
#
# Bulk Modulus (GPa) = 58.21828 62.90823 60.56325
# Shear Modulus (GPa) = 40.62140 43.08889 41.85515
#
# Velocity S-wave (km/s) = 4.23941 4.36627 4.30331
# Velocity P-wave (km/s) = 7.05136 7.29742 7.17545
#
# Compressibility (1/GPa) = 0.01717674
#
# Stress axis : x y z
#
# Youngs Moduli (GPa) = 113.53132 100.82322 77.24800
#
# Poissons Ratio (x) = 0.22601 0.18243
# Poissons Ratio (y) = 0.25450 0.20427
# Poissons Ratio (z) = 0.26811 0.26661
#
# Static dielectric constant tensor:
#      x y z
#    x 4.544980 -0.539270 -0.247470 
#    y -0.539270 4.653550 0.123430 
#    z -0.247470 0.123430 4.277480 
# 
# 
# High freq. dielectric constant tensor:
#      x y z
#    x 1.916330 -0.004880 0.003690 
#    y -0.004880 1.897770 0.004590 
#    z 0.003690 0.004590 1.890080 
# 
# From -- ./inp_files/522707.got.cif
#   From: 2010.06.25/outbox.cif.g09.slc.cpg/sg2_262_cif.got.tgz:522707.got - 2010.06.27 13:26:56.
