data_PCOD8037610
_publ_section_title
;
Structure prediction by ZEFSAII (Michael W. Deem and Ramdas Pophale) SiO2 
 PCOD8037610
Probable space group: P -1
;
_chemical_formula_sum "Si O2"
_cell_formula_units_Z 16
_cell_length_a 9.448962
_cell_length_b 13.917730
_cell_length_c 13.952510
_cell_angle_alpha 33.363078
_cell_angle_beta 112.931406
_cell_angle_gamma 90.098738
_cell_volume 714.762750
_symmetry_space_group_name_H-M "P -1"
_symmetry_group_IT_number 2
_symmetry_cell_setting 'triclinic'
loop_
_space_group_symop_operation_xyz
x,y,z
-x,-y,-z
loop_
_atom_site_type_symbol
_atom_site_label
_atom_site_fract_x
_atom_site_fract_y
_atom_site_fract_z
Si Si1 0.431795 0.532657 0.561109
Si Si2 0.245449 0.818806 0.916896
Si Si3 0.778921 0.703973 0.744126
Si Si4 0.923436 0.434854 0.617151
Si Si5 0.725111 0.810298 0.417856
Si Si6 0.301365 0.010631 0.168592
Si Si7 0.184103 0.030032 0.324273
Si Si8 0.480602 0.436703 0.151610
O O1 0.500000 0.500000 0.500000
O O2 0.235276 0.560100 0.488365
O O3 0.377086 0.757249 0.404865
O O4 0.621016 0.305210 0.850886
O O5 0.184365 0.065195 0.683541
O O6 0.377103 0.668331 0.987169
O O7 0.051131 0.837103 0.854336
O O8 0.764051 0.720908 0.611234
O O9 0.637568 0.659855 0.789203
O O10 0.741015 0.919190 0.604150
O O11 0.000000 0.500000 0.000000
O O12 0.826758 0.602891 0.543021
O O13 0.000000 0.500000 0.500000
O O14 0.105659 0.179347 0.911964
O O15 0.483807 0.993351 0.188783
O O16 0.248713 0.097263 0.192454
O O17 0.297792 0.761072 0.583607
O O18 0.500000 0.500000 0.000000
#
# Coordination Sequence:
#
# PCOD8037610 Si02
#       8
#     2   2   2   2   2   2   2   2
#     4  12  25  49  77 103 145 192 246 307 366 427
#     4  12  28  47  70 111 150 188 246 307 358 435
#     4  12  25  48  75 103 147 197 240 297 363 433
#     4  12  29  48  75 110 143 192 245 303 372 431
#     4  12  28  49  72 107 153 189 246 304 359 437
#     4  12  26  48  76 106 144 194 244 301 367 440
#     4  12  26  46  77 105 148 196 242 296 371 430
#     4  12  27  47  72 109 148 190 249 300 361 432
#
# _framework density 22.385048999999999
#
# number of rings (size 3 to 8) (size 9 to 14) (size 15 to 20)
#    0.000    0.000    5.000    3.750    7.000    3.000 
#    0.000    0.000    0.000    0.000    0.000    0.000 
#    0.000    0.000    0.000    0.000    0.000    0.000 
#
# Total GULP energy -198397.782450 kJ/mol
# GULP energy per Si atom -12399.861403 kJ/mol
# Density = 2.233410 g / cm^3
# Si number density = 22.385049 Si / 1000 Ang^3
#
#
#
# Elastic Constant Matrix: (Units=GPa)
#
#
# Indices 1 2 3 4 5 6 
#
# 1 112.5459 48.3319 32.4375 18.2179 -4.7503 -9.4554
# 2 48.3319 101.4846 18.9891 8.7661 4.9424 -7.5117
# 3 32.4375 18.9891 113.5994 17.1938 9.0161 -6.3155
# 4 18.2179 8.7661 17.1938 43.1924 0.4731 -3.3659
# 5 -4.7503 4.9424 9.0161 0.4731 40.6880 1.2921
# 6 -9.4554 -7.5117 -6.3155 -3.3659 1.2921 45.4537
#
#
#
# Elastic Compliance Matrix: (Units=1/GPa)
#
#
# Indices 1 2 3 4 5 6 
#
# 1 0.012575 -0.005315 -0.002362 -0.003228 0.002640 0.001095
# 2 -0.005315 0.012635 -0.000360 -0.000079 -0.002106 0.000986
# 3 -0.002362 -0.000360 0.010216 -0.002914 -0.002485 0.000723
# 4 -0.003228 -0.000079 -0.002914 0.025754 -0.000047 0.000819
# 5 0.002640 -0.002106 -0.002485 -0.000047 0.025720 -0.000879
# 6 0.001095 0.000986 0.000723 0.000819 -0.000879 0.022577
#
#
# Mechanical properties :
#
#
# Convention : Reuss Voigt Hill
#
# Bulk Modulus (GPa) = 51.67953 58.57186 55.12570
# Shear Modulus (GPa) = 37.87787 41.05825 39.46806
#
# Velocity S-wave (km/s) = 4.11798 4.28738 4.20354
# Velocity P-wave (km/s) = 6.76366 7.12259 6.94544
#
# Compressibility (1/GPa) = 0.01935002
#
# Stress axis : x y z
#
# Youngs Moduli (GPa) = 79.52469 79.14549 97.88545
#
# Poissons Ratio (x) = 0.42069 0.23122
# Poissons Ratio (y) = 0.42270 0.03527
# Poissons Ratio (z) = 0.18785 0.02852
#
# Static dielectric constant tensor:
#      x y z
#    x 4.113240 -0.268740 0.386230 
#    y -0.268740 3.574700 0.304890 
#    z 0.386230 0.304890 4.213730 
# 
# 
# High freq. dielectric constant tensor:
#      x y z
#    x 1.893740 -0.008380 0.010690 
#    y -0.008380 1.893060 0.000960 
#    z 0.010690 0.000960 1.894400 
# 
# From -- ./inp_files/505083.got.cif
#   From: 2010.06.25/outbox.cif.g09.slc.cpg/sg2_253_cif.got.tgz:505083.got - 2010.06.27 13:26:56.
