data_PCOD8037673
_publ_section_title
;
Structure prediction by ZEFSAII (Michael W. Deem and Ramdas Pophale) SiO2 
 PCOD8037673
Probable space group: P -1
;
_chemical_formula_sum "Si O2"
_cell_formula_units_Z 16
_cell_length_a 15.519362
_cell_length_b 7.406049
_cell_length_c 13.220538
_cell_angle_alpha 44.914579
_cell_angle_beta 126.588134
_cell_angle_gamma 91.735805
_cell_volume 622.595452
_symmetry_space_group_name_H-M "P -1"
_symmetry_group_IT_number 2
_symmetry_cell_setting 'triclinic'
loop_
_space_group_symop_operation_xyz
x,y,z
-x,-y,-z
loop_
_atom_site_type_symbol
_atom_site_label
_atom_site_fract_x
_atom_site_fract_y
_atom_site_fract_z
Si Si1 0.856824 0.660408 0.898417
Si Si2 0.140227 0.734327 0.772832
Si Si3 0.548118 0.139720 0.391257
Si Si4 0.573291 0.113686 0.060064
Si Si5 0.568524 0.924111 0.854744
Si Si6 0.597829 0.426518 0.693696
Si Si7 0.099154 0.063580 0.000511
Si Si8 0.104038 0.342654 0.538146
O O1 0.722927 0.868534 0.642506
O O2 0.888723 0.346318 0.105980
O O3 0.823035 0.927266 0.854075
O O4 0.000000 0.500000 0.000000
O O5 0.193172 0.930079 0.755850
O O6 0.259710 0.397550 0.921953
O O7 0.000000 0.000000 0.500000
O O8 0.514783 0.948709 0.366349
O O9 0.459434 0.264269 0.387921
O O10 0.483297 0.507963 0.154110
O O11 0.517953 0.162299 0.117529
O O12 0.746793 0.738090 0.317465
O O13 0.500000 0.000000 0.000000
O O14 0.583827 0.162232 0.839007
O O15 0.500000 0.500000 0.500000
O O16 0.764569 0.245265 0.853402
O O17 0.991921 0.431134 0.717930
O O18 0.000000 0.000000 0.000000
O O19 0.000000 0.500000 0.500000
#
# Coordination Sequence:
#
# PCOD8037673 Si02
#       8
#     2   2   2   2   2   2   2   2
#     4  12  30  49  76 119 156 208 256 328 398 465
#     4  12  26  51  78 107 156 205 257 325 388 466
#     4  12  27  50  79 115 155 205 267 321 396 467
#     4  12  28  47  81 114 154 209 260 330 389 466
#     4  12  27  48  81 115 153 205 266 327 392 465
#     4  12  25  51  77 110 155 206 262 321 394 465
#     4  12  29  50  76 117 159 202 261 328 395 468
#     4  12  29  51  79 113 153 210 262 315 399 470
#
# _framework density 25.698871
#
# number of rings (size 3 to 8) (size 9 to 14) (size 15 to 20)
#    0.000    0.000    6.250    1.125   10.500    2.000 
#    0.000    0.000    0.000    0.000    0.000    0.000 
#    0.000    0.000    0.000    0.000    0.000    0.000 
#
# Total GULP energy -198221.040166 kJ/mol
# GULP energy per Si atom -12388.815010 kJ/mol
# Density = 2.564038 g / cm^3
# Si number density = 25.698871 Si / 1000 Ang^3
#
#
#
# Elastic Constant Matrix: (Units=GPa)
#
#
# Indices 1 2 3 4 5 6 
#
# 1 174.7812 23.8061 65.9346 1.1713 19.9678 -14.6216
# 2 23.8061 158.9028 30.5503 -1.5460 8.8820 8.8936
# 3 65.9346 30.5503 154.6460 20.3503 28.0745 -5.2484
# 4 1.1713 -1.5460 20.3503 37.2039 4.3464 2.3414
# 5 19.9678 8.8820 28.0745 4.3464 54.9961 2.7100
# 6 -14.6216 8.8936 -5.2484 2.3414 2.7100 37.0162
#
#
#
# Elastic Compliance Matrix: (Units=1/GPa)
#
#
# Indices 1 2 3 4 5 6 
#
# 1 0.007221 -0.000604 -0.002796 0.001267 -0.001326 0.002618
# 2 -0.000604 0.006767 -0.001262 0.001148 -0.000216 -0.002100
# 3 -0.002796 -0.001262 0.009121 -0.004653 -0.003119 0.001015
# 4 0.001267 0.001148 -0.004653 0.029633 -0.000500 -0.002273
# 5 -0.001326 -0.000216 -0.003119 -0.000500 0.020448 -0.002379
# 6 0.002618 -0.002100 0.001015 -0.002273 -0.002379 0.029016
#
#
# Mechanical properties :
#
#
# Convention : Reuss Voigt Hill
#
# Bulk Modulus (GPa) = 72.55412 80.99022 76.77217
# Shear Modulus (GPa) = 43.05642 50.37916 46.71779
#
# Velocity S-wave (km/s) = 4.09763 4.43240 4.26830
# Velocity P-wave (km/s) = 7.11907 7.60121 7.36409
#
# Compressibility (1/GPa) = 0.01378281
#
# Stress axis : x y z
#
# Youngs Moduli (GPa) = 138.49204 147.77179 109.63638
#
# Poissons Ratio (x) = 0.08928 0.30660
# Poissons Ratio (y) = 0.08368 0.13840
# Poissons Ratio (z) = 0.38729 0.18654
#
# Static dielectric constant tensor:
#      x y z
#    x 4.405480 0.800960 -0.348010 
#    y 0.800960 6.133220 -0.455200 
#    z -0.348010 -0.455200 4.910780 
# 
# 
# High freq. dielectric constant tensor:
#      x y z
#    x 2.055400 0.005970 -0.014140 
#    y 0.005970 2.047930 0.004560 
#    z -0.014140 0.004560 2.047050 
# 
# From -- ./inp_files/528101.got.cif
#   From: 2010.06.25/outbox.cif.g09.slc.cpg/sg2_265_cif.got.tgz:528101.got - 2010.06.27 13:26:56.
