data_PCOD8037035
_publ_section_title
;
Structure prediction by ZEFSAII (Michael W. Deem and Ramdas Pophale) SiO2 
 PCOD8037035
Probable space group: P -1
;
_chemical_formula_sum "Si O2"
_cell_formula_units_Z 16
_cell_length_a 17.332894
_cell_length_b 9.522939
_cell_length_c 7.753099
_cell_angle_alpha 79.028930
_cell_angle_beta 117.827527
_cell_angle_gamma 142.045177
_cell_volume 657.837834
_symmetry_space_group_name_H-M "P -1"
_symmetry_group_IT_number 2
_symmetry_cell_setting 'triclinic'
loop_
_space_group_symop_operation_xyz
x,y,z
-x,-y,-z
loop_
_atom_site_type_symbol
_atom_site_label
_atom_site_fract_x
_atom_site_fract_y
_atom_site_fract_z
Si Si1 0.860233 0.228010 0.868427
Si Si2 0.463090 0.880544 0.306333
Si Si3 0.400029 0.496298 0.465064
Si Si4 0.074011 0.973381 0.186789
Si Si5 0.117457 0.263319 0.641871
Si Si6 0.776130 0.298923 0.435205
Si Si7 0.300974 0.894141 0.949264
Si Si8 0.438266 0.574203 0.877155
O O1 0.901856 0.122399 0.896757
O O2 0.790487 0.210317 0.630994
O O3 0.760890 0.085991 0.968548
O O4 0.000000 0.500000 0.000000
O O5 0.422344 0.659634 0.323879
O O6 0.500000 0.000000 0.500000
O O7 0.602532 0.097626 0.279827
O O8 0.324695 0.771626 0.093298
O O9 0.500000 0.500000 0.500000
O O10 0.451087 0.614972 0.677027
O O11 0.230207 0.227190 0.369212
O O12 0.957744 0.773751 0.257010
O O13 0.000000 0.000000 0.000000
O O14 0.143943 0.442017 0.511930
O O15 0.270507 0.381132 0.811663
O O16 0.000000 0.000000 0.500000
O O17 0.813616 0.274774 0.292875
O O18 0.453191 0.168181 0.979331
O O19 0.500000 0.500000 0.000000
#
# Coordination Sequence:
#
# PCOD8037035 Si02
#       8
#     2   2   2   2   2   2   2   2
#     4  12  30  53  79 114 160 212 266 330 396 478
#     4  12  23  47  79 111 155 199 259 325 394 461
#     4  12  27  49  78 113 156 206 263 326 396 473
#     4  12  31  50  76 114 158 211 258 320 408 476
#     4  12  28  51  77 112 159 209 259 329 401 473
#     4  12  27  49  82 117 153 202 273 325 397 474
#     4  12  27  48  82 117 152 207 269 331 394 468
#     4  12  28  46  75 117 158 205 261 331 396 470
#
# _framework density 24.322104
#
# number of rings (size 3 to 8) (size 9 to 14) (size 15 to 20)
#    0.000    0.000    5.000    2.625   12.250    2.000 
#    0.000    0.000    0.000    0.000    0.000    0.000 
#    0.000    0.000    0.000    0.000    0.000    0.000 
#
# Total GULP energy -198396.768578 kJ/mol
# GULP energy per Si atom -12399.798036 kJ/mol
# Density = 2.426675 g / cm^3
# Si number density = 24.322104 Si / 1000 Ang^3
#
#
#
# Elastic Constant Matrix: (Units=GPa)
#
#
# Indices 1 2 3 4 5 6 
#
# 1 139.2512 48.8854 27.0818 -2.5759 4.9856 -4.6120
# 2 48.8854 137.9815 20.7199 12.1145 5.2197 -10.2880
# 3 27.0818 20.7199 95.6140 8.2176 -8.5315 -4.4185
# 4 -2.5759 12.1145 8.2176 43.2714 0.2390 0.9205
# 5 4.9856 5.2197 -8.5315 0.2390 42.7429 -0.0072
# 6 -4.6120 -10.2880 -4.4185 0.9205 -0.0072 49.7207
#
#
#
# Elastic Compliance Matrix: (Units=1/GPa)
#
#
# Indices 1 2 3 4 5 6 
#
# 1 0.008662 -0.002867 -0.002077 0.001719 -0.001084 -0.000006
# 2 -0.002867 0.008761 -0.000883 -0.002483 -0.000897 0.001514
# 3 -0.002077 -0.000883 0.011694 -0.002127 0.002696 0.000704
# 4 0.001719 -0.002483 -0.002127 0.024335 -0.000458 -0.000994
# 5 -0.001084 -0.000897 0.002696 -0.000458 0.024173 -0.000035
# 6 -0.000006 0.001514 0.000704 -0.000994 -0.000035 0.020506
#
#
# Mechanical properties :
#
#
# Convention : Reuss Voigt Hill
#
# Bulk Modulus (GPa) = 57.26566 62.91342 60.08954
# Shear Modulus (GPa) = 43.25024 45.55764 44.40394
#
# Velocity S-wave (km/s) = 4.22148 4.33262 4.27741
# Velocity P-wave (km/s) = 6.88164 7.13805 7.01102
#
# Compressibility (1/GPa) = 0.01746247
#
# Stress axis : x y z
#
# Youngs Moduli (GPa) = 115.44357 114.14620 85.51205
#
# Poissons Ratio (x) = 0.32731 0.17760
# Poissons Ratio (y) = 0.33103 0.07551
# Poissons Ratio (z) = 0.23977 0.10079
#
# Static dielectric constant tensor:
#      x y z
#    x 4.873200 0.415150 -0.140520 
#    y 0.415150 4.465070 -0.174010 
#    z -0.140520 -0.174010 4.405360 
# 
# 
# High freq. dielectric constant tensor:
#      x y z
#    x 1.981900 0.000710 -0.005090 
#    y 0.000710 1.979230 0.003920 
#    z -0.005090 0.003920 1.964950 
# 
# From -- ./inp_files/328913.got.cif
#   From: 2010.06.25/outbox.cif.g09.slc.cpg/sg2_165_cif.got.tgz:328913.got - 2010.06.27 13:26:56.
