data_PCOD8037420
_publ_section_title
;
Structure prediction by ZEFSAII (Michael W. Deem and Ramdas Pophale) SiO2 
 PCOD8037420
Probable space group: P -1
;
_chemical_formula_sum "Si O2"
_cell_formula_units_Z 14
_cell_length_a 11.509664
_cell_length_b 9.006227
_cell_length_c 11.573196
_cell_angle_alpha 50.617760
_cell_angle_beta 38.873965
_cell_angle_gamma 62.122153
_cell_volume 581.092687
_symmetry_space_group_name_H-M "P -1"
_symmetry_group_IT_number 2
_symmetry_cell_setting 'triclinic'
loop_
_space_group_symop_operation_xyz
x,y,z
-x,-y,-z
loop_
_atom_site_type_symbol
_atom_site_label
_atom_site_fract_x
_atom_site_fract_y
_atom_site_fract_z
Si Si1 0.419588 0.195549 0.431954
Si Si2 0.115867 0.272063 0.333511
Si Si3 0.465787 0.055515 0.129134
Si Si4 0.705376 0.319932 0.956497
Si Si5 0.524011 0.289815 0.542262
Si Si6 0.994249 0.897576 0.277007
Si Si7 0.049025 0.700806 0.803831
O O1 0.401764 0.302193 0.514752
O O2 0.221750 0.163916 0.541778
O O3 0.500000 0.000000 0.500000
O O4 0.574084 0.298114 0.179741
O O5 0.250972 0.096530 0.295189
O O6 0.226647 0.458427 0.209701
O O7 0.963064 0.199193 0.583122
O O8 0.013513 0.317526 0.271685
O O9 0.540823 0.884171 0.235612
O O10 0.586445 0.252673 0.968638
O O11 0.500000 0.000000 0.000000
O O12 0.884848 0.186816 0.879220
O O13 0.500000 0.500000 0.500000
O O14 0.735141 0.252484 0.372159
O O15 0.042490 0.126655 0.139816
O O16 0.000000 0.500000 0.000000
#
# Coordination Sequence:
#
# PCOD8037420 Si02
#       7
#     2   2   2   2   2   2   2
#     4  12  24  52  74 108 156 193 253 316 372 447
#     4  12  26  50  75 110 156 194 255 319 369 456
#     4  12  27  49  77 110 151 204 248 312 381 445
#     4  12  27  46  79 112 146 202 252 306 385 440
#     4  12  29  49  76 109 154 200 246 314 380 445
#     4  12  27  49  77 111 151 198 255 313 379 444
#     4  12  27  47  73 111 151 199 252 309 378 452
#
# _framework density 24.092541000000001
#
# number of rings (size 3 to 8) (size 9 to 14) (size 15 to 20)
#    0.000    0.000    5.714    3.000   10.000    0.571 
#    0.000    0.000    0.000    0.000    0.000    0.000 
#    0.000    0.000    0.000    0.000    0.000    0.000 
#
# Total GULP energy -173528.586769 kJ/mol
# GULP energy per Si atom -12394.899055 kJ/mol
# Density = 2.403771 g / cm^3
# Si number density = 24.092541 Si / 1000 Ang^3
#
#
#
# Elastic Constant Matrix: (Units=GPa)
#
#
# Indices 1 2 3 4 5 6 
#
# 1 115.7563 29.8553 35.5338 -3.8282 25.1942 17.1754
# 2 29.8553 136.5246 37.1351 -13.1866 17.0898 17.0495
# 3 35.5338 37.1351 91.2181 -7.0932 11.7511 3.3014
# 4 -3.8282 -13.1866 -7.0932 44.1500 -0.4390 -3.6023
# 5 25.1942 17.0898 11.7511 -0.4390 35.7023 7.1273
# 6 17.1754 17.0495 3.3014 -3.6023 7.1273 46.6621
#
#
#
# Elastic Compliance Matrix: (Units=1/GPa)
#
#
# Indices 1 2 3 4 5 6 
#
# 1 0.011601 -0.000459 -0.003419 0.000021 -0.006262 -0.002903
# 2 -0.000459 0.009027 -0.002931 0.001966 -0.002533 -0.002383
# 3 -0.003419 -0.002931 0.013645 0.001141 -0.000981 0.001602
# 4 0.000021 0.001966 0.001141 0.023508 -0.001282 0.001204
# 5 -0.006262 -0.002533 -0.000981 -0.001282 0.034356 -0.002047
# 6 -0.002903 -0.002383 0.001602 0.001204 -0.002047 0.023662
#
#
# Mechanical properties :
#
#
# Convention : Reuss Voigt Hill
#
# Bulk Modulus (GPa) = 48.41286 60.94971 54.68128
# Shear Modulus (GPa) = 36.68353 41.36789 39.02571
#
# Velocity S-wave (km/s) = 3.90630 4.14822 4.02907
# Velocity P-wave (km/s) = 6.36268 6.94958 6.66260
#
# Compressibility (1/GPa) = 0.02065567
#
# Stress axis : x y z
#
# Youngs Moduli (GPa) = 86.20020 110.78258 73.28737
#
# Poissons Ratio (x) = 0.05080 0.25058
# Poissons Ratio (y) = 0.03953 0.21479
# Poissons Ratio (z) = 0.29473 0.32468
#
# Static dielectric constant tensor:
#      x y z
#    x 2.169710 1.034440 -0.494410 
#    y 1.034440 4.007290 0.217710 
#    z -0.494410 0.217710 4.383070 
# 
# 
# High freq. dielectric constant tensor:
#      x y z
#    x 1.963590 0.012070 -0.004270 
#    y 0.012070 1.971490 -0.004380 
#    z -0.004270 -0.004380 1.958260 
# 
# From -- ./inp_files/418800.got.cif
#   From: 2010.06.25/outbox.cif.g09.slc.cpg/sg2_210_cif.got.tgz:418800.got - 2010.06.27 13:26:56.
