data_PCOD8037868
_publ_section_title
;
Structure prediction by ZEFSAII (Michael W. Deem and Ramdas Pophale) SiO2 
 PCOD8037868
Probable space group: P -1
;
_chemical_formula_sum "Si O2"
_cell_formula_units_Z 16
_cell_length_a 15.029234
_cell_length_b 10.944593
_cell_length_c 14.919699
_cell_angle_alpha 109.608315
_cell_angle_beta 27.086434
_cell_angle_gamma 126.654205
_cell_volume 756.630216
_symmetry_space_group_name_H-M "P -1"
_symmetry_group_IT_number 2
_symmetry_cell_setting 'triclinic'
loop_
_space_group_symop_operation_xyz
x,y,z
-x,-y,-z
loop_
_atom_site_type_symbol
_atom_site_label
_atom_site_fract_x
_atom_site_fract_y
_atom_site_fract_z
Si Si1 0.716511 0.035874 0.983692
Si Si2 0.106527 0.145749 0.514414
Si Si3 0.357948 0.629126 0.618307
Si Si4 0.436654 0.505069 0.919044
Si Si5 0.682050 0.382790 0.774919
Si Si6 0.963856 0.628044 0.898410
Si Si7 0.542228 0.229639 0.250680
Si Si8 0.096710 0.263417 0.849587
O O1 0.865038 0.110846 0.772243
O O2 0.909648 0.090654 0.909488
O O3 0.598571 0.122918 0.124541
O O4 0.468320 0.822545 0.150131
O O5 0.319866 0.341144 0.326617
O O6 0.233374 0.121302 0.476038
O O7 0.000000 0.000000 0.500000
O O8 0.422272 0.762081 0.672251
O O9 0.145768 0.421628 0.791147
O O10 0.628202 0.683424 0.357377
O O11 0.224570 0.650939 0.661428
O O12 0.538893 0.415715 0.842956
O O13 0.370203 0.583140 0.071599
O O14 0.146276 0.356202 0.090013
O O15 0.000000 0.500000 0.500000
O O16 0.717819 0.429256 0.106629
O O17 0.040096 0.771559 0.940019
#
# Coordination Sequence:
#
# PCOD8037868 Si02
#       8
#     2   2   2   2   2   2   2   2
#     4  12  22  39  67  98 126 164 216 261 316 376
#     4  11  23  39  63  99 128 156 210 279 317 362
#     4  10  17  32  55  92 136 167 191 246 329 378
#     4  10  25  46  63  91 129 170 211 262 323 378
#     4  11  27  48  67  83 125 182 216 255 321 387
#     4  10  19  36  60  93 132 160 203 259 317 374
#     4  10  20  32  57  94 132 163 199 253 317 379
#     4  10  19  32  60  97 131 168 199 251 323 383
#
# _framework density 21.146393
#
# number of rings (size 3 to 8) (size 9 to 14) (size 15 to 20)
#    0.000    1.500    5.000    0.750    3.500    3.500 
#    0.000    0.625    0.000    1.500    0.000    0.000 
#    0.000    0.000    0.000    0.000    0.000    0.000 
#
# Total GULP energy -198277.634227 kJ/mol
# GULP energy per Si atom -12392.352139 kJ/mol
# Density = 2.109826 g / cm^3
# Si number density = 21.146393 Si / 1000 Ang^3
#
#
#
# Elastic Constant Matrix: (Units=GPa)
#
#
# Indices 1 2 3 4 5 6 
#
# 1 106.4153 22.1928 36.9606 7.1103 -17.3030 5.3441
# 2 22.1928 85.1743 41.5067 19.8650 11.3479 15.9026
# 3 36.9606 41.5067 90.2230 10.1940 -5.5131 -4.2807
# 4 7.1103 19.8650 10.1940 30.6626 -2.3513 -7.7180
# 5 -17.3030 11.3479 -5.5131 -2.3513 25.7331 4.5995
# 6 5.3441 15.9026 -4.2807 -7.7180 4.5995 23.1647
#
#
#
# Elastic Compliance Matrix: (Units=1/GPa)
#
#
# Indices 1 2 3 4 5 6 
#
# 1 0.012987 -0.001184 -0.004304 -0.001440 0.009143 -0.005274
# 2 -0.001184 0.031814 -0.013697 -0.024279 -0.014749 -0.029259
# 3 -0.004304 -0.013697 0.019328 0.007752 0.005222 0.015514
# 4 -0.001440 -0.024279 0.007752 0.055681 0.010240 0.034950
# 5 0.009143 -0.014749 0.005222 0.010240 0.053241 0.001821
# 6 -0.005274 -0.029259 0.015514 0.034950 0.001821 0.078622
#
#
# Mechanical properties :
#
#
# Convention : Reuss Voigt Hill
#
# Bulk Modulus (GPa) = 38.82359 53.68143 46.25251
# Shear Modulus (GPa) = 16.74309 27.98893 22.36601
#
# Velocity S-wave (km/s) = 2.81689 3.64205 3.25572
# Velocity P-wave (km/s) = 5.38323 6.56710 6.00441
#
# Compressibility (1/GPa) = 0.02575754
#
# Stress axis : x y z
#
# Youngs Moduli (GPa) = 77.00120 31.43239 51.73939
#
# Poissons Ratio (x) = 0.03722 0.22270
# Poissons Ratio (y) = 0.09117 0.70869
# Poissons Ratio (z) = 0.33144 0.43054
#
# Static dielectric constant tensor:
#      x y z
#    x 4.103570 0.348610 -0.336520 
#    y 0.348610 3.806950 0.115860 
#    z -0.336520 0.115860 3.868900 
# 
# 
# High freq. dielectric constant tensor:
#      x y z
#    x 1.824040 0.023260 -0.032920 
#    y 0.023260 1.822940 0.024450 
#    z -0.032920 0.024450 1.819090 
# 
# From -- ./inp_files/531877.got.cif
#   From: 2010.06.25/outbox.cif.g09.slc.cpg/sg2_266_cif.got.tgz:531877.got - 2010.06.27 13:26:56.
