data_PCOD8037290
_publ_section_title
;
Structure prediction by ZEFSAII (Michael W. Deem and Ramdas Pophale) SiO2 
 PCOD8037290
Probable space group: P -1
;
_chemical_formula_sum "Si O2"
_cell_formula_units_Z 14
_cell_length_a 9.121305
_cell_length_b 17.395189
_cell_length_c 8.497673
_cell_angle_alpha 56.370535
_cell_angle_beta 32.126271
_cell_angle_gamma 58.620765
_cell_volume 592.926109
_symmetry_space_group_name_H-M "P -1"
_symmetry_group_IT_number 2
_symmetry_cell_setting 'triclinic'
loop_
_space_group_symop_operation_xyz
x,y,z
-x,-y,-z
loop_
_atom_site_type_symbol
_atom_site_label
_atom_site_fract_x
_atom_site_fract_y
_atom_site_fract_z
Si Si1 0.897742 0.753107 0.849727
Si Si2 0.531151 0.260730 0.495641
Si Si3 0.468751 0.091678 0.545138
Si Si4 0.080899 0.890068 0.130619
Si Si5 0.459744 0.607741 0.950126
Si Si6 0.486731 0.061618 0.095999
Si Si7 0.019212 0.312850 0.482679
O O1 0.719212 0.844999 0.838957
O O2 0.003186 0.682867 0.692133
O O3 0.173554 0.780117 0.653165
O O4 0.696879 0.702156 0.207034
O O5 0.392401 0.174833 0.642835
O O6 0.592205 0.340187 0.228519
O O7 0.186551 0.049522 0.780723
O O8 0.627652 0.000549 0.589982
O O9 0.654300 0.130977 0.199454
O O10 0.948543 0.793815 0.373364
O O11 0.199158 0.918056 0.162147
O O12 0.717185 0.640490 0.764012
O O13 0.500000 0.500000 0.000000
O O14 0.223649 0.627252 0.272260
O O15 0.500000 0.000000 0.000000
#
# Coordination Sequence:
#
# PCOD8037290 Si02
#       7
#     2   2   2   2   2   2   2
#     4  12  27  46  71 104 152 200 234 288 370 430
#     4  12  24  48  72 105 146 191 236 300 370 432
#     4  12  25  45  69  99 147 191 252 303 341 413
#     4  12  24  47  68 100 142 199 243 297 357 416
#     4  12  26  49  82 113 136 179 245 305 361 446
#     4  12  27  44  67 108 148 196 255 302 340 413
#     4  12  24  48  75 106 147 191 236 293 373 438
#
# _framework density 23.611709999999999
#
# number of rings (size 3 to 8) (size 9 to 14) (size 15 to 20)
#    0.000    0.000    4.286    6.429    0.000    2.857 
#    0.000    4.286    0.000    0.000    0.000    0.000 
#    0.000    0.000    0.000    0.000    0.000    0.000 
#
# Total GULP energy -173582.364104 kJ/mol
# GULP energy per Si atom -12398.740293 kJ/mol
# Density = 2.355797 g / cm^3
# Si number density = 23.611710 Si / 1000 Ang^3
#
#
#
# Elastic Constant Matrix: (Units=GPa)
#
#
# Indices 1 2 3 4 5 6 
#
# 1 182.7127 73.9391 87.5968 1.3944 -14.0175 17.1129
# 2 73.9391 110.7999 41.5572 -2.6553 14.2622 20.0570
# 3 87.5968 41.5572 174.3023 16.1812 -2.8119 19.4911
# 4 1.3944 -2.6553 16.1812 36.7893 12.6799 1.1534
# 5 -14.0175 14.2622 -2.8119 12.6799 45.1629 -0.6036
# 6 17.1129 20.0570 19.4911 1.1534 -0.6036 30.8123
#
#
#
# Elastic Compliance Matrix: (Units=1/GPa)
#
#
# Indices 1 2 3 4 5 6 
#
# 1 0.009950 -0.006192 -0.003428 -0.001119 0.005155 0.000816
# 2 -0.006192 0.015749 -0.000440 0.004648 -0.008319 -0.006871
# 3 -0.003428 -0.000440 0.008232 -0.003628 0.000568 -0.002870
# 4 -0.001119 0.004648 -0.003628 0.033120 -0.011361 -0.001571
# 5 0.005155 -0.008319 0.000568 -0.011361 0.029637 0.003199
# 6 0.000816 -0.006871 -0.002870 -0.001571 0.003199 0.038411
#
#
# Mechanical properties :
#
#
# Convention : Reuss Voigt Hill
#
# Bulk Modulus (GPa) = 72.41641 97.11124 84.76382
# Shear Modulus (GPa) = 31.28452 40.20100 35.74276
#
# Velocity S-wave (km/s) = 3.64395 4.13072 3.89494
# Velocity P-wave (km/s) = 6.95994 7.99801 7.49696
#
# Compressibility (1/GPa) = 0.01380903
#
# Stress axis : x y z
#
# Youngs Moduli (GPa) = 100.50083 63.49793 121.47731
#
# Poissons Ratio (x) = 0.39319 0.41648
# Poissons Ratio (y) = 0.62232 0.05348
# Poissons Ratio (z) = 0.34456 0.02795
#
# Static dielectric constant tensor:
#      x y z
#    x 4.848660 0.082240 0.193270 
#    y 0.082240 4.073270 -0.040220 
#    z 0.193270 -0.040220 4.615130 
# 
# 
# High freq. dielectric constant tensor:
#      x y z
#    x 1.959780 0.011360 0.002150 
#    y 0.011360 1.907370 0.004140 
#    z 0.002150 0.004140 1.958570 
# 
# From -- ./inp_files/216898.got.cif
#   From: 2010.06.25/outbox.cif.g09.slc.cpg/sg2_109_cif.got.tgz:216898.got - 2010.06.27 13:26:56.
