data_PCOD8037465
_publ_section_title
;
Structure prediction by ZEFSAII (Michael W. Deem and Ramdas Pophale) SiO2 
 PCOD8037465
Probable space group: P -1
;
_chemical_formula_sum "Si O2"
_cell_formula_units_Z 16
_cell_length_a 14.688797
_cell_length_b 9.080469
_cell_length_c 14.930735
_cell_angle_alpha 108.846312
_cell_angle_beta 30.229768
_cell_angle_gamma 88.162582
_cell_volume 718.606518
_symmetry_space_group_name_H-M "P -1"
_symmetry_group_IT_number 2
_symmetry_cell_setting 'triclinic'
loop_
_space_group_symop_operation_xyz
x,y,z
-x,-y,-z
loop_
_atom_site_type_symbol
_atom_site_label
_atom_site_fract_x
_atom_site_fract_y
_atom_site_fract_z
Si Si1 0.113635 0.782269 0.827395
Si Si2 0.282029 0.996283 0.491220
Si Si3 0.461636 0.757949 0.864199
Si Si4 0.229522 0.144012 0.020805
Si Si5 0.086339 0.827328 0.321400
Si Si6 0.979680 0.554985 0.425595
Si Si7 0.522512 0.402451 0.659362
Si Si8 0.047947 0.637832 0.027387
O O1 0.367049 0.680831 0.548943
O O2 0.162420 0.660566 0.851255
O O3 0.943820 0.794227 0.901964
O O4 0.000000 0.000000 0.000000
O O5 0.093476 0.093091 0.591726
O O6 0.342988 0.784511 0.422173
O O7 0.180702 0.147309 0.693286
O O8 0.513989 0.957047 0.255485
O O9 0.695476 0.728913 0.681911
O O10 0.557709 0.562264 0.684913
O O11 0.339150 0.749688 0.054402
O O12 0.266372 0.972325 0.019633
O O13 0.113991 0.348802 0.214242
O O14 0.110456 0.645808 0.312888
O O15 0.000000 0.000000 0.500000
O O16 0.000000 0.500000 0.500000
O O17 0.243741 0.513786 0.915571
O O18 0.000000 0.500000 0.000000
#
# Coordination Sequence:
#
# PCOD8037465 Si02
#       8
#     2   2   2   2   2   2   2   2
#     4  12  25  45  70 105 143 194 246 298 364 426
#     4  12  27  48  70 108 149 189 247 303 364 435
#     4  12  26  49  80 107 151 195 241 303 366 436
#     4  12  27  47  76 106 152 190 243 308 362 433
#     4  12  28  50  79 110 149 191 245 302 368 444
#     4  12  29  51  77 114 146 192 244 300 374 439
#     4  12  25  47  72 102 148 196 242 303 365 429
#     4  12  28  44  71 105 145 192 249 299 364 435
#
# _framework density 22.265315000000001
#
# number of rings (size 3 to 8) (size 9 to 14) (size 15 to 20)
#    0.000    0.000    5.000    4.125    8.750    2.500 
#    0.000    0.000    0.000    0.000    0.000    0.000 
#    0.000    0.000    0.000    0.000    0.000    0.000 
#
# Total GULP energy -198422.961984 kJ/mol
# GULP energy per Si atom -12401.435124 kJ/mol
# Density = 2.221464 g / cm^3
# Si number density = 22.265315 Si / 1000 Ang^3
#
#
#
# Elastic Constant Matrix: (Units=GPa)
#
#
# Indices 1 2 3 4 5 6 
#
# 1 86.0405 22.6941 25.3805 11.9895 16.4113 3.0453
# 2 22.6941 142.6847 41.0818 10.3040 21.1897 0.9242
# 3 25.3805 41.0818 128.6636 -5.6958 14.3811 3.4531
# 4 11.9895 10.3040 -5.6958 44.3948 3.6755 5.6547
# 5 16.4113 21.1897 14.3811 3.6755 41.1813 3.5893
# 6 3.0453 0.9242 3.4531 5.6547 3.5893 42.8054
#
#
#
# Elastic Compliance Matrix: (Units=1/GPa)
#
#
# Indices 1 2 3 4 5 6 
#
# 1 0.013705 -0.000701 -0.002184 -0.003487 -0.004028 0.000015
# 2 -0.000701 0.008371 -0.002284 -0.001860 -0.003113 0.000560
# 3 -0.002184 -0.002284 0.009212 0.002509 -0.001329 -0.000758
# 4 -0.003487 -0.001860 0.002509 0.024657 -0.000457 -0.003133
# 5 -0.004028 -0.003113 -0.001329 -0.000457 0.028155 -0.001839
# 6 0.000015 0.000560 -0.000758 -0.003133 -0.001839 0.023978
#
#
# Mechanical properties :
#
#
# Convention : Reuss Voigt Hill
#
# Bulk Modulus (GPa) = 47.73256 59.52240 53.62748
# Shear Modulus (GPa) = 39.87238 43.55845 41.71541
#
# Velocity S-wave (km/s) = 4.23636 4.42785 4.33316
# Velocity P-wave (km/s) = 6.73896 7.27547 7.01235
#
# Compressibility (1/GPa) = 0.02095006
#
# Stress axis : x y z
#
# Youngs Moduli (GPa) = 72.96373 119.46712 108.55084
#
# Poissons Ratio (x) = 0.08374 0.23710
# Poissons Ratio (y) = 0.05115 0.24791
# Poissons Ratio (z) = 0.15937 0.27284
#
# Static dielectric constant tensor:
#      x y z
#    x 4.673280 -0.127610 -0.131590 
#    y -0.127610 4.102160 0.053960 
#    z -0.131590 0.053960 4.390840 
# 
# 
# High freq. dielectric constant tensor:
#      x y z
#    x 1.878520 -0.000510 0.006960 
#    y -0.000510 1.893970 -0.000360 
#    z 0.006960 -0.000360 1.896830 
# 
# From -- ./inp_files/47788.got.cif
#   From: 2010.06.25/outbox.cif.g09.slc.cpg/sg2_24_cif.got.tgz:47788.got - 2010.06.27 13:26:56.
