data_PCOD8037953
_publ_section_title
;
Structure prediction by ZEFSAII (Michael W. Deem and Ramdas Pophale) SiO2 
 PCOD8037953
Probable space group: P -1
;
_chemical_formula_sum "Si O2"
_cell_formula_units_Z 16
_cell_length_a 12.734476
_cell_length_b 16.280200
_cell_length_c 15.950249
_cell_angle_alpha 37.995013
_cell_angle_beta 25.466570
_cell_angle_gamma 45.431689
_cell_volume 874.703199
_symmetry_space_group_name_H-M "P -1"
_symmetry_group_IT_number 2
_symmetry_cell_setting 'triclinic'
loop_
_space_group_symop_operation_xyz
x,y,z
-x,-y,-z
loop_
_atom_site_type_symbol
_atom_site_label
_atom_site_fract_x
_atom_site_fract_y
_atom_site_fract_z
Si Si1 0.518936 0.028044 0.714858
Si Si2 0.263780 0.074270 0.522769
Si Si3 0.092267 0.759056 0.453082
Si Si4 0.362079 0.427962 0.046053
Si Si5 0.990001 0.085244 0.022308
Si Si6 0.438445 0.244853 0.990131
Si Si7 0.366142 0.695614 0.905384
Si Si8 0.931231 0.149290 0.418675
O O1 0.708607 0.144943 0.516770
O O2 0.562208 0.000146 0.607965
O O3 0.258241 0.092915 0.863074
O O4 0.529196 0.886755 0.869997
O O5 0.408956 0.200508 0.357187
O O6 0.022875 0.116078 0.612108
O O7 0.197653 0.978454 0.723978
O O8 0.349235 0.728397 0.250846
O O9 0.152345 0.793213 0.478332
O O10 0.901299 0.633828 0.684856
O O11 0.582571 0.384035 0.982183
O O12 0.431870 0.377083 0.945033
O O13 0.347434 0.588705 0.928637
O O14 0.891163 0.231782 0.956679
O O15 0.000000 0.000000 0.000000
O O16 0.174957 0.230271 0.144632
O O17 0.000000 0.000000 0.500000
#
# Coordination Sequence:
#
# PCOD8037953 Si02
#       8
#     2   2   2   2   2   2   2   2
#     4  11  20  34  52  81 113 140 173 217 266 321
#     4  11  20  35  52  79 111 141 173 214 267 314
#     4  10  18  32  57  82 107 139 173 222 268 311
#     4   9  19  38  52  75 109 136 183 220 257 307
#     4  12  23  35  54  77 111 144 177 213 263 319
#     4  10  17  33  53  79 107 137 175 218 267 310
#     4  10  20  37  53  74 107 146 175 220 259 307
#     4   9  18  31  51  80 115 136 165 223 272 315
#
# _framework density 18.291920000000001
#
# number of rings (size 3 to 8) (size 9 to 14) (size 15 to 20)
#    0.000    1.750    7.500    0.375    0.000    3.000 
#    2.250    1.875    0.000    3.000    0.000    5.250 
#    0.000    0.000    0.000    0.000    0.000    0.000 
#
# Total GULP energy -198330.272986 kJ/mol
# GULP energy per Si atom -12395.642062 kJ/mol
# Density = 1.825029 g / cm^3
# Si number density = 18.291920 Si / 1000 Ang^3
#
#
#
# Elastic Constant Matrix: (Units=GPa)
#
#
# Indices 1 2 3 4 5 6 
#
# 1 58.2550 44.2334 40.9641 -3.5025 -15.1955 8.3525
# 2 44.2334 127.8449 56.2352 6.8322 -16.2210 11.0093
# 3 40.9641 56.2352 93.2609 22.7535 -5.9486 13.7467
# 4 -3.5025 6.8322 22.7535 27.6385 4.3001 -1.2683
# 5 -15.1955 -16.2210 -5.9486 4.3001 29.7630 1.8391
# 6 8.3525 11.0093 13.7467 -1.2683 1.8391 26.4225
#
#
#
# Elastic Compliance Matrix: (Units=1/GPa)
#
#
# Indices 1 2 3 4 5 6 
#
# 1 0.036404 -0.004885 -0.016701 0.017982 0.010026 -0.000618
# 2 -0.004885 0.012119 -0.004673 -0.000344 0.003309 -0.001321
# 3 -0.016701 -0.004673 0.027877 -0.024058 -0.001512 -0.008326
# 4 0.017982 -0.000344 -0.024058 0.059605 -0.005056 0.010188
# 5 0.010026 0.003309 -0.001512 -0.005056 0.041374 -0.006884
# 6 -0.000618 -0.001321 -0.008326 0.010188 -0.006884 0.043893
#
#
# Mechanical properties :
#
#
# Convention : Reuss Voigt Hill
#
# Bulk Modulus (GPa) = 41.87166 62.46960 52.17063
# Shear Modulus (GPa) = 17.74619 25.95999 21.85309
#
# Velocity S-wave (km/s) = 3.11813 3.77132 3.46017
# Velocity P-wave (km/s) = 5.99200 7.29311 6.67434
#
# Compressibility (1/GPa) = 0.02388250
#
# Stress axis : x y z
#
# Youngs Moduli (GPa) = 27.46939 82.51265 35.87244
#
# Poissons Ratio (x) = 0.40305 0.59912
# Poissons Ratio (y) = 0.13418 0.16762
# Poissons Ratio (z) = 0.45878 0.38555
#
# Static dielectric constant tensor:
#      x y z
#    x 3.628450 0.106600 -0.498150 
#    y 0.106600 3.352090 0.089490 
#    z -0.498150 0.089490 3.487040 
# 
# 
# High freq. dielectric constant tensor:
#      x y z
#    x 1.699880 0.014130 -0.023770 
#    y 0.014130 1.696130 0.017810 
#    z -0.023770 0.017810 1.695720 
# 
# From -- ./inp_files/471626.got.cif
#   From: 2010.06.25/outbox.cif.g09.slc.cpg/sg2_236_cif.got.tgz:471626.got - 2010.06.27 13:26:56.
