data_PCOD8037139
_publ_section_title
;
Structure prediction by ZEFSAII (Michael W. Deem and Ramdas Pophale) SiO2 
 PCOD8037139
Probable space group: P -1
;
_chemical_formula_sum "Si O2"
_cell_formula_units_Z 16
_cell_length_a 15.796270
_cell_length_b 8.814285
_cell_length_c 8.802890
_cell_angle_alpha 131.953934
_cell_angle_beta 104.246794
_cell_angle_gamma 104.106134
_cell_volume 728.107304
_symmetry_space_group_name_H-M "P -1"
_symmetry_group_IT_number 2
_symmetry_cell_setting 'triclinic'
loop_
_space_group_symop_operation_xyz
x,y,z
-x,-y,-z
loop_
_atom_site_type_symbol
_atom_site_label
_atom_site_fract_x
_atom_site_fract_y
_atom_site_fract_z
Si Si1 0.994522 0.849358 0.044683
Si Si2 0.636179 0.651767 0.402673
Si Si3 0.910988 0.353701 0.237637
Si Si4 0.291181 0.148898 0.100906
Si Si5 0.837273 0.708576 0.386512
Si Si6 0.553797 0.895582 0.046416
Si Si7 0.606056 0.046321 0.506773
Si Si8 0.217657 0.403862 0.045036
O O1 0.062844 0.037640 0.335167
O O2 0.036844 0.678115 0.910487
O O3 0.875297 0.659299 0.922223
O O4 0.000000 0.000000 0.000000
O O5 0.648313 0.713483 0.626695
O O6 0.731693 0.634811 0.378593
O O7 0.526065 0.394315 0.150776
O O8 0.630079 0.850889 0.440063
O O9 0.853325 0.487460 0.262406
O O10 0.000000 0.500000 0.500000
O O11 0.828836 0.077157 0.075920
O O12 0.348551 0.040658 0.970867
O O13 0.294164 0.344645 0.121087
O O14 0.829051 0.753671 0.235690
O O15 0.500000 0.000000 0.000000
O O16 0.597595 0.043339 0.320537
O O17 0.709497 0.309334 0.777910
O O18 0.500000 0.000000 0.500000
#
# Coordination Sequence:
#
# PCOD8037139 Si02
#       8
#     2   2   2   2   2   2   2   2
#     4  12  24  48  70 104 141 185 233 291 351 414
#     4  12  24  47  71  98 145 185 231 294 351 416
#     4  12  25  43  74 100 142 187 230 287 355 415
#     4  12  24  44  69 102 137 184 235 288 351 416
#     4  12  25  46  69 104 140 186 232 285 353 416
#     4  12  25  42  70 105 137 182 238 289 349 422
#     4  12  26  47  70 104 142 187 234 288 356 415
#     4  12  26  44  71 102 140 182 236 291 346 422
#
# _framework density 21.974784
#
# number of rings (size 3 to 8) (size 9 to 14) (size 15 to 20)
#    0.000    0.000    3.750    6.375    1.750    0.500 
#    2.250    0.000    0.000    0.000    0.000    0.000 
#    0.000    0.000    0.000    0.000    0.000    0.000 
#
# Total GULP energy -198532.418715 kJ/mol
# GULP energy per Si atom -12408.276170 kJ/mol
# Density = 2.192477 g / cm^3
# Si number density = 21.974784 Si / 1000 Ang^3
#
#
#
# Elastic Constant Matrix: (Units=GPa)
#
#
# Indices 1 2 3 4 5 6 
#
# 1 158.1548 34.1867 31.8226 -7.9350 -18.5554 7.6128
# 2 34.1867 93.7391 31.4084 -13.3152 -6.7960 -10.9669
# 3 31.8226 31.4084 123.3426 -9.9803 -4.4621 3.8331
# 4 -7.9350 -13.3152 -9.9803 50.6321 7.8786 3.0026
# 5 -18.5554 -6.7960 -4.4621 7.8786 40.5705 3.4143
# 6 7.6128 -10.9669 3.8331 3.0026 3.4143 46.8135
#
#
#
# Elastic Compliance Matrix: (Units=1/GPa)
#
#
# Indices 1 2 3 4 5 6 
#
# 1 0.007519 -0.002353 -0.001173 -0.000039 0.003083 -0.001900
# 2 -0.002353 0.013171 -0.002663 0.002348 0.000084 0.003530
# 3 -0.001173 -0.002663 0.009207 0.001014 -0.000062 -0.001248
# 4 -0.000039 0.002348 0.001014 0.021154 -0.003568 -0.000623
# 5 0.003083 0.000084 -0.000062 -0.003568 0.026945 -0.002213
# 6 -0.001900 0.003530 -0.001248 -0.000623 -0.002213 0.022801
#
#
# Mechanical properties :
#
#
# Convention : Reuss Voigt Hill
#
# Bulk Modulus (GPa) = 57.08744 63.34133 60.21439
# Shear Modulus (GPa) = 42.01129 46.12447 44.06788
#
# Velocity S-wave (km/s) = 4.37715 4.58642 4.48301
# Velocity P-wave (km/s) = 7.18199 7.54547 7.36597
#
# Compressibility (1/GPa) = 0.01751699
#
# Stress axis : x y z
#
# Youngs Moduli (GPa) = 132.99765 75.92378 108.61306
#
# Poissons Ratio (x) = 0.17868 0.12742
# Poissons Ratio (y) = 0.31300 0.28929
# Poissons Ratio (z) = 0.15603 0.20222
#
# Static dielectric constant tensor:
#      x y z
#    x 4.685110 -0.198180 -0.128430 
#    y -0.198180 3.995830 -0.010130 
#    z -0.128430 -0.010130 4.203010 
# 
# 
# High freq. dielectric constant tensor:
#      x y z
#    x 1.886850 -0.001890 -0.001010 
#    y -0.001890 1.866110 -0.004710 
#    z -0.001010 -0.004710 1.880670 
# 
# From -- ./inp_files/208132.got.cif
#   From: 2010.06.25/outbox.cif.g09.slc.cpg/sg2_105_cif.got.tgz:208132.got - 2010.06.27 13:26:56.
