data_PCOD8037946
_publ_section_title
;
Structure prediction by ZEFSAII (Michael W. Deem and Ramdas Pophale) SiO2 
 PCOD8037946
Probable space group: P -1
;
_chemical_formula_sum "Si O2"
_cell_formula_units_Z 16
_cell_length_a 12.000000
_cell_length_b 12.000000
_cell_length_c 12.000000
_cell_angle_alpha 100.000000
_cell_angle_beta 40.000000
_cell_angle_gamma 70.000000
_cell_volume 722.981415
_symmetry_space_group_name_H-M "P -1"
_symmetry_group_IT_number 2
_symmetry_cell_setting 'triclinic'
loop_
_space_group_symop_operation_xyz
x,y,z
-x,-y,-z
loop_
_atom_site_type_symbol
_atom_site_label
_atom_site_fract_x
_atom_site_fract_y
_atom_site_fract_z
Si Si1 0.989434 0.189286 0.816076
Si Si2 0.540759 0.897330 0.656146
Si Si3 0.265024 0.703041 0.201736
Si Si4 0.684714 0.669121 0.905069
Si Si5 0.674751 0.485227 0.284026
Si Si6 0.878151 0.717192 0.574498
Si Si7 0.203584 0.263726 0.951391
Si Si8 0.410244 0.839718 0.534965
O O1 0.222389 0.156654 0.596711
O O2 0.819085 0.234796 0.849826
O O3 0.115382 0.018229 0.752849
O O4 0.787087 0.354013 0.077486
O O5 0.650217 0.803314 0.674449
O O6 0.442466 0.842178 0.643991
O O7 0.287121 0.101222 0.909377
O O8 0.006340 0.782337 0.481982
O O9 0.500000 0.500000 0.000000
O O10 0.384035 0.767909 0.156566
O O11 0.735341 0.758968 0.808958
O O12 0.876454 0.482961 0.673794
O O13 0.748682 0.661305 0.982942
O O14 0.500000 0.500000 0.500000
O O15 0.484352 0.675922 0.415111
O O16 0.904930 0.424305 0.172345
O O17 0.381302 0.183973 0.691772
#
# Coordination Sequence:
#
# PCOD8037946 Si02
#       8
#     2   2   2   2   2   2   2   2
#     4  10  21  42  63  96 131 163 223 269 322 391
#     4  10  19  40  69  90 126 171 217 272 329 379
#     4   9  20  37  65  88 126 178 212 268 324 384
#     4  10  21  38  62  93 128 170 223 263 328 394
#     4  12  26  39  63 101 131 169 212 268 333 398
#     4   9  20  37  60  91 124 176 214 269 329 382
#     4  11  22  41  65  96 125 165 225 267 320 403
#     4  11  22  41  70  92 127 176 212 273 331 377
#
# _framework density 22.130583000000001
#
# number of rings (size 3 to 8) (size 9 to 14) (size 15 to 20)
#    0.000    1.750    2.500    1.875    5.250    5.000 
#    2.250    5.625    0.000    0.000    0.000    0.000 
#    0.000    0.000    0.000    0.000    0.000    0.000 
#
# Total GULP energy -198264.286684 kJ/mol
# GULP energy per Si atom -12391.517918 kJ/mol
# Density = 2.208021 g / cm^3
# Si number density = 22.130583 Si / 1000 Ang^3
#
#
#
# Elastic Constant Matrix: (Units=GPa)
#
#
# Indices 1 2 3 4 5 6 
#
# 1 102.6930 26.5047 18.5512 -12.2032 -9.1500 -6.1376
# 2 26.5047 89.2222 30.0802 10.4439 -10.7896 -6.6263
# 3 18.5512 30.0802 34.6683 6.4373 0.6830 14.4467
# 4 -12.2032 10.4439 6.4373 35.8311 0.2659 -4.8133
# 5 -9.1500 -10.7896 0.6830 0.2659 23.3348 5.9111
# 6 -6.1376 -6.6263 14.4467 -4.8133 5.9111 28.4687
#
#
#
# Elastic Compliance Matrix: (Units=1/GPa)
#
#
# Indices 1 2 3 4 5 6 
#
# 1 0.014279 0.001218 -0.015386 0.008851 0.003487 0.011942
# 2 0.001218 0.022443 -0.028289 0.001408 0.006945 0.018638
# 3 -0.015386 -0.028289 0.089529 -0.020737 -0.006958 -0.057395
# 4 0.008851 0.001408 -0.020737 0.036807 -0.000527 0.019092
# 5 0.003487 0.006945 -0.006958 -0.000527 0.048734 -0.004309
# 6 0.011942 0.018638 -0.057395 0.019092 -0.004309 0.075288
#
#
# Mechanical properties :
#
#
# Convention : Reuss Voigt Hill
#
# Bulk Modulus (GPa) = 24.19248 41.87287 33.03267
# Shear Modulus (GPa) = 12.96100 27.62340 20.29220
#
# Velocity S-wave (km/s) = 2.42267 3.53682 3.03137
# Velocity P-wave (km/s) = 4.33373 5.96998 5.21641
#
# Compressibility (1/GPa) = 0.04133516
#
# Stress axis : x y z
#
# Youngs Moduli (GPa) = 70.03282 44.55755 11.16963
#
# Poissons Ratio (x) = -0.05427 0.17186
# Poissons Ratio (y) = -0.08530 0.31598
# Poissons Ratio (z) = 1.07754 1.26051
#
# Static dielectric constant tensor:
#      x y z
#    x 3.860300 -0.146480 -0.219520 
#    y -0.146480 4.058950 -0.255150 
#    z -0.219520 -0.255150 3.891460 
# 
# 
# High freq. dielectric constant tensor:
#      x y z
#    x 1.864090 -0.017170 -0.008330 
#    y -0.017170 1.866060 0.008740 
#    z -0.008330 0.008740 1.863610 
# 
# From -- ./inp_files/202606.got.cif
#   From: 2010.06.25/outbox.ucp.g09.slc.cvg/sg2_102_cif.got.tgz:202606.got - 2010.06.28 11:54:26.
