data_PCOD8037976
_publ_section_title
;
Structure prediction by ZEFSAII (Michael W. Deem and Ramdas Pophale) SiO2 
 PCOD8037976
Probable space group: P -1
;
_chemical_formula_sum "Si O2"
_cell_formula_units_Z 16
_cell_length_a 10.648407
_cell_length_b 9.595427
_cell_length_c 12.810066
_cell_angle_alpha 129.980018
_cell_angle_beta 57.131238
_cell_angle_gamma 99.280626
_cell_volume 805.882080
_symmetry_space_group_name_H-M "P -1"
_symmetry_group_IT_number 2
_symmetry_cell_setting 'triclinic'
loop_
_space_group_symop_operation_xyz
x,y,z
-x,-y,-z
loop_
_atom_site_type_symbol
_atom_site_label
_atom_site_fract_x
_atom_site_fract_y
_atom_site_fract_z
Si Si1 0.694454 0.122077 0.484837
Si Si2 0.967844 0.049142 0.658527
Si Si3 0.792970 0.901434 0.022611
Si Si4 0.202052 0.567701 0.520081
Si Si5 0.148749 0.570290 0.986693
Si Si6 0.138732 0.712242 0.832562
Si Si7 0.148464 0.219110 0.286461
Si Si8 0.391403 0.189916 0.765041
O O1 0.684535 0.318332 0.523389
O O2 0.574631 0.173199 0.661328
O O3 0.867906 0.018159 0.391073
O O4 0.648207 0.974881 0.360920
O O5 0.000000 0.000000 0.500000
O O6 0.852487 0.934741 0.698534
O O7 0.889261 0.271242 0.827859
O O8 0.648200 0.848750 0.116726
O O9 0.799764 0.112183 0.144848
O O10 0.764804 0.883321 0.904332
O O11 0.951274 0.760295 0.931734
O O12 0.214449 0.553577 0.634198
O O13 0.246302 0.355012 0.352280
O O14 0.026123 0.671201 0.615312
O O15 0.193606 0.649039 0.894317
O O16 0.295058 0.399396 0.872941
O O17 0.000000 0.500000 0.000000
#
# Coordination Sequence:
#
# PCOD8037976 Si02
#       8
#     2   2   2   2   2   2   2   2
#     4  10  21  40  58  90 121 158 196 238 299 362
#     4  11  23  39  61  88 122 154 195 250 300 343
#     4  10  17  33  55  84 108 158 194 239 285 341
#     4   9  18  33  56  82 110 152 197 239 284 345
#     4  12  22  36  58  95 119 150 201 251 287 343
#     4  10  18  31  58  81 115 145 203 248 276 331
#     4   9  19  32  55  83 113 146 197 245 285 339
#     4  11  22  36  64  88 125 156 192 245 300 352
#
# _framework density 19.854019999999998
#
# number of rings (size 3 to 8) (size 9 to 14) (size 15 to 20)
#    0.000    1.750    5.000    0.000    1.750    2.000 
#    0.000    3.125    2.750    1.500    0.000    0.000 
#    0.000    0.000    0.000    0.000    0.000    0.000 
#
# Total GULP energy -198346.667249 kJ/mol
# GULP energy per Si atom -12396.666703 kJ/mol
# Density = 1.980883 g / cm^3
# Si number density = 19.854020 Si / 1000 Ang^3
#
#
#
# Elastic Constant Matrix: (Units=GPa)
#
#
# Indices 1 2 3 4 5 6 
#
# 1 23.0806 21.0633 29.9185 2.5510 10.3727 12.2574
# 2 21.0633 107.5874 59.5834 -12.4498 3.2546 15.3496
# 3 29.9185 59.5834 114.0052 -16.0298 21.7412 17.6845
# 4 2.5510 -12.4498 -16.0298 42.9646 0.9615 7.4491
# 5 10.3727 3.2546 21.7412 0.9615 38.0868 -1.3895
# 6 12.2574 15.3496 17.6845 7.4491 -1.3895 21.6762
#
#
#
# Elastic Compliance Matrix: (Units=1/GPa)
#
#
# Indices 1 2 3 4 5 6 
#
# 1 0.095295 -0.006005 -0.012908 -0.005090 -0.019351 -0.038595
# 2 -0.006005 0.014245 -0.005731 0.002741 0.003521 -0.002732
# 3 -0.012908 -0.005731 0.018588 0.007376 -0.007039 -0.006793
# 4 -0.005090 0.002741 0.007376 0.029935 -0.004385 -0.015649
# 5 -0.019351 0.003521 -0.007039 -0.004385 0.036011 0.018008
# 6 -0.038595 -0.002732 -0.006793 -0.015649 0.018008 0.081967
#
#
# Mechanical properties :
#
#
# Convention : Reuss Voigt Hill
#
# Bulk Modulus (GPa) = 12.68424 51.75596 32.22010
# Shear Modulus (GPa) = 14.22034 29.48603 21.85318
#
# Velocity S-wave (km/s) = 2.67918 3.85793 3.32127
# Velocity P-wave (km/s) = 3.99666 6.78010 5.56520
#
# Compressibility (1/GPa) = 0.07883801
#
# Stress axis : x y z
#
# Youngs Moduli (GPa) = 10.49372 70.20042 53.79894
#
# Poissons Ratio (x) = 0.42156 0.69446
# Poissons Ratio (y) = 0.06302 0.30834
# Poissons Ratio (z) = 0.13546 0.40234
#
# Static dielectric constant tensor:
#      x y z
#    x 3.423950 0.190390 0.106360 
#    y 0.190390 3.817510 -0.096790 
#    z 0.106360 -0.096790 3.840950 
# 
# 
# High freq. dielectric constant tensor:
#      x y z
#    x 1.729340 0.017320 0.019330 
#    y 0.017320 1.784520 -0.010030 
#    z 0.019330 -0.010030 1.779070 
# 
# From -- ./inp_files/189462.got.cif
#   From: 2010.06.25/outbox.cif.g09.slc.cpg/sg2_95_cif.got.tgz:189462.got - 2010.06.27 13:26:56.
