data_PCOD8037320
_publ_section_title
;
Structure prediction by ZEFSAII (Michael W. Deem and Ramdas Pophale) SiO2 
 PCOD8037320
Probable space group: P -1
;
_chemical_formula_sum "Si O2"
_cell_formula_units_Z 12
_cell_length_a 15.028257
_cell_length_b 11.305615
_cell_length_c 18.419483
_cell_angle_alpha 151.918523
_cell_angle_beta 22.870468
_cell_angle_gamma 150.223885
_cell_volume 546.003005
_symmetry_space_group_name_H-M "P -1"
_symmetry_group_IT_number 2
_symmetry_cell_setting 'triclinic'
loop_
_space_group_symop_operation_xyz
x,y,z
-x,-y,-z
loop_
_atom_site_type_symbol
_atom_site_label
_atom_site_fract_x
_atom_site_fract_y
_atom_site_fract_z
Si Si1 0.401219 0.744172 0.221789
Si Si2 0.955749 0.577600 0.378537
Si Si3 0.865468 0.583804 0.978971
Si Si4 0.374834 0.714933 0.736639
Si Si5 0.353550 0.007398 0.685562
Si Si6 0.508930 0.745833 0.814950
O O1 0.454822 0.834672 0.313232
O O2 0.114289 0.635424 0.363962
O O3 0.502964 0.993555 0.227874
O O4 0.500000 0.500000 0.000000
O O5 0.787222 0.765114 0.605637
O O6 0.129885 0.623800 0.201755
O O7 0.779617 0.282306 0.342799
O O8 0.098756 0.623811 0.873405
O O9 0.853075 0.854230 0.098008
O O10 0.631067 0.493274 0.156977
O O11 0.500000 0.500000 0.500000
O O12 0.376252 0.722861 0.826176
O O13 0.500000 0.000000 0.500000
O O14 0.500000 0.000000 0.000000
#
# Coordination Sequence:
#
# PCOD8037320 Si02
#       6
#     2   2   2   2   2   2
#     4  12  26  45  79 109 143 198 246 298 372 433
#     4  12  25  49  76 107 152 192 241 307 366 438
#     4  12  24  47  76 101 149 191 238 303 363 432
#     4  12  26  47  77 106 146 199 245 294 374 439
#     4  12  25  47  74 110 146 189 246 300 367 435
#     4  12  28  45  70 112 143 190 250 299 362 435
#
# _framework density 21.977902
#
# number of rings (size 3 to 8) (size 9 to 14) (size 15 to 20)
#    0.000    0.000    6.667    3.000    2.333    3.333 
#    0.000    0.000    0.000    0.000    0.000    0.000 
#    0.000    0.000    0.000    0.000    0.000    0.000 
#
# Total GULP energy -148829.720939 kJ/mol
# GULP energy per Si atom -12402.476745 kJ/mol
# Density = 2.192788 g / cm^3
# Si number density = 21.977902 Si / 1000 Ang^3
#
#
#
# Elastic Constant Matrix: (Units=GPa)
#
#
# Indices 1 2 3 4 5 6 
#
# 1 175.3453 36.5541 66.8171 7.5736 2.8247 28.3461
# 2 36.5541 81.0157 26.2414 19.8185 3.4693 5.0853
# 3 66.8171 26.2414 131.2295 12.9093 -2.1899 3.8507
# 4 7.5736 19.8185 12.9093 36.6749 0.5137 -3.3262
# 5 2.8247 3.4693 -2.1899 0.5137 52.9610 -3.7324
# 6 28.3461 5.0853 3.8507 -3.3262 -3.7324 50.0506
#
#
#
# Elastic Compliance Matrix: (Units=1/GPa)
#
#
# Indices 1 2 3 4 5 6 
#
# 1 0.008261 -0.002366 -0.003672 0.000496 -0.000737 -0.004178
# 2 -0.002366 0.015756 -0.001186 -0.007663 -0.000933 -0.000749
# 3 -0.003672 -0.001186 0.009894 -0.001971 0.000798 0.001367
# 4 0.000496 -0.007663 -0.001971 0.032250 0.000279 0.002813
# 5 -0.000737 -0.000933 0.000798 0.000279 0.019146 0.001897
# 6 -0.004178 -0.000749 0.001367 0.002813 0.001897 0.022645
#
#
# Mechanical properties :
#
#
# Convention : Reuss Voigt Hill
#
# Bulk Modulus (GPa) = 51.37494 71.86841 61.62167
# Shear Modulus (GPa) = 38.79326 45.13581 41.96453
#
# Velocity S-wave (km/s) = 4.20587 4.53668 4.37440
# Velocity P-wave (km/s) = 6.85655 7.75972 7.32207
#
# Compressibility (1/GPa) = 0.01946474
#
# Stress axis : x y z
#
# Youngs Moduli (GPa) = 121.04801 63.46599 101.07186
#
# Poissons Ratio (x) = 0.15014 0.37111
# Poissons Ratio (y) = 0.28637 0.11987
# Poissons Ratio (z) = 0.44446 0.07527
#
# Static dielectric constant tensor:
#      x y z
#    x 4.338560 -0.048360 0.096310 
#    y -0.048360 4.303310 -0.168980 
#    z 0.096310 -0.168980 4.373090 
# 
# 
# High freq. dielectric constant tensor:
#      x y z
#    x 1.884850 0.001840 -0.004600 
#    y 0.001840 1.864940 0.010800 
#    z -0.004600 0.010800 1.876720 
# 
# From -- ./inp_files/270314.got.cif
#   From: 2010.06.25/outbox.cif.g09.slc.cpg/sg2_136_cif.got.tgz:270314.got - 2010.06.27 13:26:56.
