data_PCOD8037170
_publ_section_title
;
Structure prediction by ZEFSAII (Michael W. Deem and Ramdas Pophale) SiO2 
 PCOD8037170
Probable space group: P -1
;
_chemical_formula_sum "Si O2"
_cell_formula_units_Z 14
_cell_length_a 11.914269
_cell_length_b 9.945455
_cell_length_c 14.811076
_cell_angle_alpha 121.356708
_cell_angle_beta 152.913527
_cell_angle_gamma 50.319295
_cell_volume 609.186758
_symmetry_space_group_name_H-M "P -1"
_symmetry_group_IT_number 2
_symmetry_cell_setting 'triclinic'
loop_
_space_group_symop_operation_xyz
x,y,z
-x,-y,-z
loop_
_atom_site_type_symbol
_atom_site_label
_atom_site_fract_x
_atom_site_fract_y
_atom_site_fract_z
Si Si1 0.969754 0.039609 0.387048
Si Si2 0.465229 0.964240 0.226236
Si Si3 0.349520 0.647149 0.018564
Si Si4 0.730755 0.847782 0.671141
Si Si5 0.476661 0.585820 0.416284
Si Si6 0.126251 0.194206 0.903933
Si Si7 0.462939 0.391079 0.170304
O O1 0.718292 0.228273 0.250579
O O2 0.245559 0.036570 0.543021
O O3 0.906315 0.893886 0.242050
O O4 0.000000 0.000000 0.500000
O O5 0.254202 0.072341 0.192444
O O6 0.512538 0.763927 0.185217
O O7 0.360808 0.053154 0.085680
O O8 0.028582 0.776820 0.810529
O O9 0.500000 0.500000 0.000000
O O10 0.355837 0.559127 0.088060
O O11 0.669420 0.681635 0.581279
O O12 0.500000 0.000000 0.500000
O O13 0.500000 0.500000 0.500000
O O14 0.571876 0.432313 0.356600
O O15 0.159841 0.722941 0.217463
O O16 0.207834 0.347391 0.988941
#
# Coordination Sequence:
#
# PCOD8037170 Si02
#       7
#     2   2   2   2   2   2   2
#     4  12  26  45  75 110 142 192 240 295 359 435
#     4  12  26  49  76 103 144 196 248 286 362 443
#     4  12  29  46  72 108 147 190 239 306 368 419
#     4  12  26  49  74 104 146 196 247 292 356 446
#     4  12  24  44  74 108 141 183 241 301 365 422
#     4  12  24  48  75 104 142 190 242 294 358 440
#     4  12  26  44  71 107 152 181 236 308 364 418
#
# _framework density 22.981458
#
# number of rings (size 3 to 8) (size 9 to 14) (size 15 to 20)
#    0.000    0.000    2.857    7.286    6.000    0.571 
#    0.000    0.000    0.000    0.000    0.000    0.000 
#    0.000    0.000    0.000    0.000    0.000    0.000 
#
# Total GULP energy -173742.476514 kJ/mol
# GULP energy per Si atom -12410.176894 kJ/mol
# Density = 2.292915 g / cm^3
# Si number density = 22.981458 Si / 1000 Ang^3
#
#
#
# Elastic Constant Matrix: (Units=GPa)
#
#
# Indices 1 2 3 4 5 6 
#
# 1 96.5919 35.9343 31.0530 12.9947 -9.7506 -7.2803
# 2 35.9343 119.9687 32.7124 28.8470 -8.5892 2.0158
# 3 31.0530 32.7124 92.0912 9.4592 -4.4063 -1.1115
# 4 12.9947 28.8470 9.4592 54.8189 -8.6658 -1.3633
# 5 -9.7506 -8.5892 -4.4063 -8.6658 41.7142 -7.2897
# 6 -7.2803 2.0158 -1.1115 -1.3633 -7.2897 52.9565
#
#
#
# Elastic Compliance Matrix: (Units=1/GPa)
#
#
# Indices 1 2 3 4 5 6 
#
# 1 0.012861 -0.002696 -0.003174 -0.000659 0.002348 0.002110
# 2 -0.002696 0.010990 -0.002512 -0.004697 0.000229 -0.000931
# 3 -0.003174 -0.002512 0.012837 -0.000133 0.000057 -0.000067
# 4 -0.000659 -0.004697 -0.000133 0.021478 0.003523 0.001123
# 5 0.002348 0.000229 0.000057 0.003523 0.026003 0.003985
# 6 0.002110 -0.000931 -0.000067 0.001123 0.003985 0.019785
#
#
# Mechanical properties :
#
#
# Convention : Reuss Voigt Hill
#
# Bulk Modulus (GPa) = 50.19152 56.45012 53.32082
# Shear Modulus (GPa) = 39.25949 43.82809 41.54379
#
# Velocity S-wave (km/s) = 4.13766 4.37178 4.25633
# Velocity P-wave (km/s) = 6.68688 7.07813 6.88529
#
# Compressibility (1/GPa) = 0.01992368
#
# Stress axis : x y z
#
# Youngs Moduli (GPa) = 77.75657 90.99520 77.89975
#
# Poissons Ratio (x) = 0.24530 0.24722
# Poissons Ratio (y) = 0.20961 0.19572
# Poissons Ratio (z) = 0.24676 0.22862
#
# Static dielectric constant tensor:
#      x y z
#    x 4.196390 -0.062710 0.188220 
#    y -0.062710 4.375190 0.013440 
#    z 0.188220 0.013440 4.274760 
# 
# 
# High freq. dielectric constant tensor:
#      x y z
#    x 1.913830 -0.002060 0.000480 
#    y -0.002060 1.923580 0.005220 
#    z 0.000480 0.005220 1.916590 
# 
# From -- ./inp_files/68229.got.cif
#   From: 2010.06.25/outbox.cif.g09.slc.cpg/sg2_35_cif.got.tgz:68229.got - 2010.06.27 13:26:56.
