data_PCOD8037618
_publ_section_title
;
Structure prediction by ZEFSAII (Michael W. Deem and Ramdas Pophale) SiO2 
 PCOD8037618
Probable space group: P -1
;
_chemical_formula_sum "Si O2"
_cell_formula_units_Z 12
_cell_length_a 5.383208
_cell_length_b 10.772385
_cell_length_c 15.972176
_cell_angle_alpha 147.285970
_cell_angle_beta 99.190249
_cell_angle_gamma 84.134608
_cell_volume 493.249830
_symmetry_space_group_name_H-M "P -1"
_symmetry_group_IT_number 2
_symmetry_cell_setting 'triclinic'
loop_
_space_group_symop_operation_xyz
x,y,z
-x,-y,-z
loop_
_atom_site_type_symbol
_atom_site_label
_atom_site_fract_x
_atom_site_fract_y
_atom_site_fract_z
Si Si1 0.881214 0.053185 0.436094
Si Si2 0.381846 0.513582 0.326906
Si Si3 0.754990 0.648124 0.081062
Si Si4 0.359627 0.152428 0.987061
Si Si5 0.843455 0.889848 0.829978
Si Si6 0.836655 0.673087 0.539541
O O1 0.060530 0.197045 0.463576
O O2 0.658123 0.218767 0.539410
O O3 0.000000 0.000000 0.500000
O O4 0.785205 0.811204 0.255462
O O5 0.600654 0.507750 0.404462
O O6 0.436779 0.395003 0.173747
O O7 0.146436 0.366630 0.274760
O O8 0.716746 0.804647 0.087571
O O9 0.500000 0.500000 0.000000
O O10 0.000000 0.500000 0.000000
O O11 0.108002 0.028085 0.945042
O O12 0.600303 0.998866 0.921476
O O13 0.786287 0.874566 0.718448
O O14 0.000000 0.500000 0.500000
#
# Coordination Sequence:
#
# PCOD8037618 Si02
#       6
#     2   2   2   2   2   2
#     4  12  29  50  80 113 156 206 261 323 387 467
#     4  12  28  45  80 115 157 198 262 321 387 464
#     4  12  28  51  75 105 153 207 259 314 388 466
#     4  12  27  48  77 114 157 202 257 322 388 458
#     4  12  25  48  76 115 154 204 252 315 390 460
#     4  12  26  49  79 114 156 202 260 322 392 460
#
# _framework density 24.328441000000002
#
# number of rings (size 3 to 8) (size 9 to 14) (size 15 to 20)
#    0.000    0.000    3.333    5.500    7.000    0.667 
#    0.000    0.000    0.000    0.000    0.000    0.000 
#    0.000    0.000    0.000    0.000    0.000    0.000 
#
# Total GULP energy -148796.999011 kJ/mol
# GULP energy per Si atom -12399.749918 kJ/mol
# Density = 2.427307 g / cm^3
# Si number density = 24.328441 Si / 1000 Ang^3
#
#
#
# Elastic Constant Matrix: (Units=GPa)
#
#
# Indices 1 2 3 4 5 6 
#
# 1 161.1379 52.0462 68.2979 13.4740 8.0981 -13.5912
# 2 52.0462 138.9375 47.8245 1.2785 3.1543 -11.4597
# 3 68.2979 47.8245 218.5473 -3.5825 9.3047 -21.5070
# 4 13.4740 1.2785 -3.5825 40.8148 2.3017 6.2978
# 5 8.0981 3.1543 9.3047 2.3017 40.5192 -7.4602
# 6 -13.5912 -11.4597 -21.5070 6.2978 -7.4602 36.5301
#
#
#
# Elastic Compliance Matrix: (Units=1/GPa)
#
#
# Indices 1 2 3 4 5 6 
#
# 1 0.008155 -0.002218 -0.001931 -0.003010 -0.000547 0.001609
# 2 -0.002218 0.008484 -0.001049 0.000169 0.000242 0.001239
# 3 -0.001931 -0.001049 0.005644 0.000883 -0.000507 0.002019
# 4 -0.003010 0.000169 0.000883 0.026546 -0.002146 -0.005562
# 5 -0.000547 0.000242 -0.000507 -0.002146 0.025975 0.005249
# 6 0.001609 0.001239 0.002019 -0.005562 0.005249 0.031582
#
#
# Mechanical properties :
#
#
# Convention : Reuss Voigt Hill
#
# Bulk Modulus (GPa) = 84.12059 94.99553 89.55806
# Shear Modulus (GPa) = 41.40987 46.93643 44.17315
#
# Velocity S-wave (km/s) = 4.13015 4.39712 4.26573
# Velocity P-wave (km/s) = 7.57603 8.05677 7.82010
#
# Compressibility (1/GPa) = 0.01188770
#
# Stress axis : x y z
#
# Youngs Moduli (GPa) = 122.61728 117.86224 177.19401
#
# Poissons Ratio (x) = 0.26136 0.34218
# Poissons Ratio (y) = 0.27190 0.18592
# Poissons Ratio (z) = 0.23679 0.12367
#
# Static dielectric constant tensor:
#      x y z
#    x 4.260840 0.001140 -0.223950 
#    y 0.001140 4.355270 -0.075070 
#    z -0.223950 -0.075070 5.483850 
# 
# 
# High freq. dielectric constant tensor:
#      x y z
#    x 1.963060 0.001620 -0.000070 
#    y 0.001620 1.972720 -0.013060 
#    z -0.000070 -0.013060 2.000580 
# 
# From -- ./inp_files/481884.got.cif
#   From: 2010.06.25/outbox.cif.g09.slc.cpg/sg2_241_cif.got.tgz:481884.got - 2010.06.27 13:26:56.
