data_PCOD8037354
_publ_section_title
;
Structure prediction by ZEFSAII (Michael W. Deem and Ramdas Pophale) SiO2 
 PCOD8037354
Probable space group: P -1
;
_chemical_formula_sum "Si O2"
_cell_formula_units_Z 16
_cell_length_a 9.127742
_cell_length_b 15.506165
_cell_length_c 9.218992
_cell_angle_alpha 142.798867
_cell_angle_beta 107.652027
_cell_angle_gamma 83.358427
_cell_volume 733.608107
_symmetry_space_group_name_H-M "P -1"
_symmetry_group_IT_number 2
_symmetry_cell_setting 'triclinic'
loop_
_space_group_symop_operation_xyz
x,y,z
-x,-y,-z
loop_
_atom_site_type_symbol
_atom_site_label
_atom_site_fract_x
_atom_site_fract_y
_atom_site_fract_z
Si Si1 0.258827 0.774143 0.939302
Si Si2 0.884991 0.509473 0.104421
Si Si3 0.523057 0.973320 0.138546
Si Si4 0.247451 0.224543 0.666621
Si Si5 0.606684 0.248366 0.735151
Si Si6 0.775163 0.799977 0.030245
Si Si7 0.120334 0.486240 0.395975
Si Si8 0.968352 0.046466 0.889930
O O1 0.264179 0.627755 0.653338
O O2 0.350793 0.916894 0.074830
O O3 0.319344 0.780964 0.130038
O O4 0.078650 0.795495 0.913340
O O5 0.839549 0.666082 0.298166
O O6 0.002276 0.485569 0.230470
O O7 0.719498 0.390803 0.890116
O O8 0.000000 0.500000 0.000000
O O9 0.605984 0.836812 0.003737
O O10 0.607817 0.117300 0.446147
O O11 0.500000 0.000000 0.000000
O O12 0.433010 0.273012 0.751327
O O13 0.202731 0.215984 0.812250
O O14 0.180788 0.066941 0.369923
O O15 0.792238 0.648506 0.758850
O O16 0.889288 0.935097 0.159527
O O17 0.000000 0.500000 0.500000
O O18 0.000000 0.000000 0.000000
#
# Coordination Sequence:
#
# PCOD8037354 Si02
#       8
#     2   2   2   2   2   2   2   2
#     4  12  24  48  73 100 146 192 233 287 365 425
#     4  12  27  46  72 110 142 185 243 293 357 421
#     4  12  28  46  73 108 143 184 240 299 357 425
#     4  12  26  47  72 104 147 192 239 289 358 434
#     4  12  26  50  73 101 147 193 231 295 365 429
#     4  12  26  45  71 110 138 191 242 291 358 421
#     4  12  25  47  74 103 146 188 235 299 355 425
#     4  12  25  43  73 106 143 186 243 297 354 422
#
# _framework density 21.810009000000001
#
# number of rings (size 3 to 8) (size 9 to 14) (size 15 to 20)
#    0.000    0.000    6.250    3.375    3.500    0.500 
#    2.250    0.000    0.000    0.000    0.000    0.000 
#    0.000    0.000    0.000    0.000    0.000    0.000 
#
# Total GULP energy -198223.091772 kJ/mol
# GULP energy per Si atom -12388.943236 kJ/mol
# Density = 2.176037 g / cm^3
# Si number density = 21.810009 Si / 1000 Ang^3
#
#
#
# Elastic Constant Matrix: (Units=GPa)
#
#
# Indices 1 2 3 4 5 6 
#
# 1 92.5074 39.7154 35.1635 -6.7181 -13.7092 13.0113
# 2 39.7154 69.3239 35.9605 13.2723 -8.9027 -5.8369
# 3 35.1635 35.9605 139.5688 1.7952 -5.2326 2.7340
# 4 -6.7181 13.2723 1.7952 24.6604 -3.9495 -0.9861
# 5 -13.7092 -8.9027 -5.2326 -3.9495 37.7135 11.2542
# 6 13.0113 -5.8369 2.7340 -0.9861 11.2542 53.7366
#
#
#
# Elastic Compliance Matrix: (Units=1/GPa)
#
#
# Indices 1 2 3 4 5 6 
#
# 1 0.020156 -0.013031 -0.001456 0.013545 0.007733 -0.007593
# 2 -0.013031 0.027584 -0.003816 -0.018276 -0.002627 0.006560
# 3 -0.001456 -0.003816 0.008511 0.001018 0.000000 -0.000476
# 4 0.013545 -0.018276 0.001018 0.055095 0.008326 -0.006049
# 5 0.007733 -0.002627 0.000000 0.008326 0.032188 -0.008746
# 6 -0.007593 0.006560 -0.000476 -0.006049 -0.008746 0.022905
#
#
# Mechanical properties :
#
#
# Convention : Reuss Voigt Hill
#
# Bulk Modulus (GPa) = 50.90512 58.11988 54.51250
# Shear Modulus (GPa) = 23.85562 35.92613 29.89088
#
# Velocity S-wave (km/s) = 3.31084 4.06301 3.70606
# Velocity P-wave (km/s) = 6.16494 6.97975 6.58496
#
# Compressibility (1/GPa) = 0.01964439
#
# Stress axis : x y z
#
# Youngs Moduli (GPa) = 49.61398 36.25267 117.49242
#
# Poissons Ratio (x) = 0.47242 0.17108
# Poissons Ratio (y) = 0.64653 0.44834
# Poissons Ratio (z) = 0.07224 0.13834
#
# Static dielectric constant tensor:
#      x y z
#    x 4.454310 0.032900 0.001090 
#    y 0.032900 4.043970 0.078220 
#    z 0.001090 0.078220 3.622580 
# 
# 
# High freq. dielectric constant tensor:
#      x y z
#    x 1.875730 0.004980 -0.006010 
#    y 0.004980 1.871730 0.001530 
#    z -0.006010 0.001530 1.863630 
# 
# From -- ./inp_files/209538.got.cif
#   From: 2010.06.25/outbox.cif.g09.slc.cpg/sg2_105_cif.got.tgz:209538.got - 2010.06.27 13:26:56.
