data_PCOD8037615
_publ_section_title
;
Structure prediction by ZEFSAII (Michael W. Deem and Ramdas Pophale) SiO2 
 PCOD8037615
Probable space group: P -1
;
_chemical_formula_sum "Si O2"
_cell_formula_units_Z 16
_cell_length_a 14.248453
_cell_length_b 11.357491
_cell_length_c 9.067073
_cell_angle_alpha 79.671582
_cell_angle_beta 108.744201
_cell_angle_gamma 149.100797
_cell_volume 699.361123
_symmetry_space_group_name_H-M "P -1"
_symmetry_group_IT_number 2
_symmetry_cell_setting 'triclinic'
loop_
_space_group_symop_operation_xyz
x,y,z
-x,-y,-z
loop_
_atom_site_type_symbol
_atom_site_label
_atom_site_fract_x
_atom_site_fract_y
_atom_site_fract_z
Si Si1 0.353942 0.641419 0.083989
Si Si2 0.351407 0.098507 0.590592
Si Si3 0.528520 0.216181 0.216332
Si Si4 0.789401 0.297305 0.505318
Si Si5 0.196266 0.698378 0.146645
Si Si6 0.532359 0.617779 0.669360
Si Si7 0.146979 0.070951 0.638939
Si Si8 0.098689 0.162214 0.150304
O O1 0.552451 0.805298 0.220807
O O2 0.330265 0.745247 0.120585
O O3 0.178639 0.373332 0.096337
O O4 0.359391 0.658731 0.908234
O O5 0.481292 0.320961 0.503251
O O6 0.146979 0.945983 0.572847
O O7 0.325964 0.946919 0.525763
O O8 0.661717 0.272729 0.378897
O O9 0.490822 0.311627 0.227378
O O10 0.311826 0.942386 0.145953
O O11 0.827610 0.364114 0.681082
O O12 0.000000 0.500000 0.500000
O O13 0.000000 0.500000 0.000000
O O14 0.362410 0.347345 0.670058
O O15 0.735131 0.757236 0.731385
O O16 0.000000 0.000000 0.500000
O O17 0.070668 0.982555 0.786334
O O18 0.000000 0.000000 0.000000
#
# Coordination Sequence:
#
# PCOD8037615 Si02
#       8
#     2   2   2   2   2   2   2   2
#     4  12  27  46  75 107 151 199 249 308 371 445
#     4  12  25  48  76 107 152 195 250 310 377 443
#     4  12  27  49  75 106 155 197 244 308 377 439
#     4  12  28  48  76 112 148 197 248 306 378 452
#     4  12  27  48  76 109 148 194 253 308 372 447
#     4  12  26  50  75 107 152 194 249 313 373 442
#     4  12  26  46  78 109 145 195 248 307 376 446
#     4  12  29  48  73 110 151 197 255 308 376 440
#
# _framework density 22.878024
#
# number of rings (size 3 to 8) (size 9 to 14) (size 15 to 20)
#    0.000    0.000    5.000    4.125    8.750    2.000 
#    0.000    0.000    0.000    0.000    0.000    0.000 
#    0.000    0.000    0.000    0.000    0.000    0.000 
#
# Total GULP energy -198333.098310 kJ/mol
# GULP energy per Si atom -12395.818644 kJ/mol
# Density = 2.282595 g / cm^3
# Si number density = 22.878024 Si / 1000 Ang^3
#
#
#
# Elastic Constant Matrix: (Units=GPa)
#
#
# Indices 1 2 3 4 5 6 
#
# 1 104.8774 10.6703 34.6899 -8.0381 -20.8794 12.1335
# 2 10.6703 87.6087 38.9630 -4.2319 3.1567 16.6425
# 3 34.6899 38.9630 149.9248 -11.1322 -16.0747 6.9887
# 4 -8.0381 -4.2319 -11.1322 44.3294 8.9043 -5.4965
# 5 -20.8794 3.1567 -16.0747 8.9043 47.2243 -3.5249
# 6 12.1335 16.6425 6.9887 -5.4965 -3.5249 33.9116
#
#
#
# Elastic Compliance Matrix: (Units=1/GPa)
#
#
# Indices 1 2 3 4 5 6 
#
# 1 0.011408 -0.000013 -0.002028 0.000350 0.004051 -0.003180
# 2 -0.000013 0.014427 -0.003723 0.000181 -0.002761 -0.006566
# 3 -0.002028 -0.003723 0.008355 0.001110 0.002079 0.001227
# 4 0.000350 0.000181 0.001110 0.024058 -0.003787 0.003063
# 5 0.004051 -0.002761 0.002079 -0.003787 0.024680 0.001429
# 6 -0.003180 -0.006566 0.001227 0.003063 0.001429 0.034241
#
#
# Mechanical properties :
#
#
# Convention : Reuss Voigt Hill
#
# Bulk Modulus (GPa) = 44.12402 56.78414 50.45408
# Shear Modulus (GPa) = 36.69709 42.29889 39.49799
#
# Velocity S-wave (km/s) = 4.00938 4.30453 4.15958
# Velocity P-wave (km/s) = 6.38452 7.04128 6.72092
#
# Compressibility (1/GPa) = 0.02266339
#
# Stress axis : x y z
#
# Youngs Moduli (GPa) = 87.65629 69.31290 119.69117
#
# Poissons Ratio (x) = 0.00087 0.24271
# Poissons Ratio (y) = 0.00111 0.44562
# Poissons Ratio (z) = 0.17775 0.25806
#
# Static dielectric constant tensor:
#      x y z
#    x 4.249230 -0.266060 -0.368370 
#    y -0.266060 3.950390 -0.240480 
#    z -0.368370 -0.240480 4.460570 
# 
# 
# High freq. dielectric constant tensor:
#      x y z
#    x 1.932280 -0.000570 -0.009920 
#    y -0.000570 1.904840 -0.004060 
#    z -0.009920 -0.004060 1.912500 
# 
# From -- ./inp_files/202261.got.cif
#   From: 2010.06.25/outbox.cif.g09.slc.cpg/sg2_102_cif.got.tgz:202261.got - 2010.06.27 13:26:56.
