data_PCOD8037278
_publ_section_title
;
Structure prediction by ZEFSAII (Michael W. Deem and Ramdas Pophale) SiO2 
 PCOD8037278
Probable space group: P -1
;
_chemical_formula_sum "Si O2"
_cell_formula_units_Z 16
_cell_length_a 12.013240
_cell_length_b 9.088137
_cell_length_c 8.063223
_cell_angle_alpha 62.098772
_cell_angle_beta 110.630529
_cell_angle_gamma 121.668590
_cell_volume 655.457557
_symmetry_space_group_name_H-M "P -1"
_symmetry_group_IT_number 2
_symmetry_cell_setting 'triclinic'
loop_
_space_group_symop_operation_xyz
x,y,z
-x,-y,-z
loop_
_atom_site_type_symbol
_atom_site_label
_atom_site_fract_x
_atom_site_fract_y
_atom_site_fract_z
Si Si1 0.281661 0.097026 0.367717
Si Si2 0.084541 0.243210 0.284891
Si Si3 0.502700 0.499944 0.306100
Si Si4 0.182036 0.813094 0.734715
Si Si5 0.205793 0.424873 0.608293
Si Si6 0.232808 0.772978 0.293873
Si Si7 0.602638 0.207344 0.919073
Si Si8 0.941991 0.596857 0.145561
O O1 0.144490 0.108820 0.319115
O O2 0.406844 0.292857 0.307899
O O3 0.288594 0.971276 0.591173
O O4 0.275696 0.983133 0.260279
O O5 0.154086 0.335007 0.447479
O O6 0.925947 0.119610 0.286509
O O7 0.115226 0.393772 0.072851
O O8 0.500000 0.500000 0.500000
O O9 0.650575 0.565229 0.283084
O O10 0.451839 0.645851 0.130519
O O11 0.087164 0.613383 0.710909
O O12 0.264191 0.761174 0.936879
O O13 0.211976 0.630507 0.508288
O O14 0.115220 0.322999 0.774792
O O15 0.354352 0.761855 0.266002
O O16 0.098735 0.714827 0.150698
O O17 0.500000 0.000000 0.000000
#
# Coordination Sequence:
#
# PCOD8037278 Si02
#       8
#     2   2   2   2   2   2   2   2
#     4  12  27  45  75 113 153 197 255 314 383 450
#     4  12  25  47  76 112 152 198 256 317 382 448
#     4  12  25  50  76 106 153 209 250 309 387 454
#     4  12  24  46  76 110 149 203 253 312 380 453
#     4  12  25  47  83 106 154 209 248 313 384 450
#     4  12  24  48  75 113 154 196 254 319 376 451
#     4  12  28  50  79 108 149 204 258 305 384 464
#     4  12  25  47  78 116 150 200 258 316 379 449
#
# _framework density 24.410430000000002
#
# number of rings (size 3 to 8) (size 9 to 14) (size 15 to 20)
#    0.000    0.000    6.250    4.125    0.000    3.000 
#    0.000    1.875    2.750    0.000    0.000    0.000 
#    0.000    0.000    0.000    0.000    0.000    0.000 
#
# Total GULP energy -198305.422127 kJ/mol
# GULP energy per Si atom -12394.088883 kJ/mol
# Density = 2.435487 g / cm^3
# Si number density = 24.410430 Si / 1000 Ang^3
#
#
#
# Elastic Constant Matrix: (Units=GPa)
#
#
# Indices 1 2 3 4 5 6 
#
# 1 139.5734 41.7627 41.4805 11.1451 9.8928 7.2117
# 2 41.7627 132.8026 32.2071 -10.4198 9.1704 -1.0182
# 3 41.4805 32.2071 79.2519 -0.8076 -3.4133 7.4365
# 4 11.1451 -10.4198 -0.8076 29.5951 2.2418 -2.1174
# 5 9.8928 9.1704 -3.4133 2.2418 45.4588 -3.1621
# 6 7.2117 -1.0182 7.4365 -2.1174 -3.1621 33.7247
#
#
#
# Elastic Compliance Matrix: (Units=1/GPa)
#
#
# Indices 1 2 3 4 5 6 
#
# 1 0.009641 -0.002282 -0.004086 -0.004527 -0.001838 -0.001686
# 2 -0.002282 0.009395 -0.002794 0.004328 -0.001718 0.001498
# 3 -0.004086 -0.002794 0.016241 0.000631 0.002466 -0.002521
# 4 -0.004527 0.004328 0.000631 0.037373 -0.001463 0.003169
# 5 -0.001838 -0.001718 0.002466 -0.001463 0.023132 0.001875
# 6 -0.001686 0.001498 -0.002521 0.003169 0.001875 0.030988
#
#
# Mechanical properties :
#
#
# Convention : Reuss Voigt Hill
#
# Bulk Modulus (GPa) = 58.98581 64.72539 61.85560
# Shear Modulus (GPa) = 33.16872 37.50088 35.33480
#
# Velocity S-wave (km/s) = 3.69018 3.92377 3.80877
# Velocity P-wave (km/s) = 6.50947 6.86302 6.68858
#
# Compressibility (1/GPa) = 0.01695323
#
# Stress axis : x y z
#
# Youngs Moduli (GPa) = 103.72758 106.44061 61.57225
#
# Poissons Ratio (x) = 0.24290 0.25156
# Poissons Ratio (y) = 0.23671 0.17204
# Poissons Ratio (z) = 0.42379 0.29740
#
# Static dielectric constant tensor:
#      x y z
#    x 4.768400 0.036940 0.148220 
#    y 0.036940 4.569030 0.066930 
#    z 0.148220 0.066930 4.349640 
# 
# 
# High freq. dielectric constant tensor:
#      x y z
#    x 1.987510 -0.000430 0.002050 
#    y -0.000430 1.959300 -0.008350 
#    z 0.002050 -0.008350 1.965690 
# 
# From -- ./inp_files/242660.got.cif
#   From: 2010.06.25/outbox.cif.g09.slc.cpg/sg2_122_cif.got.tgz:242660.got - 2010.06.27 13:26:56.
