data_PCOD8037579
_publ_section_title
;
Structure prediction by ZEFSAII (Michael W. Deem and Ramdas Pophale) SiO2 
 PCOD8037579
Probable space group: P -1
;
_chemical_formula_sum "Si O2"
_cell_formula_units_Z 16
_cell_length_a 11.439666
_cell_length_b 8.912541
_cell_length_c 15.289460
_cell_angle_alpha 69.160024
_cell_angle_beta 37.578091
_cell_angle_gamma 49.202697
_cell_volume 673.873212
_symmetry_space_group_name_H-M "P -1"
_symmetry_group_IT_number 2
_symmetry_cell_setting 'triclinic'
loop_
_space_group_symop_operation_xyz
x,y,z
-x,-y,-z
loop_
_atom_site_type_symbol
_atom_site_label
_atom_site_fract_x
_atom_site_fract_y
_atom_site_fract_z
Si Si1 0.570330 0.478776 0.780354
Si Si2 0.778142 0.065954 0.055491
Si Si3 0.992265 0.635546 0.551343
Si Si4 0.943024 0.125650 0.772463
Si Si5 0.494948 0.099804 0.751649
Si Si6 0.447009 0.718050 0.479016
Si Si7 0.079952 0.391594 0.713015
Si Si8 0.183083 0.437035 0.985956
O O1 0.487448 0.696659 0.822196
O O2 0.713569 0.300937 0.808385
O O3 0.303299 0.548956 0.894326
O O4 0.748412 0.404436 0.605114
O O5 0.720683 0.911950 0.145908
O O6 0.849520 0.047425 0.915092
O O7 0.000000 0.000000 0.000000
O O8 0.000000 0.500000 0.500000
O O9 0.950130 0.573178 0.680451
O O10 0.771725 0.882170 0.619785
O O11 0.044508 0.224723 0.745447
O O12 0.160079 0.920576 0.630287
O O13 0.478716 0.265444 0.665738
O O14 0.429857 0.188934 0.871625
O O15 0.500000 0.500000 0.500000
O O16 0.624034 0.724698 0.438150
O O17 0.951357 0.521895 0.851615
O O18 0.000000 0.500000 0.000000
#
# Coordination Sequence:
#
# PCOD8037579 Si02
#       8
#     2   2   2   2   2   2   2   2
#     4  12  26  49  80 110 159 199 257 321 384 469
#     4  12  26  43  79 116 150 203 257 316 384 452
#     4  12  25  47  78 117 151 196 256 321 382 456
#     4  12  26  50  78 117 149 202 264 319 391 458
#     4  12  26  50  74 107 160 197 255 314 384 459
#     4  12  29  49  76 111 158 204 257 316 388 467
#     4  12  26  48  80 110 159 200 257 323 381 459
#     4  12  28  49  74 109 160 204 255 318 384 462
#
# _framework density 23.743337
#
# number of rings (size 3 to 8) (size 9 to 14) (size 15 to 20)
#    0.000    0.000    6.250    2.250    7.000    2.000 
#    0.000    0.000    0.000    0.000    0.000    0.000 
#    0.000    0.000    0.000    0.000    0.000    0.000 
#
# Total GULP energy -198363.441116 kJ/mol
# GULP energy per Si atom -12397.715070 kJ/mol
# Density = 2.368930 g / cm^3
# Si number density = 23.743337 Si / 1000 Ang^3
#
#
#
# Elastic Constant Matrix: (Units=GPa)
#
#
# Indices 1 2 3 4 5 6 
#
# 1 88.0928 30.7960 45.0396 -4.5128 7.6007 1.4264
# 2 30.7960 124.3474 61.8732 -5.2234 15.3819 -2.5997
# 3 45.0396 61.8732 164.0542 -7.6232 15.2571 -1.8264
# 4 -4.5128 -5.2234 -7.6232 47.2959 2.6948 1.6714
# 5 7.6007 15.3819 15.2571 2.6948 43.0217 -2.4513
# 6 1.4264 -2.5997 -1.8264 1.6714 -2.4513 27.5323
#
#
#
# Elastic Compliance Matrix: (Units=1/GPa)
#
#
# Indices 1 2 3 4 5 6 
#
# 1 0.013622 -0.001789 -0.002968 0.000713 -0.000827 -0.001188
# 2 -0.001789 0.010386 -0.003181 0.000571 -0.002269 0.000626
# 3 -0.002968 -0.003181 0.008270 0.000764 -0.001305 0.000239
# 4 0.000713 0.000571 0.000764 0.021564 -0.002033 -0.001422
# 5 -0.000827 -0.002269 -0.001305 -0.002033 0.024910 0.002083
# 6 -0.001188 0.000626 0.000239 -0.001422 0.002083 0.036729
#
#
# Mechanical properties :
#
#
# Convention : Reuss Voigt Hill
#
# Bulk Modulus (GPa) = 60.97580 72.43467 66.70523
# Shear Modulus (GPa) = 36.54304 39.48903 38.01603
#
# Velocity S-wave (km/s) = 3.92737 4.08261 4.00575
# Velocity P-wave (km/s) = 6.80461 7.26617 7.03917
#
# Compressibility (1/GPa) = 0.01639995
#
# Stress axis : x y z
#
# Youngs Moduli (GPa) = 73.41169 96.28508 120.92184
#
# Poissons Ratio (x) = 0.17229 0.35891
# Poissons Ratio (y) = 0.13136 0.38468
# Poissons Ratio (z) = 0.21790 0.30631
#
# Static dielectric constant tensor:
#      x y z
#    x 4.289700 0.146800 -0.049730 
#    y 0.146800 4.417280 0.115100 
#    z -0.049730 0.115100 4.773590 
# 
# 
# High freq. dielectric constant tensor:
#      x y z
#    x 1.934220 0.003420 -0.008840 
#    y 0.003420 1.945790 0.006900 
#    z -0.008840 0.006900 1.967660 
# 
# From -- ./inp_files/515301.got.cif
#   From: 2010.06.25/outbox.cif.g09.slc.cpg/sg2_258_cif.got.tgz:515301.got - 2010.06.27 13:26:56.
