data_PCOD8037943
_publ_section_title
;
Structure prediction by ZEFSAII (Michael W. Deem and Ramdas Pophale) SiO2 
 PCOD8037943
Probable space group: P -1
;
_chemical_formula_sum "Si O2"
_cell_formula_units_Z 16
_cell_length_a 11.220507
_cell_length_b 12.330550
_cell_length_c 11.868581
_cell_angle_alpha 55.658464
_cell_angle_beta 140.718426
_cell_angle_gamma 113.331323
_cell_volume 855.835761
_symmetry_space_group_name_H-M "P -1"
_symmetry_group_IT_number 2
_symmetry_cell_setting 'triclinic'
loop_
_space_group_symop_operation_xyz
x,y,z
-x,-y,-z
loop_
_atom_site_type_symbol
_atom_site_label
_atom_site_fract_x
_atom_site_fract_y
_atom_site_fract_z
Si Si1 0.489598 0.735420 0.841223
Si Si2 0.918327 0.142854 0.235787
Si Si3 0.220178 0.595212 0.581671
Si Si4 0.710874 0.009621 0.367851
Si Si5 0.887316 0.592601 0.196345
Si Si6 0.097477 0.557244 0.930991
Si Si7 0.537754 0.127337 0.882546
Si Si8 0.498279 0.618926 0.157104
O O1 0.369254 0.696937 0.667788
O O2 0.429638 0.890010 0.723109
O O3 0.710601 0.702319 0.993525
O O4 0.443545 0.653036 0.967138
O O5 0.803374 0.085391 0.288843
O O6 0.972714 0.288319 0.225183
O O7 0.763919 0.141948 0.021058
O O8 0.109544 0.055962 0.392122
O O9 0.146355 0.534173 0.678227
O O10 0.318882 0.480765 0.642955
O O11 0.054786 0.663903 0.341247
O O12 0.580550 0.891285 0.307199
O O13 0.950902 0.534194 0.156074
O O14 0.322384 0.549838 0.120934
O O15 0.000000 0.500000 0.000000
O O16 0.448073 0.253955 0.809676
O O17 0.500000 0.000000 0.000000
#
# Coordination Sequence:
#
# PCOD8037943 Si02
#       8
#     2   2   2   2   2   2   2   2
#     4  11  17  33  52  77 117 132 168 228 280 322
#     4   9  19  32  48  79 106 136 180 215 269 318
#     4  10  19  31  54  78 111 135 172 235 269 324
#     4  10  18  30  54  79 109 139 166 230 275 320
#     4  10  20  32  50  82 100 144 179 213 279 315
#     4  11  20  36  56  75 115 153 179 217 261 323
#     4   9  16  29  45  74 108 137 164 214 274 327
#     4  10  17  33  51  77 115 139 174 224 276 317
#
# _framework density 18.695176
#
# number of rings (size 3 to 8) (size 9 to 14) (size 15 to 20)
#    0.000    2.000    6.250    0.750    1.750    1.000 
#    6.750    0.625    0.000    0.750    0.000    4.375 
#    0.000    0.000    0.000    0.000    0.000    0.000 
#
# Total GULP energy -198228.608963 kJ/mol
# GULP energy per Si atom -12389.288060 kJ/mol
# Density = 1.865262 g / cm^3
# Si number density = 18.695176 Si / 1000 Ang^3
#
#
#
# Elastic Constant Matrix: (Units=GPa)
#
#
# Indices 1 2 3 4 5 6 
#
# 1 80.0528 41.4097 43.5040 0.7109 10.6886 -14.7595
# 2 41.4097 118.6877 62.0781 20.7809 15.5269 -24.1732
# 3 43.5040 62.0781 108.4591 20.3026 35.4014 -14.7726
# 4 0.7109 20.7809 20.3026 27.0893 -0.0402 2.7703
# 5 10.6886 15.5269 35.4014 -0.0402 23.1491 -4.5147
# 6 -14.7595 -24.1732 -14.7726 2.7703 -4.5147 22.4567
#
#
#
# Elastic Compliance Matrix: (Units=1/GPa)
#
#
# Indices 1 2 3 4 5 6 
#
# 1 0.019046 -0.003834 -0.010128 0.009792 0.009767 0.002484
# 2 -0.003834 0.016696 -0.003440 -0.011597 -0.001390 0.014340
# 3 -0.010128 -0.003440 0.036368 -0.025154 -0.047279 0.007162
# 4 0.009792 -0.011597 -0.025154 0.066850 0.037288 -0.023345
# 5 0.009767 -0.001390 -0.047279 0.037288 0.110311 -0.008602
# 6 0.002484 0.014340 0.007162 -0.023345 -0.008602 0.067461
#
#
# Mechanical properties :
#
#
# Convention : Reuss Voigt Hill
#
# Bulk Modulus (GPa) = 26.80598 66.79813 46.80206
# Shear Modulus (GPa) = 13.73741 25.21954 19.47847
#
# Velocity S-wave (km/s) = 2.71368 3.67684 3.23135
# Velocity P-wave (km/s) = 4.91816 7.33711 6.24586
#
# Compressibility (1/GPa) = 0.03730511
#
# Stress axis : x y z
#
# Youngs Moduli (GPa) = 52.50504 59.89588 27.49701
#
# Poissons Ratio (x) = 0.22966 0.27848
# Poissons Ratio (y) = 0.20132 0.09459
# Poissons Ratio (z) = 0.53175 0.20605
#
# Static dielectric constant tensor:
#      x y z
#    x 3.159590 -0.040300 0.637080 
#    y -0.040300 3.881560 0.710700 
#    z 0.637080 0.710700 4.240150 
# 
# 
# High freq. dielectric constant tensor:
#      x y z
#    x 1.678380 -0.021250 0.042550 
#    y -0.021250 1.724690 0.017810 
#    z 0.042550 0.017810 1.714970 
# 
# From -- ./inp_files/425529.got.cif
#   From: 2010.06.25/outbox.cif.g09.slc.cpg/sg2_213_cif.got.tgz:425529.got - 2010.06.27 13:26:56.
