data_PCOD8037314
_publ_section_title
;
Structure prediction by ZEFSAII (Michael W. Deem and Ramdas Pophale) SiO2 
 PCOD8037314
Probable space group: P -1
;
_chemical_formula_sum "Si O2"
_cell_formula_units_Z 14
_cell_length_a 9.082454
_cell_length_b 22.024866
_cell_length_c 9.115351
_cell_angle_alpha 149.038159
_cell_angle_beta 45.132316
_cell_angle_gamma 133.403561
_cell_volume 647.756086
_symmetry_space_group_name_H-M "P -1"
_symmetry_group_IT_number 2
_symmetry_cell_setting 'triclinic'
loop_
_space_group_symop_operation_xyz
x,y,z
-x,-y,-z
loop_
_atom_site_type_symbol
_atom_site_label
_atom_site_fract_x
_atom_site_fract_y
_atom_site_fract_z
Si Si1 0.095196 0.383826 0.703659
Si Si2 0.592789 0.200088 0.104706
Si Si3 0.203362 0.996432 0.947019
Si Si4 0.296326 0.323434 0.136229
Si Si5 0.510969 0.451973 0.731247
Si Si6 0.676930 0.205121 0.717536
Si Si7 0.935064 0.107055 0.854372
O O1 0.195131 0.356597 0.424774
O O2 0.271595 0.406338 0.750944
O O3 0.914888 0.269657 0.639215
O O4 0.000000 0.500000 0.000000
O O5 0.625468 0.339828 0.417317
O O6 0.668312 0.189678 0.864888
O O7 0.730802 0.139074 0.990196
O O8 0.344400 0.131615 0.154393
O O9 0.360847 0.925672 0.604885
O O10 0.122652 0.931735 0.020287
O O11 0.000000 0.000000 0.000000
O O12 0.353327 0.443901 0.249902
O O13 0.509050 0.278262 0.928612
O O14 0.132755 0.222406 0.951147
O O15 0.500000 0.500000 0.000000
O O16 0.000000 0.000000 0.500000
#
# Coordination Sequence:
#
# PCOD8037314 Si02
#       7
#     2   2   2   2   2   2   2
#     4  12  24  47  75 105 144 195 247 292 354 435
#     4  12  27  46  71 109 152 187 239 307 368 429
#     4  12  25  48  79 106 142 194 251 297 369 440
#     4  12  26  50  73 110 145 195 250 290 364 443
#     4  12  29  45  73 111 151 191 240 302 368 434
#     4  12  24  47  78 106 143 190 246 304 359 437
#     4  12  28  47  74 108 151 189 241 310 369 431
#
# _framework density 21.613074999999998
#
# number of rings (size 3 to 8) (size 9 to 14) (size 15 to 20)
#    0.000    0.000    4.286    5.571    8.000    0.571 
#    0.000    0.000    0.000    0.000    0.000    0.000 
#    0.000    0.000    0.000    0.000    0.000    0.000 
#
# Total GULP energy -173715.499424 kJ/mol
# GULP energy per Si atom -12408.249959 kJ/mol
# Density = 2.156388 g / cm^3
# Si number density = 21.613075 Si / 1000 Ang^3
#
#
#
# Elastic Constant Matrix: (Units=GPa)
#
#
# Indices 1 2 3 4 5 6 
#
# 1 161.0336 67.9452 61.7027 1.6628 -1.5296 -2.9822
# 2 67.9452 143.2291 41.4649 8.5105 -0.8076 5.7696
# 3 61.7027 41.4649 157.1874 8.3560 -5.3398 -1.0481
# 4 1.6628 8.5105 8.3560 31.7437 0.8890 -1.8308
# 5 -1.5296 -0.8076 -5.3398 0.8890 38.7446 6.3981
# 6 -2.9822 5.7696 -1.0481 -1.8308 6.3981 38.9358
#
#
#
# Elastic Compliance Matrix: (Units=1/GPa)
#
#
# Indices 1 2 3 4 5 6 
#
# 1 0.008670 -0.003499 -0.002548 0.001234 -0.000312 0.001223
# 2 -0.003499 0.009108 -0.000919 -0.002127 0.000269 -0.001787
# 3 -0.002548 -0.000919 0.007727 -0.001688 0.001000 -0.000095
# 4 0.001234 -0.002127 -0.001688 0.032611 -0.001326 0.002116
# 5 -0.000312 0.000269 0.001000 -0.001326 0.026713 -0.004489
# 6 0.001223 -0.001787 -0.000095 0.002116 -0.004489 0.026876
#
#
# Mechanical properties :
#
#
# Convention : Reuss Voigt Hill
#
# Bulk Modulus (GPa) = 86.41129 89.29729 87.85429
# Shear Modulus (GPa) = 38.61148 41.24065 39.92606
#
# Velocity S-wave (km/s) = 4.23127 4.37296 4.30270
# Velocity P-wave (km/s) = 7.99621 8.17943 8.08834
#
# Compressibility (1/GPa) = 0.01157256
#
# Stress axis : x y z
#
# Youngs Moduli (GPa) = 115.34402 109.79741 129.40876
#
# Poissons Ratio (x) = 0.38423 0.32975
# Poissons Ratio (y) = 0.40364 0.11887
# Poissons Ratio (z) = 0.29392 0.10086
#
# Static dielectric constant tensor:
#      x y z
#    x 4.037610 0.122170 0.012640 
#    y 0.122170 4.309150 0.091260 
#    z 0.012640 0.091260 4.471210 
# 
# 
# High freq. dielectric constant tensor:
#      x y z
#    x 1.860300 0.000430 0.000660 
#    y 0.000430 1.866620 0.005960 
#    z 0.000660 0.005960 1.871620 
# 
# From -- ./inp_files/25009.got.cif
#   From: 2010.06.25/outbox.cif.g09.slc.cpg/sg2_13_cif.got.tgz:25009.got - 2010.06.27 13:26:56.
