data_PCOD8037939
_publ_section_title
;
Structure prediction by ZEFSAII (Michael W. Deem and Ramdas Pophale) SiO2 
 PCOD8037939
Probable space group: P -1
;
_chemical_formula_sum "Si O2"
_cell_formula_units_Z 16
_cell_length_a 12.000000
_cell_length_b 18.000000
_cell_length_c 24.000000
_cell_angle_alpha 30.000000
_cell_angle_beta 140.000000
_cell_angle_gamma 160.000000
_cell_volume 851.251203
_symmetry_space_group_name_H-M "P -1"
_symmetry_group_IT_number 2
_symmetry_cell_setting 'triclinic'
loop_
_space_group_symop_operation_xyz
x,y,z
-x,-y,-z
loop_
_atom_site_type_symbol
_atom_site_label
_atom_site_fract_x
_atom_site_fract_y
_atom_site_fract_z
Si Si1 0.565382 0.964761 0.917831
Si Si2 0.745841 0.041749 0.055445
Si Si3 0.608503 0.631410 0.328456
Si Si4 0.131169 0.404888 0.067510
Si Si5 0.241806 0.611027 0.346567
Si Si6 0.924637 0.143885 0.448116
Si Si7 0.753368 0.405627 0.509574
Si Si8 0.055142 0.000886 0.674849
O O1 0.224299 0.781487 0.931694
O O2 0.772330 0.233355 0.785208
O O3 0.801073 0.079968 0.984738
O O4 0.456875 0.749724 0.975315
O O5 0.607772 0.777693 0.193615
O O6 0.093264 0.326341 0.039086
O O7 0.500000 0.000000 0.000000
O O8 0.731644 0.569901 0.384752
O O9 0.844962 0.824242 0.347849
O O10 0.229260 0.335579 0.398043
O O11 0.183404 0.306338 0.194133
O O12 0.148048 0.549018 0.416852
O O13 0.613124 0.815362 0.349079
O O14 0.982436 0.324747 0.395005
O O15 0.850351 0.946059 0.587173
O O16 0.606582 0.935208 0.421429
O O17 0.000000 0.500000 0.500000
#
# Coordination Sequence:
#
# PCOD8037939 Si02
#       8
#     2   2   2   2   2   2   2   2
#     4   9  17  28  48  74 111 145 168 216 272 330
#     4   9  17  29  49  83 115 137 174 225 282 327
#     4  10  19  36  58  87 118 141 183 238 275 331
#     4   8  16  26  43  80 115 138 163 218 279 324
#     4  10  20  37  54  82 117 142 186 233 275 334
#     4  11  20  35  61  82 107 150 182 234 291 322
#     4  12  26  38  53  83 116 151 190 228 277 338
#     4   9  16  32  57  84 115 140 179 234 284 327
#
# _framework density 18.795862
#
# number of rings (size 3 to 8) (size 9 to 14) (size 15 to 20)
#    0.000    2.250    2.500    3.375    1.750    4.500 
#    0.000    0.000    0.000    0.750    0.000    7.000 
#    0.000    0.000    0.000    0.000    0.000    0.000 
#
# Total GULP energy -198231.828656 kJ/mol
# GULP energy per Si atom -12389.489291 kJ/mol
# Density = 1.875308 g / cm^3
# Si number density = 18.795862 Si / 1000 Ang^3
#
#
#
# Elastic Constant Matrix: (Units=GPa)
#
#
# Indices 1 2 3 4 5 6 
#
# 1 117.2888 36.1830 51.5291 2.1601 8.0823 -16.9714
# 2 36.1830 58.9534 40.1764 3.6178 3.8174 -25.6597
# 3 51.5291 40.1764 149.5620 14.5734 11.6269 -18.2154
# 4 2.1601 3.6178 14.5734 21.6346 -12.3010 -0.8470
# 5 8.0823 3.8174 11.6269 -12.3010 26.9458 3.5162
# 6 -16.9714 -25.6597 -18.2154 -0.8470 3.5162 30.9395
#
#
#
# Elastic Compliance Matrix: (Units=1/GPa)
#
#
# Indices 1 2 3 4 5 6 
#
# 1 0.011307 -0.004778 -0.002400 0.000400 -0.001630 0.001023
# 2 -0.004778 0.033397 -0.003119 -0.006695 -0.008138 0.023982
# 3 -0.002400 -0.003119 0.010503 -0.011256 -0.008898 0.002983
# 4 0.000400 -0.006695 -0.011256 0.079189 0.043762 -0.014766
# 5 -0.001630 -0.008138 -0.008898 0.043762 0.065060 -0.019078
# 6 0.001023 0.023982 0.002983 -0.014766 -0.019078 0.056292
#
#
# Mechanical properties :
#
#
# Convention : Reuss Voigt Hill
#
# Bulk Modulus (GPa) = 28.89141 64.62013 46.75577
# Shear Modulus (GPa) = 17.36834 29.09834 23.23334
#
# Velocity S-wave (km/s) = 3.04312 3.93889 3.51962
# Velocity P-wave (km/s) = 5.26801 7.42570 6.43790
#
# Compressibility (1/GPa) = 0.03461237
#
# Stress axis : x y z
#
# Youngs Moduli (GPa) = 88.43811 29.94284 95.21294
#
# Poissons Ratio (x) = 0.14307 0.22850
# Poissons Ratio (y) = 0.42257 0.29700
# Poissons Ratio (z) = 0.21224 0.09340
#
# Static dielectric constant tensor:
#      x y z
#    x 3.478080 -0.560160 0.155760 
#    y -0.560160 3.338870 0.167920 
#    z 0.155760 0.167920 3.763580 
# 
# 
# High freq. dielectric constant tensor:
#      x y z
#    x 1.711140 -0.053710 0.015160 
#    y -0.053710 1.704200 0.017040 
#    z 0.015160 0.017040 1.747850 
# 
# From -- ./inp_files/271734.got.cif
#   From: 2010.06.25/outbox.ucp.g09.slc.cvg/sg2_136_cif.got.tgz:271734.got - 2010.06.28 11:54:26.
