data_PCOD8037763
_publ_section_title
;
Structure prediction by ZEFSAII (Michael W. Deem and Ramdas Pophale) SiO2 
 PCOD8037763
Probable space group: P -1
;
_chemical_formula_sum "Si O2"
_cell_formula_units_Z 14
_cell_length_a 8.237625
_cell_length_b 10.733055
_cell_length_c 8.948419
_cell_angle_alpha 58.344445
_cell_angle_beta 99.556748
_cell_angle_gamma 122.872334
_cell_volume 557.760528
_symmetry_space_group_name_H-M "P -1"
_symmetry_group_IT_number 2
_symmetry_cell_setting 'triclinic'
loop_
_space_group_symop_operation_xyz
x,y,z
-x,-y,-z
loop_
_atom_site_type_symbol
_atom_site_label
_atom_site_fract_x
_atom_site_fract_y
_atom_site_fract_z
Si Si1 0.932180 0.833672 0.696552
Si Si2 0.387637 0.533886 0.087660
Si Si3 0.787557 0.386006 0.464210
Si Si4 0.349964 0.375277 0.676710
Si Si5 0.412465 0.937043 0.193594
Si Si6 0.744378 0.244482 0.222564
Si Si7 0.047591 0.948300 0.189534
O O1 0.104004 0.803034 0.784732
O O2 0.750478 0.648403 0.728122
O O3 0.856009 0.880065 0.802746
O O4 0.000000 0.000000 0.500000
O O5 0.542421 0.670704 0.148788
O O6 0.500000 0.500000 0.000000
O O7 0.248313 0.595888 0.963089
O O8 0.726390 0.516499 0.317428
O O9 0.782678 0.279400 0.383737
O O10 0.000000 0.500000 0.500000
O O11 0.622317 0.249495 0.646511
O O12 0.500000 0.500000 0.500000
O O13 0.162697 0.206412 0.677662
O O14 0.534317 0.076585 0.253422
O O15 0.191079 0.885353 0.214506
O O16 0.500000 0.000000 0.000000
O O17 0.000000 0.000000 0.000000
#
# Coordination Sequence:
#
# PCOD8037763 Si02
#       7
#     2   2   2   2   2   2   2
#     4  12  28  48  77 110 155 204 262 321 392 470
#     4  12  26  50  76 113 154 203 259 327 399 467
#     4  12  28  51  78 112 160 206 266 331 394 470
#     4  12  28  48  79 111 157 204 260 325 400 469
#     4  12  28  49  79 117 159 207 263 324 402 473
#     4  12  28  49  82 117 156 210 268 328 398 475
#     4  12  26  49  72 111 156 198 253 322 388 469
#
# _framework density 25.100376000000001
#
# number of rings (size 3 to 8) (size 9 to 14) (size 15 to 20)
#    0.000    0.000    2.857    6.000   10.000    1.143 
#    0.000    0.000    0.000    0.000    0.000    0.000 
#    0.000    0.000    0.000    0.000    0.000    0.000 
#
# Total GULP energy -173499.904363 kJ/mol
# GULP energy per Si atom -12392.850312 kJ/mol
# Density = 2.504325 g / cm^3
# Si number density = 25.100376 Si / 1000 Ang^3
#
#
#
# Elastic Constant Matrix: (Units=GPa)
#
#
# Indices 1 2 3 4 5 6 
#
# 1 116.1688 18.6631 34.2376 -2.0494 14.7890 3.1938
# 2 18.6631 139.7505 41.1346 -1.4516 -2.4528 18.2229
# 3 34.2376 41.1346 113.2301 -5.8505 4.8550 8.5452
# 4 -2.0494 -1.4516 -5.8505 54.3836 -0.0838 -0.7566
# 5 14.7890 -2.4528 4.8550 -0.0838 42.5840 -5.7776
# 6 3.1938 18.2229 8.5452 -0.7566 -5.7776 45.3020
#
#
#
# Elastic Compliance Matrix: (Units=1/GPa)
#
#
# Indices 1 2 3 4 5 6 
#
# 1 0.009891 -0.000555 -0.002618 0.000066 -0.003221 -0.000390
# 2 -0.000555 0.008395 -0.002707 -0.000125 0.000611 -0.002751
# 3 -0.002618 -0.002707 0.010743 0.000973 -0.000580 -0.000811
# 4 0.000066 -0.000125 0.000973 0.018494 -0.000083 0.000161
# 5 -0.003221 0.000611 -0.000580 -0.000083 0.025150 0.003297
# 6 -0.000390 -0.002751 -0.000811 0.000161 0.003297 0.023784
#
#
# Mechanical properties :
#
#
# Convention : Reuss Voigt Hill
#
# Bulk Modulus (GPa) = 57.91035 61.91336 59.91185
# Shear Modulus (GPa) = 43.87003 46.79484 45.33244
#
# Velocity S-wave (km/s) = 4.18519 4.32245 4.25437
# Velocity P-wave (km/s) = 6.81733 7.04495 6.93207
#
# Compressibility (1/GPa) = 0.01726807
#
# Stress axis : x y z
#
# Youngs Moduli (GPa) = 101.10258 119.12320 93.08533
#
# Poissons Ratio (x) = 0.06615 0.24370
# Poissons Ratio (y) = 0.05614 0.25196
# Poissons Ratio (z) = 0.26469 0.32244
#
# Static dielectric constant tensor:
#      x y z
#    x 4.670210 -0.098680 0.317520 
#    y -0.098680 4.583060 -0.251980 
#    z 0.317520 -0.251980 4.778930 
# 
# 
# High freq. dielectric constant tensor:
#      x y z
#    x 2.008640 0.002980 0.009330 
#    y 0.002980 2.015580 -0.009110 
#    z 0.009330 -0.009110 2.005460 
# 
# From -- ./inp_files/185164.got.cif
#   From: 2010.06.25/outbox.cif.g09.slc.cpg/sg2_93_cif.got.tgz:185164.got - 2010.06.27 13:26:56.
