data_PCOD8037761
_publ_section_title
;
Structure prediction by ZEFSAII (Michael W. Deem and Ramdas Pophale) SiO2 
 PCOD8037761
Probable space group: P -1
;
_chemical_formula_sum "Si O2"
_cell_formula_units_Z 12
_cell_length_a 5.077246
_cell_length_b 14.074203
_cell_length_c 9.510945
_cell_angle_alpha 115.897640
_cell_angle_beta 74.179520
_cell_angle_gamma 66.495335
_cell_volume 471.293513
_symmetry_space_group_name_H-M "P -1"
_symmetry_group_IT_number 2
_symmetry_cell_setting 'triclinic'
loop_
_space_group_symop_operation_xyz
x,y,z
-x,-y,-z
loop_
_atom_site_type_symbol
_atom_site_label
_atom_site_fract_x
_atom_site_fract_y
_atom_site_fract_z
Si Si1 0.902629 0.140135 0.059022
Si Si2 0.880120 0.737915 0.445035
Si Si3 0.279173 0.853705 0.412178
Si Si4 0.063076 0.486454 0.817656
Si Si5 0.361064 0.221599 0.968010
Si Si6 0.672017 0.358000 0.449701
O O1 0.709510 0.172114 0.961106
O O2 0.667525 0.258273 0.281584
O O3 0.238222 0.133818 0.976279
O O4 0.000000 0.000000 0.000000
O O5 0.476084 0.833477 0.518776
O O6 0.099760 0.585776 0.259157
O O7 0.061420 0.798798 0.400596
O O8 0.937624 0.718708 0.596356
O O9 0.586473 0.782743 0.209108
O O10 0.000000 0.000000 0.500000
O O11 0.454717 0.381185 0.638794
O O12 0.920269 0.624618 0.852208
O O13 0.000000 0.500000 0.000000
O O14 0.500000 0.500000 0.500000
#
# Coordination Sequence:
#
# PCOD8037761 Si02
#       6
#     2   2   2   2   2   2
#     4  12  30  51  78 111 163 212 268 324 397 478
#     4  12  26  49  79 115 154 205 262 328 397 470
#     4  12  28  50  78 113 156 207 267 328 401 472
#     4  12  26  48  81 118 158 199 270 328 399 466
#     4  12  27  50  78 112 156 208 263 335 388 475
#     4  12  27  50  82 118 161 213 261 328 401 475
#
# _framework density 25.461839000000001
#
# number of rings (size 3 to 8) (size 9 to 14) (size 15 to 20)
#    0.000    0.000    5.000    3.000    4.667    4.000 
#    0.000    0.000    0.000    0.000    0.000    0.000 
#    0.000    0.000    0.000    0.000    0.000    0.000 
#
# Total GULP energy -148656.906563 kJ/mol
# GULP energy per Si atom -12388.075547 kJ/mol
# Density = 2.540389 g / cm^3
# Si number density = 25.461839 Si / 1000 Ang^3
#
#
#
# Elastic Constant Matrix: (Units=GPa)
#
#
# Indices 1 2 3 4 5 6 
#
# 1 145.7162 63.1680 31.5241 6.4052 27.9558 8.0000
# 2 63.1680 178.9178 24.1756 38.4504 34.3507 -0.7564
# 3 31.5241 24.1756 56.3915 9.2734 17.3090 0.1692
# 4 6.4052 38.4504 9.2734 51.5310 0.5041 14.1306
# 5 27.9558 34.3507 17.3090 0.5041 38.7259 4.7016
# 6 8.0000 -0.7564 0.1692 14.1306 4.7016 59.0697
#
#
#
# Elastic Compliance Matrix: (Units=1/GPa)
#
#
# Indices 1 2 3 4 5 6 
#
# 1 0.009312 -0.002758 -0.003575 0.001997 -0.002514 -0.001564
# 2 -0.002758 0.009429 0.000890 -0.007569 -0.007019 0.002861
# 3 -0.003575 0.000890 0.022784 -0.004860 -0.008605 0.002278
# 4 0.001997 -0.007569 -0.004860 0.027689 0.008008 -0.007615
# 5 -0.002514 -0.007019 -0.008605 0.008008 0.038174 -0.004679
# 6 -0.001564 0.002861 0.002278 -0.007615 -0.004679 0.019365
#
#
# Mechanical properties :
#
#
# Convention : Reuss Voigt Hill
#
# Bulk Modulus (GPa) = 32.63820 68.75120 50.69470
# Shear Modulus (GPa) = 33.81747 47.34248 40.57998
#
# Velocity S-wave (km/s) = 3.64835 4.31670 3.99652
# Velocity P-wave (km/s) = 5.53115 7.20454 6.42258
#
# Compressibility (1/GPa) = 0.03063895
#
# Stress axis : x y z
#
# Youngs Moduli (GPa) = 107.38814 106.05788 43.89016
#
# Poissons Ratio (x) = 0.29247 0.15692
# Poissons Ratio (y) = 0.29613 -0.03906
# Poissons Ratio (z) = 0.38395 -0.09439
#
# Static dielectric constant tensor:
#      x y z
#    x 4.677240 0.055410 0.336820 
#    y 0.055410 5.047930 0.129320 
#    z 0.336820 0.129320 4.703080 
# 
# 
# High freq. dielectric constant tensor:
#      x y z
#    x 2.021500 0.008830 0.015150 
#    y 0.008830 2.051570 0.000010 
#    z 0.015150 0.000010 2.010330 
# 
# From -- ./inp_files/134581.got.cif
#   From: 2010.06.25/outbox.cif.g09.slc.cpg/sg2_68_cif.got.tgz:134581.got - 2010.06.27 13:26:56.
