data_PCOD8037964
_publ_section_title
;
Structure prediction by ZEFSAII (Michael W. Deem and Ramdas Pophale) SiO2 
 PCOD8037964
Probable space group: P -1
;
_chemical_formula_sum "Si O2"
_cell_formula_units_Z 16
_cell_length_a 27.000000
_cell_length_b 9.000000
_cell_length_c 27.000000
_cell_angle_alpha 40.000000
_cell_angle_beta 170.000000
_cell_angle_gamma 140.000000
_cell_volume 728.340053
_symmetry_space_group_name_H-M "P -1"
_symmetry_group_IT_number 2
_symmetry_cell_setting 'triclinic'
loop_
_space_group_symop_operation_xyz
x,y,z
-x,-y,-z
loop_
_atom_site_type_symbol
_atom_site_label
_atom_site_fract_x
_atom_site_fract_y
_atom_site_fract_z
Si Si1 0.721575 0.709531 0.321308
Si Si2 0.348923 0.501503 0.251480
Si Si3 0.083858 0.066238 0.163923
Si Si4 0.670456 0.717513 0.084779
Si Si5 0.547595 0.849052 0.632824
Si Si6 0.109808 0.181344 0.271660
Si Si7 0.787819 0.253832 0.450943
Si Si8 0.223548 0.961485 0.801580
O O1 0.684369 0.437249 0.341668
O O2 0.965796 0.768450 0.586719
O O3 0.766149 0.835159 0.280454
O O4 0.471663 0.798978 0.083491
O O5 0.217354 0.307234 0.209772
O O6 0.419976 0.406336 0.291007
O O7 0.616771 0.631315 0.510612
O O8 0.139867 0.690167 0.983338
O O9 0.013970 0.095795 0.144675
O O10 0.283538 0.856098 0.408536
O O11 0.806753 0.980326 0.883184
O O12 0.935562 0.632753 0.336583
O O13 0.787617 0.919621 0.186350
O O14 0.500000 0.500000 0.000000
O O15 0.462424 0.825473 0.813754
O O16 0.500000 0.000000 0.500000
O O17 0.148491 0.969375 0.399391
#
# Coordination Sequence:
#
# PCOD8037964 Si02
#       8
#     2   2   2   2   2   2   2   2
#     4  10  21  38  62  90 123 150 194 256 302 368
#     4  11  21  40  65  93 125 165 215 260 304 366
#     4  11  21  39  66  95 123 166 218 259 304 371
#     4  12  24  42  68  95 119 162 206 260 309 380
#     4  10  20  37  63  95 124 157 210 271 309 352
#     4  12  25  41  60  91 130 172 203 258 318 372
#     4  12  26  43  61  91 132 165 205 257 322 371
#     4  10  21  37  64  94 114 150 203 249 304 358
#
# _framework density 21.967760999999999
#
# number of rings (size 3 to 8) (size 9 to 14) (size 15 to 20)
#    0.000    1.000    1.250    7.875    3.500    0.000 
#    0.000    7.500    0.000    0.000    0.000    0.000 
#    0.000    0.000    0.000    0.000    0.000    0.000 
#
# Total GULP energy -198310.835302 kJ/mol
# GULP energy per Si atom -12394.427206 kJ/mol
# Density = 2.191776 g / cm^3
# Si number density = 21.967761 Si / 1000 Ang^3
#
#
#
# Elastic Constant Matrix: (Units=GPa)
#
#
# Indices 1 2 3 4 5 6 
#
# 1 96.8366 76.0587 53.7324 2.7505 -19.6674 -38.2110
# 2 76.0587 93.1158 55.2838 -18.3652 -10.6849 -33.7341
# 3 53.7324 55.2838 150.7669 -3.1103 -9.4668 -26.0072
# 4 2.7505 -18.3652 -3.1103 44.7138 -16.6625 -1.5017
# 5 -19.6674 -10.6849 -9.4668 -16.6625 44.7516 4.1383
# 6 -38.2110 -33.7341 -26.0072 -1.5017 4.1383 35.4795
#
#
#
# Elastic Compliance Matrix: (Units=1/GPa)
#
#
# Indices 1 2 3 4 5 6 
#
# 1 0.041472 -0.029904 -0.001334 -0.012671 0.004777 0.014161
# 2 -0.029904 0.045386 -0.003770 0.022124 0.004337 0.008613
# 3 -0.001334 -0.003770 0.008697 -0.000849 -0.000085 0.001328
# 4 -0.012671 0.022124 -0.000849 0.037146 0.012731 0.006855
# 5 0.004777 0.004337 -0.000085 0.012731 0.029621 0.006290
# 6 0.014161 0.008613 0.001328 0.006855 0.006290 0.052156
#
#
# Mechanical properties :
#
#
# Convention : Reuss Voigt Hill
#
# Bulk Modulus (GPa) = 39.15584 78.98546 59.07065
# Shear Modulus (GPa) = 17.06442 35.36526 26.21484
#
# Velocity S-wave (km/s) = 2.79013 4.01667 3.45821
# Velocity P-wave (km/s) = 5.31438 7.58583 6.54933
#
# Compressibility (1/GPa) = 0.02553898
#
# Stress axis : x y z
#
# Youngs Moduli (GPa) = 24.11237 22.03345 114.98629
#
# Poissons Ratio (x) = 0.65889 0.15337
# Poissons Ratio (y) = 0.72106 0.43349
# Poissons Ratio (z) = 0.03216 0.08306
#
# Static dielectric constant tensor:
#      x y z
#    x 4.065350 -0.510500 0.159750 
#    y -0.510500 3.942900 -0.154500 
#    z 0.159750 -0.154500 4.196040 
# 
# 
# High freq. dielectric constant tensor:
#      x y z
#    x 1.852960 -0.034290 -0.004150 
#    y -0.034290 1.849440 -0.003070 
#    z -0.004150 -0.003070 1.872210 
# 
# From -- ./inp_files/621149.got.cif
#   From: 2010.06.25/outbox.ucp.g09.slc.cvg/sg2_311_cif.got.tgz:621149.got - 2010.06.28 11:54:26.
