data_PCOD8037432
_publ_section_title
;
Structure prediction by ZEFSAII (Michael W. Deem and Ramdas Pophale) SiO2 
 PCOD8037432
Probable space group: P -1
;
_chemical_formula_sum "Si O2"
_cell_formula_units_Z 14
_cell_length_a 27.392264
_cell_length_b 15.648461
_cell_length_c 15.579357
_cell_angle_alpha 161.748351
_cell_angle_beta 19.639663
_cell_angle_gamma 162.090951
_cell_volume 590.536406
_symmetry_space_group_name_H-M "P -1"
_symmetry_group_IT_number 2
_symmetry_cell_setting 'triclinic'
loop_
_space_group_symop_operation_xyz
x,y,z
-x,-y,-z
loop_
_atom_site_type_symbol
_atom_site_label
_atom_site_fract_x
_atom_site_fract_y
_atom_site_fract_z
Si Si1 0.859152 0.735478 0.548266
Si Si2 0.640551 0.020267 0.852534
Si Si3 0.115227 0.377441 0.164863
Si Si4 0.445958 0.687304 0.017751
Si Si5 0.836261 0.172785 0.138584
Si Si6 0.500797 0.807403 0.452472
Si Si7 0.846551 0.706319 0.169092
O O1 0.929921 0.551678 0.313268
O O2 0.690768 0.427186 0.490972
O O3 0.000000 0.000000 0.500000
O O4 0.802375 0.934822 0.888875
O O5 0.779645 0.950457 0.512719
O O6 0.725437 0.363160 0.090824
O O7 0.500000 0.000000 0.000000
O O8 0.559403 0.756055 0.810425
O O9 0.254768 0.542313 0.164714
O O10 0.000000 0.500000 0.500000
O O11 0.184399 0.460973 0.033468
O O12 0.000000 0.000000 0.000000
O O13 0.516359 0.004070 0.260750
O O14 0.434590 0.413809 0.833565
O O15 0.648410 0.057495 0.379394
O O16 0.958774 0.132469 0.964425
#
# Coordination Sequence:
#
# PCOD8037432 Si02
#       7
#     2   2   2   2   2   2   2
#     4  12  28  49  78 112 147 189 245 310 378 450
#     4  12  26  45  69 103 150 202 242 301 370 429
#     4  12  25  43  69 104 147 191 243 299 357 439
#     4  12  26  44  73 106 148 191 251 297 369 440
#     4  12  26  50  77 108 148 192 247 307 378 445
#     4  12  27  49  77 108 147 195 247 309 374 441
#     4  12  26  43  73 103 147 193 246 299 370 435
#
# _framework density 23.707260000000002
#
# number of rings (size 3 to 8) (size 9 to 14) (size 15 to 20)
#    0.000    0.000    1.429    8.571    8.000    0.000 
#    0.000    0.000    0.000    0.000    0.000    0.000 
#    0.000    0.000    0.000    0.000    0.000    0.000 
#
# Total GULP energy -173491.942328 kJ/mol
# GULP energy per Si atom -12392.281595 kJ/mol
# Density = 2.365330 g / cm^3
# Si number density = 23.707260 Si / 1000 Ang^3
#
#
#
# Elastic Constant Matrix: (Units=GPa)
#
#
# Indices 1 2 3 4 5 6 
#
# 1 99.2160 33.2019 40.1342 -5.6018 -1.4499 3.6517
# 2 33.2019 119.8090 32.0476 2.9098 -3.2574 1.2675
# 3 40.1342 32.0476 148.2101 8.8063 0.0267 -1.7573
# 4 -5.6018 2.9098 8.8063 44.4918 4.0677 -1.9672
# 5 -1.4499 -3.2574 0.0267 4.0677 46.0436 -0.0394
# 6 3.6517 1.2675 -1.7573 -1.9672 -0.0394 51.5373
#
#
#
# Elastic Compliance Matrix: (Units=1/GPa)
#
#
# Indices 1 2 3 4 5 6 
#
# 1 0.012306 -0.002682 -0.002897 0.002262 -0.000001 -0.000818
# 2 -0.002682 0.009469 -0.001277 -0.000769 0.000654 -0.000115
# 3 -0.002897 -0.001277 0.007921 -0.001828 -0.000024 0.000437
# 4 0.002262 -0.000769 -0.001828 0.023391 -0.002048 0.000688
# 5 -0.000001 0.000654 -0.000024 -0.002048 0.021946 -0.000078
# 6 -0.000818 -0.000115 0.000437 0.000688 -0.000078 0.019505
#
#
# Mechanical properties :
#
#
# Convention : Reuss Voigt Hill
#
# Bulk Modulus (GPa) = 62.55624 64.22251 63.38938
# Shear Modulus (GPa) = 44.02278 45.87128 44.94703
#
# Velocity S-wave (km/s) = 4.31389 4.40353 4.35894
# Velocity P-wave (km/s) = 7.15941 7.28034 7.22013
#
# Compressibility (1/GPa) = 0.01598562
#
# Stress axis : x y z
#
# Youngs Moduli (GPa) = 81.26124 105.60673 126.23914
#
# Poissons Ratio (x) = 0.28321 0.36566
# Poissons Ratio (y) = 0.21792 0.16122
# Poissons Ratio (z) = 0.23538 0.13487
#
# Static dielectric constant tensor:
#      x y z
#    x 11.436250 -2.961720 0.599670 
#    y -2.961720 5.796180 -0.058520 
#    z 0.599670 -0.058520 4.342880 
# 
# 
# High freq. dielectric constant tensor:
#      x y z
#    x 1.948760 -0.000760 -0.003480 
#    y -0.000760 1.959260 0.010670 
#    z -0.003480 0.010670 1.950780 
# 
# From -- ./inp_files/544231.got.cif
#   From: 2010.06.25/outbox.cif.g09.slc.cpg/sg2_273_cif.got.tgz:544231.got - 2010.06.27 13:26:56.
