data_PCOD8037483
_publ_section_title
;
Structure prediction by ZEFSAII (Michael W. Deem and Ramdas Pophale) SiO2 
 PCOD8037483
Probable space group: P -1
;
_chemical_formula_sum "Si O2"
_cell_formula_units_Z 16
_cell_length_a 11.768768
_cell_length_b 8.599764
_cell_length_c 9.030279
_cell_angle_alpha 86.285831
_cell_angle_beta 53.307114
_cell_angle_gamma 73.869832
_cell_volume 697.889174
_symmetry_space_group_name_H-M "P -1"
_symmetry_group_IT_number 2
_symmetry_cell_setting 'triclinic'
loop_
_space_group_symop_operation_xyz
x,y,z
-x,-y,-z
loop_
_atom_site_type_symbol
_atom_site_label
_atom_site_fract_x
_atom_site_fract_y
_atom_site_fract_z
Si Si1 0.938274 0.151296 0.433496
Si Si2 0.382352 0.792041 0.255809
Si Si3 0.837371 0.654519 0.219758
Si Si4 0.926205 0.911205 0.954435
Si Si5 0.639156 0.184114 0.073683
Si Si6 0.404012 0.083992 0.431846
Si Si7 0.685980 0.524423 0.087908
Si Si8 0.943133 0.563702 0.701369
O O1 0.770607 0.254808 0.599415
O O2 0.057864 0.251256 0.325817
O O3 0.947033 0.091997 0.264154
O O4 0.000000 0.000000 0.500000
O O5 0.517207 0.638064 0.207035
O O6 0.373115 0.951552 0.351665
O O7 0.395528 0.823938 0.071250
O O8 0.745347 0.794373 0.393499
O O9 0.746216 0.557508 0.200361
O O10 0.953187 0.528096 0.240263
O O11 0.921688 0.735489 0.028998
O O12 0.760874 0.014941 0.030098
O O13 0.000000 0.000000 0.000000
O O14 0.487291 0.194447 0.274629
O O15 0.692727 0.336402 0.075392
O O16 0.500000 0.000000 0.500000
O O17 0.777282 0.563622 0.873789
O O18 0.000000 0.500000 0.500000
#
# Coordination Sequence:
#
# PCOD8037483 Si02
#       8
#     2   2   2   2   2   2   2   2
#     4  12  28  48  76 111 145 194 249 308 373 443
#     4  12  27  49  75 109 153 196 253 310 379 442
#     4  12  27  50  74 111 154 203 248 310 380 446
#     4  12  25  45  75 106 150 198 253 303 369 446
#     4  12  27  45  75 109 150 202 249 314 372 442
#     4  12  26  47  74 111 148 195 250 308 374 443
#     4  12  27  50  75 109 156 198 250 310 382 444
#     4  12  30  49  77 110 151 198 252 309 376 449
#
# _framework density 22.926273999999999
#
# number of rings (size 3 to 8) (size 9 to 14) (size 15 to 20)
#    0.000    0.000    5.000    3.375    8.750    0.500 
#    0.000    0.000    0.000    0.000    0.000    0.000 
#    0.000    0.000    0.000    0.000    0.000    0.000 
#
# Total GULP energy -198314.941488 kJ/mol
# GULP energy per Si atom -12394.683843 kJ/mol
# Density = 2.287409 g / cm^3
# Si number density = 22.926274 Si / 1000 Ang^3
#
#
#
# Elastic Constant Matrix: (Units=GPa)
#
#
# Indices 1 2 3 4 5 6 
#
# 1 86.5758 30.0546 31.4606 -2.6298 17.9385 -5.5705
# 2 30.0546 119.6858 43.3738 -11.8999 10.3985 4.5322
# 3 31.4606 43.3738 164.1183 -7.6755 1.3821 -5.8883
# 4 -2.6298 -11.8999 -7.6755 47.4643 2.3533 -1.1194
# 5 17.9385 10.3985 1.3821 2.3533 54.2183 5.4761
# 6 -5.5705 4.5322 -5.8883 -1.1194 5.4761 43.0673
#
#
#
# Elastic Compliance Matrix: (Units=1/GPa)
#
#
# Indices 1 2 3 4 5 6 
#
# 1 0.014211 -0.002572 -0.001916 0.000108 -0.004408 0.002410
# 2 -0.002572 0.010120 -0.002131 0.002063 -0.000973 -0.001512
# 3 -0.001916 -0.002131 0.007071 0.000486 0.000754 0.000860
# 4 0.000108 0.002063 0.000486 0.021757 -0.001450 0.000613
# 5 -0.004408 -0.000973 0.000754 -0.001450 0.020436 -0.003001
# 6 0.002410 -0.001512 0.000860 0.000613 -0.003001 0.024205
#
#
# Mechanical properties :
#
#
# Convention : Reuss Voigt Hill
#
# Bulk Modulus (GPa) = 55.05232 64.46199 59.75716
# Shear Modulus (GPa) = 42.70124 46.64937 44.67530
#
# Velocity S-wave (km/s) = 4.32040 4.51572 4.41914
# Velocity P-wave (km/s) = 6.99662 7.44091 7.22218
#
# Compressibility (1/GPa) = 0.01816454
#
# Stress axis : x y z
#
# Youngs Moduli (GPa) = 70.36665 98.81233 141.42508
#
# Poissons Ratio (x) = 0.25413 0.27095
# Poissons Ratio (y) = 0.18097 0.30140
# Poissons Ratio (z) = 0.13481 0.21059
#
# Static dielectric constant tensor:
#      x y z
#    x 4.072570 0.086350 0.271930 
#    y 0.086350 4.548350 0.691530 
#    z 0.271930 0.691530 5.174480 
# 
# 
# High freq. dielectric constant tensor:
#      x y z
#    x 1.912940 0.005340 0.009240 
#    y 0.005340 1.910850 0.006240 
#    z 0.009240 0.006240 1.936770 
# 
# From -- ./inp_files/243844.got.cif
#   From: 2010.06.25/outbox.cif.g09.slc.cpg/sg2_122_cif.got.tgz:243844.got - 2010.06.27 13:26:56.
