data_PCOD8037427
_publ_section_title
;
Structure prediction by ZEFSAII (Michael W. Deem and Ramdas Pophale) SiO2 
 PCOD8037427
Probable space group: P -1
;
_chemical_formula_sum "Si O2"
_cell_formula_units_Z 14
_cell_length_a 10.962595
_cell_length_b 20.249072
_cell_length_c 14.668062
_cell_angle_alpha 159.988772
_cell_angle_beta 42.456669
_cell_angle_gamma 147.424210
_cell_volume 573.560431
_symmetry_space_group_name_H-M "P -1"
_symmetry_group_IT_number 2
_symmetry_cell_setting 'triclinic'
loop_
_space_group_symop_operation_xyz
x,y,z
-x,-y,-z
loop_
_atom_site_type_symbol
_atom_site_label
_atom_site_fract_x
_atom_site_fract_y
_atom_site_fract_z
Si Si1 0.639858 0.656689 0.382232
Si Si2 0.877024 0.744090 0.789729
Si Si3 0.091874 0.565057 0.343826
Si Si4 0.993369 0.106887 0.898084
Si Si5 0.694172 0.012511 0.464270
Si Si6 0.424533 0.074985 0.389272
Si Si7 0.043976 0.456842 0.026647
O O1 0.395870 0.397173 0.216709
O O2 0.589439 0.788774 0.509023
O O3 0.802644 0.618857 0.188641
O O4 0.769654 0.836092 0.631409
O O5 0.872378 0.546628 0.473742
O O6 0.038569 0.821481 0.891907
O O7 0.000000 0.000000 0.000000
O O8 0.306591 0.813342 0.605279
O O9 0.147177 0.611603 0.266444
O O10 0.059143 0.317853 0.064171
O O11 0.204596 0.097790 0.790128
O O12 0.500000 0.000000 0.500000
O O13 0.618019 0.858772 0.401511
O O14 0.904037 0.316138 0.771456
O O15 0.230998 0.771525 0.092863
#
# Coordination Sequence:
#
# PCOD8037427 Si02
#       7
#     2   2   2   2   2   2   2
#     4  12  27  47  81 107 145 201 244 309 368 440
#     4  12  30  51  74 107 151 198 249 306 371 439
#     4  12  27  47  77 108 151 201 245 303 366 445
#     4  12  26  49  76 108 147 193 257 294 370 447
#     4  12  25  42  73 113 153 192 234 312 371 430
#     4  12  25  44  75 109 150 189 243 303 372 434
#     4  12  25  46  74 115 148 185 249 303 375 430
#
# _framework density 24.408937000000002
#
# number of rings (size 3 to 8) (size 9 to 14) (size 15 to 20)
#    0.000    0.000    5.714    3.857    2.000    3.429 
#    0.000    0.000    0.000    0.000    0.000    0.000 
#    0.000    0.000    0.000    0.000    0.000    0.000 
#
# Total GULP energy -173505.312700 kJ/mol
# GULP energy per Si atom -12393.236621 kJ/mol
# Density = 2.435338 g / cm^3
# Si number density = 24.408937 Si / 1000 Ang^3
#
#
#
# Elastic Constant Matrix: (Units=GPa)
#
#
# Indices 1 2 3 4 5 6 
#
# 1 89.9998 35.9204 14.7686 3.3498 9.9665 0.5332
# 2 35.9204 112.8193 45.6244 16.3932 8.1461 -5.8896
# 3 14.7686 45.6244 100.5439 1.8926 4.2282 11.1497
# 4 3.3498 16.3932 1.8926 38.3588 -8.2908 -3.2666
# 5 9.9665 8.1461 4.2282 -8.2908 42.8391 3.8794
# 6 0.5332 -5.8896 11.1497 -3.2666 3.8794 38.0567
#
#
#
# Elastic Compliance Matrix: (Units=1/GPa)
#
#
# Indices 1 2 3 4 5 6 
#
# 1 0.012954 -0.004045 0.000090 0.000069 -0.002185 -0.000605
# 2 -0.004045 0.013653 -0.005801 -0.005416 -0.002462 0.003655
# 3 0.000090 -0.005801 0.013028 0.001545 0.000515 -0.004636
# 4 0.000069 -0.005416 0.001545 0.029773 0.006570 0.000594
# 5 -0.002185 -0.002462 0.000515 0.006570 0.025773 -0.002565
# 6 -0.000605 0.003655 -0.004636 0.000594 -0.002565 0.028521
#
#
# Mechanical properties :
#
#
# Convention : Reuss Voigt Hill
#
# Bulk Modulus (GPa) = 49.69152 55.10999 52.40075
# Shear Modulus (GPa) = 33.35093 37.65423 35.50258
#
# Velocity S-wave (km/s) = 3.70042 3.93191 3.81792
# Velocity P-wave (km/s) = 6.21768 6.57571 6.39920
#
# Compressibility (1/GPa) = 0.02012416
#
# Stress axis : x y z
#
# Youngs Moduli (GPa) = 77.19853 73.24329 76.75515
#
# Poissons Ratio (x) = 0.29624 -0.00694
# Poissons Ratio (y) = 0.31224 0.44527
# Poissons Ratio (z) = -0.00698 0.42490
#
# Static dielectric constant tensor:
#      x y z
#    x 4.700730 -0.019850 0.387980 
#    y -0.019850 4.507190 0.226730 
#    z 0.387980 0.226730 4.630310 
# 
# 
# High freq. dielectric constant tensor:
#      x y z
#    x 1.987990 -0.014050 0.018280 
#    y -0.014050 1.971910 0.012240 
#    z 0.018280 0.012240 1.977040 
# 
# From -- ./inp_files/263818.got.cif
#   From: 2010.06.25/outbox.cif.g09.slc.cpg/sg2_132_cif.got.tgz:263818.got - 2010.06.27 13:26:56.
