data_PCOD8037527
_publ_section_title
;
Structure prediction by ZEFSAII (Michael W. Deem and Ramdas Pophale) SiO2 
 PCOD8037527
Probable space group: P -1
;
_chemical_formula_sum "Si O2"
_cell_formula_units_Z 16
_cell_length_a 8.882105
_cell_length_b 12.040735
_cell_length_c 17.413142
_cell_angle_alpha 147.629170
_cell_angle_beta 130.948576
_cell_angle_gamma 51.000479
_cell_volume 739.737899
_symmetry_space_group_name_H-M "P -1"
_symmetry_group_IT_number 2
_symmetry_cell_setting 'triclinic'
loop_
_space_group_symop_operation_xyz
x,y,z
-x,-y,-z
loop_
_atom_site_type_symbol
_atom_site_label
_atom_site_fract_x
_atom_site_fract_y
_atom_site_fract_z
Si Si1 0.108272 0.316625 0.377959
Si Si2 0.218315 0.981706 0.595594
Si Si3 0.844104 0.639346 0.863341
Si Si4 0.840322 0.074955 0.057647
Si Si5 0.551987 0.578500 0.864011
Si Si6 0.473916 0.167803 0.520172
Si Si7 0.729379 0.432674 0.556402
Si Si8 0.702615 0.558582 0.065744
O O1 0.283503 0.173398 0.402668
O O2 0.157455 0.437135 0.387844
O O3 0.000000 0.500000 0.500000
O O4 0.956226 0.163246 0.217109
O O5 0.341998 0.883720 0.505956
O O6 0.230168 0.824485 0.582090
O O7 0.283466 0.198260 0.770615
O O8 0.000000 0.000000 0.500000
O O9 0.718344 0.641194 0.899919
O O10 0.781605 0.477006 0.687213
O O11 0.089156 0.590657 0.924423
O O12 0.761636 0.871106 0.940007
O O13 0.636224 0.241019 0.065607
O O14 0.000000 0.000000 0.000000
O O15 0.455061 0.393807 0.686284
O O16 0.687438 0.507576 0.941788
O O17 0.500000 0.000000 0.500000
O O18 0.500000 0.500000 0.500000
O O19 0.500000 0.500000 0.000000
#
# Coordination Sequence:
#
# PCOD8037527 Si02
#       8
#     2   2   2   2   2   2   2   2
#     4  12  27  48  72 109 145 195 250 308 376 445
#     4  12  26  48  75 109 145 202 247 304 376 439
#     4  12  26  49  71 108 149 197 249 313 370 450
#     4  12  27  45  75 104 147 191 246 310 381 443
#     4  12  26  49  70 108 148 194 249 305 374 447
#     4  12  27  47  73 106 149 189 247 308 374 449
#     4  12  25  46  77 102 153 191 256 307 371 445
#     4  12  28  46  76 110 154 197 253 306 378 445
#
# _framework density 21.629280999999999
#
# number of rings (size 3 to 8) (size 9 to 14) (size 15 to 20)
#    0.000    0.000    6.250    2.250    8.750    1.000 
#    0.000    0.000    0.000    0.000    0.000    0.000 
#    0.000    0.000    0.000    0.000    0.000    0.000 
#
# Total GULP energy -198271.054132 kJ/mol
# GULP energy per Si atom -12391.940883 kJ/mol
# Density = 2.158005 g / cm^3
# Si number density = 21.629281 Si / 1000 Ang^3
#
#
#
# Elastic Constant Matrix: (Units=GPa)
#
#
# Indices 1 2 3 4 5 6 
#
# 1 101.0617 19.1266 -0.5082 -7.5397 -4.8709 -6.6911
# 2 19.1266 110.9153 5.1030 -6.8831 4.4533 -9.6839
# 3 -0.5082 5.1030 90.0404 -5.1168 1.9767 -6.0409
# 4 -7.5397 -6.8831 -5.1168 49.0727 3.2273 5.2635
# 5 -4.8709 4.4533 1.9767 3.2273 41.9118 1.6687
# 6 -6.6911 -9.6839 -6.0409 5.2635 1.6687 51.7202
#
#
#
# Elastic Compliance Matrix: (Units=1/GPa)
#
#
# Indices 1 2 3 4 5 6 
#
# 1 0.010429 -0.001707 0.000257 0.001211 0.001252 0.000896
# 2 -0.001707 0.009569 -0.000369 0.000971 -0.001331 0.001472
# 3 0.000257 -0.000369 0.011283 0.001075 -0.000593 0.001192
# 4 0.001211 0.000971 0.001075 0.021091 -0.001572 -0.001632
# 5 0.001252 -0.001331 -0.000593 -0.001572 0.024327 -0.000781
# 6 0.000896 0.001472 0.001192 -0.001632 -0.000781 0.020057
#
#
# Mechanical properties :
#
#
# Convention : Reuss Voigt Hill
#
# Bulk Modulus (GPa) = 36.17480 38.82893 37.50187
# Shear Modulus (GPa) = 45.61704 47.09401 46.35552
#
# Velocity S-wave (km/s) = 4.59741 4.67125 4.63448
# Velocity P-wave (km/s) = 6.70394 6.86185 6.78336
#
# Compressibility (1/GPa) = 0.02764355
#
# Stress axis : x y z
#
# Youngs Moduli (GPa) = 95.88293 104.49885 88.63224
#
# Poissons Ratio (x) = 0.17840 -0.02278
# Poissons Ratio (y) = 0.16369 0.03269
# Poissons Ratio (z) = -0.02465 0.03854
#
# Static dielectric constant tensor:
#      x y z
#    x 3.626180 -0.110210 0.154760 
#    y -0.110210 3.994410 0.048450 
#    z 0.154760 0.048450 3.988320 
# 
# 
# High freq. dielectric constant tensor:
#      x y z
#    x 1.859610 -0.001920 0.004410 
#    y -0.001920 1.867580 -0.000420 
#    z 0.004410 -0.000420 1.864840 
# 
# From -- ./inp_files/279134.got.cif
#   From: 2010.06.25/outbox.cif.g09.slc.cpg/sg2_140_cif.got.tgz:279134.got - 2010.06.27 13:26:56.
