data_PCOD8037741
_publ_section_title
;
Structure prediction by ZEFSAII (Michael W. Deem and Ramdas Pophale) SiO2 
 PCOD8037741
Probable space group: P -1
;
_chemical_formula_sum "Si O2"
_cell_formula_units_Z 10
_cell_length_a 12.370084
_cell_length_b 12.560596
_cell_length_c 12.171166
_cell_angle_alpha 158.058009
_cell_angle_beta 143.233436
_cell_angle_gamma 34.994937
_cell_volume 397.696015
_symmetry_space_group_name_H-M "P -1"
_symmetry_group_IT_number 2
_symmetry_cell_setting 'triclinic'
loop_
_space_group_symop_operation_xyz
x,y,z
-x,-y,-z
loop_
_atom_site_type_symbol
_atom_site_label
_atom_site_fract_x
_atom_site_fract_y
_atom_site_fract_z
Si Si1 0.140800 0.661626 0.802720
Si Si2 0.473061 0.332708 0.597798
Si Si3 0.279960 0.319263 0.807576
Si Si4 0.320492 0.161859 0.084038
Si Si5 0.930878 0.202459 0.531668
O O1 0.321059 0.567756 0.778201
O O2 0.216923 0.564349 0.893816
O O3 0.000000 0.500000 0.500000
O O4 0.000000 0.000000 0.000000
O O5 0.379105 0.259601 0.341843
O O6 0.574245 0.006561 0.426877
O O7 0.621673 0.513014 0.864632
O O8 0.104163 0.245161 0.646198
O O9 0.200835 0.469471 0.218526
O O10 0.500000 0.000000 0.000000
O O11 0.190152 0.948874 0.789807
O O12 0.000000 0.000000 0.500000
#
# Coordination Sequence:
#
# PCOD8037741 Si02
#       5
#     2   2   2   2   2
#     4  12  26  48  76 112 149 192 245 306 370 442
#     4  12  26  48  76 110 149 196 245 305 371 441
#     4  12  26  48  76 110 149 196 245 305 371 441
#     4  12  27  49  74 108 149 198 250 306 366 437
#     4  12  27  49  74 108 149 198 250 306 366 437
#
# _framework density 25.144832999999998
#
# number of rings (size 3 to 8) (size 9 to 14) (size 15 to 20)
#    0.000    0.000    0.000    9.600    0.000    6.400 
#    0.000    0.000    0.000    0.000    0.000    0.000 
#    0.000    0.000    0.000    0.000    0.000    0.000 
#
# Total GULP energy -123972.010977 kJ/mol
# GULP energy per Si atom -12397.201098 kJ/mol
# Density = 2.508760 g / cm^3
# Si number density = 25.144833 Si / 1000 Ang^3
#
#
#
# Elastic Constant Matrix: (Units=GPa)
#
#
# Indices 1 2 3 4 5 6 
#
# 1 162.6163 89.1416 73.2743 0.5255 1.8096 -2.7867
# 2 89.1416 136.2092 55.3195 40.0594 -1.7686 -30.3085
# 3 73.2743 55.3195 200.6892 1.9341 24.2392 -28.7232
# 4 0.5255 40.0594 1.9341 79.3815 -18.4277 -2.1005
# 5 1.8096 -1.7686 24.2392 -18.4277 43.2346 2.9196
# 6 -2.7867 -30.3085 -28.7232 -2.1005 2.9196 30.1052
#
#
#
# Elastic Compliance Matrix: (Units=1/GPa)
#
#
# Indices 1 2 3 4 5 6 
#
# 1 0.016755 -0.015610 -0.005522 0.008988 0.006902 -0.019475
# 2 -0.015610 0.026660 0.003612 -0.014644 -0.008457 0.028640
# 3 -0.005522 0.003612 0.008488 -0.003201 -0.006530 0.011634
# 4 0.008988 -0.014644 -0.003201 0.022216 0.011404 -0.016521
# 5 0.006902 -0.008457 -0.006530 0.011404 0.032126 -0.016425
# 6 -0.019475 0.028640 0.011634 -0.016521 -0.016425 0.071787
#
#
# Mechanical properties :
#
#
# Convention : Reuss Voigt Hill
#
# Bulk Modulus (GPa) = 59.30075 103.88726 81.59400
# Shear Modulus (GPa) = 22.86316 49.32954 36.09635
#
# Velocity S-wave (km/s) = 3.01866 4.43404 3.79296
# Velocity P-wave (km/s) = 5.98203 8.22311 7.19042
#
# Compressibility (1/GPa) = 0.01686319
#
# Stress axis : x y z
#
# Youngs Moduli (GPa) = 59.68391 37.50928 117.81359
#
# Poissons Ratio (x) = 0.58551 0.65060
# Poissons Ratio (y) = 0.93164 -0.42555
# Poissons Ratio (z) = 0.32959 -0.13549
#
# Static dielectric constant tensor:
#      x y z
#    x 6.439310 1.298480 2.628280 
#    y 1.298480 6.629280 2.176250 
#    z 2.628280 2.176250 9.085780 
# 
# 
# High freq. dielectric constant tensor:
#      x y z
#    x 1.988300 -0.016170 0.008520 
#    y -0.016170 2.031270 0.004860 
#    z 0.008520 0.004860 2.040190 
# 
# From -- ./inp_files/164537.got.cif
#   From: 2010.06.25/outbox.cif.g09.slc.cpg/sg2_83_cif.got.tgz:164537.got - 2010.06.27 13:26:56.
