data_PCOD8037991
_publ_section_title
;
Structure prediction by ZEFSAII (Michael W. Deem and Ramdas Pophale) SiO2 
 PCOD8037991
Probable space group: P -1
;
_chemical_formula_sum "Si O2"
_cell_formula_units_Z 16
_cell_length_a 17.130430
_cell_length_b 11.161170
_cell_length_c 17.905879
_cell_angle_alpha 29.681068
_cell_angle_beta 148.886057
_cell_angle_gamma 146.917869
_cell_volume 814.639930
_symmetry_space_group_name_H-M "P -1"
_symmetry_group_IT_number 2
_symmetry_cell_setting 'triclinic'
loop_
_space_group_symop_operation_xyz
x,y,z
-x,-y,-z
loop_
_atom_site_type_symbol
_atom_site_label
_atom_site_fract_x
_atom_site_fract_y
_atom_site_fract_z
Si Si1 0.294829 0.935328 0.666385
Si Si2 0.973244 0.810650 0.379512
Si Si3 0.555700 0.457673 0.986833
Si Si4 0.168171 0.798235 0.410927
Si Si5 0.328065 0.085126 0.892161
Si Si6 0.466045 0.169358 0.541415
Si Si7 0.519832 0.728995 0.235052
Si Si8 0.364522 0.021887 0.320084
O O1 0.124118 0.915149 0.503201
O O2 0.448005 0.116259 0.643444
O O3 0.329188 0.081614 0.694736
O O4 0.294197 0.642845 0.830481
O O5 0.870568 0.505383 0.470117
O O6 0.863892 0.976533 0.223128
O O7 0.028104 0.853452 0.313811
O O8 0.404384 0.225369 0.954994
O O9 0.606366 0.698103 0.841800
O O10 0.500000 0.500000 0.000000
O O11 0.196594 0.930547 0.279860
O O12 0.329782 0.915873 0.529578
O O13 0.406147 0.275095 0.783650
O O14 0.367469 0.824202 0.055647
O O15 0.443074 0.436714 0.360269
O O16 0.637059 0.168683 0.648199
O O17 0.500000 0.000000 0.500000
#
# Coordination Sequence:
#
# PCOD8037991 Si02
#       8
#     2   2   2   2   2   2   2   2
#     4  10  22  36  56  87 119 157 188 247 293 345
#     4  10  20  37  59  83 121 158 197 230 306 360
#     4  11  21  36  61  91 119 147 198 253 295 337
#     4   9  19  31  56  85 113 152 192 234 288 359
#     4  10  21  37  59  84 111 163 197 243 288 347
#     4  10  17  33  56  85 115 150 193 245 291 340
#     4  10  21  37  59  85 114 149 215 244 276 341
#     4  10  18  32  58  87 115 149 191 239 293 343
#
# _framework density 19.64058
#
# number of rings (size 3 to 8) (size 9 to 14) (size 15 to 20)
#    0.000    2.000    1.250    4.125    3.500    0.500 
#    0.000    3.125    0.000    1.500    0.000    0.000 
#    0.000    0.000    0.000    0.000    0.000    0.000 
#
# Total GULP energy -198266.905304 kJ/mol
# GULP energy per Si atom -12391.681582 kJ/mol
# Density = 1.959588 g / cm^3
# Si number density = 19.640580 Si / 1000 Ang^3
#
#
#
# Elastic Constant Matrix: (Units=GPa)
#
#
# Indices 1 2 3 4 5 6 
#
# 1 128.0796 28.0326 51.9766 0.7556 3.7571 10.7912
# 2 28.0326 58.2933 28.0702 -4.4751 0.4067 -0.2593
# 3 51.9766 28.0702 106.0220 -11.7735 6.1975 14.5420
# 4 0.7556 -4.4751 -11.7735 33.3459 7.6087 -8.2540
# 5 3.7571 0.4067 6.1975 7.6087 35.4249 -1.3313
# 6 10.7912 -0.2593 14.5420 -8.2540 -1.3313 29.1544
#
#
#
# Elastic Compliance Matrix: (Units=1/GPa)
#
#
# Indices 1 2 3 4 5 6 
#
# 1 0.010466 -0.003217 -0.004253 -0.002852 0.000186 -0.002580
# 2 -0.003217 0.020977 -0.004332 0.002280 0.000527 0.004207
# 3 -0.004253 -0.004332 0.013883 0.004004 -0.002953 -0.004390
# 4 -0.002852 0.002280 0.004004 0.035734 -0.007767 0.008841
# 5 0.000186 0.000527 -0.002953 -0.007767 0.030410 0.000598
# 6 -0.002580 0.004207 -0.004390 0.008841 0.000598 0.040013
#
#
# Mechanical properties :
#
#
# Convention : Reuss Voigt Hill
#
# Bulk Modulus (GPa) = 46.03179 56.50597 51.26888
# Shear Modulus (GPa) = 27.42308 31.87274 29.64791
#
# Velocity S-wave (km/s) = 3.74069 4.03277 3.88947
# Velocity P-wave (km/s) = 6.49192 7.10752 6.80668
#
# Compressibility (1/GPa) = 0.02172412
#
# Stress axis : x y z
#
# Youngs Moduli (GPa) = 95.54360 47.67025 72.02886
#
# Poissons Ratio (x) = 0.15335 0.30635
# Poissons Ratio (y) = 0.30735 0.31200
# Poissons Ratio (z) = 0.40636 0.20649
#
# Static dielectric constant tensor:
#      x y z
#    x 4.329340 0.076440 -0.111230 
#    y 0.076440 3.302670 -0.124210 
#    z -0.111230 -0.124210 3.555980 
# 
# 
# High freq. dielectric constant tensor:
#      x y z
#    x 1.788540 -0.010200 -0.009500 
#    y -0.010200 1.732580 -0.016940 
#    z -0.009500 -0.016940 1.751530 
# 
# From -- ./inp_files/273082.got.cif
#   From: 2010.06.25/outbox.cif.g09.slc.cpg/sg2_137_cif.got.tgz:273082.got - 2010.06.27 13:26:56.
