data_PCOD8037334
_publ_section_title
;
Structure prediction by ZEFSAII (Michael W. Deem and Ramdas Pophale) SiO2 
 PCOD8037334
Probable space group: P -1
;
_chemical_formula_sum "Si O2"
_cell_formula_units_Z 14
_cell_length_a 16.131372
_cell_length_b 9.112189
_cell_length_c 14.985856
_cell_angle_alpha 143.293044
_cell_angle_beta 151.324275
_cell_angle_gamma 36.483367
_cell_volume 591.620168
_symmetry_space_group_name_H-M "P -1"
_symmetry_group_IT_number 2
_symmetry_cell_setting 'triclinic'
loop_
_space_group_symop_operation_xyz
x,y,z
-x,-y,-z
loop_
_atom_site_type_symbol
_atom_site_label
_atom_site_fract_x
_atom_site_fract_y
_atom_site_fract_z
Si Si1 0.795359 0.401406 0.449887
Si Si2 0.221716 0.134786 0.467274
Si Si3 0.082478 0.971978 0.767329
Si Si4 0.449686 0.290209 0.132914
Si Si5 0.416968 0.110034 0.206645
Si Si6 0.123905 0.471286 0.220934
Si Si7 0.128440 0.782821 0.081606
O O1 0.776309 0.608954 0.455274
O O2 0.905180 0.125497 0.371566
O O3 0.599268 0.411456 0.304483
O O4 0.897534 0.457960 0.659923
O O5 0.021345 0.180980 0.345310
O O6 0.379542 0.072782 0.661122
O O7 0.261977 0.902405 0.319223
O O8 0.961848 0.277878 0.799602
O O9 0.288733 0.934983 0.979545
O O10 0.437538 0.272759 0.219456
O O11 0.255887 0.506869 0.021218
O O12 0.500000 0.000000 0.000000
O O13 0.329652 0.315586 0.304435
O O14 0.006370 0.279761 0.004234
O O15 0.000000 0.000000 0.000000
#
# Coordination Sequence:
#
# PCOD8037334 Si02
#       7
#     2   2   2   2   2   2   2
#     4  12  27  47  74 110 152 198 250 312 387 451
#     4  12  28  46  76 113 152 201 253 312 382 457
#     4  12  25  50  73 109 151 196 255 317 378 448
#     4  12  26  50  77 111 151 200 260 312 380 457
#     4  12  26  48  76 110 146 199 256 312 374 452
#     4  12  24  47  79 105 146 201 258 311 374 456
#     4  12  25  46  77 113 153 199 256 316 377 450
#
# _framework density 23.663833
#
# number of rings (size 3 to 8) (size 9 to 14) (size 15 to 20)
#    0.000    0.000    5.714    3.857    2.000    4.571 
#    2.571    0.000    0.000    0.000    0.000    0.000 
#    0.000    0.000    0.000    0.000    0.000    0.000 
#
# Total GULP energy -173592.121672 kJ/mol
# GULP energy per Si atom -12399.437262 kJ/mol
# Density = 2.360997 g / cm^3
# Si number density = 23.663833 Si / 1000 Ang^3
#
#
#
# Elastic Constant Matrix: (Units=GPa)
#
#
# Indices 1 2 3 4 5 6 
#
# 1 130.3089 39.1950 42.9184 4.4544 24.2553 0.6350
# 2 39.1950 108.1453 30.7099 -3.9688 5.7429 5.2563
# 3 42.9184 30.7099 117.0666 -9.2119 13.4140 5.4076
# 4 4.4544 -3.9688 -9.2119 33.0500 0.7569 -2.2380
# 5 24.2553 5.7429 13.4140 0.7569 55.1617 10.7624
# 6 0.6350 5.2563 5.4076 -2.2380 10.7624 36.3354
#
#
#
# Elastic Compliance Matrix: (Units=1/GPa)
#
#
# Indices 1 2 3 4 5 6 
#
# 1 0.010249 -0.002875 -0.002825 -0.002316 -0.003809 0.001643
# 2 -0.002875 0.010847 -0.001733 0.001091 0.000822 -0.001437
# 3 -0.002825 -0.001733 0.010423 0.003049 -0.001004 -0.000766
# 4 -0.002316 0.001091 0.003049 0.031668 -0.000574 0.001549
# 5 -0.003809 0.000822 -0.001004 -0.000574 0.021182 -0.006212
# 6 0.001643 -0.001437 -0.000766 0.001549 -0.006212 0.029750
#
#
# Mechanical properties :
#
#
# Convention : Reuss Voigt Hill
#
# Bulk Modulus (GPa) = 60.05041 64.57416 62.31228
# Shear Modulus (GPa) = 37.16423 41.08925 39.12674
#
# Velocity S-wave (km/s) = 3.96726 4.17150 4.07066
# Velocity P-wave (km/s) = 6.81301 7.10980 6.96299
#
# Compressibility (1/GPa) = 0.01665268
#
# Stress axis : x y z
#
# Youngs Moduli (GPa) = 97.56579 92.18879 95.94205
#
# Poissons Ratio (x) = 0.26505 0.27104
# Poissons Ratio (y) = 0.28051 0.16631
# Poissons Ratio (z) = 0.27563 0.15981
#
# Static dielectric constant tensor:
#      x y z
#    x 4.433090 -0.102670 0.069140 
#    y -0.102670 4.114180 0.186420 
#    z 0.069140 0.186420 4.475830 
# 
# 
# High freq. dielectric constant tensor:
#      x y z
#    x 1.956350 -0.001780 0.006150 
#    y -0.001780 1.927920 0.012410 
#    z 0.006150 0.012410 1.945480 
# 
# From -- ./inp_files/243156.got.cif
#   From: 2010.06.25/outbox.cif.g09.slc.cpg/sg2_122_cif.got.tgz:243156.got - 2010.06.27 13:26:56.
