data_PCOD8037242
_publ_section_title
;
Structure prediction by ZEFSAII (Michael W. Deem and Ramdas Pophale) SiO2 
 PCOD8037242
Probable space group: P -1
;
_chemical_formula_sum "Si O2"
_cell_formula_units_Z 16
_cell_length_a 13.504904
_cell_length_b 9.608275
_cell_length_c 8.988686
_cell_angle_alpha 41.523376
_cell_angle_beta 65.214266
_cell_angle_gamma 79.544900
_cell_volume 684.786766
_symmetry_space_group_name_H-M "P -1"
_symmetry_group_IT_number 2
_symmetry_cell_setting 'triclinic'
loop_
_space_group_symop_operation_xyz
x,y,z
-x,-y,-z
loop_
_atom_site_type_symbol
_atom_site_label
_atom_site_fract_x
_atom_site_fract_y
_atom_site_fract_z
Si Si1 0.102835 0.405722 0.457692
Si Si2 0.450584 0.064767 0.129637
Si Si3 0.197878 0.280779 0.805039
Si Si4 0.750231 0.280979 0.117306
Si Si5 0.045015 0.935253 0.369697
Si Si6 0.778417 0.273401 0.424696
Si Si7 0.459545 0.526969 0.841202
Si Si8 0.367794 0.090477 0.698438
O O1 0.164463 0.330920 0.618929
O O2 0.000000 0.500000 0.500000
O O3 0.187167 0.584556 0.166985
O O4 0.059401 0.201148 0.544701
O O5 0.336544 0.901194 0.370497
O O6 0.546499 0.059202 0.195466
O O7 0.428894 0.303480 0.949040
O O8 0.500000 0.000000 0.000000
O O9 0.245778 0.500753 0.686549
O O10 0.290901 0.135987 0.848505
O O11 0.094725 0.144325 0.072180
O O12 0.827387 0.287559 0.212038
O O13 0.648991 0.376149 0.167304
O O14 0.708161 0.034767 0.286496
O O15 0.136041 0.793509 0.459335
O O16 0.000000 0.000000 0.500000
O O17 0.564531 0.676387 0.576411
O O18 0.500000 0.500000 0.000000
#
# Coordination Sequence:
#
# PCOD8037242 Si02
#       8
#     2   2   2   2   2   2   2   2
#     4  12  27  51  78 105 146 196 247 308 371 434
#     4  12  27  43  74 107 153 195 241 300 363 442
#     4  12  28  49  78 107 148 194 249 306 370 443
#     4  12  27  46  76 111 150 195 247 305 369 444
#     4  12  29  49  78 108 146 194 248 312 373 433
#     4  12  28  48  73 112 151 191 251 304 370 444
#     4  12  24  46  72 104 149 193 239 296 364 432
#     4  12  26  47  73 110 147 195 245 294 368 443
#
# _framework density 23.364937000000001
#
# number of rings (size 3 to 8) (size 9 to 14) (size 15 to 20)
#    0.000    0.000    3.750    5.250   10.500    2.000 
#    0.000    0.000    0.000    0.000    0.000    0.000 
#    0.000    0.000    0.000    0.000    0.000    0.000 
#
# Total GULP energy -198481.482825 kJ/mol
# GULP energy per Si atom -12405.092677 kJ/mol
# Density = 2.331176 g / cm^3
# Si number density = 23.364937 Si / 1000 Ang^3
#
#
#
# Elastic Constant Matrix: (Units=GPa)
#
#
# Indices 1 2 3 4 5 6 
#
# 1 68.3581 22.4236 32.8954 -2.7924 -12.9297 11.2421
# 2 22.4236 161.0251 54.6478 -17.7102 -22.3697 10.9257
# 3 32.8954 54.6478 141.9619 3.1826 -16.6858 10.1855
# 4 -2.7924 -17.7102 3.1826 52.2908 5.7625 -1.2910
# 5 -12.9297 -22.3697 -16.6858 5.7625 36.9361 3.6276
# 6 11.2421 10.9257 10.1855 -1.2910 3.6276 44.6255
#
#
#
# Elastic Compliance Matrix: (Units=1/GPa)
#
#
# Indices 1 2 3 4 5 6 
#
# 1 0.017889 -0.000433 -0.003113 0.000353 0.004939 -0.004081
# 2 -0.000433 0.007949 -0.002523 0.002424 0.003288 -0.001458
# 3 -0.003113 -0.002523 0.009055 -0.001796 0.001838 -0.000866
# 4 0.000353 0.002424 -0.001796 0.020355 -0.002446 0.000515
# 5 0.004939 0.003288 0.001838 -0.002446 0.032515 -0.005183
# 6 -0.004081 -0.001458 -0.000866 0.000515 -0.005183 0.024428
#
#
# Mechanical properties :
#
#
# Convention : Reuss Voigt Hill
#
# Bulk Modulus (GPa) = 43.94530 65.69764 54.82147
# Shear Modulus (GPa) = 37.90344 44.19569 41.04957
#
# Velocity S-wave (km/s) = 4.03207 4.35390 4.19607
# Velocity P-wave (km/s) = 6.36599 7.31125 6.85493
#
# Compressibility (1/GPa) = 0.02275556
#
# Stress axis : x y z
#
# Youngs Moduli (GPa) = 55.90082 125.80100 110.43396
#
# Poissons Ratio (x) = 0.05442 0.34380
# Poissons Ratio (y) = 0.02418 0.27862
# Poissons Ratio (z) = 0.17403 0.31739
#
# Static dielectric constant tensor:
#      x y z
#    x 4.829530 0.081210 0.067780 
#    y 0.081210 4.358270 0.076570 
#    z 0.067780 0.076570 4.203870 
# 
# 
# High freq. dielectric constant tensor:
#      x y z
#    x 1.928200 0.006160 0.001350 
#    y 0.006160 1.945340 0.001850 
#    z 0.001350 0.001850 1.935310 
# 
# From -- ./inp_files/297253.got.cif
#   From: 2010.06.25/outbox.cif.g09.slc.cpg/sg2_149_cif.got.tgz:297253.got - 2010.06.27 13:26:56.
