data_PCOD8037827
_publ_section_title
;
Structure prediction by ZEFSAII (Michael W. Deem and Ramdas Pophale) SiO2 
 PCOD8037827
Probable space group: P -1
;
_chemical_formula_sum "Si O2"
_cell_formula_units_Z 14
_cell_length_a 17.182796
_cell_length_b 22.074835
_cell_length_c 13.163091
_cell_angle_alpha 36.702985
_cell_angle_beta 147.208459
_cell_angle_gamma 164.305736
_cell_volume 730.482130
_symmetry_space_group_name_H-M "P -1"
_symmetry_group_IT_number 2
_symmetry_cell_setting 'triclinic'
loop_
_space_group_symop_operation_xyz
x,y,z
-x,-y,-z
loop_
_atom_site_type_symbol
_atom_site_label
_atom_site_fract_x
_atom_site_fract_y
_atom_site_fract_z
Si Si1 0.010127 0.830376 0.141890
Si Si2 0.741333 0.461674 0.830254
Si Si3 0.644399 0.764545 0.092691
Si Si4 0.712108 0.076933 0.266006
Si Si5 0.596974 0.417982 0.139839
Si Si6 0.750496 0.987810 0.626909
Si Si7 0.605668 0.211228 0.874584
O O1 0.923819 0.673287 0.197098
O O2 0.167157 0.901533 0.327132
O O3 0.697236 0.697957 0.996656
O O4 0.249648 0.050836 0.043101
O O5 0.521605 0.363832 0.810524
O O6 0.530703 0.267149 0.778380
O O7 0.912173 0.664844 0.689343
O O8 0.014627 0.556869 0.045433
O O9 0.946550 0.882147 0.257124
O O10 0.394694 0.585748 0.968166
O O11 0.647303 0.005381 0.406926
O O12 0.595446 0.913636 0.282354
O O13 0.508920 0.051008 0.051554
O O14 0.543118 0.273675 0.324760
#
# Coordination Sequence:
#
# PCOD8037827 Si02
#       7
#     2   2   2   2   2   2   2
#     4   8  15  29  45  65  94 125 150 172 218 278
#     4   9  17  32  49  66  89 119 156 187 219 269
#     4   9  17  28  47  73  95 115 144 187 230 268
#     4   9  17  32  49  66  89 119 156 187 219 269
#     4   8  15  29  45  65  94 125 150 172 218 278
#     4   9  17  28  47  73  95 115 144 187 230 268
#     4   8  18  34  48  64  82 128 164 178 216 264
#
# _framework density 19.165426
#
# number of rings (size 3 to 8) (size 9 to 14) (size 15 to 20)
#    0.857    2.571    0.000    1.714    0.000    2.857 
#    0.000    0.714    0.000    6.857    0.000    0.000 
#    0.000    0.000    0.000    0.000    0.000    0.000 
#
# Total GULP energy -173472.478498 kJ/mol
# GULP energy per Si atom -12390.891321 kJ/mol
# Density = 1.912180 g / cm^3
# Si number density = 19.165426 Si / 1000 Ang^3
#
#
#
# Elastic Constant Matrix: (Units=GPa)
#
#
# Indices 1 2 3 4 5 6 
#
# 1 33.4877 20.8601 -12.1291 -0.5067 -2.8949 -16.6272
# 2 20.8601 107.0149 16.2843 -4.5630 -8.6096 -44.9176
# 3 -12.1291 16.2843 54.9653 3.5698 -16.5853 -10.1361
# 4 -0.5067 -4.5630 3.5698 15.3787 -1.3537 -4.8193
# 5 -2.8949 -8.6096 -16.5853 -1.3537 14.2399 4.6070
# 6 -16.6272 -44.9176 -10.1361 -4.8193 4.6070 31.1163
#
#
#
# Elastic Compliance Matrix: (Units=1/GPa)
#
#
# Indices 1 2 3 4 5 6 
#
# 1 0.071609 0.011884 0.036398 0.021455 0.045515 0.063860
# 2 0.011884 0.032601 0.005603 0.027957 0.012645 0.057693
# 3 0.036398 0.005603 0.047270 0.008020 0.054944 0.036043
# 4 0.021455 0.027957 0.008020 0.094567 0.018114 0.066398
# 5 0.045515 0.012645 0.054944 0.018114 0.139027 0.042694
# 6 0.063860 0.057693 0.036043 0.066398 0.042694 0.165248
#
#
# Mechanical properties :
#
#
# Convention : Reuss Voigt Hill
#
# Bulk Modulus (GPa) = 3.85731 27.27760 15.56745
# Shear Modulus (GPa) = 9.45235 23.51049 16.48142
#
# Velocity S-wave (km/s) = 2.22322 3.50625 2.93568
# Velocity P-wave (km/s) = 2.93381 5.53672 4.43072
#
# Compressibility (1/GPa) = 0.25924784
#
# Stress axis : x y z
#
# Youngs Moduli (GPa) = 13.96471 30.67429 21.15509
#
# Poissons Ratio (x) = -0.36452 -0.77000
# Poissons Ratio (y) = -0.16595 -0.11853
# Poissons Ratio (z) = -0.50829 -0.17186
#
# Static dielectric constant tensor:
#      x y z
#    x 3.139390 -0.373640 -0.196080 
#    y -0.373640 3.790940 -0.112350 
#    z -0.196080 -0.112350 3.092370 
# 
# 
# High freq. dielectric constant tensor:
#      x y z
#    x 1.715780 -0.024380 -0.022700 
#    y -0.024380 1.748200 -0.008790 
#    z -0.022700 -0.008790 1.708700 
# 
# From -- ./inp_files/435066.got.cif
#   From: 2010.06.25/outbox.cif.g09.slc.cpg/sg2_218_cif.got.tgz:435066.got - 2010.06.27 13:26:56.
