data_PCOD8037877
_publ_section_title
;
Structure prediction by ZEFSAII (Michael W. Deem and Ramdas Pophale) SiO2 
 PCOD8037877
Probable space group: P -1
;
_chemical_formula_sum "Si O2"
_cell_formula_units_Z 16
_cell_length_a 15.000000
_cell_length_b 15.000000
_cell_length_c 15.000000
_cell_angle_alpha 160.000000
_cell_angle_beta 140.000000
_cell_angle_gamma 40.000000
_cell_volume 725.414092
_symmetry_space_group_name_H-M "P -1"
_symmetry_group_IT_number 2
_symmetry_cell_setting 'triclinic'
loop_
_space_group_symop_operation_xyz
x,y,z
-x,-y,-z
loop_
_atom_site_type_symbol
_atom_site_label
_atom_site_fract_x
_atom_site_fract_y
_atom_site_fract_z
Si Si1 0.845037 0.717648 0.316710
Si Si2 0.840449 0.431463 0.613552
Si Si3 0.222421 0.809319 0.167008
Si Si4 0.527163 0.806557 0.423260
Si Si5 0.694123 0.200258 0.974412
Si Si6 0.366687 0.599664 0.428595
Si Si7 0.733816 0.023335 0.020652
Si Si8 0.397215 0.145449 0.886502
O O1 0.705066 0.811689 0.238019
O O2 0.992704 0.657320 0.319884
O O3 0.867775 0.937481 0.613117
O O4 0.840975 0.450968 0.117313
O O5 0.771950 0.454575 0.679947
O O6 0.777618 0.205671 0.302343
O O7 0.803201 0.713290 0.797775
O O8 0.375275 0.747495 0.275799
O O9 0.222093 0.884346 0.132427
O O10 0.500000 0.000000 0.500000
O O11 0.587456 0.992759 0.714331
O O12 0.625826 0.514852 0.209221
O O13 0.790058 0.134026 0.074592
O O14 0.500000 0.500000 0.500000
O O15 0.352973 0.911926 0.691273
O O16 0.375134 0.429296 0.185173
O O17 0.564208 0.061836 0.917151
#
# Coordination Sequence:
#
# PCOD8037877 Si02
#       8
#     2   2   2   2   2   2   2   2
#     4  12  27  44  64  99 137 179 216 270 331 392
#     4  12  27  45  67  94 141 173 213 275 340 392
#     4  11  21  41  61  89 139 182 216 265 332 384
#     4  10  18  33  58  93 126 164 216 279 330 364
#     4  11  22  36  64  98 129 177 230 275 317 381
#     4  12  23  45  73 104 127 167 215 274 339 396
#     4  12  23  43  67 100 130 172 229 277 320 384
#     4  12  24  42  74 102 128 166 222 272 326 406
#
# _framework density 22.056367999999999
#
# number of rings (size 3 to 8) (size 9 to 14) (size 15 to 20)
#    0.000    0.500    2.500    8.625    0.000    1.000 
#    0.000    3.750    0.000    0.000    0.000    0.000 
#    0.000    0.000    0.000    0.000    0.000    0.000 
#
# Total GULP energy -198286.399474 kJ/mol
# GULP energy per Si atom -12392.899967 kJ/mol
# Density = 2.200617 g / cm^3
# Si number density = 22.056368 Si / 1000 Ang^3
#
#
#
# Elastic Constant Matrix: (Units=GPa)
#
#
# Indices 1 2 3 4 5 6 
#
# 1 65.4791 33.0309 5.0003 6.9095 4.0565 1.3927
# 2 33.0309 75.8016 39.3959 1.2563 4.1955 -9.1411
# 3 5.0003 39.3959 106.8590 40.5774 -2.1443 11.2152
# 4 6.9095 1.2563 40.5774 29.9621 4.5563 -1.8933
# 5 4.0565 4.1955 -2.1443 4.5563 32.8578 0.2749
# 6 1.3927 -9.1411 11.2152 -1.8933 0.2749 36.7059
#
#
#
# Elastic Compliance Matrix: (Units=1/GPa)
#
#
# Indices 1 2 3 4 5 6 
#
# 1 0.045806 -0.051309 0.053100 -0.085054 0.016451 -0.035250
# 2 -0.051309 0.087870 -0.088339 0.136015 -0.029997 0.058061
# 3 0.053100 -0.088339 0.111450 -0.169192 0.036020 -0.067064
# 4 -0.085054 0.136015 -0.169192 0.292026 -0.059276 0.104302
# 5 0.016451 -0.029997 0.036020 -0.059276 0.042992 -0.022480
# 6 -0.035250 0.058061 -0.067064 0.104302 -0.022480 0.069079
#
#
# Mechanical properties :
#
#
# Convention : Reuss Voigt Hill
#
# Bulk Modulus (GPa) = 13.88313 44.77710 29.33011
# Shear Modulus (GPa) = 5.90787 31.28601 18.59694
#
# Velocity S-wave (km/s) = 1.63840 3.77033 2.90686
# Velocity P-wave (km/s) = 3.14439 6.26890 4.95915
#
# Compressibility (1/GPa) = 0.07202989
#
# Stress axis : x y z
#
# Youngs Moduli (GPa) = 21.83137 11.38046 8.97266
#
# Poissons Ratio (x) = 0.58392 -0.47645
# Poissons Ratio (y) = 1.12015 0.79263
# Poissons Ratio (z) = -1.15925 1.00533
#
# Static dielectric constant tensor:
#      x y z
#    x 4.083540 -0.034320 0.186570 
#    y -0.034320 4.104830 -0.082020 
#    z 0.186570 -0.082020 4.778310 
# 
# 
# High freq. dielectric constant tensor:
#      x y z
#    x 1.861250 0.010570 0.000790 
#    y 0.010570 1.860700 0.009740 
#    z 0.000790 0.009740 1.901610 
# 
# From -- ./inp_files/534685.got.cif
#   From: 2010.06.25/outbox.ucp.g09.slc.cvg/sg2_268_cif.got.tgz:534685.got - 2010.06.28 11:54:26.
