data_PCOD8037075
_publ_section_title
;
Structure prediction by ZEFSAII (Michael W. Deem and Ramdas Pophale) SiO2 
 PCOD8037075
Probable space group: P -1
;
_chemical_formula_sum "Si O2"
_cell_formula_units_Z 12
_cell_length_a 10.906991
_cell_length_b 10.519438
_cell_length_c 12.260686
_cell_angle_alpha 120.255533
_cell_angle_beta 58.709127
_cell_angle_gamma 154.812850
_cell_volume 509.369350
_symmetry_space_group_name_H-M "P -1"
_symmetry_group_IT_number 2
_symmetry_cell_setting 'triclinic'
loop_
_space_group_symop_operation_xyz
x,y,z
-x,-y,-z
loop_
_atom_site_type_symbol
_atom_site_label
_atom_site_fract_x
_atom_site_fract_y
_atom_site_fract_z
Si Si1 0.212653 0.150754 0.684294
Si Si2 0.736582 0.626049 0.519325
Si Si3 0.348976 0.609036 0.846558
Si Si4 0.137379 0.793769 0.254495
Si Si5 0.438065 0.767664 0.118954
Si Si6 0.989368 0.145737 0.127065
O O1 0.521420 0.355779 0.590620
O O2 0.279624 0.374970 0.791156
O O3 0.087293 0.940059 0.748039
O O4 0.971671 0.943412 0.608094
O O5 0.500000 0.500000 0.500000
O O6 0.919464 0.667432 0.389475
O O7 0.062111 0.432541 0.854298
O O8 0.618586 0.871345 0.752080
O O9 0.429267 0.751643 0.985830
O O10 0.290268 0.787528 0.233378
O O11 0.301853 0.503776 0.127898
O O12 0.773282 0.065277 0.130503
O O13 0.000000 0.000000 0.000000
#
# Coordination Sequence:
#
# PCOD8037075 Si02
#       6
#     2   2   2   2   2   2
#     4  12  26  43  70 107 131 177 241 282 334 400
#     4  12  26  44  69 103 141 181 226 283 341 412
#     4  12  24  41  73 103 140 173 228 293 342 407
#     4  12  26  44  67 104 144 182 222 283 351 409
#     4  12  26  46  69 103 141 184 225 280 351 404
#     4  12  26  46  72  99 139 181 233 283 331 412
#
# _framework density 23.558544000000001
#
# number of rings (size 3 to 8) (size 9 to 14) (size 15 to 20)
#    0.000    0.000    3.333    7.000    2.333    0.000 
#    0.000    5.000    0.000    0.000    0.000    0.000 
#    0.000    0.000    0.000    0.000    0.000    0.000 
#
# Total GULP energy -148822.963883 kJ/mol
# GULP energy per Si atom -12401.913657 kJ/mol
# Density = 2.350492 g / cm^3
# Si number density = 23.558544 Si / 1000 Ang^3
#
#
#
# Elastic Constant Matrix: (Units=GPa)
#
#
# Indices 1 2 3 4 5 6 
#
# 1 96.9008 5.7816 38.4834 -9.3958 -19.9028 20.1723
# 2 5.7816 97.7466 18.9469 -12.3221 -3.0252 7.8342
# 3 38.4834 18.9469 89.9695 -8.9162 -8.8878 1.9457
# 4 -9.3958 -12.3221 -8.9162 41.7666 5.1544 11.6845
# 5 -19.9028 -3.0252 -8.8878 5.1544 23.5587 -1.3321
# 6 20.1723 7.8342 1.9457 11.6845 -1.3321 44.9972
#
#
#
# Elastic Compliance Matrix: (Units=1/GPa)
#
#
# Indices 1 2 3 4 5 6 
#
# 1 0.016959 0.001665 -0.005944 0.004024 0.010946 -0.008357
# 2 0.001665 0.011471 -0.002558 0.004145 0.000799 -0.003685
# 3 -0.005944 -0.002558 0.014176 0.000242 0.000083 0.002437
# 4 0.004024 0.004145 0.000242 0.029357 -0.002979 -0.010248
# 5 0.010946 0.000799 0.000083 -0.002979 0.052326 -0.002727
# 6 -0.008357 -0.003685 0.002437 -0.010248 -0.002727 0.029086
#
#
# Mechanical properties :
#
#
# Convention : Reuss Voigt Hill
#
# Bulk Modulus (GPa) = 34.56543 45.67119 40.11831
# Shear Modulus (GPa) = 28.29778 36.82482 32.56130
#
# Velocity S-wave (km/s) = 3.46955 3.95792 3.72175
# Velocity P-wave (km/s) = 5.54566 6.34942 5.96110
#
# Compressibility (1/GPa) = 0.02893064
#
# Stress axis : x y z
#
# Youngs Moduli (GPa) = 58.96548 87.17949 70.54409
#
# Poissons Ratio (x) = -0.14514 0.41930
# Poissons Ratio (y) = -0.09817 0.18048
# Poissons Ratio (z) = 0.35048 0.22303
#
# Static dielectric constant tensor:
#      x y z
#    x 3.993430 0.251200 0.165850 
#    y 0.251200 4.924140 -0.311650 
#    z 0.165850 -0.311650 4.385110 
# 
# 
# High freq. dielectric constant tensor:
#      x y z
#    x 1.911780 0.013240 0.004990 
#    y 0.013240 1.965490 -0.012030 
#    z 0.004990 -0.012030 1.930630 
# 
# From -- ./inp_files/428700.got.cif
#   From: 2010.06.25/outbox.cif.g09.slc.cpg/sg2_215_cif.got.tgz:428700.got - 2010.06.27 13:26:56.
