data_PCOD8037956
_publ_section_title
;
Structure prediction by ZEFSAII (Michael W. Deem and Ramdas Pophale) SiO2 
 PCOD8037956
Probable space group: P -1
;
_chemical_formula_sum "Si O2"
_cell_formula_units_Z 16
_cell_length_a 20.860170
_cell_length_b 15.063726
_cell_length_c 14.878598
_cell_angle_alpha 45.715825
_cell_angle_beta 18.500862
_cell_angle_gamma 36.563139
_cell_volume 832.462598
_symmetry_space_group_name_H-M "P -1"
_symmetry_group_IT_number 2
_symmetry_cell_setting 'triclinic'
loop_
_space_group_symop_operation_xyz
x,y,z
-x,-y,-z
loop_
_atom_site_type_symbol
_atom_site_label
_atom_site_fract_x
_atom_site_fract_y
_atom_site_fract_z
Si Si1 0.285387 0.025827 0.891651
Si Si2 0.975724 0.196634 0.346748
Si Si3 0.166268 0.131409 0.444084
Si Si4 0.565986 0.496618 0.763473
Si Si5 0.194702 0.049818 0.798724
Si Si6 0.867204 0.202828 0.962019
Si Si7 0.367512 0.710575 0.029564
Si Si8 0.329100 0.925165 0.209410
O O1 0.574196 0.955679 0.540374
O O2 0.126383 0.102197 0.956579
O O3 0.290827 0.882344 0.021471
O O4 0.151294 0.158194 0.053677
O O5 0.832342 0.379162 0.437013
O O6 0.751490 0.184191 0.627203
O O7 0.150209 0.085942 0.275714
O O8 0.114841 0.111543 0.630165
O O9 0.887979 0.271700 0.671756
O O10 0.287612 0.971816 0.337395
O O11 0.368280 0.169022 0.149335
O O12 0.525394 0.382353 0.953027
O O13 0.332467 0.610016 0.924440
O O14 0.573636 0.607079 0.748026
O O15 0.951403 0.180507 0.969334
O O16 0.273206 0.875788 0.808903
#
# Coordination Sequence:
#
# PCOD8037956 Si02
#       8
#     2   2   2   2   2   2   2   2
#     4  11  20  37  61  81 104 145 195 232 260 310
#     4  11  19  34  51  86 112 145 174 229 274 326
#     4  10  17  33  53  82 106 145 181 223 265 321
#     4  10  20  33  56  81 119 145 165 218 300 334
#     4  10  21  37  62  78  99 148 206 230 250 312
#     4  10  20  38  56  81 109 145 187 229 268 319
#     4  10  18  36  56  82 114 148 173 221 276 341
#     4  10  19  29  55  80 118 140 181 215 273 338
#
# _framework density 19.220082000000001
#
# number of rings (size 3 to 8) (size 9 to 14) (size 15 to 20)
#    0.000    1.750    5.000    1.500    0.000    0.000 
#    0.000    8.125    0.000    0.000    0.000    0.000 
#    0.000    0.000    0.000    0.000    0.000    0.000 
#
# Total GULP energy -198287.649191 kJ/mol
# GULP energy per Si atom -12392.978074 kJ/mol
# Density = 1.917634 g / cm^3
# Si number density = 19.220082 Si / 1000 Ang^3
#
#
#
# Elastic Constant Matrix: (Units=GPa)
#
#
# Indices 1 2 3 4 5 6 
#
# 1 74.3696 24.5332 10.3796 10.4876 16.4854 -12.7704
# 2 24.5332 54.7272 28.0478 17.5739 7.7407 -15.6767
# 3 10.3796 28.0478 50.2332 5.3751 2.4119 -5.8799
# 4 10.4876 17.5739 5.3751 27.5860 9.8841 5.4249
# 5 16.4854 7.7407 2.4119 9.8841 34.3133 1.7446
# 6 -12.7704 -15.6767 -5.8799 5.4249 1.7446 28.8803
#
#
#
# Elastic Compliance Matrix: (Units=1/GPa)
#
#
# Indices 1 2 3 4 5 6 
#
# 1 0.017977 -0.004285 0.000102 -0.002848 -0.007193 0.006614
# 2 -0.004285 0.046424 -0.019002 -0.029162 0.000055 0.024911
# 3 0.000102 -0.019002 0.029008 0.007424 0.000354 -0.005780
# 4 -0.002848 -0.029162 0.007424 0.063112 -0.009389 -0.026865
# 5 -0.007193 0.000055 0.000354 -0.009389 0.035442 -0.003456
# 6 0.006614 0.024911 -0.005780 -0.026865 -0.003456 0.055151
#
#
# Mechanical properties :
#
#
# Convention : Reuss Voigt Hill
#
# Bulk Modulus (GPa) = 21.25836 33.91680 27.58758
# Shear Modulus (GPa) = 16.17265 25.91389 21.04327
#
# Velocity S-wave (km/s) = 2.90392 3.67586 3.31245
# Velocity P-wave (km/s) = 4.72527 5.97502 5.38651
#
# Compressibility (1/GPa) = 0.04704031
#
# Stress axis : x y z
#
# Youngs Moduli (GPa) = 55.62532 21.54043 34.47321
#
# Poissons Ratio (x) = 0.09229 -0.00352
# Poissons Ratio (y) = 0.23833 0.65506
# Poissons Ratio (z) = -0.00567 0.40931
#
# Static dielectric constant tensor:
#      x y z
#    x 3.794250 0.021200 0.134020 
#    y 0.021200 3.230740 0.046220 
#    z 0.134020 0.046220 3.546350 
# 
# 
# High freq. dielectric constant tensor:
#      x y z
#    x 1.763060 -0.000960 0.012210 
#    y -0.000960 1.707160 0.005950 
#    z 0.012210 0.005950 1.734650 
# 
# From -- ./inp_files/406612.got.cif
#   From: 2010.06.25/outbox.cif.g09.slc.cpg/sg2_204_cif.got.tgz:406612.got - 2010.06.27 13:26:56.
