data_PCOD8037057
_publ_section_title
;
Structure prediction by ZEFSAII (Michael W. Deem and Ramdas Pophale) SiO2 
 PCOD8037057
Probable space group: P -1
;
_chemical_formula_sum "Si O2"
_cell_formula_units_Z 16
_cell_length_a 8.750044
_cell_length_b 14.505664
_cell_length_c 8.711156
_cell_angle_alpha 59.740051
_cell_angle_beta 80.198865
_cell_angle_gamma 118.595266
_cell_volume 704.415440
_symmetry_space_group_name_H-M "P -1"
_symmetry_group_IT_number 2
_symmetry_cell_setting 'triclinic'
loop_
_space_group_symop_operation_xyz
x,y,z
-x,-y,-z
loop_
_atom_site_type_symbol
_atom_site_label
_atom_site_fract_x
_atom_site_fract_y
_atom_site_fract_z
Si Si1 0.066262 0.346008 0.026510
Si Si2 0.581649 0.138573 0.790129
Si Si3 0.992287 0.378239 0.663716
Si Si4 0.513794 0.341859 0.252578
Si Si5 0.155525 0.146831 0.252011
Si Si6 0.363979 0.841645 0.581025
Si Si7 0.784521 0.877861 0.064792
Si Si8 0.316247 0.367824 0.550354
O O1 0.056268 0.212626 0.154678
O O2 0.855437 0.283328 0.198458
O O3 0.061377 0.390143 0.817388
O O4 0.266709 0.495819 0.945030
O O5 0.672268 0.149436 0.599234
O O6 0.404986 0.147703 0.800117
O O7 0.754871 0.245117 0.794042
O O8 0.500000 0.000000 0.000000
O O9 0.142060 0.375890 0.530900
O O10 0.000000 0.500000 0.500000
O O11 0.368615 0.283491 0.177814
O O12 0.521240 0.219082 0.383514
O O13 0.385527 0.338436 0.412366
O O14 0.213491 0.099353 0.136640
O O15 0.000000 0.000000 0.500000
O O16 0.500000 0.000000 0.500000
O O17 0.771132 0.747288 0.206454
O O18 0.000000 0.000000 0.000000
O O19 0.500000 0.500000 0.500000
#
# Coordination Sequence:
#
# PCOD8037057 Si02
#       8
#     2   2   2   2   2   2   2   2
#     4  12  27  50  74 112 156 204 250 326 394 459
#     4  12  28  46  75 112 147 202 262 313 387 461
#     4  12  26  48  78 112 153 199 259 317 389 462
#     4  12  26  50  75 111 151 207 262 316 392 464
#     4  12  28  47  77 114 153 202 257 321 392 463
#     4  12  28  50  75 108 159 201 256 326 393 462
#     4  12  26  49  77 106 151 201 262 319 378 458
#     4  12  23  49  77 106 151 201 258 317 379 457
#
# _framework density 22.71387
#
# number of rings (size 3 to 8) (size 9 to 14) (size 15 to 20)
#    0.000    0.000    3.750    5.250    8.750    0.000 
#    0.000    0.000    0.000    0.000    0.000    0.000 
#    0.000    0.000    0.000    0.000    0.000    0.000 
#
# Total GULP energy -198259.909144 kJ/mol
# GULP energy per Si atom -12391.244322 kJ/mol
# Density = 2.266217 g / cm^3
# Si number density = 22.713870 Si / 1000 Ang^3
#
#
#
# Elastic Constant Matrix: (Units=GPa)
#
#
# Indices 1 2 3 4 5 6 
#
# 1 155.2664 57.3087 55.7507 -8.4530 -4.2975 -6.8925
# 2 57.3087 155.8037 69.5349 -8.3901 -8.3399 15.5946
# 3 55.7507 69.5349 145.6680 -8.4834 2.1223 -4.2789
# 4 -8.4530 -8.3901 -8.4834 55.5285 -3.9151 -1.4036
# 5 -4.2975 -8.3399 2.1223 -3.9151 50.3667 -8.3127
# 6 -6.8925 15.5946 -4.2789 -1.4036 -8.3127 51.5823
#
#
#
# Elastic Compliance Matrix: (Units=1/GPa)
#
#
# Indices 1 2 3 4 5 6 
#
# 1 0.008092 -0.002192 -0.001971 0.000696 0.000749 0.001720
# 2 -0.002192 0.009262 -0.003663 0.000496 0.001008 -0.003221
# 3 -0.001971 -0.003663 0.009458 0.000567 -0.000881 0.001502
# 4 0.000696 0.000496 0.000567 0.018414 0.001675 0.000761
# 5 0.000749 0.001008 -0.000881 0.001675 0.020766 0.003114
# 6 0.001720 -0.003221 0.001502 0.000761 0.003114 0.021237
#
#
# Mechanical properties :
#
#
# Convention : Reuss Voigt Hill
#
# Bulk Modulus (GPa) = 89.59430 91.32519 90.45974
# Shear Modulus (GPa) = 46.90410 49.77175 48.33793
#
# Velocity S-wave (km/s) = 4.54915 4.68616 4.61816
# Velocity P-wave (km/s) = 8.19289 8.34111 8.26733
#
# Compressibility (1/GPa) = 0.01116142
#
# Stress axis : x y z
#
# Youngs Moduli (GPa) = 123.57873 107.96465 105.73355
#
# Poissons Ratio (x) = 0.23661 0.20837
# Poissons Ratio (y) = 0.27083 0.38731
# Poissons Ratio (z) = 0.24354 0.39548
#
# Static dielectric constant tensor:
#      x y z
#    x 4.178050 0.216540 0.161560 
#    y 0.216540 3.906090 -0.195020 
#    z 0.161560 -0.195020 4.164580 
# 
# 
# High freq. dielectric constant tensor:
#      x y z
#    x 1.911260 -0.002220 0.000680 
#    y -0.002220 1.910310 -0.009160 
#    z 0.000680 -0.009160 1.911660 
# 
# From -- ./inp_files/205898.got.cif
#   From: 2010.06.25/outbox.cif.g09.slc.cpg/sg2_103_cif.got.tgz:205898.got - 2010.06.27 13:26:56.
