data_PCOD8037275
_publ_section_title
;
Structure prediction by ZEFSAII (Michael W. Deem and Ramdas Pophale) SiO2 
 PCOD8037275
Probable space group: P -1
;
_chemical_formula_sum "Si O2"
_cell_formula_units_Z 16
_cell_length_a 12.428781
_cell_length_b 8.378233
_cell_length_c 17.145873
_cell_angle_alpha 50.860636
_cell_angle_beta 31.835973
_cell_angle_gamma 46.273916
_cell_volume 676.041784
_symmetry_space_group_name_H-M "P -1"
_symmetry_group_IT_number 2
_symmetry_cell_setting 'triclinic'
loop_
_space_group_symop_operation_xyz
x,y,z
-x,-y,-z
loop_
_atom_site_type_symbol
_atom_site_label
_atom_site_fract_x
_atom_site_fract_y
_atom_site_fract_z
Si Si1 0.615280 0.862923 0.637529
Si Si2 0.022151 0.369087 0.107293
Si Si3 0.917664 0.796744 0.612748
Si Si4 0.333132 0.320609 0.057398
Si Si5 0.634476 0.656744 0.366773
Si Si6 0.217113 0.820816 0.960180
Si Si7 0.822415 0.686055 0.401740
Si Si8 0.821144 0.111426 0.871822
O O1 0.813752 0.757139 0.607859
O O2 0.424938 0.764817 0.793002
O O3 0.685924 0.815827 0.519428
O O4 0.524048 0.117843 0.645182
O O5 0.853763 0.531786 0.221594
O O6 0.267319 0.288165 0.018967
O O7 0.997823 0.130866 0.189734
O O8 0.000000 0.500000 0.000000
O O9 0.763932 0.803185 0.780624
O O10 0.136708 0.574691 0.546715
O O11 0.000000 0.000000 0.500000
O O12 0.210642 0.585713 0.063664
O O13 0.599609 0.224708 0.922214
O O14 0.500000 0.500000 0.500000
O O15 0.685447 0.763722 0.382372
O O16 0.258818 0.930285 0.980397
O O17 0.000000 0.000000 0.000000
O O18 0.051633 0.722244 0.252050
#
# Coordination Sequence:
#
# PCOD8037275 Si02
#       8
#     2   2   2   2   2   2   2   2
#     4  12  26  45  74 113 144 197 261 305 375 454
#     4  12  27  47  72 111 148 198 254 312 383 456
#     4  12  26  48  76 108 155 199 249 312 383 454
#     4  12  25  49  75 108 152 202 248 316 388 446
#     4  12  26  49  72 103 155 200 247 312 383 444
#     4  12  24  46  76 106 148 194 250 319 372 452
#     4  12  26  49  75 109 145 201 256 318 376 445
#     4  12  24  46  77 106 151 196 254 312 383 451
#
# _framework density 23.667173999999999
#
# number of rings (size 3 to 8) (size 9 to 14) (size 15 to 20)
#    0.000    0.000    3.750    6.750    1.750    2.000 
#    2.250    0.000    0.000    0.000    0.000    0.000 
#    0.000    0.000    0.000    0.000    0.000    0.000 
#
# Total GULP energy -198241.547921 kJ/mol
# GULP energy per Si atom -12390.096745 kJ/mol
# Density = 2.361331 g / cm^3
# Si number density = 23.667174 Si / 1000 Ang^3
#
#
#
# Elastic Constant Matrix: (Units=GPa)
#
#
# Indices 1 2 3 4 5 6 
#
# 1 144.1919 13.1193 55.0518 2.0137 7.5293 -1.0460
# 2 13.1193 126.2065 34.2778 -11.5776 5.7497 5.7217
# 3 55.0518 34.2778 134.2766 -7.0595 -3.0662 4.1271
# 4 2.0137 -11.5776 -7.0595 39.1080 5.4162 -0.8126
# 5 7.5293 5.7497 -3.0662 5.4162 36.6413 3.0397
# 6 -1.0460 5.7217 4.1271 -0.8126 3.0397 34.8083
#
#
#
# Elastic Compliance Matrix: (Units=1/GPa)
#
#
# Indices 1 2 3 4 5 6 
#
# 1 0.008416 0.000082 -0.003582 -0.000762 -0.001998 0.000821
# 2 0.000082 0.008863 -0.002179 0.002465 -0.001873 -0.000975
# 3 -0.003582 -0.002179 0.009598 0.000999 0.001818 -0.001023
# 4 -0.000762 0.002465 0.000999 0.027109 -0.004191 0.000452
# 5 -0.001998 -0.001873 0.001818 -0.004191 0.028983 -0.002597
# 6 0.000821 -0.000975 -0.001023 0.000452 -0.002597 0.029272
#
#
# Mechanical properties :
#
#
# Convention : Reuss Voigt Hill
#
# Bulk Modulus (GPa) = 64.44369 67.73034 66.08701
# Shear Modulus (GPa) = 38.82780 42.25993 40.54386
#
# Velocity S-wave (km/s) = 4.05480 4.23021 4.14343
# Velocity P-wave (km/s) = 7.01499 7.24842 7.13266
#
# Compressibility (1/GPa) = 0.01551742
#
# Stress axis : x y z
#
# Youngs Moduli (GPa) = 118.81539 112.83392 104.18977
#
# Poissons Ratio (x) = -0.00925 0.37326
# Poissons Ratio (y) = -0.00974 0.22705
# Poissons Ratio (z) = 0.42565 0.24589
#
# Static dielectric constant tensor:
#      x y z
#    x 4.533530 -0.036010 0.025930 
#    y -0.036010 4.408990 -0.004390 
#    z 0.025930 -0.004390 4.199780 
# 
# 
# High freq. dielectric constant tensor:
#      x y z
#    x 1.952820 -0.005430 -0.000980 
#    y -0.005430 1.957460 -0.002080 
#    z -0.000980 -0.002080 1.926740 
# 
# From -- ./inp_files/566486.got.cif
#   From: 2010.06.25/outbox.cif.g09.slc.cpg/sg2_284_cif.got.tgz:566486.got - 2010.06.27 13:26:56.
