data_PCOD8037394
_publ_section_title
;
Structure prediction by ZEFSAII (Michael W. Deem and Ramdas Pophale) SiO2 
 PCOD8037394
Probable space group: P -1
;
_chemical_formula_sum "Si O2"
_cell_formula_units_Z 16
_cell_length_a 11.279930
_cell_length_b 8.655376
_cell_length_c 17.203197
_cell_angle_alpha 112.540340
_cell_angle_beta 32.608624
_cell_angle_gamma 125.846152
_cell_volume 710.057048
_symmetry_space_group_name_H-M "P -1"
_symmetry_group_IT_number 2
_symmetry_cell_setting 'triclinic'
loop_
_space_group_symop_operation_xyz
x,y,z
-x,-y,-z
loop_
_atom_site_type_symbol
_atom_site_label
_atom_site_fract_x
_atom_site_fract_y
_atom_site_fract_z
Si Si1 0.860972 0.771086 0.547970
Si Si2 0.963570 0.662047 0.092008
Si Si3 0.482789 0.023236 0.423584
Si Si4 0.577373 0.406526 0.373306
Si Si5 0.623379 0.939826 0.986141
Si Si6 0.272099 0.655692 0.252233
Si Si7 0.731172 0.838408 0.154063
Si Si8 0.890140 0.767421 0.703795
O O1 0.621747 0.667010 0.601899
O O2 0.746993 0.717499 0.689069
O O3 0.059686 0.698708 0.410119
O O4 0.000000 0.000000 0.500000
O O5 0.851990 0.580567 0.223326
O O6 0.761720 0.678021 0.152146
O O7 0.219974 0.879238 0.004725
O O8 0.000000 0.500000 0.000000
O O9 0.617765 0.243637 0.359102
O O10 0.500000 0.000000 0.500000
O O11 0.642031 0.937687 0.283687
O O12 0.185046 0.912226 0.542259
O O13 0.500000 0.500000 0.500000
O O14 0.805107 0.874733 0.832510
O O15 0.383057 0.756966 0.127503
O O16 0.500000 0.000000 0.000000
O O17 0.515098 0.730713 0.188208
O O18 0.139477 0.421332 0.272646
O O19 0.000000 0.000000 0.000000
#
# Coordination Sequence:
#
# PCOD8037394 Si02
#       8
#     2   2   2   2   2   2   2   2
#     4  12  25  47  78 105 150 191 243 303 367 435
#     4  12  29  49  76 106 145 196 245 300 369 441
#     4  12  27  45  73 105 149 190 240 304 364 430
#     4  12  27  47  74 110 145 190 244 303 366 434
#     4  12  29  49  74 107 153 193 243 307 365 435
#     4  12  27  46  76 108 142 196 245 300 365 435
#     4  12  24  49  74 104 145 190 245 298 366 433
#     4  12  26  48  74 109 145 195 247 302 366 435
#
# _framework density 22.5334
#
# number of rings (size 3 to 8) (size 9 to 14) (size 15 to 20)
#    0.000    0.000    3.750    5.250   10.500    0.000 
#    0.000    0.000    0.000    0.000    0.000    0.000 
#    0.000    0.000    0.000    0.000    0.000    0.000 
#
# Total GULP energy -198452.136350 kJ/mol
# GULP energy per Si atom -12403.258522 kJ/mol
# Density = 2.248211 g / cm^3
# Si number density = 22.533400 Si / 1000 Ang^3
#
#
#
# Elastic Constant Matrix: (Units=GPa)
#
#
# Indices 1 2 3 4 5 6 
#
# 1 99.9808 12.8087 -8.9847 10.9422 11.9853 -17.4810
# 2 12.8087 118.8474 27.2524 22.9183 8.2277 -27.8016
# 3 -8.9847 27.2524 94.2109 24.8336 21.8971 -11.5889
# 4 10.9422 22.9183 24.8336 52.5573 -7.3887 5.4978
# 5 11.9853 8.2277 21.8971 -7.3887 44.7156 -1.0416
# 6 -17.4810 -27.8016 -11.5889 5.4978 -1.0416 48.0769
#
#
#
# Elastic Compliance Matrix: (Units=1/GPa)
#
#
# Indices 1 2 3 4 5 6 
#
# 1 0.013543 0.001076 0.005842 -0.007954 -0.007824 0.007695
# 2 0.001076 0.011616 0.000307 -0.006752 -0.003508 0.007878
# 3 0.005842 0.000307 0.018252 -0.012547 -0.012450 0.007866
# 4 -0.007954 -0.006752 -0.012547 0.033006 0.014663 -0.013278
# 5 -0.007824 -0.003508 -0.012450 0.014663 0.033420 -0.008827
# 6 0.007695 0.007878 0.007866 -0.013278 -0.008827 0.031377
#
#
# Mechanical properties :
#
#
# Convention : Reuss Voigt Hill
#
# Bulk Modulus (GPa) = 17.28304 41.68798 29.48551
# Shear Modulus (GPa) = 34.23493 47.86748 41.05120
#
# Velocity S-wave (km/s) = 3.90204 4.61400 4.27288
# Velocity P-wave (km/s) = 5.29036 6.85026 6.12021
#
# Compressibility (1/GPa) = 0.05786018
#
# Stress axis : x y z
#
# Youngs Moduli (GPa) = 73.83985 86.09131 54.78972
#
# Poissons Ratio (x) = -0.09267 -0.32007
# Poissons Ratio (y) = -0.07948 -0.01681
# Poissons Ratio (z) = -0.43136 -0.02641
#
# Static dielectric constant tensor:
#      x y z
#    x 4.249020 -0.120500 0.233120 
#    y -0.120500 4.311500 -0.074020 
#    z 0.233120 -0.074020 3.962910 
# 
# 
# High freq. dielectric constant tensor:
#      x y z
#    x 1.906630 -0.011820 0.006770 
#    y -0.011820 1.903700 -0.000410 
#    z 0.006770 -0.000410 1.898580 
# 
# From -- ./inp_files/566839.got.cif
#   From: 2010.06.25/outbox.cif.g09.slc.cpg/sg2_284_cif.got.tgz:566839.got - 2010.06.27 13:26:56.
