data_PCOD8037182
_publ_section_title
;
Structure prediction by ZEFSAII (Michael W. Deem and Ramdas Pophale) SiO2 
 PCOD8037182
Probable space group: P -1
;
_chemical_formula_sum "Si O2"
_cell_formula_units_Z 16
_cell_length_a 27.160823
_cell_length_b 9.570762
_cell_length_c 13.089054
_cell_angle_alpha 37.464206
_cell_angle_beta 27.727509
_cell_angle_gamma 26.994703
_cell_volume 718.366472
_symmetry_space_group_name_H-M "P -1"
_symmetry_group_IT_number 2
_symmetry_cell_setting 'triclinic'
loop_
_space_group_symop_operation_xyz
x,y,z
-x,-y,-z
loop_
_atom_site_type_symbol
_atom_site_label
_atom_site_fract_x
_atom_site_fract_y
_atom_site_fract_z
Si Si1 0.989016 0.782612 0.710507
Si Si2 0.793080 0.835382 0.882768
Si Si3 0.962100 0.177416 0.865214
Si Si4 0.702851 0.851947 0.462196
Si Si5 0.521721 0.813680 0.664312
Si Si6 0.340665 0.176900 0.205467
Si Si7 0.210319 0.818620 0.981831
Si Si8 0.747128 0.118472 0.602569
O O1 0.893168 0.743911 0.846408
O O2 0.137093 0.460355 0.654900
O O3 0.919448 0.898725 0.880398
O O4 0.000000 0.000000 0.500000
O O5 0.874147 0.531733 0.842492
O O6 0.779625 0.059892 0.697212
O O7 0.634078 0.018699 0.105755
O O8 0.849800 0.182485 0.012508
O O9 0.109752 0.987337 0.645308
O O10 0.000000 0.000000 0.000000
O O11 0.603541 0.814292 0.607837
O O12 0.670916 0.906724 0.610161
O O13 0.683591 0.127330 0.279688
O O14 0.607610 0.478926 0.649193
O O15 0.500000 0.000000 0.500000
O O16 0.269900 0.527490 0.112758
O O17 0.284679 0.073769 0.285968
O O18 0.500000 0.000000 0.000000
#
# Coordination Sequence:
#
# PCOD8037182 Si02
#       8
#     2   2   2   2   2   2   2   2
#     4  12  24  44  77 109 146 191 242 300 367 436
#     4  12  25  45  75 107 143 191 243 296 364 433
#     4  12  25  46  72 107 143 188 241 299 363 435
#     4  12  27  49  75 109 148 191 245 301 367 438
#     4  12  28  49  73 108 146 193 243 303 367 435
#     4  12  28  47  73 105 146 193 243 298 365 432
#     4  12  26  46  75 107 145 189 241 300 363 435
#     4  12  26  47  74 105 148 189 242 300 365 438
#
# _framework density 22.272753999999999
#
# number of rings (size 3 to 8) (size 9 to 14) (size 15 to 20)
#    0.000    0.000    2.500    7.875    3.500    0.500 
#    0.000    0.000    0.000    0.000    0.000    0.000 
#    0.000    0.000    0.000    0.000    0.000    0.000 
#
# Total GULP energy -198266.077171 kJ/mol
# GULP energy per Si atom -12391.629823 kJ/mol
# Density = 2.222206 g / cm^3
# Si number density = 22.272754 Si / 1000 Ang^3
#
#
#
# Elastic Constant Matrix: (Units=GPa)
#
#
# Indices 1 2 3 4 5 6 
#
# 1 108.5356 12.1301 11.1973 0.3498 -3.2491 -5.8544
# 2 12.1301 135.1852 51.6573 19.2542 -0.0428 1.2544
# 3 11.1973 51.6573 142.7438 12.9526 9.9426 -4.7170
# 4 0.3498 19.2542 12.9526 50.4533 -6.5269 1.2056
# 5 -3.2491 -0.0428 9.9426 -6.5269 53.9614 -0.7384
# 6 -5.8544 1.2544 -4.7170 1.2056 -0.7384 38.3115
#
#
#
# Elastic Compliance Matrix: (Units=1/GPa)
#
#
# Indices 1 2 3 4 5 6 
#
# 1 0.009444 -0.000718 -0.000522 0.000404 0.000732 0.001404
# 2 -0.000718 0.008984 -0.002994 -0.002614 0.000190 -0.000687
# 3 -0.000522 -0.002994 0.008399 -0.001258 -0.001719 0.001059
# 4 0.000404 -0.002614 -0.001258 0.021522 0.002848 -0.000630
# 5 0.000732 0.000190 -0.001719 0.002848 0.019240 0.000175
# 6 0.001404 -0.000687 0.001059 -0.000630 0.000175 0.026492
#
#
# Mechanical properties :
#
#
# Convention : Reuss Voigt Hill
#
# Bulk Modulus (GPa) = 54.46910 59.60378 57.03644
# Shear Modulus (GPa) = 46.01140 49.31057 47.66098
#
# Velocity S-wave (km/s) = 4.55006 4.71036 4.63090
# Velocity P-wave (km/s) = 7.21890 7.51014 7.36596
#
# Compressibility (1/GPa) = 0.01835903
#
# Stress axis : x y z
#
# Youngs Moduli (GPa) = 105.88686 111.30358 119.06519
#
# Poissons Ratio (x) = 0.07994 0.06217
# Poissons Ratio (y) = 0.07605 0.35645
# Poissons Ratio (z) = 0.05529 0.33321
#
# Static dielectric constant tensor:
#      x y z
#    x 4.229590 -0.018180 -0.033900 
#    y -0.018180 1.779270 1.558570 
#    z -0.033900 1.558570 3.065060 
# 
# 
# High freq. dielectric constant tensor:
#      x y z
#    x 1.898690 -0.002830 0.008810 
#    y -0.002830 1.892280 0.003720 
#    z 0.008810 0.003720 1.893350 
# 
# From -- ./inp_files/476367.got.cif
#   From: 2010.06.25/outbox.cif.g09.slc.cpg/sg2_239_cif.got.tgz:476367.got - 2010.06.27 13:26:56.
