data_PCOD8037575
_publ_section_title
;
Structure prediction by ZEFSAII (Michael W. Deem and Ramdas Pophale) SiO2 
 PCOD8037575
Probable space group: P -1
;
_chemical_formula_sum "Si O2"
_cell_formula_units_Z 14
_cell_length_a 6.467005
_cell_length_b 8.854764
_cell_length_c 17.812977
_cell_angle_alpha 37.178964
_cell_angle_beta 94.969532
_cell_angle_gamma 93.897305
_cell_volume 614.098110
_symmetry_space_group_name_H-M "P -1"
_symmetry_group_IT_number 2
_symmetry_cell_setting 'triclinic'
loop_
_space_group_symop_operation_xyz
x,y,z
-x,-y,-z
loop_
_atom_site_type_symbol
_atom_site_label
_atom_site_fract_x
_atom_site_fract_y
_atom_site_fract_z
Si Si1 0.369714 0.271223 0.054451
Si Si2 0.046894 0.286972 0.523193
Si Si3 0.977946 0.347292 0.912230
Si Si4 0.404178 0.990795 0.584655
Si Si5 0.208084 0.146160 0.249523
Si Si6 0.647130 0.959955 0.089654
Si Si7 0.162033 0.540781 0.702126
O O1 0.239160 0.118396 0.172650
O O2 0.547659 0.082433 0.110198
O O3 0.500000 0.500000 0.000000
O O4 0.212060 0.350272 0.951753
O O5 0.000000 0.500000 0.500000
O O6 0.909626 0.353718 0.420999
O O7 0.280842 0.237692 0.516223
O O8 0.980287 0.025891 0.661627
O O9 0.836607 0.561235 0.858818
O O10 0.985327 0.405434 0.800131
O O11 0.870890 0.080803 0.029225
O O12 0.584883 0.934058 0.670229
O O13 0.241429 0.765797 0.667338
O O14 0.500000 0.000000 0.500000
O O15 0.663179 0.667101 0.225549
O O16 0.500000 0.000000 0.000000
#
# Coordination Sequence:
#
# PCOD8037575 Si02
#       7
#     2   2   2   2   2   2   2
#     4  12  27  45  72 110 146 193 243 299 374 433
#     4  12  30  47  73 111 146 192 241 310 375 427
#     4  12  25  47  77 106 145 195 243 302 363 439
#     4  12  25  50  76 103 143 199 253 291 363 444
#     4  12  26  45  78 103 146 189 244 301 365 439
#     4  12  27  46  72 113 145 190 247 301 365 439
#     4  12  25  48  75 104 147 190 246 300 361 443
#
# _framework density 22.797661000000002
#
# number of rings (size 3 to 8) (size 9 to 14) (size 15 to 20)
#    0.000    0.000    5.714    3.857    4.000    1.714 
#    0.000    0.000    0.000    0.000    0.000    0.000 
#    0.000    0.000    0.000    0.000    0.000    0.000 
#
# Total GULP energy -173537.200801 kJ/mol
# GULP energy per Si atom -12395.514343 kJ/mol
# Density = 2.274577 g / cm^3
# Si number density = 22.797661 Si / 1000 Ang^3
#
#
#
# Elastic Constant Matrix: (Units=GPa)
#
#
# Indices 1 2 3 4 5 6 
#
# 1 97.7638 33.0802 19.6306 -4.2688 3.7446 -21.7792
# 2 33.0802 95.3093 11.2740 -8.9849 -6.3758 -23.9314
# 3 19.6306 11.2740 93.3576 5.4248 -12.6246 -10.9004
# 4 -4.2688 -8.9849 5.4248 37.8566 -14.4504 0.3942
# 5 3.7446 -6.3758 -12.6246 -14.4504 37.6811 4.2487
# 6 -21.7792 -23.9314 -10.9004 0.3942 4.2487 54.8047
#
#
#
# Elastic Compliance Matrix: (Units=1/GPa)
#
#
# Indices 1 2 3 4 5 6 
#
# 1 0.012728 -0.003560 -0.002265 -0.000309 -0.003116 0.003297
# 2 -0.003560 0.013415 -0.000133 0.004179 0.003720 0.004099
# 3 -0.002265 -0.000133 0.011886 -0.000530 0.003856 0.001111
# 4 -0.000309 0.004179 -0.000530 0.032383 0.012938 0.000361
# 5 -0.003116 0.003720 0.003856 0.012938 0.033908 -0.001569
# 6 0.003297 0.004099 0.001111 0.000361 -0.001569 0.021687
#
#
# Mechanical properties :
#
#
# Convention : Reuss Voigt Hill
#
# Bulk Modulus (GPa) = 38.29297 46.04449 42.16873
# Shear Modulus (GPa) = 34.10002 40.89820 37.49911
#
# Velocity S-wave (km/s) = 3.87171 4.24012 4.06010
# Velocity P-wave (km/s) = 6.06797 6.64924 6.36524
#
# Compressibility (1/GPa) = 0.02611445
#
# Stress axis : x y z
#
# Youngs Moduli (GPa) = 78.56450 74.54221 84.13401
#
# Poissons Ratio (x) = 0.26534 0.19057
# Poissons Ratio (y) = 0.27966 0.01118
# Poissons Ratio (z) = 0.17795 0.00990
#
# Static dielectric constant tensor:
#      x y z
#    x 4.464840 -0.490380 -0.152090 
#    y -0.490380 4.369320 -0.055020 
#    z -0.152090 -0.055020 4.460930 
# 
# 
# High freq. dielectric constant tensor:
#      x y z
#    x 1.906630 -0.022410 0.000000 
#    y -0.022410 1.907780 0.002450 
#    z 0.000000 0.002450 1.910290 
# 
# From -- ./inp_files/24135.got.cif
#   From: 2010.06.25/outbox.cif.g09.slc.cpg/sg2_13_cif.got.tgz:24135.got - 2010.06.27 13:26:56.
