data_PCOD8037616
_publ_section_title
;
Structure prediction by ZEFSAII (Michael W. Deem and Ramdas Pophale) SiO2 
 PCOD8037616
Probable space group: P -1
;
_chemical_formula_sum "Si O2"
_cell_formula_units_Z 16
_cell_length_a 8.981391
_cell_length_b 17.979209
_cell_length_c 18.340407
_cell_angle_alpha 28.904399
_cell_angle_beta 29.719921
_cell_angle_gamma 38.096158
_cell_volume 705.249940
_symmetry_space_group_name_H-M "P -1"
_symmetry_group_IT_number 2
_symmetry_cell_setting 'triclinic'
loop_
_space_group_symop_operation_xyz
x,y,z
-x,-y,-z
loop_
_atom_site_type_symbol
_atom_site_label
_atom_site_fract_x
_atom_site_fract_y
_atom_site_fract_z
Si Si1 0.241805 0.002928 0.959094
Si Si2 0.733130 0.584450 0.996540
Si Si3 0.153589 0.078622 0.301403
Si Si4 0.737982 0.684382 0.253016
Si Si5 0.067643 0.488108 0.396208
Si Si6 0.171862 0.805382 0.295629
Si Si7 0.805816 0.418208 0.966288
Si Si8 0.808833 0.072522 0.308887
O O1 0.558445 0.025364 0.765976
O O2 0.142033 0.150412 0.925632
O O3 0.285574 0.856280 0.122770
O O4 0.000000 0.000000 0.000000
O O5 0.396431 0.539892 0.193525
O O6 0.876510 0.525512 0.910168
O O7 0.720714 0.767201 0.855094
O O8 0.000000 0.500000 0.000000
O O9 0.900337 0.103110 0.326445
O O10 0.000000 0.000000 0.500000
O O11 0.418008 0.710683 0.325069
O O12 0.781369 0.592642 0.390404
O O13 0.943171 0.570622 0.210551
O O14 0.000000 0.500000 0.500000
O O15 0.077395 0.310464 0.516616
O O16 0.051968 0.958230 0.259719
O O17 0.774432 0.238859 0.144827
O O18 0.500000 0.500000 0.000000
O O19 0.500000 0.000000 0.500000
#
# Coordination Sequence:
#
# PCOD8037616 Si02
#       8
#     2   2   2   2   2   2   2   2
#     4  12  26  48  77 110 152 199 252 319 384 451
#     4  12  27  49  74 106 153 203 251 306 389 453
#     4  12  29  48  75 112 150 197 254 311 384 453
#     4  12  25  48  76 110 149 203 258 315 376 451
#     4  12  28  49  72 114 157 201 251 315 382 456
#     4  12  26  49  80 110 152 202 263 315 380 453
#     4  12  26  48  77 105 151 201 254 309 380 450
#     4  12  27  48  76 110 151 197 258 317 374 456
#
# _framework density 22.686993000000001
#
# number of rings (size 3 to 8) (size 9 to 14) (size 15 to 20)
#    0.000    0.000    5.000    4.500    5.250    1.000 
#    0.000    0.000    0.000    0.000    0.000    0.000 
#    0.000    0.000    0.000    0.000    0.000    0.000 
#
# Total GULP energy -198244.890669 kJ/mol
# GULP energy per Si atom -12390.305667 kJ/mol
# Density = 2.263536 g / cm^3
# Si number density = 22.686993 Si / 1000 Ang^3
#
#
#
# Elastic Constant Matrix: (Units=GPa)
#
#
# Indices 1 2 3 4 5 6 
#
# 1 175.1034 67.0570 65.1601 -0.9569 4.6021 -0.6424
# 2 67.0570 132.3437 37.1423 2.9076 2.9779 7.6686
# 3 65.1601 37.1423 117.2142 0.0036 2.8380 7.1614
# 4 -0.9569 2.9076 0.0036 42.9045 4.9194 -5.3218
# 5 4.6021 2.9779 2.8380 4.9194 45.3885 -8.8512
# 6 -0.6424 7.6686 7.1614 -5.3218 -8.8512 52.4996
#
#
#
# Elastic Compliance Matrix: (Units=1/GPa)
#
#
# Indices 1 2 3 4 5 6 
#
# 1 0.008338 -0.003268 -0.003661 0.000572 -0.000251 0.001094
# 2 -0.003268 0.009644 -0.001141 -0.000858 -0.000420 -0.001451
# 3 -0.003661 -0.001141 0.011031 -0.000130 -0.000519 -0.001484
# 4 0.000572 -0.000858 -0.000130 0.023899 -0.002153 0.002210
# 5 -0.000251 -0.000420 -0.000519 -0.002153 0.023093 0.003804
# 6 0.001094 -0.001451 -0.001484 0.002210 0.003804 0.020341
#
#
# Mechanical properties :
#
#
# Convention : Reuss Voigt Hill
#
# Bulk Modulus (GPa) = 77.66703 84.82001 81.24352
# Shear Modulus (GPa) = 42.81678 45.17864 43.99771
#
# Velocity S-wave (km/s) = 4.34900 4.46734 4.40857
# Velocity P-wave (km/s) = 7.71537 8.00486 7.86144
#
# Compressibility (1/GPa) = 0.01287548
#
# Stress axis : x y z
#
# Youngs Moduli (GPa) = 119.92826 103.68731 90.65384
#
# Poissons Ratio (x) = 0.33884 0.33185
# Poissons Ratio (y) = 0.39192 0.10340
# Poissons Ratio (z) = 0.43901 0.11826
#
# Static dielectric constant tensor:
#      x y z
#    x 4.515300 0.029800 0.201750 
#    y 0.029800 4.156620 -0.108370 
#    z 0.201750 -0.108370 4.111680 
# 
# 
# High freq. dielectric constant tensor:
#      x y z
#    x 1.927640 0.007880 0.000120 
#    y 0.007880 1.910010 -0.008410 
#    z 0.000120 -0.008410 1.887250 
# 
# From -- ./inp_files/262195.got.cif
#   From: 2010.06.25/outbox.cif.g09.slc.cpg/sg2_132_cif.got.tgz:262195.got - 2010.06.27 13:26:56.
