data_PCOD8037582
_publ_section_title
;
Structure prediction by ZEFSAII (Michael W. Deem and Ramdas Pophale) SiO2 
 PCOD8037582
Probable space group: P -1
;
_chemical_formula_sum "Si O2"
_cell_formula_units_Z 14
_cell_length_a 18.555085
_cell_length_b 9.514131
_cell_length_c 8.309473
_cell_angle_alpha 113.081151
_cell_angle_beta 56.467227
_cell_angle_gamma 150.532185
_cell_volume 587.215735
_symmetry_space_group_name_H-M "P -1"
_symmetry_group_IT_number 2
_symmetry_cell_setting 'triclinic'
loop_
_space_group_symop_operation_xyz
x,y,z
-x,-y,-z
loop_
_atom_site_type_symbol
_atom_site_label
_atom_site_fract_x
_atom_site_fract_y
_atom_site_fract_z
Si Si1 0.330078 0.336688 0.907974
Si Si2 0.863622 0.227194 0.658569
Si Si3 0.559581 0.938406 0.991616
Si Si4 0.433479 0.166401 0.720124
Si Si5 0.001472 0.056493 0.707904
Si Si6 0.732329 0.753119 0.424292
Si Si7 0.095118 0.521496 0.784685
O O1 0.482391 0.679613 0.878854
O O2 0.370672 0.235842 0.898655
O O3 0.300198 0.251166 0.720687
O O4 0.184965 0.204905 0.119956
O O5 0.000000 0.500000 0.500000
O O6 0.975005 0.309431 0.688134
O O7 0.757595 0.209796 0.853683
O O8 0.740012 0.921342 0.589624
O O9 0.516139 0.866154 0.204510
O O10 0.500000 0.000000 0.000000
O O11 0.590153 0.427962 0.527573
O O12 0.282116 0.860185 0.670158
O O13 0.089636 0.058897 0.704485
O O14 0.105158 0.364642 0.768445
O O15 0.000000 0.000000 0.500000
O O16 0.000000 0.500000 0.000000
#
# Coordination Sequence:
#
# PCOD8037582 Si02
#       7
#     2   2   2   2   2   2   2
#     4  12  26  49  78 109 159 205 260 310 393 470
#     4  12  27  46  75 110 158 199 262 317 383 461
#     4  12  29  47  75 114 155 203 260 325 388 456
#     4  12  26  51  81 108 157 206 258 318 391 468
#     4  12  26  48  77 114 153 205 259 322 384 457
#     4  12  28  47  78 115 154 208 256 318 393 464
#     4  12  25  47  80 111 149 204 261 312 390 453
#
# _framework density 23.841321000000001
#
# number of rings (size 3 to 8) (size 9 to 14) (size 15 to 20)
#    0.000    0.000    5.714    3.000    6.000    1.714 
#    0.000    0.000    0.000    0.000    0.000    0.000 
#    0.000    0.000    0.000    0.000    0.000    0.000 
#
# Total GULP energy -173555.022430 kJ/mol
# GULP energy per Si atom -12396.787316 kJ/mol
# Density = 2.378706 g / cm^3
# Si number density = 23.841321 Si / 1000 Ang^3
#
#
#
# Elastic Constant Matrix: (Units=GPa)
#
#
# Indices 1 2 3 4 5 6 
#
# 1 125.0354 22.3950 27.7900 -2.8663 -0.9359 -2.6501
# 2 22.3950 120.4220 19.6044 5.6889 6.4959 -3.4601
# 3 27.7900 19.6044 104.7800 -7.9332 4.5741 -0.2812
# 4 -2.8663 5.6889 -7.9332 45.9832 5.7814 2.2992
# 5 -0.9359 6.4959 4.5741 5.7814 44.5700 3.6213
# 6 -2.6501 -3.4601 -0.2812 2.2992 3.6213 37.5329
#
#
#
# Elastic Compliance Matrix: (Units=1/GPa)
#
#
# Indices 1 2 3 4 5 6 
#
# 1 0.008711 -0.001312 -0.002066 0.000263 0.000519 0.000412
# 2 -0.001312 0.008919 -0.001372 -0.001330 -0.001088 0.000906
# 3 -0.002066 -0.001372 0.010552 0.002019 -0.001172 -0.000204
# 4 0.000263 -0.001330 0.002019 0.022695 -0.002854 -0.001204
# 5 0.000519 -0.001088 -0.001172 -0.002854 0.023271 -0.002143
# 6 0.000412 0.000906 -0.000204 -0.001204 -0.002143 0.027035
#
#
# Mechanical properties :
#
#
# Convention : Reuss Voigt Hill
#
# Bulk Modulus (GPa) = 53.52888 54.42402 53.97645
# Shear Modulus (GPa) = 42.76808 44.31376 43.54092
#
# Velocity S-wave (km/s) = 4.24000 4.31594 4.27814
# Velocity P-wave (km/s) = 6.81696 6.90750 6.86238
#
# Compressibility (1/GPa) = 0.01868150
#
# Stress axis : x y z
#
# Youngs Moduli (GPa) = 114.80187 112.12050 94.76935
#
# Poissons Ratio (x) = 0.14711 0.19583
# Poissons Ratio (y) = 0.15063 0.12998
# Poissons Ratio (z) = 0.23723 0.15378
#
# Static dielectric constant tensor:
#      x y z
#    x 4.212890 0.615680 0.039180 
#    y 0.615680 3.018010 -0.549260 
#    z 0.039180 -0.549260 3.925310 
# 
# 
# High freq. dielectric constant tensor:
#      x y z
#    x 1.955100 0.007130 -0.006750 
#    y 0.007130 1.957630 -0.004570 
#    z -0.006750 -0.004570 1.939560 
# 
# From -- ./inp_files/297733.got.cif
#   From: 2010.06.25/outbox.cif.g09.slc.cpg/sg2_149_cif.got.tgz:297733.got - 2010.06.27 13:26:56.
