data_PCOD8037392
_publ_section_title
;
Structure prediction by ZEFSAII (Michael W. Deem and Ramdas Pophale) SiO2 
 PCOD8037392
Probable space group: P -1
;
_chemical_formula_sum "Si O2"
_cell_formula_units_Z 16
_cell_length_a 8.935068
_cell_length_b 8.998252
_cell_length_c 22.233347
_cell_angle_alpha 28.094560
_cell_angle_beta 60.202110
_cell_angle_gamma 60.816458
_cell_volume 725.193446
_symmetry_space_group_name_H-M "P -1"
_symmetry_group_IT_number 2
_symmetry_cell_setting 'triclinic'
loop_
_space_group_symop_operation_xyz
x,y,z
-x,-y,-z
loop_
_atom_site_type_symbol
_atom_site_label
_atom_site_fract_x
_atom_site_fract_y
_atom_site_fract_z
Si Si1 0.470312 0.399022 0.609716
Si Si2 0.175318 0.640916 0.267272
Si Si3 0.102178 0.681120 0.622756
Si Si4 0.517548 0.630592 0.134990
Si Si5 0.805847 0.610397 0.522088
Si Si6 0.832303 0.292645 0.260503
Si Si7 0.103759 0.324622 0.093364
Si Si8 0.407735 0.675924 0.899783
O O1 0.500000 0.500000 0.500000
O O2 0.305718 0.639687 0.578980
O O3 0.653633 0.409299 0.603147
O O4 0.424040 0.046646 0.757687
O O5 0.339824 0.530122 0.232415
O O6 0.185141 0.382834 0.410377
O O7 0.996395 0.613943 0.276120
O O8 0.188465 0.984675 0.171878
O O9 0.097157 0.667540 0.700792
O O10 0.000000 0.000000 0.500000
O O11 0.679619 0.555997 0.175130
O O12 0.544012 0.472056 0.121777
O O13 0.500000 0.000000 0.000000
O O14 0.000000 0.500000 0.500000
O O15 0.748700 0.966901 0.384388
O O16 0.001259 0.272766 0.192584
O O17 0.221620 0.598819 0.984913
O O18 0.000000 0.500000 0.000000
O O19 0.500000 0.500000 0.000000
#
# Coordination Sequence:
#
# PCOD8037392 Si02
#       8
#     2   2   2   2   2   2   2   2
#     4  12  29  48  79 113 155 202 259 318 391 462
#     4  12  25  46  74 106 155 192 253 313 377 453
#     4  12  29  47  72 120 157 197 259 323 381 452
#     4  12  27  49  74 110 148 201 251 315 380 456
#     4  12  25  45  79 110 150 197 253 309 384 458
#     4  12  27  47  79 109 154 200 254 314 390 453
#     4  12  24  49  73 104 146 206 249 304 380 461
#     4  12  28  47  78 111 152 195 262 317 385 457
#
# _framework density 22.063078999999998
#
# number of rings (size 3 to 8) (size 9 to 14) (size 15 to 20)
#    0.000    0.000    5.000    3.750    7.000    1.000 
#    0.000    1.875    0.000    0.000    0.000    0.000 
#    0.000    0.000    0.000    0.000    0.000    0.000 
#
# Total GULP energy -198249.065188 kJ/mol
# GULP energy per Si atom -12390.566574 kJ/mol
# Density = 2.201286 g / cm^3
# Si number density = 22.063079 Si / 1000 Ang^3
#
#
#
# Elastic Constant Matrix: (Units=GPa)
#
#
# Indices 1 2 3 4 5 6 
#
# 1 170.2220 49.7234 58.0318 4.4533 0.6639 4.8667
# 2 49.7234 105.3032 54.9912 16.8401 6.6433 -2.7709
# 3 58.0318 54.9912 160.8321 -0.6476 3.9946 6.1331
# 4 4.4533 16.8401 -0.6476 49.9345 3.1138 6.4542
# 5 0.6639 6.6433 3.9946 3.1138 54.9807 5.4744
# 6 4.8667 -2.7709 6.1331 6.4542 5.4744 37.8161
#
#
#
# Elastic Compliance Matrix: (Units=1/GPa)
#
#
# Indices 1 2 3 4 5 6 
#
# 1 0.007237 -0.002645 -0.001680 0.000323 0.000433 -0.000971
# 2 -0.002645 0.013655 -0.003812 -0.004716 -0.001369 0.002962
# 3 -0.001680 -0.003812 0.008200 0.001763 -0.000047 -0.001687
# 4 0.000323 -0.004716 0.001763 0.022204 -0.000381 -0.004408
# 5 0.000433 -0.001369 -0.000047 -0.000381 0.018650 -0.002783
# 6 -0.000971 0.002962 -0.001687 -0.004408 -0.002783 0.028215
#
#
# Mechanical properties :
#
#
# Convention : Reuss Voigt Hill
#
# Bulk Modulus (GPa) = 78.01346 84.64999 81.33172
# Shear Modulus (GPa) = 42.12035 46.78700 44.45367
#
# Velocity S-wave (km/s) = 4.37405 4.60999 4.49357
# Velocity P-wave (km/s) = 7.80678 8.17231 7.99163
#
# Compressibility (1/GPa) = 0.01281830
#
# Stress axis : x y z
#
# Youngs Moduli (GPa) = 138.16975 73.23498 121.95451
#
# Poissons Ratio (x) = 0.19370 0.20483
# Poissons Ratio (y) = 0.36545 0.46494
# Poissons Ratio (z) = 0.23206 0.27920
#
# Static dielectric constant tensor:
#      x y z
#    x 4.237310 0.159980 -0.104990 
#    y 0.159980 4.108940 -0.043360 
#    z -0.104990 -0.043360 4.457030 
# 
# 
# High freq. dielectric constant tensor:
#      x y z
#    x 1.886660 -0.000570 0.001740 
#    y -0.000570 1.869690 0.009310 
#    z 0.001740 0.009310 1.894930 
# 
# From -- ./inp_files/587703.got.cif
#   From: 2010.06.25/outbox.cif.g09.slc.cpg/sg2_294_cif.got.tgz:587703.got - 2010.06.27 13:26:56.
