data_PCOD8037463
_publ_section_title
;
Structure prediction by ZEFSAII (Michael W. Deem and Ramdas Pophale) SiO2 
 PCOD8037463
Probable space group: P -1
;
_chemical_formula_sum "Si O2"
_cell_formula_units_Z 16
_cell_length_a 11.174049
_cell_length_b 12.835769
_cell_length_c 6.649490
_cell_angle_alpha 129.531222
_cell_angle_beta 87.142581
_cell_angle_gamma 103.583712
_cell_volume 708.663893
_symmetry_space_group_name_H-M "P -1"
_symmetry_group_IT_number 2
_symmetry_cell_setting 'triclinic'
loop_
_space_group_symop_operation_xyz
x,y,z
-x,-y,-z
loop_
_atom_site_type_symbol
_atom_site_label
_atom_site_fract_x
_atom_site_fract_y
_atom_site_fract_z
Si Si1 0.164394 0.297559 0.114978
Si Si2 0.929554 0.240248 0.311349
Si Si3 0.131543 0.531740 0.137000
Si Si4 0.101814 0.983508 0.627041
Si Si5 0.467500 0.127891 0.272316
Si Si6 0.738849 0.092064 0.804525
Si Si7 0.382586 0.717151 0.177035
Si Si8 0.557963 0.645827 0.767144
O O1 0.136198 0.378488 0.020372
O O2 0.303914 0.368863 0.246135
O O3 0.067088 0.316197 0.315531
O O4 0.161783 0.136526 0.892073
O O5 0.868143 0.356630 0.549069
O O6 0.949904 0.123695 0.321460
O O7 0.842977 0.164838 0.044522
O O8 0.253855 0.596331 0.071024
O O9 0.000000 0.500000 0.000000
O O10 0.202000 0.921195 0.431890
O O11 0.000000 0.000000 0.500000
O O12 0.571146 0.200352 0.517750
O O13 0.452184 0.235557 0.239920
O O14 0.334220 0.063132 0.308455
O O15 0.500000 0.000000 0.000000
O O16 0.642056 0.182422 0.875599
O O17 0.493355 0.657958 0.003649
O O18 0.500000 0.500000 0.500000
#
# Coordination Sequence:
#
# PCOD8037463 Si02
#       8
#     2   2   2   2   2   2   2   2
#     4  12  27  46  73 107 151 186 242 301 364 429
#     4  12  26  48  75 108 147 192 241 299 367 439
#     4  12  27  49  78 106 143 197 245 297 364 438
#     4  12  25  45  70 113 147 184 235 301 374 422
#     4  12  26  46  77 107 143 195 246 296 362 441
#     4  12  25  44  80 107 145 190 243 304 363 433
#     4  12  27  50  75 106 151 189 253 302 357 441
#     4  12  30  48  71 107 148 199 242 301 371 429
#
# _framework density 22.577698999999999
#
# number of rings (size 3 to 8) (size 9 to 14) (size 15 to 20)
#    0.000    0.000    3.750    5.625    7.000    3.000 
#    0.000    0.000    0.000    0.000    0.000    0.000 
#    0.000    0.000    0.000    0.000    0.000    0.000 
#
# Total GULP energy -198393.027959 kJ/mol
# GULP energy per Si atom -12399.564247 kJ/mol
# Density = 2.252631 g / cm^3
# Si number density = 22.577699 Si / 1000 Ang^3
#
#
#
# Elastic Constant Matrix: (Units=GPa)
#
#
# Indices 1 2 3 4 5 6 
#
# 1 147.3621 46.5100 31.9346 -13.1911 10.1888 17.7510
# 2 46.5100 137.2969 25.0752 -9.0877 -1.1059 3.9982
# 3 31.9346 25.0752 79.4742 -4.6067 -2.8444 6.3462
# 4 -13.1911 -9.0877 -4.6067 34.9149 -2.3724 1.2879
# 5 10.1888 -1.1059 -2.8444 -2.3724 30.9604 -0.3894
# 6 17.7510 3.9982 6.3462 1.2879 -0.3894 48.5016
#
#
#
# Elastic Compliance Matrix: (Units=1/GPa)
#
#
# Indices 1 2 3 4 5 6 
#
# 1 0.008827 -0.002313 -0.002572 0.002287 -0.003084 -0.002789
# 2 -0.002313 0.008445 -0.001659 0.001161 0.001004 0.000345
# 3 -0.002572 -0.001659 0.014318 0.000660 0.002143 -0.000796
# 4 0.002287 0.001161 0.000660 0.030072 0.001631 -0.001805
# 5 -0.003084 0.001004 0.002143 0.001631 0.033684 0.000993
# 6 -0.002789 0.000345 -0.000796 -0.001805 0.000993 0.021770
#
#
# Mechanical properties :
#
#
# Convention : Reuss Voigt Hill
#
# Bulk Modulus (GPa) = 54.05001 63.46364 58.75683
# Shear Modulus (GPa) = 36.66406 40.24962 38.45684
#
# Velocity S-wave (km/s) = 4.03414 4.22680 4.13160
# Velocity P-wave (km/s) = 6.75948 7.21049 6.98863
#
# Compressibility (1/GPa) = 0.01850138
#
# Stress axis : x y z
#
# Youngs Moduli (GPa) = 113.28502 118.41486 69.83987
#
# Poissons Ratio (x) = 0.27386 0.17966
# Poissons Ratio (y) = 0.26200 0.11590
# Poissons Ratio (z) = 0.29142 0.19651
#
# Static dielectric constant tensor:
#      x y z
#    x 2.348370 0.827960 1.764860 
#    y 0.827960 4.156540 -0.654070 
#    z 1.764860 -0.654070 2.166070 
# 
# 
# High freq. dielectric constant tensor:
#      x y z
#    x 1.907420 0.006460 -0.001830 
#    y 0.006460 1.909740 0.000420 
#    z -0.001830 0.000420 1.892090 
# 
# From -- ./inp_files/72334.got.cif
#   From: 2010.06.25/outbox.cif.g09.slc.cpg/sg2_37_cif.got.tgz:72334.got - 2010.06.27 13:26:56.
