data_PCOD8037853
_publ_section_title
;
Structure prediction by ZEFSAII (Michael W. Deem and Ramdas Pophale) SiO2 
 PCOD8037853
Probable space group: P -1
;
_chemical_formula_sum "Si O2"
_cell_formula_units_Z 14
_cell_length_a 7.999206
_cell_length_b 11.219791
_cell_length_c 14.786150
_cell_angle_alpha 50.079696
_cell_angle_beta 126.455087
_cell_angle_gamma 88.813755
_cell_volume 620.900375
_symmetry_space_group_name_H-M "P -1"
_symmetry_group_IT_number 2
_symmetry_cell_setting 'triclinic'
loop_
_space_group_symop_operation_xyz
x,y,z
-x,-y,-z
loop_
_atom_site_type_symbol
_atom_site_label
_atom_site_fract_x
_atom_site_fract_y
_atom_site_fract_z
Si Si1 0.288769 0.447343 0.622203
Si Si2 0.447905 0.195711 0.632576
Si Si3 0.723745 0.763370 0.941063
Si Si4 0.687335 0.073727 0.425780
Si Si5 0.245786 0.306450 0.325664
Si Si6 0.980059 0.846666 0.409030
Si Si7 0.480720 0.854065 0.005869
O O1 0.465306 0.327952 0.646305
O O2 0.230612 0.656396 0.521622
O O3 0.470005 0.312477 0.831937
O O4 0.000000 0.500000 0.500000
O O5 0.388706 0.302216 0.464851
O O6 0.203072 0.200887 0.584510
O O7 0.724950 0.952519 0.835625
O O8 0.451403 0.840979 0.759639
O O9 0.704936 0.741320 0.052834
O O10 0.988712 0.540492 0.101183
O O11 0.446801 0.217223 0.350184
O O12 0.914349 0.097465 0.501603
O O13 0.828633 0.837240 0.605090
O O14 0.812509 0.026402 0.193621
O O15 0.500000 0.000000 0.000000
#
# Coordination Sequence:
#
# PCOD8037853 Si02
#       7
#     2   2   2   2   2   2   2
#     4  10  17  32  54  81 114 144 177 223 280 326
#     4   9  19  33  56  86 106 143 188 227 281 329
#     4  10  19  34  60  81 107 148 187 231 270 336
#     4  10  23  40  53  84 114 150 192 224 280 329
#     4  10  21  38  61  76 110 158 188 228 273 336
#     4  10  21  35  57  83 121 141 181 241 273 328
#     4  11  19  33  57  90 112 144 185 226 284 334
#
# _framework density 22.547902000000001
#
# number of rings (size 3 to 8) (size 9 to 14) (size 15 to 20)
#    0.000    2.000    4.286    2.143    0.000    6.286 
#    0.000    5.000    0.000    1.714    0.000    0.000 
#    0.000    0.000    0.000    0.000    0.000    0.000 
#
# Total GULP energy -173441.151720 kJ/mol
# GULP energy per Si atom -12388.653694 kJ/mol
# Density = 2.249658 g / cm^3
# Si number density = 22.547902 Si / 1000 Ang^3
#
#
#
# Elastic Constant Matrix: (Units=GPa)
#
#
# Indices 1 2 3 4 5 6 
#
# 1 14.7158 -3.9592 -5.4378 5.7788 -4.6841 -7.4376
# 2 -3.9592 124.8181 37.8316 -0.2075 -2.6431 -21.5470
# 3 -5.4378 37.8316 110.2319 -15.5216 -9.9712 -6.4119
# 4 5.7788 -0.2075 -15.5216 51.6677 -9.4068 -6.8554
# 5 -4.6841 -2.6431 -9.9712 -9.4068 12.2905 3.3327
# 6 -7.4376 -21.5470 -6.4119 -6.8554 3.3327 22.0122
#
#
#
# Elastic Compliance Matrix: (Units=1/GPa)
#
#
# Indices 1 2 3 4 5 6 
#
# 1 0.106639 0.008838 0.008987 0.003953 0.041399 0.042264
# 2 0.008838 0.011421 -0.002699 0.000027 0.000026 0.013384
# 3 0.008987 -0.002699 0.013182 0.006636 0.017634 0.003632
# 4 0.003953 0.000027 0.006636 0.026500 0.025077 0.007752
# 5 0.041399 0.000026 0.017634 0.025077 0.128616 0.007488
# 6 0.042264 0.013384 0.003632 0.007752 0.007488 0.075150
#
#
# Mechanical properties :
#
#
# Convention : Reuss Voigt Hill
#
# Bulk Modulus (GPa) = 6.19216 34.07055 20.13135
# Shear Modulus (GPa) = 12.98403 31.94950 22.46676
#
# Velocity S-wave (km/s) = 2.40227 3.76834 3.16001
# Velocity P-wave (km/s) = 3.23214 5.83754 4.71825
#
# Compressibility (1/GPa) = 0.16149461
#
# Stress axis : x y z
#
# Youngs Moduli (GPa) = 9.37741 87.55696 75.85964
#
# Poissons Ratio (x) = -0.77381 -0.68177
# Poissons Ratio (y) = -0.08288 0.20475
# Poissons Ratio (z) = -0.08428 0.23632
#
# Static dielectric constant tensor:
#      x y z
#    x 3.475750 -0.399540 -0.272430 
#    y -0.399540 5.183590 -0.152140 
#    z -0.272430 -0.152140 4.376600 
# 
# 
# High freq. dielectric constant tensor:
#      x y z
#    x 1.832490 -0.036010 -0.020190 
#    y -0.036010 1.922400 -0.009760 
#    z -0.020190 -0.009760 1.887860 
# 
# From -- ./inp_files/268092.got.cif
#   From: 2010.06.25/outbox.cif.g09.slc.cpg/sg2_135_cif.got.tgz:268092.got - 2010.06.27 13:26:56.
