data_PCOD8037888
_publ_section_title
;
Structure prediction by ZEFSAII (Michael W. Deem and Ramdas Pophale) SiO2 
 PCOD8037888
Probable space group: P -1
;
_chemical_formula_sum "Si O2"
_cell_formula_units_Z 16
_cell_length_a 11.591886
_cell_length_b 23.675929
_cell_length_c 9.314248
_cell_angle_alpha 52.939438
_cell_angle_beta 75.996896
_cell_angle_gamma 31.283603
_cell_volume 796.757863
_symmetry_space_group_name_H-M "P -1"
_symmetry_group_IT_number 2
_symmetry_cell_setting 'triclinic'
loop_
_space_group_symop_operation_xyz
x,y,z
-x,-y,-z
loop_
_atom_site_type_symbol
_atom_site_label
_atom_site_fract_x
_atom_site_fract_y
_atom_site_fract_z
Si Si1 0.742846 0.698265 0.761993
Si Si2 0.156326 0.825264 0.606852
Si Si3 0.079789 0.244034 0.391867
Si Si4 0.683387 0.460564 0.930409
Si Si5 0.829821 0.023861 0.666067
Si Si6 0.642421 0.044992 0.257053
Si Si7 0.071616 0.042644 0.940376
Si Si8 0.610365 0.412051 0.450144
O O1 0.848519 0.715655 0.637894
O O2 0.494038 0.803512 0.570465
O O3 0.613550 0.783831 0.829060
O O4 0.000000 0.500000 0.000000
O O5 0.503319 0.629954 0.768050
O O6 0.054010 0.959222 0.390453
O O7 0.070386 0.852536 0.755990
O O8 0.971014 0.873111 0.489873
O O9 0.813837 0.361056 0.392904
O O10 0.367667 0.035228 0.640043
O O11 0.000548 0.292530 0.169205
O O12 0.674767 0.451663 0.774675
O O13 0.500000 0.500000 0.000000
O O14 0.833624 0.990919 0.874445
O O15 0.646940 0.085739 0.043631
O O16 0.783995 0.244420 0.678479
O O17 0.000000 0.000000 0.000000
O O18 0.500000 0.500000 0.500000
#
# Coordination Sequence:
#
# PCOD8037888 Si02
#       8
#     2   2   2   2   2   2   2   2
#     4  11  24  40  57  82 113 153 199 239 275 339
#     4  10  17  35  55  88 108 144 192 244 275 333
#     4  10  21  38  59  81 120 155 192 229 282 343
#     4  10  17  32  57  81 113 142 189 229 282 325
#     4  10  22  33  59  83 116 143 194 235 291 329
#     4  10  20  38  58  84 112 151 195 231 287 342
#     4  11  20  36  58  85 117 148 182 236 298 341
#     4  10  22  34  55  92 122 143 188 235 291 337
#
# _framework density 20.081382999999999
#
# number of rings (size 3 to 8) (size 9 to 14) (size 15 to 20)
#    0.000    1.750    5.000    1.125    3.500    1.000 
#    0.000    4.375    0.000    0.000    0.000    0.000 
#    0.000    0.000    0.000    0.000    0.000    0.000 
#
# Total GULP energy -198252.113804 kJ/mol
# GULP energy per Si atom -12390.757113 kJ/mol
# Density = 2.003568 g / cm^3
# Si number density = 20.081383 Si / 1000 Ang^3
#
#
#
# Elastic Constant Matrix: (Units=GPa)
#
#
# Indices 1 2 3 4 5 6 
#
# 1 79.7205 26.7719 29.6084 2.6850 -17.6381 5.8010
# 2 26.7719 125.8410 52.4528 18.9087 -3.0196 16.6610
# 3 29.6084 52.4528 80.4588 17.3117 -8.5846 7.8513
# 4 2.6850 18.9087 17.3117 37.6193 8.6791 2.4558
# 5 -17.6381 -3.0196 -8.5846 8.6791 32.1885 0.8145
# 6 5.8010 16.6610 7.8513 2.4558 0.8145 25.4624
#
#
#
# Elastic Compliance Matrix: (Units=1/GPa)
#
#
# Indices 1 2 3 4 5 6 
#
# 1 0.016394 -0.001298 -0.004090 -0.000340 0.007909 -0.001845
# 2 -0.001298 0.011911 -0.006265 -0.002564 -0.000439 -0.005305
# 3 -0.004090 -0.006265 0.019985 -0.006713 0.004327 -0.000622
# 4 -0.000340 -0.002564 -0.006713 0.033525 -0.011281 0.000952
# 5 0.007909 -0.000439 0.004327 -0.011281 0.039632 -0.003029
# 6 -0.001845 -0.005305 -0.000622 0.000952 -0.003029 0.043362
#
#
# Mechanical properties :
#
#
# Convention : Reuss Voigt Hill
#
# Bulk Modulus (GPa) = 40.02445 55.96515 47.99480
# Shear Modulus (GPa) = 25.45267 30.86650 28.15959
#
# Velocity S-wave (km/s) = 3.56403 3.92480 3.74876
# Velocity P-wave (km/s) = 6.07542 6.96193 6.53373
#
# Compressibility (1/GPa) = 0.02498473
#
# Stress axis : x y z
#
# Youngs Moduli (GPa) = 60.99680 83.95545 50.03774
#
# Poissons Ratio (x) = 0.10897 0.20464
# Poissons Ratio (y) = 0.07917 0.31349
# Poissons Ratio (z) = 0.24946 0.52599
#
# Static dielectric constant tensor:
#      x y z
#    x 3.653350 0.119850 0.007510 
#    y 0.119850 3.544050 0.442210 
#    z 0.007510 0.442210 3.615440 
# 
# 
# High freq. dielectric constant tensor:
#      x y z
#    x 1.778730 0.020880 -0.016580 
#    y 0.020880 1.775190 0.005380 
#    z -0.016580 0.005380 1.777220 
# 
# From -- ./inp_files/284728.got.cif
#   From: 2010.06.25/outbox.cif.g09.slc.cpg/sg2_143_cif.got.tgz:284728.got - 2010.06.27 13:26:56.
