data_PCOD8037593
_publ_section_title
;
Structure prediction by ZEFSAII (Michael W. Deem and Ramdas Pophale) SiO2 
 PCOD8037593
Probable space group: P -1
;
_chemical_formula_sum "Si O2"
_cell_formula_units_Z 16
_cell_length_a 8.695606
_cell_length_b 18.264050
_cell_length_c 5.250892
_cell_angle_alpha 89.055568
_cell_angle_beta 84.400918
_cell_angle_gamma 126.828260
_cell_volume 661.375273
_symmetry_space_group_name_H-M "P -1"
_symmetry_group_IT_number 2
_symmetry_cell_setting 'triclinic'
loop_
_space_group_symop_operation_xyz
x,y,z
-x,-y,-z
loop_
_atom_site_type_symbol
_atom_site_label
_atom_site_fract_x
_atom_site_fract_y
_atom_site_fract_z
Si Si1 0.880985 0.281052 0.732801
Si Si2 0.364925 0.768994 0.724721
Si Si3 0.145080 0.244022 0.808232
Si Si4 0.897284 0.047887 0.038934
Si Si5 0.296682 0.407078 0.112446
Si Si6 0.136959 0.471283 0.514843
Si Si7 0.352773 0.019247 0.420766
Si Si8 0.519566 0.661858 0.596652
O O1 0.766126 0.273501 0.501792
O O2 0.970017 0.225080 0.656037
O O3 0.040365 0.391636 0.747560
O O4 0.745400 0.235823 0.005696
O O5 0.540277 0.873231 0.631494
O O6 0.446192 0.710274 0.766568
O O7 0.347595 0.271250 0.662730
O O8 0.064079 0.157674 0.008661
O O9 0.179813 0.335690 0.910250
O O10 0.746212 0.023777 0.836598
O O11 0.807956 0.021143 0.334309
O O12 0.000000 0.000000 0.000000
O O13 0.161092 0.429762 0.258257
O O14 0.329035 0.344740 0.281342
O O15 0.500000 0.500000 0.000000
O O16 0.347336 0.558591 0.555526
O O17 0.000000 0.500000 0.500000
O O18 0.500000 0.000000 0.500000
#
# Coordination Sequence:
#
# PCOD8037593 Si02
#       8
#     2   2   2   2   2   2   2   2
#     4  12  26  48  72 110 148 201 253 305 372 450
#     4  12  28  47  77 110 150 196 252 314 379 446
#     4  12  27  47  76 104 153 198 252 304 381 450
#     4  12  28  48  80 116 154 199 257 322 382 456
#     4  12  26  46  73 106 149 202 247 305 376 449
#     4  12  25  48  70 110 151 196 253 310 368 447
#     4  12  26  51  79 112 154 199 257 319 390 455
#     4  12  27  44  71 106 150 198 248 309 377 446
#
# _framework density 24.192011999999998
#
# number of rings (size 3 to 8) (size 9 to 14) (size 15 to 20)
#    0.000    0.000    3.750    5.625    7.000    0.500 
#    0.000    0.000    0.000    0.000    0.000    0.000 
#    0.000    0.000    0.000    0.000    0.000    0.000 
#
# Total GULP energy -198293.994145 kJ/mol
# GULP energy per Si atom -12393.374634 kJ/mol
# Density = 2.413695 g / cm^3
# Si number density = 24.192012 Si / 1000 Ang^3
#
#
#
# Elastic Constant Matrix: (Units=GPa)
#
#
# Indices 1 2 3 4 5 6 
#
# 1 110.1158 11.1005 12.8627 -0.3026 -0.9359 -11.6870
# 2 11.1005 132.7262 21.9265 -30.1641 -4.7628 1.2376
# 3 12.8627 21.9265 95.4561 -16.7355 2.5286 13.8977
# 4 -0.3026 -30.1641 -16.7355 48.5234 4.3267 -8.0163
# 5 -0.9359 -4.7628 2.5286 4.3267 29.9091 -5.9848
# 6 -11.6870 1.2376 13.8977 -8.0163 -5.9848 35.8192
#
#
#
# Elastic Compliance Matrix: (Units=1/GPa)
#
#
# Indices 1 2 3 4 5 6 
#
# 1 0.009802 -0.000592 -0.001879 -0.000394 0.001242 0.004067
# 2 -0.000592 0.009024 -0.001289 0.005293 0.001032 0.001352
# 3 -0.001879 -0.001289 0.012351 0.002835 -0.002756 -0.005186
# 4 -0.000394 0.005293 0.002835 0.025737 -0.002341 0.003957
# 5 0.001242 0.001032 -0.002756 -0.002341 0.035582 0.006860
# 6 0.004067 0.001352 -0.005186 0.003957 0.006860 0.033242
#
#
# Mechanical properties :
#
#
# Convention : Reuss Voigt Hill
#
# Bulk Modulus (GPa) = 42.27344 47.78640 45.02992
# Shear Modulus (GPa) = 35.42489 42.34421 38.88455
#
# Velocity S-wave (km/s) = 3.83080 4.18824 4.01350
# Velocity P-wave (km/s) = 6.08923 6.57148 6.33495
#
# Compressibility (1/GPa) = 0.02365552
#
# Stress axis : x y z
#
# Youngs Moduli (GPa) = 102.02394 110.81391 80.96787
#
# Poissons Ratio (x) = 0.06563 0.15212
# Poissons Ratio (y) = 0.06042 0.10440
# Poissons Ratio (z) = 0.19168 0.14288
#
# Static dielectric constant tensor:
#      x y z
#    x 3.000240 -1.570450 -0.516280 
#    y -1.570450 2.975570 -0.805500 
#    z -0.516280 -0.805500 3.987320 
# 
# 
# High freq. dielectric constant tensor:
#      x y z
#    x 1.984420 -0.000600 0.001420 
#    y -0.000600 1.979230 -0.018410 
#    z 0.001420 -0.018410 1.955760 
# 
# From -- ./inp_files/47815.got.cif
#   From: 2010.06.25/outbox.cif.g09.slc.cpg/sg2_24_cif.got.tgz:47815.got - 2010.06.27 13:26:56.
