data_PCOD8037093
_publ_section_title
;
Structure prediction by ZEFSAII (Michael W. Deem and Ramdas Pophale) SiO2 
 PCOD8037093
Probable space group: P -1
;
_chemical_formula_sum "Si O2"
_cell_formula_units_Z 16
_cell_length_a 21.500946
_cell_length_b 9.011013
_cell_length_c 18.167168
_cell_angle_alpha 141.009420
_cell_angle_beta 18.932946
_cell_angle_gamma 141.261399
_cell_volume 701.040182
_symmetry_space_group_name_H-M "P -1"
_symmetry_group_IT_number 2
_symmetry_cell_setting 'triclinic'
loop_
_space_group_symop_operation_xyz
x,y,z
-x,-y,-z
loop_
_atom_site_type_symbol
_atom_site_label
_atom_site_fract_x
_atom_site_fract_y
_atom_site_fract_z
Si Si1 0.550099 0.786635 0.314041
Si Si2 0.278083 0.970468 0.458220
Si Si3 0.348263 0.915199 0.831211
Si Si4 0.793408 0.572769 0.501323
Si Si5 0.914929 0.725040 0.971152
Si Si6 0.712015 0.549267 0.742098
Si Si7 0.166747 0.419487 0.829693
Si Si8 0.997250 0.997938 0.342779
O O1 0.371901 0.550821 0.420464
O O2 0.726922 0.694242 0.117403
O O3 0.500000 0.000000 0.500000
O O4 0.593301 0.885053 0.220542
O O5 0.512961 0.019394 0.227114
O O6 0.196786 0.154290 0.673403
O O7 0.198134 0.689019 0.457411
O O8 0.212798 0.996451 0.457417
O O9 0.356271 0.643323 0.689460
O O10 0.124877 0.898599 0.099937
O O11 0.690138 0.635238 0.715958
O O12 0.937710 0.818431 0.407917
O O13 0.926570 0.378918 0.292628
O O14 0.875906 0.579156 0.034998
O O15 0.000000 0.000000 0.000000
O O16 0.877698 0.743158 0.672949
O O17 0.500000 0.500000 0.000000
O O18 0.000000 0.500000 0.000000
#
# Coordination Sequence:
#
# PCOD8037093 Si02
#       8
#     2   2   2   2   2   2   2   2
#     4  12  26  42  70 106 153 192 235 291 360 439
#     4  12  25  45  77 104 144 196 236 290 376 420
#     4  12  25  46  71 108 149 190 239 294 362 439
#     4  12  26  48  71 109 144 188 240 306 365 426
#     4  12  24  42  70 107 151 190 234 288 366 437
#     4  12  26  54  76 101 144 192 253 306 355 427
#     4  12  24  44  73 112 151 186 233 293 360 451
#     4  12  27  47  77 103 142 191 248 303 357 427
#
# _framework density 22.823226999999999
#
# number of rings (size 3 to 8) (size 9 to 14) (size 15 to 20)
#    0.000    0.000    6.250    3.375    5.250    0.000 
#    2.250    0.625    0.000    0.000    0.000    0.000 
#    0.000    0.000    0.000    0.000    0.000    0.000 
#
# Total GULP energy -198322.362727 kJ/mol
# GULP energy per Si atom -12395.147670 kJ/mol
# Density = 2.277128 g / cm^3
# Si number density = 22.823227 Si / 1000 Ang^3
#
#
#
# Elastic Constant Matrix: (Units=GPa)
#
#
# Indices 1 2 3 4 5 6 
#
# 1 136.4699 47.9587 59.9675 -6.5484 -20.9793 10.8533
# 2 47.9587 160.6017 42.4918 -4.0498 -4.2154 14.2451
# 3 59.9675 42.4918 90.9457 -6.5504 -9.3745 -4.1061
# 4 -6.5484 -4.0498 -6.5504 31.7350 1.7358 -1.0319
# 5 -20.9793 -4.2154 -9.3745 1.7358 48.4447 -7.2237
# 6 10.8533 14.2451 -4.1061 -1.0319 -7.2237 41.1356
#
#
#
# Elastic Compliance Matrix: (Units=1/GPa)
#
#
# Indices 1 2 3 4 5 6 
#
# 1 0.011452 -0.001316 -0.006694 0.000555 0.003131 -0.002670
# 2 -0.001316 0.007606 -0.002895 0.000061 -0.000877 -0.002728
# 3 -0.006694 -0.002895 0.017194 0.001906 0.000805 0.004674
# 4 0.000555 0.000061 0.001906 0.032074 -0.000422 0.000753
# 5 0.003131 -0.000877 0.000805 -0.000422 0.022617 0.003519
# 6 -0.002670 -0.002728 0.004674 0.000753 0.003519 0.027063
#
#
# Mechanical properties :
#
#
# Convention : Reuss Voigt Hill
#
# Bulk Modulus (GPa) = 69.24687 76.53927 72.89307
# Shear Modulus (GPa) = 34.57088 40.10302 37.33695
#
# Velocity S-wave (km/s) = 3.89617 4.19634 4.04904
# Velocity P-wave (km/s) = 7.11664 7.55563 7.33942
#
# Compressibility (1/GPa) = 0.01444109
#
# Stress axis : x y z
#
# Youngs Moduli (GPa) = 87.32148 131.47469 58.16071
#
# Poissons Ratio (x) = 0.17296 0.38934
# Poissons Ratio (y) = 0.11488 0.16840
# Poissons Ratio (z) = 0.58455 0.38068
#
# Static dielectric constant tensor:
#      x y z
#    x 4.241110 0.090230 -0.127450 
#    y 0.090230 4.450180 0.075730 
#    z -0.127450 0.075730 4.059630 
# 
# 
# High freq. dielectric constant tensor:
#      x y z
#    x 1.908120 0.008650 -0.010710 
#    y 0.008650 1.921000 -0.000630 
#    z -0.010710 -0.000630 1.884630 
# 
# From -- ./inp_files/226444.got.cif
#   From: 2010.06.25/outbox.cif.g09.slc.cpg/sg2_114_cif.got.tgz:226444.got - 2010.06.27 13:26:56.
