data_PCOD8037351
_publ_section_title
;
Structure prediction by ZEFSAII (Michael W. Deem and Ramdas Pophale) SiO2 
 PCOD8037351
Probable space group: P -1
;
_chemical_formula_sum "Si O2"
_cell_formula_units_Z 16
_cell_length_a 9.594540
_cell_length_b 11.573697
_cell_length_c 9.125003
_cell_angle_alpha 133.901690
_cell_angle_beta 76.989288
_cell_angle_gamma 96.871683
_cell_volume 710.395551
_symmetry_space_group_name_H-M "P -1"
_symmetry_group_IT_number 2
_symmetry_cell_setting 'triclinic'
loop_
_space_group_symop_operation_xyz
x,y,z
-x,-y,-z
loop_
_atom_site_type_symbol
_atom_site_label
_atom_site_fract_x
_atom_site_fract_y
_atom_site_fract_z
Si Si1 0.745110 0.845013 0.789320
Si Si2 0.703987 0.196701 0.222570
Si Si3 0.541197 0.310308 0.620230
Si Si4 0.002850 0.669645 0.728465
Si Si5 0.750514 0.837488 0.440996
Si Si6 0.985756 0.329701 0.925891
Si Si7 0.492954 0.660322 0.819450
Si Si8 0.310806 0.795745 0.226399
O O1 0.788520 0.817357 0.585684
O O2 0.611227 0.743258 0.769235
O O3 0.872255 0.787919 0.815521
O O4 0.707637 0.032647 0.986198
O O5 0.601158 0.179720 0.372537
O O6 0.858392 0.242760 0.281569
O O7 0.643948 0.341698 0.258306
O O8 0.379371 0.273466 0.670334
O O9 0.547269 0.484661 0.700441
O O10 0.649378 0.306016 0.727356
O O11 0.000000 0.500000 0.500000
O O12 0.999257 0.650880 0.887114
O O13 0.889295 0.790428 0.270736
O O14 0.704585 0.018091 0.566722
O O15 0.832845 0.263105 0.864764
O O16 0.000000 0.500000 0.000000
O O17 0.447759 0.767287 0.064126
#
# Coordination Sequence:
#
# PCOD8037351 Si02
#       8
#     2   2   2   2   2   2   2   2
#     4  12  26  45  77 106 142 187 236 296 350 419
#     4  12  25  48  72 103 145 187 241 291 353 414
#     4  12  28  42  75 107 145 190 235 293 348 424
#     4  12  28  47  74 106 140 185 240 294 350 423
#     4  12  26  48  73 107 146 186 234 291 357 419
#     4  12  28  47  73 103 146 187 234 292 357 422
#     4  12  24  48  72 104 143 188 239 291 352 412
#     4  12  27  48  72 103 148 191 235 288 355 422
#
# _framework density 22.522663999999999
#
# number of rings (size 3 to 8) (size 9 to 14) (size 15 to 20)
#    0.000    0.000    3.750    5.250   10.500    0.000 
#    0.000    0.000    0.000    0.000    0.000    0.000 
#    0.000    0.000    0.000    0.000    0.000    0.000 
#
# Total GULP energy -198494.737632 kJ/mol
# GULP energy per Si atom -12405.921102 kJ/mol
# Density = 2.247140 g / cm^3
# Si number density = 22.522664 Si / 1000 Ang^3
#
#
#
# Elastic Constant Matrix: (Units=GPa)
#
#
# Indices 1 2 3 4 5 6 
#
# 1 102.9840 41.5315 53.4524 -7.9579 3.1094 -5.8197
# 2 41.5315 105.5121 39.8790 -1.7648 5.9321 -10.9552
# 3 53.4524 39.8790 116.5766 -14.2997 0.4040 -12.9400
# 4 -7.9579 -1.7648 -14.2997 41.4734 0.6994 9.5847
# 5 3.1094 5.9321 0.4040 0.6994 34.9721 -0.5490
# 6 -5.8197 -10.9552 -12.9400 9.5847 -0.5490 42.8799
#
#
#
# Elastic Compliance Matrix: (Units=1/GPa)
#
#
# Indices 1 2 3 4 5 6 
#
# 1 0.013835 -0.003551 -0.005099 0.000937 -0.000600 -0.000785
# 2 -0.003551 0.012093 -0.002443 -0.001485 -0.001643 0.002181
# 3 -0.005099 -0.002443 0.012283 0.002727 0.000699 0.001790
# 4 0.000937 -0.001485 0.002727 0.026411 -0.000475 -0.005339
# 5 -0.000600 -0.001643 0.000699 -0.000475 0.028931 0.000186
# 6 -0.000785 0.002181 0.001790 -0.005339 0.000186 0.025508
#
#
# Mechanical properties :
#
#
# Convention : Reuss Voigt Hill
#
# Bulk Modulus (GPa) = 62.40425 66.08873 64.24649
# Shear Modulus (GPa) = 34.10974 36.54573 35.32773
#
# Velocity S-wave (km/s) = 3.89583 4.03255 3.96478
# Velocity P-wave (km/s) = 6.92850 7.14764 7.03893
#
# Compressibility (1/GPa) = 0.01602455
#
# Stress axis : x y z
#
# Youngs Moduli (GPa) = 72.28109 82.69554 81.41621
#
# Poissons Ratio (x) = 0.29362 0.41515
# Poissons Ratio (y) = 0.25664 0.19890
# Poissons Ratio (z) = 0.36857 0.20203
#
# Static dielectric constant tensor:
#      x y z
#    x 4.580450 0.401630 -0.189290 
#    y 0.401630 5.064430 -0.136540 
#    z -0.189290 -0.136540 4.261770 
# 
# 
# High freq. dielectric constant tensor:
#      x y z
#    x 1.900120 -0.007340 -0.006200 
#    y -0.007340 1.898330 -0.004930 
#    z -0.006200 -0.004930 1.901780 
# 
# From -- ./inp_files/190670.got.cif
#   From: 2010.06.25/outbox.cif.g09.slc.cpg/sg2_96_cif.got.tgz:190670.got - 2010.06.27 13:26:56.
