data_PCOD8037634
_publ_section_title
;
Structure prediction by ZEFSAII (Michael W. Deem and Ramdas Pophale) SiO2 
 PCOD8037634
Probable space group: P -1
;
_chemical_formula_sum "Si O2"
_cell_formula_units_Z 10
_cell_length_a 8.955924
_cell_length_b 12.011389
_cell_length_c 9.278173
_cell_angle_alpha 132.443041
_cell_angle_beta 148.984007
_cell_angle_gamma 61.949826
_cell_volume 363.852386
_symmetry_space_group_name_H-M "P -1"
_symmetry_group_IT_number 2
_symmetry_cell_setting 'triclinic'
loop_
_space_group_symop_operation_xyz
x,y,z
-x,-y,-z
loop_
_atom_site_type_symbol
_atom_site_label
_atom_site_fract_x
_atom_site_fract_y
_atom_site_fract_z
Si Si1 0.216031 0.637028 0.638272
Si Si2 0.600555 0.430065 0.840109
Si Si3 0.858480 0.855063 0.652971
Si Si4 0.532087 0.742827 0.694757
Si Si5 0.150300 0.943290 0.440183
O O1 0.421006 0.559339 0.843462
O O2 0.410800 0.719521 0.735929
O O3 0.108839 0.764283 0.751290
O O4 0.938859 0.492679 0.230379
O O5 0.440400 0.258521 0.621251
O O6 0.595243 0.412955 0.645213
O O7 0.746571 0.914545 0.463769
O O8 0.000000 0.000000 0.000000
O O9 0.440348 0.890945 0.680700
O O10 0.896781 0.791819 0.033624
O O11 0.000000 0.000000 0.500000
#
# Coordination Sequence:
#
# PCOD8037634 Si02
#       5
#     2   2   2   2   2
#     4  12  27  50  77 109 155 200 249 308 376 452
#     4  12  27  50  76 113 151 199 250 310 380 444
#     4  12  28  51  79 112 155 200 251 316 374 447
#     4  12  25  48  80 111 149 201 255 306 372 454
#     4  12  26  47  78 113 152 197 254 311 375 442
#
# _framework density 27.483673
#
# number of rings (size 3 to 8) (size 9 to 14) (size 15 to 20)
#    0.000    0.000    4.000    5.400    0.000    2.400 
#    0.000    0.000    0.000    0.000    0.000    0.000 
#    0.000    0.000    0.000    0.000    0.000    0.000 
#
# Total GULP energy -124109.039764 kJ/mol
# GULP energy per Si atom -12410.903976 kJ/mol
# Density = 2.742112 g / cm^3
# Si number density = 27.483673 Si / 1000 Ang^3
#
#
#
# Elastic Constant Matrix: (Units=GPa)
#
#
# Indices 1 2 3 4 5 6 
#
# 1 90.4344 5.7569 1.7571 19.2678 1.1884 26.1533
# 2 5.7569 114.9816 15.9183 6.0701 6.2445 25.6531
# 3 1.7571 15.9183 67.8113 3.6632 19.5386 12.5060
# 4 19.2678 6.0701 3.6632 43.6676 -4.5916 -8.1043
# 5 1.1884 6.2445 19.5386 -4.5916 43.2444 15.3212
# 6 26.1533 25.6531 12.5060 -8.1043 15.3212 52.0988
#
#
#
# Elastic Compliance Matrix: (Units=1/GPa)
#
#
# Indices 1 2 3 4 5 6 
#
# 1 0.016185 0.001960 0.001224 -0.009442 0.001743 -0.011365
# 2 0.001960 0.010378 -0.001401 -0.003300 0.001062 -0.006583
# 3 0.001224 -0.001401 0.017778 -0.003073 -0.007295 -0.002525
# 4 -0.009442 -0.003300 -0.003073 0.030033 0.001274 0.011399
# 5 0.001743 0.001062 -0.007295 0.001274 0.029202 -0.008036
# 6 -0.011365 -0.006583 -0.002525 0.011399 -0.008036 0.032884
#
#
# Mechanical properties :
#
#
# Convention : Reuss Voigt Hill
#
# Bulk Modulus (GPa) = 20.87384 35.56577 28.21980
# Shear Modulus (GPa) = 33.58840 44.45516 39.02178
#
# Velocity S-wave (km/s) = 3.49968 4.02619 3.77213
# Velocity P-wave (km/s) = 4.89304 5.88068 5.40945
#
# Compressibility (1/GPa) = 0.04790686
#
# Stress axis : x y z
#
# Youngs Moduli (GPa) = 61.78661 96.35645 56.25079
#
# Poissons Ratio (x) = -0.18881 -0.06888
# Poissons Ratio (y) = -0.12107 0.07879
# Poissons Ratio (z) = -0.07565 0.13497
#
# Static dielectric constant tensor:
#      x y z
#    x 5.324670 0.077540 -0.098890 
#    y 0.077540 5.187320 -0.014710 
#    z -0.098890 -0.014710 5.229180 
# 
# 
# High freq. dielectric constant tensor:
#      x y z
#    x 2.125200 0.001220 -0.008020 
#    y 0.001220 2.114270 0.004690 
#    z -0.008020 0.004690 2.120520 
# 
# From -- ./inp_files/15552.got.cif
#   From: 2010.06.25/outbox.cif.g09.slc.cpg/sg2_8_cif.got.tgz:15552.got - 2010.06.27 13:26:56.
