data_PCOD8037905
_publ_section_title
;
Structure prediction by ZEFSAII (Michael W. Deem and Ramdas Pophale) SiO2 
 PCOD8037905
Probable space group: P -1
;
_chemical_formula_sum "Si O2"
_cell_formula_units_Z 16
_cell_length_a 14.632555
_cell_length_b 26.596511
_cell_length_c 9.763667
_cell_angle_alpha 128.898125
_cell_angle_beta 140.754414
_cell_angle_gamma 21.542966
_cell_volume 809.878642
_symmetry_space_group_name_H-M "P -1"
_symmetry_group_IT_number 2
_symmetry_cell_setting 'triclinic'
loop_
_space_group_symop_operation_xyz
x,y,z
-x,-y,-z
loop_
_atom_site_type_symbol
_atom_site_label
_atom_site_fract_x
_atom_site_fract_y
_atom_site_fract_z
Si Si1 0.170124 0.223024 0.810306
Si Si2 0.810324 0.582137 0.279472
Si Si3 0.755682 0.239018 0.917436
Si Si4 0.217842 0.732006 0.432252
Si Si5 0.089685 0.709323 0.653779
Si Si6 0.733018 0.494096 0.388069
Si Si7 0.331089 0.472365 0.156216
Si Si8 0.907234 0.964520 0.293200
O O1 0.063016 0.209283 0.766076
O O2 0.182986 0.193698 0.616823
O O3 0.896520 0.389693 0.780783
O O4 0.514944 0.114028 0.074442
O O5 0.415348 0.738736 0.128094
O O6 0.000000 0.500000 0.500000
O O7 0.932788 0.596388 0.366064
O O8 0.899003 0.486026 0.119669
O O9 0.473176 0.401362 0.806133
O O10 0.013966 0.183882 0.198884
O O11 0.919838 0.127443 0.804211
O O12 0.491238 0.597757 0.413323
O O13 0.411733 0.670022 0.691214
O O14 0.031129 0.871107 0.402653
O O15 0.122718 0.636646 0.674642
O O16 0.455345 0.571238 0.775971
O O17 0.000000 0.000000 0.500000
#
# Coordination Sequence:
#
# PCOD8037905 Si02
#       8
#     2   2   2   2   2   2   2   2
#     4  11  21  37  63  89 119 154 191 239 298 344
#     4   9  20  33  53  86 119 155 188 237 295 335
#     4   9  21  38  54  79 121 159 191 240 284 344
#     4  10  20  39  58  90 121 146 196 241 291 346
#     4  10  18  36  60  91 115 144 196 249 290 341
#     4  10  17  32  57  91 118 143 191 241 298 337
#     4  10  19  35  63  90 119 149 189 249 294 341
#     4  11  26  41  58  83 120 163 198 232 287 356
#
# _framework density 19.756046999999999
#
# number of rings (size 3 to 8) (size 9 to 14) (size 15 to 20)
#    0.000    2.000    2.500    1.500    5.250    2.000 
#    0.000    1.250    0.000    7.500    0.000    0.000 
#    0.000    0.000    0.000    0.000    0.000    0.000 
#
# Total GULP energy -198299.656227 kJ/mol
# GULP energy per Si atom -12393.728514 kJ/mol
# Density = 1.971108 g / cm^3
# Si number density = 19.756047 Si / 1000 Ang^3
#
#
#
# Elastic Constant Matrix: (Units=GPa)
#
#
# Indices 1 2 3 4 5 6 
#
# 1 97.0853 39.3248 51.7021 2.6525 17.2989 6.5024
# 2 39.3248 79.2398 52.4676 12.9347 6.9202 9.7409
# 3 51.7021 52.4676 145.4732 20.8049 16.5498 10.4542
# 4 2.6525 12.9347 20.8049 31.4413 -0.4400 -1.6153
# 5 17.2989 6.9202 16.5498 -0.4400 31.8864 3.4041
# 6 6.5024 9.7409 10.4542 -1.6153 3.4041 20.8774
#
#
#
# Elastic Compliance Matrix: (Units=1/GPa)
#
#
# Indices 1 2 3 4 5 6 
#
# 1 0.015063 -0.005415 -0.003278 0.003082 -0.005315 0.000582
# 2 -0.005415 0.019467 -0.004093 -0.005130 0.001404 -0.005972
# 3 -0.003278 -0.004093 0.010762 -0.005324 -0.002734 -0.002424
# 4 0.003082 -0.005130 -0.005324 0.037550 0.002010 0.006677
# 5 -0.005315 0.001404 -0.002734 0.002010 0.035739 -0.003303
# 6 0.000582 -0.005972 -0.002424 0.006677 -0.003303 0.052773
#
#
# Mechanical properties :
#
#
# Convention : Reuss Voigt Hill
#
# Bulk Modulus (GPa) = 50.71419 67.64304 59.17862
# Shear Modulus (GPa) = 24.56990 28.72793 26.64892
#
# Velocity S-wave (km/s) = 3.53039 3.81745 3.67672
# Velocity P-wave (km/s) = 6.50724 7.33103 6.93138
#
# Compressibility (1/GPa) = 0.01971835
#
# Stress axis : x y z
#
# Youngs Moduli (GPa) = 66.38574 51.36987 92.91799
#
# Poissons Ratio (x) = 0.27818 0.30463
# Poissons Ratio (y) = 0.35950 0.38034
# Poissons Ratio (z) = 0.21764 0.21027
#
# Static dielectric constant tensor:
#      x y z
#    x 4.022440 -0.023240 0.166360 
#    y -0.023240 3.238400 0.110520 
#    z 0.166360 0.110520 3.858710 
# 
# 
# High freq. dielectric constant tensor:
#      x y z
#    x 1.778640 -0.003710 0.004190 
#    y -0.003710 1.732000 0.014770 
#    z 0.004190 0.014770 1.780440 
# 
# From -- ./inp_files/205251.got.cif
#   From: 2010.06.25/outbox.cif.g09.slc.cpg/sg2_103_cif.got.tgz:205251.got - 2010.06.27 13:26:56.
