data_PCOD8037649
_publ_section_title
;
Structure prediction by ZEFSAII (Michael W. Deem and Ramdas Pophale) SiO2 
 PCOD8037649
Probable space group: P -1
;
_chemical_formula_sum "Si O2"
_cell_formula_units_Z 14
_cell_length_a 17.985545
_cell_length_b 8.933333
_cell_length_c 8.109630
_cell_angle_alpha 109.170970
_cell_angle_beta 60.504860
_cell_angle_gamma 149.208593
_cell_volume 567.343475
_symmetry_space_group_name_H-M "P -1"
_symmetry_group_IT_number 2
_symmetry_cell_setting 'triclinic'
loop_
_space_group_symop_operation_xyz
x,y,z
-x,-y,-z
loop_
_atom_site_type_symbol
_atom_site_label
_atom_site_fract_x
_atom_site_fract_y
_atom_site_fract_z
Si Si1 0.282087 0.616804 0.391349
Si Si2 0.663174 0.843171 0.882726
Si Si3 0.181063 0.797585 0.469039
Si Si4 0.168501 0.339228 0.759271
Si Si5 0.322843 0.276193 0.662668
Si Si6 0.400070 0.897443 0.909734
Si Si7 0.190537 0.183422 0.097949
O O1 0.241096 0.713720 0.377816
O O2 0.194223 0.474356 0.610162
O O3 0.237140 0.402529 0.241763
O O4 0.475171 0.917697 0.312955
O O5 0.813641 0.983268 0.847818
O O6 0.700941 0.908857 0.670337
O O7 0.500000 0.500000 0.000000
O O8 0.667960 0.033222 0.996728
O O9 0.000000 0.500000 0.500000
O O10 0.205045 0.934388 0.662595
O O11 0.245321 0.286589 0.629297
O O12 0.249708 0.546784 0.907130
O O13 0.976994 0.040911 0.891515
O O14 0.500000 0.500000 0.500000
O O15 0.324035 0.356492 0.872946
O O16 0.500000 0.000000 0.000000
#
# Coordination Sequence:
#
# PCOD8037649 Si02
#       7
#     2   2   2   2   2   2   2
#     4  12  25  49  76 110 154 206 258 319 389 465
#     4  12  26  47  79 110 155 208 260 311 393 472
#     4  12  27  47  76 111 156 199 258 325 385 456
#     4  12  28  48  78 114 156 204 264 325 389 466
#     4  12  28  47  74 114 156 203 260 318 392 468
#     4  12  26  47  77 109 154 204 259 320 386 462
#     4  12  27  49  80 112 158 207 258 323 398 459
#
# _framework density 24.676410000000001
#
# number of rings (size 3 to 8) (size 9 to 14) (size 15 to 20)
#    0.000    0.000    2.857    6.429    6.000    0.571 
#    0.000    0.000    0.000    0.000    0.000    0.000 
#    0.000    0.000    0.000    0.000    0.000    0.000 
#
# Total GULP energy -173512.713474 kJ/mol
# GULP energy per Si atom -12393.765248 kJ/mol
# Density = 2.462025 g / cm^3
# Si number density = 24.676410 Si / 1000 Ang^3
#
#
#
# Elastic Constant Matrix: (Units=GPa)
#
#
# Indices 1 2 3 4 5 6 
#
# 1 189.0590 49.9164 39.8672 11.9421 -28.6630 -12.4424
# 2 49.9164 122.2757 28.8405 18.6658 -25.1679 1.7706
# 3 39.8672 28.8405 94.5909 6.6123 -5.3772 -3.4737
# 4 11.9421 18.6658 6.6123 39.9977 -5.1195 -4.8984
# 5 -28.6630 -25.1679 -5.3772 -5.1195 51.1894 0.7532
# 6 -12.4424 1.7706 -3.4737 -4.8984 0.7532 42.6080
#
#
#
# Elastic Compliance Matrix: (Units=1/GPa)
#
#
# Indices 1 2 3 4 5 6 
#
# 1 0.006711 -0.001680 -0.002078 -0.000319 0.002655 0.001776
# 2 -0.001680 0.010761 -0.002147 -0.003883 0.003760 -0.001626
# 3 -0.002078 -0.002147 0.012093 -0.000452 -0.001000 0.000434
# 4 -0.000319 -0.003883 -0.000452 0.027444 0.000563 0.003177
# 5 0.002655 0.003760 -0.001000 0.000563 0.022819 0.000199
# 6 0.001776 -0.001626 0.000434 0.003177 0.000199 0.024453
#
#
# Mechanical properties :
#
#
# Convention : Reuss Voigt Hill
#
# Bulk Modulus (GPa) = 56.32449 71.46374 63.89411
# Shear Modulus (GPa) = 40.98057 45.91246 43.44651
#
# Velocity S-wave (km/s) = 4.07961 4.31812 4.20056
# Velocity P-wave (km/s) = 6.71310 7.34063 7.03387
#
# Compressibility (1/GPa) = 0.01775427
#
# Stress axis : x y z
#
# Youngs Moduli (GPa) = 149.01708 92.93037 82.69323
#
# Poissons Ratio (x) = 0.15612 0.17181
# Poissons Ratio (y) = 0.25034 0.17757
# Poissons Ratio (z) = 0.30961 0.19956
#
# Static dielectric constant tensor:
#      x y z
#    x 5.026650 -0.106080 0.032120 
#    y -0.106080 4.567360 -0.088700 
#    z 0.032120 -0.088700 4.990420 
# 
# 
# High freq. dielectric constant tensor:
#      x y z
#    x 2.004790 -0.005360 -0.011420 
#    y -0.005360 1.979420 0.003230 
#    z -0.011420 0.003230 1.990260 
# 
# From -- ./inp_files/329285.got.cif
#   From: 2010.06.25/outbox.cif.g09.slc.cpg/sg2_165_cif.got.tgz:329285.got - 2010.06.27 13:26:56.
