data_PCOD8037696
_publ_section_title
;
Structure prediction by ZEFSAII (Michael W. Deem and Ramdas Pophale) SiO2 
 PCOD8037696
Probable space group: P -1
;
_chemical_formula_sum "Si O2"
_cell_formula_units_Z 16
_cell_length_a 9.132862
_cell_length_b 11.160730
_cell_length_c 9.242286
_cell_angle_alpha 96.372070
_cell_angle_beta 94.849797
_cell_angle_gamma 127.045963
_cell_volume 733.523835
_symmetry_space_group_name_H-M "P -1"
_symmetry_group_IT_number 2
_symmetry_cell_setting 'triclinic'
loop_
_space_group_symop_operation_xyz
x,y,z
-x,-y,-z
loop_
_atom_site_type_symbol
_atom_site_label
_atom_site_fract_x
_atom_site_fract_y
_atom_site_fract_z
Si Si1 0.069537 0.755356 0.252846
Si Si2 0.933640 0.600645 0.505738
Si Si3 0.628427 0.294414 0.793705
Si Si4 0.631014 0.956467 0.043987
Si Si5 0.961517 0.785083 0.805109
Si Si6 0.539318 0.378621 0.494624
Si Si7 0.287638 0.436677 0.999796
Si Si8 0.747171 0.902268 0.763171
O O1 0.200650 0.710066 0.215737
O O2 0.043910 0.738881 0.420689
O O3 0.183204 0.931487 0.250761
O O4 0.860314 0.649513 0.155242
O O5 0.943226 0.673627 0.668381
O O6 0.722260 0.468198 0.423989
O O7 0.000000 0.500000 0.500000
O O8 0.442204 0.137428 0.823805
O O9 0.570677 0.341115 0.653393
O O10 0.706940 0.420818 0.940952
O O11 0.643702 0.861989 0.905176
O O12 0.833871 0.119842 0.098760
O O13 0.500000 0.000000 0.000000
O O14 0.796511 0.682004 0.891632
O O15 0.927142 0.905831 0.771693
O O16 0.500000 0.500000 0.500000
O O17 0.389816 0.217822 0.385626
O O18 0.500000 0.500000 0.000000
#
# Coordination Sequence:
#
# PCOD8037696 Si02
#       8
#     2   2   2   2   2   2   2   2
#     4  12  28  46  72 110 146 194 244 298 372 430
#     4  12  27  47  75 104 146 195 241 307 363 434
#     4  12  26  48  73 108 148 193 246 302 363 440
#     4  12  27  46  76 109 145 195 241 302 368 431
#     4  12  26  50  71 107 150 187 245 305 364 435
#     4  12  27  50  74 107 147 191 250 301 371 438
#     4  12  26  46  76 105 145 192 246 300 363 434
#     4  12  27  48  73 105 153 187 243 309 362 442
#
# _framework density 21.812515000000001
#
# number of rings (size 3 to 8) (size 9 to 14) (size 15 to 20)
#    0.000    0.000    6.250    1.500   10.500    1.000 
#    0.000    0.000    0.000    0.000    0.000    0.000 
#    0.000    0.000    0.000    0.000    0.000    0.000 
#
# Total GULP energy -198295.149516 kJ/mol
# GULP energy per Si atom -12393.446845 kJ/mol
# Density = 2.176287 g / cm^3
# Si number density = 21.812515 Si / 1000 Ang^3
#
#
#
# Elastic Constant Matrix: (Units=GPa)
#
#
# Indices 1 2 3 4 5 6 
#
# 1 187.4953 71.1721 59.8429 9.3949 2.4249 -1.9767
# 2 71.1721 126.9392 55.2272 -1.3789 0.4214 8.6822
# 3 59.8429 55.2272 116.2078 3.4630 -2.2757 1.5759
# 4 9.3949 -1.3789 3.4630 49.5532 6.3841 -0.7875
# 5 2.4249 0.4214 -2.2757 6.3841 27.1526 0.0165
# 6 -1.9767 8.6822 1.5759 -0.7875 0.0165 47.4102
#
#
#
# Elastic Compliance Matrix: (Units=1/GPa)
#
#
# Indices 1 2 3 4 5 6 
#
# 1 0.007351 -0.003225 -0.002239 -0.001247 -0.000501 0.000951
# 2 -0.003225 0.011509 -0.003827 0.001230 -0.000499 -0.002094
# 3 -0.002239 -0.003827 0.011621 -0.000670 0.001391 0.000210
# 4 -0.001247 0.001230 -0.000670 0.021135 -0.004933 0.000098
# 5 -0.000501 -0.000499 0.001391 -0.004933 0.038158 -0.000071
# 6 0.000951 -0.002094 0.000210 0.000098 -0.000071 0.021510
#
#
# Mechanical properties :
#
#
# Convention : Reuss Voigt Hill
#
# Bulk Modulus (GPa) = 84.02823 89.23632 86.63228
# Shear Modulus (GPa) = 37.36028 41.11653 39.23841
#
# Velocity S-wave (km/s) = 4.14308 4.34637 4.24594
# Velocity P-wave (km/s) = 7.84177 8.13556 7.99001
#
# Compressibility (1/GPa) = 0.01190076
#
# Stress axis : x y z
#
# Youngs Moduli (GPa) = 136.03636 86.88822 86.04912
#
# Poissons Ratio (x) = 0.28017 0.19263
# Poissons Ratio (y) = 0.43865 0.32932
# Poissons Ratio (z) = 0.30453 0.33253
#
# Static dielectric constant tensor:
#      x y z
#    x 3.041900 0.160610 1.826890 
#    y 0.160610 4.248420 -0.270840 
#    z 1.826890 -0.270840 0.723490 
# 
# 
# High freq. dielectric constant tensor:
#      x y z
#    x 1.881030 -0.000660 -0.005170 
#    y -0.000660 1.875290 -0.003680 
#    z -0.005170 -0.003680 1.857010 
# 
# From -- ./inp_files/188572.got.cif
#   From: 2010.06.25/outbox.cif.g09.slc.cpg/sg2_95_cif.got.tgz:188572.got - 2010.06.27 13:26:56.
