data_PCOD8037557
_publ_section_title
;
Structure prediction by ZEFSAII (Michael W. Deem and Ramdas Pophale) SiO2 
 PCOD8037557
Probable space group: P -1
;
_chemical_formula_sum "Si O2"
_cell_formula_units_Z 14
_cell_length_a 17.126373
_cell_length_b 6.033002
_cell_length_c 9.158240
_cell_angle_alpha 48.598541
_cell_angle_beta 61.775784
_cell_angle_gamma 61.178364
_cell_volume 604.520612
_symmetry_space_group_name_H-M "P -1"
_symmetry_group_IT_number 2
_symmetry_cell_setting 'triclinic'
loop_
_space_group_symop_operation_xyz
x,y,z
-x,-y,-z
loop_
_atom_site_type_symbol
_atom_site_label
_atom_site_fract_x
_atom_site_fract_y
_atom_site_fract_z
Si Si1 0.199367 0.743255 0.226033
Si Si2 0.500746 0.351832 0.393795
Si Si3 0.326246 0.836214 0.308849
Si Si4 0.673215 0.501141 0.030708
Si Si5 0.085007 0.302536 0.597203
Si Si6 0.789347 0.320488 0.281184
Si Si7 0.084325 0.289389 0.933978
O O1 0.233300 0.890688 0.273178
O O2 0.171961 0.442288 0.436480
O O3 0.288288 0.672762 0.074990
O O4 0.109693 0.961443 0.134473
O O5 0.500000 0.500000 0.500000
O O6 0.409604 0.554711 0.308216
O O7 0.588386 0.394719 0.213322
O O8 0.500000 0.000000 0.500000
O O9 0.297712 0.756876 0.530845
O O10 0.360436 0.141631 0.134856
O O11 0.759273 0.412741 0.102777
O O12 0.052903 0.280428 0.800384
O O13 0.000000 0.500000 0.500000
O O14 0.119212 0.955712 0.664633
O O15 0.821183 0.603011 0.198063
O O16 0.000000 0.500000 0.000000
#
# Coordination Sequence:
#
# PCOD8037557 Si02
#       7
#     2   2   2   2   2   2   2
#     4  12  27  45  76 108 144 200 252 311 381 458
#     4  12  31  51  82 119 162 202 254 324 387 462
#     4  12  27  49  79 109 150 200 255 308 389 460
#     4  12  27  49  79 109 150 200 255 308 389 460
#     4  12  28  45  70 105 148 193 249 314 376 452
#     4  12  25  47  74 104 150 194 250 307 375 454
#     4  12  28  45  70 105 148 193 249 314 376 452
#
# _framework density 23.158847000000002
#
# number of rings (size 3 to 8) (size 9 to 14) (size 15 to 20)
#    0.000    0.000    7.143    1.286   12.000    2.857 
#    0.000    0.000    0.000    0.000    0.000    0.000 
#    0.000    0.000    0.000    0.000    0.000    0.000 
#
# Total GULP energy -173494.042651 kJ/mol
# GULP energy per Si atom -12392.431618 kJ/mol
# Density = 2.310614 g / cm^3
# Si number density = 23.158847 Si / 1000 Ang^3
#
#
#
# Elastic Constant Matrix: (Units=GPa)
#
#
# Indices 1 2 3 4 5 6 
#
# 1 65.8051 13.7626 13.6709 -2.9218 8.9286 -7.4225
# 2 13.7626 113.9133 29.2049 -8.8307 3.0308 -15.6897
# 3 13.6709 29.2049 102.7299 -2.3371 -4.3031 0.7478
# 4 -2.9218 -8.8307 -2.3371 47.0498 -2.9634 -0.7275
# 5 8.9286 3.0308 -4.3031 -2.9634 46.5013 -4.5281
# 6 -7.4225 -15.6897 0.7478 -0.7275 -4.5281 46.7366
#
#
#
# Elastic Compliance Matrix: (Units=1/GPa)
#
#
# Indices 1 2 3 4 5 6 
#
# 1 0.016507 -0.001075 -0.002021 0.000561 -0.003055 0.002006
# 2 -0.001075 0.010213 -0.002756 0.001746 -0.000281 0.003302
# 3 -0.002021 -0.002756 0.010856 -0.000032 0.001445 -0.001280
# 4 0.000561 0.001746 -0.000032 0.021713 0.001270 0.001137
# 5 -0.003055 -0.000281 0.001445 0.001270 0.022480 0.001595
# 6 0.002006 0.003302 -0.001280 0.001137 0.001595 0.023016
#
#
# Mechanical properties :
#
#
# Convention : Reuss Voigt Hill
#
# Bulk Modulus (GPa) = 38.65357 43.96945 41.31151
# Shear Modulus (GPa) = 39.96405 43.11153 41.53779
#
# Velocity S-wave (km/s) = 4.15860 4.31926 4.23969
# Velocity P-wave (km/s) = 6.30757 6.62585 6.46867
#
# Compressibility (1/GPa) = 0.02587083
#
# Stress axis : x y z
#
# Youngs Moduli (GPa) = 60.58118 97.91614 92.11550
#
# Poissons Ratio (x) = 0.10527 0.18615
# Poissons Ratio (y) = 0.06513 0.25391
# Poissons Ratio (z) = 0.12242 0.26990
#
# Static dielectric constant tensor:
#      x y z
#    x 4.148050 0.133520 0.053180 
#    y 0.133520 4.367820 -0.104530 
#    z 0.053180 -0.104530 4.619040 
# 
# 
# High freq. dielectric constant tensor:
#      x y z
#    x 1.918100 -0.007520 -0.000750 
#    y -0.007520 1.918230 -0.005490 
#    z -0.000750 -0.005490 1.935870 
# 
# From -- ./inp_files/7561.got.cif
#   From: 2010.06.25/outbox.cif.g09.slc.cpg/sg2_4_cif.got.tgz:7561.got - 2010.06.27 13:26:56.
