data_PCOD8037076
_publ_section_title
;
Structure prediction by ZEFSAII (Michael W. Deem and Ramdas Pophale) SiO2 
 PCOD8037076
Probable space group: P -1
;
_chemical_formula_sum "Si O2"
_cell_formula_units_Z 16
_cell_length_a 5.343804
_cell_length_b 26.766502
_cell_length_c 26.863277
_cell_angle_alpha 169.081153
_cell_angle_beta 78.050253
_cell_angle_gamma 100.937102
_cell_volume 710.134075
_symmetry_space_group_name_H-M "P -1"
_symmetry_group_IT_number 2
_symmetry_cell_setting 'triclinic'
loop_
_space_group_symop_operation_xyz
x,y,z
-x,-y,-z
loop_
_atom_site_type_symbol
_atom_site_label
_atom_site_fract_x
_atom_site_fract_y
_atom_site_fract_z
Si Si1 0.848912 0.959447 0.516744
Si Si2 0.413086 0.563154 0.397988
Si Si3 0.779487 0.051188 0.018479
Si Si4 0.517249 0.903635 0.136523
Si Si5 0.890015 0.319626 0.677765
Si Si6 0.845689 0.584834 0.484601
Si Si7 0.046790 0.148113 0.852909
Si Si8 0.462972 0.516676 0.959412
O O1 0.989290 0.893094 0.496752
O O2 0.676593 0.213207 0.786895
O O3 0.692568 0.721300 0.278902
O O4 0.000000 0.000000 0.500000
O O5 0.629663 0.603408 0.469370
O O6 0.132704 0.525602 0.394710
O O7 0.397303 0.814220 0.608264
O O8 0.497260 0.297455 0.105077
O O9 0.779345 0.356290 0.301675
O O10 0.500000 0.000000 0.000000
O O11 0.839236 0.865502 0.786995
O O12 0.000000 0.000000 0.000000
O O13 0.228934 0.945397 0.210867
O O14 0.741133 0.791334 0.055157
O O15 0.696482 0.495917 0.892461
O O16 0.812393 0.106397 0.431230
O O17 0.032498 0.564481 0.888373
O O18 0.500000 0.500000 0.000000
#
# Coordination Sequence:
#
# PCOD8037076 Si02
#       8
#     2   2   2   2   2   2   2   2
#     4  12  26  44  69  98 135 174 224 275 336 399
#     4  12  24  45  74 100 135 175 242 306 345 410
#     4  12  24  42  64 100 154 196 231 284 343 408
#     4  12  26  49  71 102 136 179 223 300 372 412
#     4  12  28  45  69 100 134 181 221 280 336 436
#     4  12  24  42  70 106 134 190 247 286 343 408
#     4  12  28  47  72 102 139 179 226 278 365 444
#     4  12  26  44  69  98 135 174 224 275 336 399
#
# _framework density 22.530956
#
# number of rings (size 3 to 8) (size 9 to 14) (size 15 to 20)
#    0.000    0.000    1.250    9.000    7.000    0.000 
#    0.000    0.000    0.000    0.000    0.000    0.000 
#    0.000    0.000    0.000    0.000    0.000    0.000 
#
# Total GULP energy -198237.620215 kJ/mol
# GULP energy per Si atom -12389.851263 kJ/mol
# Density = 2.247967 g / cm^3
# Si number density = 22.530956 Si / 1000 Ang^3
#
#
#
# Elastic Constant Matrix: (Units=GPa)
#
#
# Indices 1 2 3 4 5 6 
#
# 1 144.9031 46.5702 25.5317 -4.4863 -6.5564 -4.9096
# 2 46.5702 97.0185 26.3829 0.7803 -4.6342 -0.3028
# 3 25.5317 26.3829 137.3749 3.5368 -12.9800 2.8417
# 4 -4.4863 0.7803 3.5368 45.7292 0.2109 1.5066
# 5 -6.5564 -4.6342 -12.9800 0.2109 42.0345 0.8521
# 6 -4.9096 -0.3028 2.8417 1.5066 0.8521 30.4405
#
#
#
# Elastic Compliance Matrix: (Units=1/GPa)
#
#
# Indices 1 2 3 4 5 6 
#
# 1 0.008355 -0.003761 -0.000824 0.000901 0.000603 0.001326
# 2 -0.003761 0.012584 -0.001672 -0.000445 0.000293 -0.000311
# 3 -0.000824 -0.001672 0.007995 -0.000650 0.002178 -0.000925
# 4 0.000901 -0.000445 -0.000650 0.022044 -0.000202 -0.000884
# 5 0.000603 0.000293 0.002178 -0.000202 0.024606 -0.000782
# 6 0.001326 -0.000311 -0.000925 -0.000884 -0.000782 0.033214
#
#
# Mechanical properties :
#
#
# Convention : Reuss Voigt Hill
#
# Bulk Modulus (GPa) = 60.90162 64.02958 62.46560
# Shear Modulus (GPa) = 39.43663 42.36162 40.89913
#
# Velocity S-wave (km/s) = 4.18823 4.34078 4.26519
# Velocity P-wave (km/s) = 7.10474 7.32143 7.21390
#
# Compressibility (1/GPa) = 0.01641992
#
# Stress axis : x y z
#
# Youngs Moduli (GPa) = 119.68674 79.46684 125.07266
#
# Poissons Ratio (x) = 0.29886 0.10309
# Poissons Ratio (y) = 0.45011 0.20915
# Poissons Ratio (z) = 0.09865 0.13288
#
# Static dielectric constant tensor:
#      x y z
#    x 4.211500 0.013450 -0.010820 
#    y 0.013450 4.293670 0.020290 
#    z -0.010820 0.020290 4.438550 
# 
# 
# High freq. dielectric constant tensor:
#      x y z
#    x 1.893010 0.000130 0.001610 
#    y 0.000130 1.905690 0.001380 
#    z 0.001610 0.001380 1.923110 
# 
# From -- ./inp_files/616032.got.cif
#   From: 2010.06.25/outbox.cif.g09.slc.cpg/sg2_309_cif.got.tgz:616032.got - 2010.06.27 13:26:56.
