data_PCOD8037385
_publ_section_title
;
Structure prediction by ZEFSAII (Michael W. Deem and Ramdas Pophale) SiO2 
 PCOD8037385
Probable space group: P -1
;
_chemical_formula_sum "Si O2"
_cell_formula_units_Z 16
_cell_length_a 8.789992
_cell_length_b 11.273009
_cell_length_c 8.668623
_cell_angle_alpha 115.129526
_cell_angle_beta 98.412030
_cell_angle_gamma 65.071974
_cell_volume 704.660605
_symmetry_space_group_name_H-M "P -1"
_symmetry_group_IT_number 2
_symmetry_cell_setting 'triclinic'
loop_
_space_group_symop_operation_xyz
x,y,z
-x,-y,-z
loop_
_atom_site_type_symbol
_atom_site_label
_atom_site_fract_x
_atom_site_fract_y
_atom_site_fract_z
Si Si1 0.417631 0.859326 0.021504
Si Si2 0.795257 0.313752 0.057101
Si Si3 0.379408 0.132609 0.653503
Si Si4 0.124501 0.145925 0.187126
Si Si5 0.401200 0.400739 0.648064
Si Si6 0.326684 0.327627 0.272563
Si Si7 0.762836 0.391137 0.753967
Si Si8 0.044163 0.126906 0.514125
O O1 0.547783 0.875685 0.170484
O O2 0.266335 0.010749 0.050605
O O3 0.350721 0.744053 0.011885
O O4 0.514699 0.805494 0.845553
O O5 0.738240 0.448692 0.235933
O O6 0.959410 0.189487 0.083140
O O7 0.835895 0.356618 0.918221
O O8 0.356581 0.277310 0.645259
O O9 0.198457 0.127250 0.638414
O O10 0.500000 0.000000 0.500000
O O11 0.183191 0.276764 0.278771
O O12 0.093630 0.100071 0.327607
O O13 0.393016 0.394021 0.458664
O O14 0.583073 0.384051 0.718752
O O15 0.249246 0.451266 0.201433
O O16 0.885846 0.276924 0.590105
O O17 0.000000 0.000000 0.500000
#
# Coordination Sequence:
#
# PCOD8037385 Si02
#       8
#     2   2   2   2   2   2   2   2
#     4  12  25  50  74 108 147 198 249 297 369 436
#     4  12  27  48  76 109 150 196 246 307 363 433
#     4  12  24  48  78 105 146 195 244 301 370 436
#     4  12  28  49  71 109 153 194 242 310 363 437
#     4  12  24  49  76 105 151 194 247 304 367 433
#     4  12  27  46  76 110 147 197 251 299 366 437
#     4  12  26  46  75 110 146 193 246 301 367 435
#     4  12  27  48  77 110 146 192 244 305 374 440
#
# _framework density 22.705964999999999
#
# number of rings (size 3 to 8) (size 9 to 14) (size 15 to 20)
#    0.000    0.000    5.000    4.500    5.250    1.500 
#    0.000    0.000    0.000    0.000    0.000    0.000 
#    0.000    0.000    0.000    0.000    0.000    0.000 
#
# Total GULP energy -198571.140360 kJ/mol
# GULP energy per Si atom -12410.696272 kJ/mol
# Density = 2.265429 g / cm^3
# Si number density = 22.705965 Si / 1000 Ang^3
#
#
#
# Elastic Constant Matrix: (Units=GPa)
#
#
# Indices 1 2 3 4 5 6 
#
# 1 118.5441 65.9793 24.0797 -0.8914 2.3095 14.7426
# 2 65.9793 124.7395 47.7124 4.4676 3.3727 1.3502
# 3 24.0797 47.7124 115.3514 -1.4480 -2.8479 -1.0042
# 4 -0.8914 4.4676 -1.4480 44.6311 -4.8632 -1.0621
# 5 2.3095 3.3727 -2.8479 -4.8632 33.9787 5.5352
# 6 14.7426 1.3502 -1.0042 -1.0621 5.5352 45.5896
#
#
#
# Elastic Compliance Matrix: (Units=1/GPa)
#
#
# Indices 1 2 3 4 5 6 
#
# 1 0.012649 -0.006751 0.000144 0.000904 0.000593 -0.003938
# 2 -0.006751 0.013254 -0.004122 -0.001742 -0.001757 0.001873
# 3 0.000144 -0.004122 0.010391 0.000906 0.001374 0.000159
# 4 0.000904 -0.001742 0.000906 0.023006 0.003498 -0.000110
# 5 0.000593 -0.001757 0.001374 0.003498 0.030794 -0.003767
# 6 -0.003938 0.001873 0.000159 -0.000110 -0.003767 0.023611
#
#
# Mechanical properties :
#
#
# Convention : Reuss Voigt Hill
#
# Bulk Modulus (GPa) = 67.40809 70.46422 68.93615
# Shear Modulus (GPa) = 35.68653 39.56412 37.62532
#
# Velocity S-wave (km/s) = 3.96874 4.17880 4.07513
# Velocity P-wave (km/s) = 7.12412 7.37454 7.25041
#
# Compressibility (1/GPa) = 0.01483501
#
# Stress axis : x y z
#
# Youngs Moduli (GPa) = 79.05635 75.44925 96.23990
#
# Poissons Ratio (x) = 0.50939 -0.01383
# Poissons Ratio (y) = 0.53374 0.39668
# Poissons Ratio (z) = -0.01136 0.31098
#
# Static dielectric constant tensor:
#      x y z
#    x 4.182580 0.010360 0.035290 
#    y 0.010360 4.160230 0.130020 
#    z 0.035290 0.130020 4.172560 
# 
# 
# High freq. dielectric constant tensor:
#      x y z
#    x 1.903890 0.003630 0.000260 
#    y 0.003630 1.909920 0.006860 
#    z 0.000260 0.006860 1.904000 
# 
# From -- ./inp_files/190186.got.cif
#   From: 2010.06.25/outbox.cif.g09.slc.cpg/sg2_96_cif.got.tgz:190186.got - 2010.06.27 13:26:56.
