data_PCOD8037870
_publ_section_title
;
Structure prediction by ZEFSAII (Michael W. Deem and Ramdas Pophale) SiO2 
 PCOD8037870
Probable space group: P -1
;
_chemical_formula_sum "Si O2"
_cell_formula_units_Z 12
_cell_length_a 15.663790
_cell_length_b 9.371900
_cell_length_c 5.087667
_cell_angle_alpha 132.439151
_cell_angle_beta 57.376189
_cell_angle_gamma 129.766289
_cell_volume 415.999206
_symmetry_space_group_name_H-M "P -1"
_symmetry_group_IT_number 2
_symmetry_cell_setting 'triclinic'
loop_
_space_group_symop_operation_xyz
x,y,z
-x,-y,-z
loop_
_atom_site_type_symbol
_atom_site_label
_atom_site_fract_x
_atom_site_fract_y
_atom_site_fract_z
Si Si1 0.613014 0.104111 0.195519
Si Si2 0.764724 0.804504 0.306338
Si Si3 0.565756 0.756743 0.223086
Si Si4 0.068153 0.863115 0.236259
Si Si5 0.729457 0.355763 0.831862
Si Si6 0.046558 0.309565 0.283269
O O1 0.499897 0.135632 0.356262
O O2 0.656246 0.244717 0.562190
O O3 0.584144 0.856534 0.017486
O O4 0.702367 0.194208 0.922633
O O5 0.687577 0.841473 0.263195
O O6 0.703593 0.558528 0.212448
O O7 0.886292 0.843690 0.019006
O O8 0.800240 0.981230 0.705791
O O9 0.500000 0.500000 0.000000
O O10 0.005094 0.682558 0.339613
O O11 0.055378 0.752246 0.836775
O O12 0.000000 0.000000 0.500000
O O13 0.860903 0.448857 0.649271
#
# Coordination Sequence:
#
# PCOD8037870 Si02
#       6
#     2   2   2   2   2   2
#     4  11  25  45  64  95 136 165 210 274 323 373
#     4   9  20  35  64  96 124 169 217 259 310 386
#     4  11  23  46  68  97 126 172 218 266 323 387
#     4  10  17  32  56 100 124 162 214 259 305 378
#     4  10  22  41  65  94 129 175 206 263 324 377
#     4   9  19  33  61  92 129 164 211 254 317 374
#
# _framework density 28.846209000000002
#
# number of rings (size 3 to 8) (size 9 to 14) (size 15 to 20)
#    1.000    1.000    1.667    3.000    0.000    3.333 
#    3.000    0.000    0.000    6.000    0.000    0.000 
#    0.000    0.000    0.000    0.000    0.000    0.000 
#
# Total GULP energy -148713.478962 kJ/mol
# GULP energy per Si atom -12392.789913 kJ/mol
# Density = 2.878055 g / cm^3
# Si number density = 28.846209 Si / 1000 Ang^3
#
#
#
# Elastic Constant Matrix: (Units=GPa)
#
#
# Indices 1 2 3 4 5 6 
#
# 1 161.9107 44.7280 62.7349 29.9443 31.5312 -17.3534
# 2 44.7280 189.2316 58.8198 3.9576 19.8512 -24.9624
# 3 62.7349 58.8198 21.1310 -24.6685 -28.9955 3.7508
# 4 29.9443 3.9576 -24.6685 20.8441 -30.0439 17.8932
# 5 31.5312 19.8512 -28.9955 -30.0439 10.5648 18.5134
# 6 -17.3534 -24.9624 3.7508 17.8932 18.5134 39.5176
#
#
#
# Elastic Compliance Matrix: (Units=1/GPa)
#
#
# Indices 1 2 3 4 5 6 
#
# 1 0.004880 -0.002265 0.000955 0.002615 0.004113 -0.002490
# 2 -0.002265 0.005962 -0.001638 0.003995 0.002588 -0.000095
# 3 0.000955 -0.001638 0.014199 -0.012390 -0.013562 0.010001
# 4 0.002615 0.003995 -0.012390 0.015490 -0.008227 0.001688
# 5 0.004113 0.002588 -0.013562 -0.008227 0.011652 0.002994
# 6 -0.002490 -0.000095 0.010001 0.001688 0.002994 0.021036
#
#
# Mechanical properties :
#
#
# Convention : Reuss Voigt Hill
#
# Bulk Modulus (GPa) = 52.23329 78.31540 65.27434
# Shear Modulus (GPa) = 58.48251 27.91802 43.20027
#
# Velocity S-wave (km/s) = 4.50754 3.11436 3.87409
# Velocity P-wave (km/s) = 6.72587 6.33566 6.53368
#
# Compressibility (1/GPa) = 0.01914488
#
# Stress axis : x y z
#
# Youngs Moduli (GPa) = 204.90725 167.73938 70.42746
#
# Poissons Ratio (x) = 0.37994 -0.06728
# Poissons Ratio (y) = 0.46413 0.11538
# Poissons Ratio (z) = -0.19576 0.27481
#
# Static dielectric constant tensor:
#      x y z
#    x 5.891080 0.092870 0.650950 
#    y 0.092870 5.432490 0.361560 
#    z 0.650950 0.361560 5.752200 
# 
# 
# High freq. dielectric constant tensor:
#      x y z
#    x 2.189630 -0.003290 0.000580 
#    y -0.003290 2.173920 0.018050 
#    z 0.000580 0.018050 2.159250 
# 
# From -- ./inp_files/88294.got.cif
#   From: 2010.06.25/outbox.cif.g09.slc.cpg/sg2_45_cif.got.tgz:88294.got - 2010.06.27 13:26:56.
