data_PCOD8037549
_publ_section_title
;
Structure prediction by ZEFSAII (Michael W. Deem and Ramdas Pophale) SiO2 
 PCOD8037549
Probable space group: P -1
;
_chemical_formula_sum "Si O2"
_cell_formula_units_Z 16
_cell_length_a 23.077181
_cell_length_b 12.552068
_cell_length_c 9.776736
_cell_angle_alpha 133.615755
_cell_angle_beta 143.246110
_cell_angle_gamma 26.071940
_cell_volume 739.959319
_symmetry_space_group_name_H-M "P -1"
_symmetry_group_IT_number 2
_symmetry_cell_setting 'triclinic'
loop_
_space_group_symop_operation_xyz
x,y,z
-x,-y,-z
loop_
_atom_site_type_symbol
_atom_site_label
_atom_site_fract_x
_atom_site_fract_y
_atom_site_fract_z
Si Si1 0.902175 0.216702 0.403046
Si Si2 0.092981 0.974048 0.268830
Si Si3 0.444443 0.504456 0.541709
Si Si4 0.833904 0.779859 0.403188
Si Si5 0.462218 0.424222 0.972555
Si Si6 0.157374 0.393107 0.247731
Si Si7 0.643591 0.916310 0.903063
Si Si8 0.379469 0.007996 0.558682
O O1 0.896533 0.386858 0.600056
O O2 0.726753 0.364184 0.185062
O O3 0.000000 0.000000 0.500000
O O4 0.985639 0.114022 0.323730
O O5 0.257284 0.685419 0.350252
O O6 0.140394 0.078427 0.399895
O O7 0.000000 0.000000 0.000000
O O8 0.500000 0.500000 0.500000
O O9 0.468699 0.610382 0.782887
O O10 0.545250 0.242416 0.547867
O O11 0.700585 0.884334 0.348911
O O12 0.000000 0.500000 0.500000
O O13 0.775516 0.812999 0.169124
O O14 0.500000 0.500000 0.000000
O O15 0.549574 0.165159 0.873414
O O16 0.270793 0.277557 0.228011
O O17 0.247156 0.191252 0.354506
O O18 0.000000 0.500000 0.000000
O O19 0.515569 0.967263 0.779480
#
# Coordination Sequence:
#
# PCOD8037549 Si02
#       8
#     2   2   2   2   2   2   2   2
#     4  12  29  46  73 107 145 189 239 296 362 428
#     4  12  27  48  72 105 147 185 240 294 362 429
#     4  12  25  47  73 105 142 189 240 295 355 424
#     4  12  27  47  73 106 146 191 236 298 362 425
#     4  12  26  47  75 103 145 187 242 297 357 423
#     4  12  28  48  72 105 147 189 241 295 360 429
#     4  12  26  49  75 105 143 193 243 297 354 431
#     4  12  26  47  75 106 145 191 246 295 359 425
#
# _framework density 21.622812
#
# number of rings (size 3 to 8) (size 9 to 14) (size 15 to 20)
#    0.000    0.000    3.750    5.250    8.750    0.000 
#    0.000    0.000    0.000    0.000    0.000    0.000 
#    0.000    0.000    0.000    0.000    0.000    0.000 
#
# Total GULP energy -198529.578121 kJ/mol
# GULP energy per Si atom -12408.098633 kJ/mol
# Density = 2.157360 g / cm^3
# Si number density = 21.622812 Si / 1000 Ang^3
#
#
#
# Elastic Constant Matrix: (Units=GPa)
#
#
# Indices 1 2 3 4 5 6 
#
# 1 158.2360 63.7836 59.8061 7.8372 -1.0092 -14.1282
# 2 63.7836 164.1056 58.9462 -6.5948 -3.5661 -0.3949
# 3 59.8061 58.9462 149.8807 -7.2808 -4.7609 -5.8240
# 4 7.8372 -6.5948 -7.2808 45.7092 -4.3088 -1.2497
# 5 -1.0092 -3.5661 -4.7609 -4.3088 41.9440 1.9748
# 6 -14.1282 -0.3949 -5.8240 -1.2497 1.9748 49.2594
#
#
#
# Elastic Compliance Matrix: (Units=1/GPa)
#
#
# Indices 1 2 3 4 5 6 
#
# 1 0.008573 -0.002544 -0.002466 -0.002230 -0.000619 0.002115
# 2 -0.002544 0.007875 -0.002038 0.001275 0.000550 -0.000897
# 3 -0.002466 -0.002038 0.008574 0.001586 0.000890 0.000295
# 4 -0.002230 0.001275 0.001586 0.022942 0.002590 0.000036
# 5 -0.000619 0.000550 0.000890 0.002590 0.024286 -0.000976
# 6 0.002115 -0.000897 0.000295 0.000036 -0.000976 0.020975
#
#
# Mechanical properties :
#
#
# Convention : Reuss Voigt Hill
#
# Bulk Modulus (GPa) = 91.51791 93.03270 92.27530
# Shear Modulus (GPa) = 45.06037 46.69495 45.87766
#
# Velocity S-wave (km/s) = 4.56996 4.65211 4.61122
# Velocity P-wave (km/s) = 8.38228 8.48380 8.43319
#
# Compressibility (1/GPa) = 0.01092682
#
# Stress axis : x y z
#
# Youngs Moduli (GPa) = 116.65153 126.97739 116.63113
#
# Poissons Ratio (x) = 0.32305 0.28760
# Poissons Ratio (y) = 0.29678 0.23764
# Poissons Ratio (z) = 0.28765 0.25872
#
# Static dielectric constant tensor:
#      x y z
#    x 4.059220 -0.100960 -0.018480 
#    y -0.100960 3.714660 -0.466810 
#    z -0.018480 -0.466810 3.732050 
# 
# 
# High freq. dielectric constant tensor:
#      x y z
#    x 1.863800 -0.005100 -0.001360 
#    y -0.005100 1.872730 -0.005420 
#    z -0.001360 -0.005420 1.862980 
# 
# From -- ./inp_files/187606.got.cif
#   From: 2010.06.25/outbox.cif.g09.slc.cpg/sg2_94_cif.got.tgz:187606.got - 2010.06.27 13:26:56.
