data_PCOD8037653
_publ_section_title
;
Structure prediction by ZEFSAII (Michael W. Deem and Ramdas Pophale) SiO2 
 PCOD8037653
Probable space group: P -1
;
_chemical_formula_sum "Si O2"
_cell_formula_units_Z 16
_cell_length_a 13.652838
_cell_length_b 9.675990
_cell_length_c 9.207350
_cell_angle_alpha 135.234048
_cell_angle_beta 108.581858
_cell_angle_gamma 98.164803
_cell_volume 677.159278
_symmetry_space_group_name_H-M "P -1"
_symmetry_group_IT_number 2
_symmetry_cell_setting 'triclinic'
loop_
_space_group_symop_operation_xyz
x,y,z
-x,-y,-z
loop_
_atom_site_type_symbol
_atom_site_label
_atom_site_fract_x
_atom_site_fract_y
_atom_site_fract_z
Si Si1 0.164816 0.272758 0.633337
Si Si2 0.784503 0.603342 0.932053
Si Si3 0.006465 0.864149 0.040847
Si Si4 0.610568 0.765575 0.982118
Si Si5 0.879593 0.354719 0.234827
Si Si6 0.602631 0.707296 0.354973
Si Si7 0.406164 0.943841 0.590057
Si Si8 0.621586 0.929532 0.815392
O O1 0.164563 0.481770 0.715024
O O2 0.295427 0.299159 0.695609
O O3 0.059876 0.030782 0.330265
O O4 0.139024 0.283352 0.798643
O O5 0.720318 0.740243 0.965063
O O6 0.682766 0.327093 0.699338
O O7 0.872116 0.648557 0.869709
O O8 0.087053 0.755459 0.964452
O O9 0.000000 0.000000 0.000000
O O10 0.517623 0.557388 0.893686
O O11 0.549217 0.772360 0.806013
O O12 0.661560 0.003359 0.275293
O O13 0.000000 0.500000 0.500000
O O14 0.756128 0.142942 0.096417
O O15 0.645627 0.784338 0.599308
O O16 0.569794 0.889101 0.411994
O O17 0.538044 0.011061 0.765056
#
# Coordination Sequence:
#
# PCOD8037653 Si02
#       8
#     2   2   2   2   2   2   2   2
#     4  12  27  49  78 108 150 205 245 311 374 442
#     4  12  29  46  76 112 152 194 253 308 373 447
#     4  12  27  51  77 108 148 202 252 309 370 443
#     4  12  27  45  75 110 155 194 244 315 373 448
#     4  12  27  47  78 111 148 197 253 309 369 442
#     4  12  25  49  77 109 153 197 249 301 390 447
#     4  12  27  48  77 112 152 198 248 310 377 459
#     4  12  26  47  78 111 152 196 254 309 381 438
#
# _framework density 23.628117
#
# number of rings (size 3 to 8) (size 9 to 14) (size 15 to 20)
#    0.000    0.000    5.000    4.125    3.500    0.500 
#    0.000    0.000    0.000    0.000    0.000    0.000 
#    0.000    0.000    0.000    0.000    0.000    0.000 
#
# Total GULP energy -198412.925364 kJ/mol
# GULP energy per Si atom -12400.807835 kJ/mol
# Density = 2.357434 g / cm^3
# Si number density = 23.628117 Si / 1000 Ang^3
#
#
#
# Elastic Constant Matrix: (Units=GPa)
#
#
# Indices 1 2 3 4 5 6 
#
# 1 97.3276 35.3587 24.5133 12.9863 4.1147 -1.1944
# 2 35.3587 109.7205 37.5679 -11.8187 1.9798 3.0434
# 3 24.5133 37.5679 134.6834 -0.9268 -4.1594 -2.9185
# 4 12.9863 -11.8187 -0.9268 31.9061 -1.1379 -3.5395
# 5 4.1147 1.9798 -4.1594 -1.1379 45.4967 1.1201
# 6 -1.1944 3.0434 -2.9185 -3.5395 1.1201 41.7305
#
#
#
# Elastic Compliance Matrix: (Units=1/GPa)
#
#
# Indices 1 2 3 4 5 6 
#
# 1 0.013271 -0.004612 -0.001217 -0.007185 -0.001292 0.000056
# 2 -0.004612 0.012159 -0.002529 0.006228 -0.000171 -0.000663
# 3 -0.001217 -0.002529 0.008396 -0.000085 0.000968 0.000704
# 4 -0.007185 0.006228 -0.000085 0.036884 0.001234 0.002430
# 5 -0.001292 -0.000171 0.000968 0.001234 0.022234 -0.000449
# 6 0.000056 -0.000663 0.000704 0.002430 -0.000449 0.024281
#
#
# Mechanical properties :
#
#
# Convention : Reuss Voigt Hill
#
# Bulk Modulus (GPa) = 58.44656 59.62348 59.03502
# Shear Modulus (GPa) = 35.80542 40.11275 37.95908
#
# Velocity S-wave (km/s) = 3.89700 4.12475 4.01249
# Velocity P-wave (km/s) = 6.71108 6.92630 6.81954
#
# Compressibility (1/GPa) = 0.01710965
#
# Stress axis : x y z
#
# Youngs Moduli (GPa) = 75.35429 82.24674 119.10078
#
# Poissons Ratio (x) = 0.37933 0.14494
# Poissons Ratio (y) = 0.34754 0.30118
# Poissons Ratio (z) = 0.09171 0.20798
#
# Static dielectric constant tensor:
#      x y z
#    x 4.204690 -0.005620 -0.466090 
#    y -0.005620 4.064340 0.280610 
#    z -0.466090 0.280610 3.800540 
# 
# 
# High freq. dielectric constant tensor:
#      x y z
#    x 1.941480 -0.003320 -0.015530 
#    y -0.003320 1.941030 -0.004330 
#    z -0.015530 -0.004330 1.946470 
# 
# From -- ./inp_files/297457.got.cif
#   From: 2010.06.25/outbox.cif.g09.slc.cpg/sg2_149_cif.got.tgz:297457.got - 2010.06.27 13:26:56.
