data_PCOD8037067
_publ_section_title
;
Structure prediction by ZEFSAII (Michael W. Deem and Ramdas Pophale) SiO2 
 PCOD8037067
Probable space group: P -1
;
_chemical_formula_sum "Si O2"
_cell_formula_units_Z 16
_cell_length_a 10.255083
_cell_length_b 11.162801
_cell_length_c 16.798791
_cell_angle_alpha 146.177397
_cell_angle_beta 48.779201
_cell_angle_gamma 117.116624
_cell_volume 785.616613
_symmetry_space_group_name_H-M "P -1"
_symmetry_group_IT_number 2
_symmetry_cell_setting 'triclinic'
loop_
_space_group_symop_operation_xyz
x,y,z
-x,-y,-z
loop_
_atom_site_type_symbol
_atom_site_label
_atom_site_fract_x
_atom_site_fract_y
_atom_site_fract_z
Si Si1 0.387351 0.613694 0.962879
Si Si2 0.920931 0.646762 0.538616
Si Si3 0.765902 0.369292 0.716489
Si Si4 0.690573 0.555425 0.447152
Si Si5 0.238867 0.307396 0.959768
Si Si6 0.915843 0.152907 0.045901
Si Si7 0.306090 0.953156 0.059578
Si Si8 0.616209 0.060110 0.713230
O O1 0.257077 0.463138 0.963888
O O2 0.382733 0.819973 0.136793
O O3 0.324114 0.707950 0.953436
O O4 0.586220 0.468569 0.795523
O O5 0.786170 0.527709 0.479423
O O6 0.814455 0.880051 0.740322
O O7 0.000000 0.500000 0.500000
O O8 0.073962 0.690313 0.442499
O O9 0.799993 0.549989 0.865347
O O10 0.746558 0.147254 0.647465
O O11 0.500000 0.500000 0.500000
O O12 0.805299 0.387910 0.247447
O O13 0.681436 0.799729 0.552310
O O14 0.075328 0.191201 0.946049
O O15 0.416082 0.117228 0.791859
O O16 0.786422 0.031649 0.981174
O O17 0.000000 0.000000 0.000000
O O18 0.500000 0.000000 0.000000
#
# Coordination Sequence:
#
# PCOD8037067 Si02
#       8
#     2   2   2   2   2   2   2   2
#     4   9  19  39  65  92 124 162 203 251 314 373
#     4  12  24  40  62  92 124 160 212 259 304 364
#     4   9  19  38  66  94 122 160 206 255 307 371
#     4  12  24  40  62  92 124 160 212 259 304 364
#     4   9  19  39  65  92 124 162 203 251 314 373
#     4  12  26  41  62  90 128 168 205 256 313 370
#     4  12  26  41  62  90 128 168 205 256 313 370
#     4   9  19  38  66  94 122 160 206 255 307 371
#
# _framework density 20.366167999999998
#
# number of rings (size 3 to 8) (size 9 to 14) (size 15 to 20)
#    0.000    1.500    2.500    4.500    3.500    2.000 
#    0.000    0.000    0.000    3.750    0.000    0.000 
#    0.000    0.000    0.000    0.000    0.000    0.000 
#
# Total GULP energy -198425.776546 kJ/mol
# GULP energy per Si atom -12401.611034 kJ/mol
# Density = 2.031981 g / cm^3
# Si number density = 20.366168 Si / 1000 Ang^3
#
#
#
# Elastic Constant Matrix: (Units=GPa)
#
#
# Indices 1 2 3 4 5 6 
#
# 1 125.0160 68.7066 21.9469 -18.3422 -4.7004 11.4035
# 2 68.7066 139.5128 47.8983 -7.5127 -19.7810 5.2823
# 3 21.9469 47.8983 98.6736 -19.2999 -8.3108 8.9979
# 4 -18.3422 -7.5127 -19.2999 15.4763 0.6363 4.2980
# 5 -4.7004 -19.7810 -8.3108 0.6363 27.0862 1.4468
# 6 11.4035 5.2823 8.9979 4.2980 1.4468 32.7396
#
#
#
# Elastic Compliance Matrix: (Units=1/GPa)
#
#
# Indices 1 2 3 4 5 6 
#
# 1 0.016134 -0.008616 0.006252 0.025360 -0.001678 -0.009203
# 2 -0.008616 0.013978 -0.007517 -0.014289 0.006507 0.004400
# 3 0.006252 -0.007517 0.019518 0.030946 0.001415 -0.010454
# 4 0.025360 -0.014289 0.030946 0.135378 0.002037 -0.032895
# 5 -0.001678 0.006507 0.001415 0.002037 0.041926 -0.002975
# 6 -0.009203 0.004400 -0.010454 -0.032895 -0.002975 0.040363
#
#
# Mechanical properties :
#
#
# Convention : Reuss Voigt Hill
#
# Bulk Modulus (GPa) = 33.48020 71.14511 52.31266
# Shear Modulus (GPa) = 16.83420 30.03713 23.43566
#
# Velocity S-wave (km/s) = 2.87814 3.84455 3.39590
# Velocity P-wave (km/s) = 5.24593 7.39704 6.41233
#
# Compressibility (1/GPa) = 0.02986840
#
# Stress axis : x y z
#
# Youngs Moduli (GPa) = 61.98216 71.53988 51.23418
#
# Poissons Ratio (x) = 0.61637 -0.32032
# Poissons Ratio (y) = 0.53402 0.38513
# Poissons Ratio (z) = -0.38751 0.53777
#
# Static dielectric constant tensor:
#      x y z
#    x 3.416120 -0.114170 0.045780 
#    y -0.114170 3.741080 0.085550 
#    z 0.045780 0.085550 3.491480 
# 
# 
# High freq. dielectric constant tensor:
#      x y z
#    x 1.789930 0.000010 -0.023430 
#    y 0.000010 1.806260 -0.001710 
#    z -0.023430 -0.001710 1.791590 
# 
# From -- ./inp_files/274025.got.cif
#   From: 2010.06.25/outbox.cif.g09.slc.cpg/sg2_138_cif.got.tgz:274025.got - 2010.06.27 13:26:56.
