data_PCOD8037889
_publ_section_title
;
Structure prediction by ZEFSAII (Michael W. Deem and Ramdas Pophale) SiO2 
 PCOD8037889
Probable space group: P -1
;
_chemical_formula_sum "Si O2"
_cell_formula_units_Z 16
_cell_length_a 9.000000
_cell_length_b 15.000000
_cell_length_c 15.000000
_cell_angle_alpha 140.000000
_cell_angle_beta 130.000000
_cell_angle_gamma 80.000000
_cell_volume 759.999475
_symmetry_space_group_name_H-M "P -1"
_symmetry_group_IT_number 2
_symmetry_cell_setting 'triclinic'
loop_
_space_group_symop_operation_xyz
x,y,z
-x,-y,-z
loop_
_atom_site_type_symbol
_atom_site_label
_atom_site_fract_x
_atom_site_fract_y
_atom_site_fract_z
Si Si1 0.932507 0.835735 0.058230
Si Si2 0.714368 0.530165 0.878901
Si Si3 0.252859 0.753668 0.824215
Si Si4 0.399799 0.656230 0.645738
Si Si5 0.732421 0.138437 0.339893
Si Si6 0.057320 0.647313 0.856984
Si Si7 0.889973 0.769609 0.582347
Si Si8 0.029799 0.603519 0.221953
O O1 0.861935 0.729696 0.044302
O O2 0.672617 0.719773 0.814839
O O3 0.073062 0.047884 0.278992
O O4 0.121663 0.821040 0.064928
O O5 0.408675 0.405223 0.657139
O O6 0.785799 0.417897 0.774167
O O7 0.813157 0.568928 0.048639
O O8 0.242569 0.617884 0.648335
O O9 0.217363 0.692786 0.865535
O O10 0.057744 0.786708 0.743500
O O11 0.554834 0.929449 0.081195
O O12 0.434627 0.812418 0.723531
O O13 0.236823 0.477810 0.384694
O O14 0.004169 0.253641 0.483517
O O15 0.796714 0.192530 0.511154
O O16 0.107007 0.541235 0.860700
#
# Coordination Sequence:
#
# PCOD8037889 Si02
#       8
#     2   2   2   2   2   2   2   2
#     4  11  21  38  57  92 119 148 198 243 287 350
#     4  10  23  43  64  81 116 159 196 247 297 328
#     4  11  20  36  58  90 121 156 185 234 300 348
#     4  10  18  37  56  80 127 153 186 239 288 353
#     4  10  20  38  60  83 123 154 190 238 289 348
#     4  10  22  33  59  88 112 156 198 236 293 347
#     4  11  22  39  61  90 121 155 191 239 292 352
#     4   9  22  45  59  81 115 155 201 246 285 346
#
# _framework density 21.052645999999999
#
# number of rings (size 3 to 8) (size 9 to 14) (size 15 to 20)
#    0.000    1.750    2.500    2.250    1.750    5.000 
#    2.250    2.500    0.000    0.000    0.000    0.000 
#    0.000    0.000    0.000    0.000    0.000    0.000 
#
# Total GULP energy -198231.026436 kJ/mol
# GULP energy per Si atom -12389.439152 kJ/mol
# Density = 2.100473 g / cm^3
# Si number density = 21.052646 Si / 1000 Ang^3
#
#
#
# Elastic Constant Matrix: (Units=GPa)
#
#
# Indices 1 2 3 4 5 6 
#
# 1 47.8467 29.8154 22.2469 -4.1032 -6.1389 11.6567
# 2 29.8154 93.8642 44.2928 -6.5389 -13.7782 15.6795
# 3 22.2469 44.2928 59.6409 -18.5981 -5.3216 6.9312
# 4 -4.1032 -6.5389 -18.5981 27.7164 0.9111 -5.9225
# 5 -6.1389 -13.7782 -5.3216 0.9111 34.7529 -0.6498
# 6 11.6567 15.6795 6.9312 -5.9225 -0.6498 31.7361
#
#
#
# Elastic Compliance Matrix: (Units=1/GPa)
#
#
# Indices 1 2 3 4 5 6 
#
# 1 0.028906 -0.004236 -0.007676 -0.003538 0.002205 -0.007463
# 2 -0.004236 0.020102 -0.014345 -0.007057 0.005089 -0.006456
# 3 -0.007676 -0.014345 0.035946 0.020930 -0.001977 0.005921
# 4 -0.003538 -0.007057 0.020930 0.050014 -0.001351 0.009521
# 5 0.002205 0.005089 -0.001977 -0.001351 0.030867 -0.002512
# 6 -0.007463 -0.006456 0.005921 0.009521 -0.002512 0.037873
#
#
# Mechanical properties :
#
#
# Convention : Reuss Voigt Hill
#
# Bulk Modulus (GPa) = 30.82573 43.78466 37.30519
# Shear Modulus (GPa) = 18.72402 25.84086 22.28244
#
# Velocity S-wave (km/s) = 2.98550 3.50728 3.25686
# Velocity P-wave (km/s) = 5.15347 6.10281 5.64812
#
# Compressibility (1/GPa) = 0.03244043
#
# Stress axis : x y z
#
# Youngs Moduli (GPa) = 34.59445 49.74524 27.81951
#
# Poissons Ratio (x) = 0.21073 0.21353
# Poissons Ratio (y) = 0.14655 0.39908
# Poissons Ratio (z) = 0.26553 0.71362
#
# Static dielectric constant tensor:
#      x y z
#    x 3.698210 0.103090 -0.144990 
#    y 0.103090 3.956140 0.052420 
#    z -0.144990 0.052420 3.910040 
# 
# 
# High freq. dielectric constant tensor:
#      x y z
#    x 1.821740 0.002630 -0.011620 
#    y 0.002630 1.820780 0.003560 
#    z -0.011620 0.003560 1.817490 
# 
# From -- ./inp_files/171586.got.cif
#   From: 2010.06.25/outbox.ucp.g09.slc.cvg/sg2_86_cif.got.tgz:171586.got - 2010.06.28 11:54:26.
