data_PCOD8037754
_publ_section_title
;
Structure prediction by ZEFSAII (Michael W. Deem and Ramdas Pophale) SiO2 
 PCOD8037754
Probable space group: P -1
;
_chemical_formula_sum "Si O2"
_cell_formula_units_Z 10
_cell_length_a 11.663273
_cell_length_b 14.277846
_cell_length_c 8.645843
_cell_angle_alpha 126.200045
_cell_angle_beta 51.299864
_cell_angle_gamma 159.280292
_cell_volume 397.449176
_symmetry_space_group_name_H-M "P -1"
_symmetry_group_IT_number 2
_symmetry_cell_setting 'triclinic'
loop_
_space_group_symop_operation_xyz
x,y,z
-x,-y,-z
loop_
_atom_site_type_symbol
_atom_site_label
_atom_site_fract_x
_atom_site_fract_y
_atom_site_fract_z
Si Si1 0.483757 0.267287 0.560906
Si Si2 0.636547 0.838652 0.110119
Si Si3 0.237670 0.338688 0.868627
Si Si4 0.242778 0.901905 0.205105
Si Si5 0.210403 0.745183 0.386823
O O1 0.261031 0.071503 0.707567
O O2 0.430978 0.365093 0.661048
O O3 0.856973 0.496803 0.532284
O O4 0.408659 0.142792 0.346749
O O5 0.327933 0.702282 0.187356
O O6 0.513289 0.617489 0.987007
O O7 0.958697 0.096503 0.988256
O O8 0.073580 0.296331 0.828431
O O9 0.124061 0.759550 0.323877
O O10 0.500000 0.000000 0.000000
O O11 0.500000 0.000000 0.500000
#
# Coordination Sequence:
#
# PCOD8037754 Si02
#       5
#     2   2   2   2   2
#     4  12  28  47  78 111 153 199 253 314 374 449
#     4  12  26  50  78 111 154 200 251 305 376 457
#     4  12  29  49  78 116 154 196 250 314 383 443
#     4  12  27  48  77 109 154 201 250 313 377 449
#     4  12  26  48  79 109 150 202 260 306 374 450
#
# _framework density 25.160451999999999
#
# number of rings (size 3 to 8) (size 9 to 14) (size 15 to 20)
#    0.000    0.000    4.000    4.800    5.600    2.400 
#    0.000    0.000    0.000    0.000    0.000    0.000 
#    0.000    0.000    0.000    0.000    0.000    0.000 
#
# Total GULP energy -124017.530175 kJ/mol
# GULP energy per Si atom -12401.753018 kJ/mol
# Density = 2.510319 g / cm^3
# Si number density = 25.160452 Si / 1000 Ang^3
#
#
#
# Elastic Constant Matrix: (Units=GPa)
#
#
# Indices 1 2 3 4 5 6 
#
# 1 88.0641 20.5505 48.6449 -11.4373 -26.7558 11.3585
# 2 20.5505 80.6426 36.6904 5.1018 -1.8438 -12.2448
# 3 48.6449 36.6904 155.5748 15.6804 -24.6556 -2.3537
# 4 -11.4373 5.1018 15.6804 26.9563 2.6222 -7.3808
# 5 -26.7558 -1.8438 -24.6556 2.6222 63.5015 -2.0844
# 6 11.3585 -12.2448 -2.3537 -7.3808 -2.0844 47.1715
#
#
#
# Elastic Compliance Matrix: (Units=1/GPa)
#
#
# Indices 1 2 3 4 5 6 
#
# 1 0.018326 -0.003398 -0.005179 0.009902 0.005079 -0.003779
# 2 -0.003398 0.015147 -0.002583 -0.001450 -0.001793 0.004315
# 3 -0.005179 -0.002583 0.009704 -0.007541 0.001821 -0.000039
# 4 0.009902 -0.001450 -0.007541 0.047174 -0.000607 0.004217
# 5 0.005079 -0.001793 0.001821 -0.000607 0.018539 -0.000873
# 6 -0.003779 0.004315 -0.000039 0.004217 -0.000873 0.023849
#
#
# Mechanical properties :
#
#
# Convention : Reuss Voigt Hill
#
# Bulk Modulus (GPa) = 47.94250 59.56145 53.75197
# Shear Modulus (GPa) = 30.86227 42.08557 36.47392
#
# Velocity S-wave (km/s) = 3.50611 4.09429 3.81156
# Velocity P-wave (km/s) = 5.95705 6.78785 6.38598
#
# Compressibility (1/GPa) = 0.02085832
#
# Stress axis : x y z
#
# Youngs Moduli (GPa) = 54.56822 66.01867 103.04719
#
# Poissons Ratio (x) = 0.22432 0.53368
# Poissons Ratio (y) = 0.18542 0.26612
# Poissons Ratio (z) = 0.28261 0.17050
#
# Static dielectric constant tensor:
#      x y z
#    x 5.008320 0.003970 -0.304600 
#    y 0.003970 4.289020 -0.011950 
#    z -0.304600 -0.011950 4.876440 
# 
# 
# High freq. dielectric constant tensor:
#      x y z
#    x 2.028790 0.001400 -0.016630 
#    y 0.001400 1.989170 -0.006160 
#    z -0.016630 -0.006160 2.017100 
# 
# From -- ./inp_files/15220.got.cif
#   From: 2010.06.25/outbox.cif.g09.slc.cpg/sg2_8_cif.got.tgz:15220.got - 2010.06.27 13:26:56.
