data_PCOD8037884
_publ_section_title
;
Structure prediction by ZEFSAII (Michael W. Deem and Ramdas Pophale) SiO2 
 PCOD8037884
Probable space group: P -1
;
_chemical_formula_sum "Si O2"
_cell_formula_units_Z 16
_cell_length_a 13.298850
_cell_length_b 9.174660
_cell_length_c 23.421932
_cell_angle_alpha 85.103104
_cell_angle_beta 22.650657
_cell_angle_gamma 98.604393
_cell_volume 881.138351
_symmetry_space_group_name_H-M "P -1"
_symmetry_group_IT_number 2
_symmetry_cell_setting 'triclinic'
loop_
_space_group_symop_operation_xyz
x,y,z
-x,-y,-z
loop_
_atom_site_type_symbol
_atom_site_label
_atom_site_fract_x
_atom_site_fract_y
_atom_site_fract_z
Si Si1 0.306245 0.081339 0.260904
Si Si2 0.568554 0.868832 0.939877
Si Si3 0.013988 0.583074 0.576514
Si Si4 0.897431 0.680758 0.516286
Si Si5 0.328443 0.693768 0.833115
Si Si6 0.785168 0.508329 0.821300
Si Si7 0.210274 0.902928 0.611215
Si Si8 0.344710 0.968681 0.413345
O O1 0.224425 0.889033 0.332287
O O2 0.993284 0.080650 0.434394
O O3 0.420905 0.115176 0.134435
O O4 0.595148 0.248480 0.142170
O O5 0.900524 0.903775 0.789029
O O6 0.250418 0.668903 0.131753
O O7 0.500000 0.000000 0.000000
O O8 0.109595 0.445403 0.524779
O O9 0.844509 0.583733 0.607842
O O10 0.765253 0.512517 0.762538
O O11 0.334123 0.790033 0.413780
O O12 0.595919 0.684123 0.662135
O O13 0.343571 0.854843 0.786612
O O14 0.000000 0.500000 0.000000
O O15 0.112204 0.699021 0.663758
O O16 0.500000 0.500000 0.000000
O O17 0.500000 0.000000 0.500000
O O18 0.361112 0.012404 0.469775
#
# Coordination Sequence:
#
# PCOD8037884 Si02
#       8
#     2   2   2   2   2   2   2   2
#     4  10  18  35  56  73 106 142 182 211 257 324
#     4  10  20  35  56  82 107 140 183 223 267 320
#     4  10  17  32  57  79  98 134 181 217 253 309
#     4  10  19  32  57  77 101 133 180 217 260 313
#     4  11  21  34  50  79 108 137 177 220 270 311
#     4   9  19  33  53  79 110 137 179 216 264 318
#     4   9  19  35  55  77 106 142 179 218 267 318
#     4   9  17  35  55  73  99 142 179 212 250 330
#
# _framework density 18.158328999999998
#
# number of rings (size 3 to 8) (size 9 to 14) (size 15 to 20)
#    0.000    2.250    2.500    2.250    0.000    1.000 
#    2.250    3.750    0.000    0.000    0.000    0.000 
#    0.000    0.000    0.000    0.000    0.000    0.000 
#
# Total GULP energy -198249.757464 kJ/mol
# GULP energy per Si atom -12390.609842 kJ/mol
# Density = 1.811700 g / cm^3
# Si number density = 18.158329 Si / 1000 Ang^3
#
#
#
# Elastic Constant Matrix: (Units=GPa)
#
#
# Indices 1 2 3 4 5 6 
#
# 1 96.5417 47.3615 55.8316 -13.8268 8.7132 13.1885
# 2 47.3615 141.8047 50.9471 -17.0823 5.9961 8.9471
# 3 55.8316 50.9471 91.4879 -25.3005 11.9701 11.9830
# 4 -13.8268 -17.0823 -25.3005 30.4176 -0.3335 3.3879
# 5 8.7132 5.9961 11.9701 -0.3335 33.5330 -4.2164
# 6 13.1885 8.9471 11.9830 3.3879 -4.2164 25.3671
#
#
#
# Elastic Compliance Matrix: (Units=1/GPa)
#
#
# Indices 1 2 3 4 5 6 
#
# 1 0.017073 -0.002371 -0.008326 -0.000027 -0.001590 -0.004367
# 2 -0.002371 0.009211 -0.003163 0.001545 0.000023 -0.000724
# 3 -0.008326 -0.003163 0.024159 0.015480 -0.006895 -0.009181
# 4 -0.000027 0.001545 0.015480 0.048253 -0.007264 -0.015495
# 5 -0.001590 0.000023 -0.006895 -0.007264 0.033964 0.010691
# 6 -0.004367 -0.000724 -0.009181 -0.015495 0.010691 0.050131
#
#
# Mechanical properties :
#
#
# Convention : Reuss Voigt Hill
#
# Bulk Modulus (GPa) = 44.01052 70.90163 57.45607
# Shear Modulus (GPa) = 22.92685 29.57648 26.25167
#
# Velocity S-wave (km/s) = 3.55717 4.04023 3.80637
# Velocity P-wave (km/s) = 6.41569 7.80357 7.14342
#
# Compressibility (1/GPa) = 0.02272184
#
# Stress axis : x y z
#
# Youngs Moduli (GPa) = 58.57312 108.56248 41.39318
#
# Poissons Ratio (x) = 0.25744 0.34463
# Poissons Ratio (y) = 0.13890 0.13093
# Poissons Ratio (z) = 0.48767 0.34340
#
# Static dielectric constant tensor:
#      x y z
#    x 2.633530 0.244540 -0.179400 
#    y 0.244540 3.650950 -0.035660 
#    z -0.179400 -0.035660 2.724910 
# 
# 
# High freq. dielectric constant tensor:
#      x y z
#    x 1.692400 0.006850 0.038910 
#    y 0.006850 1.718720 -0.020290 
#    z 0.038910 -0.020290 1.671620 
# 
# From -- ./inp_files/189794.got.cif
#   From: 2010.06.25/outbox.cif.g09.slc.cpg/sg2_95_cif.got.tgz:189794.got - 2010.06.27 13:26:56.
