data_PCOD8037009
_publ_section_title
;
Structure prediction by ZEFSAII (Michael W. Deem and Ramdas Pophale) SiO2 
 PCOD8037009
Probable space group: P -1
;
_chemical_formula_sum "Si O2"
_cell_formula_units_Z 14
_cell_length_a 8.563201
_cell_length_b 14.240884
_cell_length_c 14.597464
_cell_angle_alpha 28.999962
_cell_angle_beta 70.962385
_cell_angle_gamma 53.194778
_cell_volume 594.567094
_symmetry_space_group_name_H-M "P -1"
_symmetry_group_IT_number 2
_symmetry_cell_setting 'triclinic'
loop_
_space_group_symop_operation_xyz
x,y,z
-x,-y,-z
loop_
_atom_site_type_symbol
_atom_site_label
_atom_site_fract_x
_atom_site_fract_y
_atom_site_fract_z
Si Si1 0.541121 0.159508 0.639733
Si Si2 0.619392 0.458898 0.918361
Si Si3 0.889930 0.627256 0.709292
Si Si4 0.795651 0.022304 0.535813
Si Si5 0.057958 0.732930 0.232371
Si Si6 0.244145 0.069386 0.711904
Si Si7 0.269408 0.134269 0.976544
O O1 0.454288 0.007016 0.774630
O O2 0.327332 0.475544 0.394194
O O3 0.758820 0.010745 0.659501
O O4 0.654143 0.100547 0.768863
O O5 0.806219 0.476678 0.876521
O O6 0.433688 0.688247 0.691173
O O7 0.500000 0.500000 0.000000
O O8 0.727128 0.183013 0.087244
O O9 0.834463 0.795536 0.665646
O O10 0.774497 0.819701 0.479188
O O11 0.161277 0.393530 0.838795
O O12 0.000000 0.000000 0.500000
O O13 0.971444 0.724298 0.355257
O O14 0.930190 0.737412 0.167776
O O15 0.000000 0.000000 0.000000
O O16 0.500000 0.000000 0.000000
#
# Coordination Sequence:
#
# PCOD8037009 Si02
#       7
#     2   2   2   2   2   2   2
#     4  12  26  48  75 107 155 196 246 313 376 434
#     4  12  25  46  75 106 142 198 250 296 373 445
#     4  12  26  49  75 108 149 197 249 302 378 448
#     4  12  28  46  70 112 151 190 252 311 369 444
#     4  12  26  48  76 111 149 198 252 304 376 447
#     4  12  23  46  80 105 146 196 248 308 367 447
#     4  12  26  45  74 108 145 193 248 305 370 438
#
# _framework density 23.546544999999998
#
# number of rings (size 3 to 8) (size 9 to 14) (size 15 to 20)
#    0.000    0.000    5.714    4.286    4.000    3.429 
#    0.000    0.000    0.000    0.000    0.000    0.000 
#    0.000    0.000    0.000    0.000    0.000    0.000 
#
# Total GULP energy -173499.152319 kJ/mol
# GULP energy per Si atom -12392.796594 kJ/mol
# Density = 2.349295 g / cm^3
# Si number density = 23.546545 Si / 1000 Ang^3
#
#
#
# Elastic Constant Matrix: (Units=GPa)
#
#
# Indices 1 2 3 4 5 6 
#
# 1 69.7041 35.3586 29.0179 -18.2186 -24.0339 -10.0169
# 2 35.3586 193.6410 50.9739 -5.2537 -6.7889 -15.2320
# 3 29.0179 50.9739 112.5626 -22.7363 -6.1774 8.5471
# 4 -18.2186 -5.2537 -22.7363 42.2702 0.7649 -2.3442
# 5 -24.0339 -6.7889 -6.1774 0.7649 47.1210 -1.6184
# 6 -10.0169 -15.2320 8.5471 -2.3442 -1.6184 37.1148
#
#
#
# Elastic Compliance Matrix: (Units=1/GPa)
#
#
# Indices 1 2 3 4 5 6 
#
# 1 0.024281 -0.002308 -0.003410 0.008545 0.011722 0.007442
# 2 -0.002308 0.006488 -0.002888 -0.001589 -0.000506 0.002583
# 3 -0.003410 -0.002888 0.012302 0.004542 -0.000778 -0.004686
# 4 0.008545 -0.001589 0.004542 0.029655 0.004335 0.002670
# 5 0.011722 -0.000506 -0.000778 0.004335 0.027113 0.004591
# 6 0.007442 0.002583 -0.004686 0.002670 0.004591 0.031460
#
#
# Mechanical properties :
#
#
# Convention : Reuss Voigt Hill
#
# Bulk Modulus (GPa) = 38.67204 67.40095 53.03650
# Shear Modulus (GPa) = 31.82050 42.67169 37.24610
#
# Velocity S-wave (km/s) = 3.68011 4.26164 3.98151
# Velocity P-wave (km/s) = 5.87511 7.27339 6.61132
#
# Compressibility (1/GPa) = 0.02585847
#
# Stress axis : x y z
#
# Youngs Moduli (GPa) = 41.18388 154.12755 81.29029
#
# Poissons Ratio (x) = 0.35569 0.27723
# Poissons Ratio (y) = 0.09504 0.23478
# Poissons Ratio (z) = 0.14045 0.44514
#
# Static dielectric constant tensor:
#      x y z
#    x 4.296160 0.264040 0.029480 
#    y 0.264040 4.921610 0.241860 
#    z 0.029480 0.241860 4.753070 
# 
# 
# High freq. dielectric constant tensor:
#      x y z
#    x 1.909680 -0.004590 0.001650 
#    y -0.004590 1.971130 0.001940 
#    z 0.001650 0.001940 1.943350 
# 
# From -- ./inp_files/504925.got.cif
#   From: 2010.06.25/outbox.cif.g09.slc.cpg/sg2_253_cif.got.tgz:504925.got - 2010.06.27 13:26:56.
