data_PCOD8037017
_publ_section_title
;
Structure prediction by ZEFSAII (Michael W. Deem and Ramdas Pophale) SiO2 
 PCOD8037017
Probable space group: P -1
;
_chemical_formula_sum "Si O2"
_cell_formula_units_Z 16
_cell_length_a 11.847431
_cell_length_b 9.771058
_cell_length_c 13.835452
_cell_angle_alpha 71.791930
_cell_angle_beta 125.904381
_cell_angle_gamma 64.359027
_cell_volume 738.506446
_symmetry_space_group_name_H-M "P -1"
_symmetry_group_IT_number 2
_symmetry_cell_setting 'triclinic'
loop_
_space_group_symop_operation_xyz
x,y,z
-x,-y,-z
loop_
_atom_site_type_symbol
_atom_site_label
_atom_site_fract_x
_atom_site_fract_y
_atom_site_fract_z
Si Si1 0.923361 0.873021 0.775489
Si Si2 0.657814 0.276594 0.056217
Si Si3 0.955528 0.495554 0.200818
Si Si4 0.535211 0.316844 0.780201
Si Si5 0.469442 0.425008 0.411563
Si Si6 0.462735 0.919656 0.909659
Si Si7 0.958763 0.783364 0.038026
Si Si8 0.796277 0.658269 0.440134
O O1 0.107356 0.834458 0.831902
O O2 0.916447 0.729921 0.746867
O O3 0.661168 0.142833 0.572047
O O4 0.977531 0.793423 0.931149
O O5 0.719206 0.063577 0.172996
O O6 0.500000 0.500000 0.000000
O O7 0.501823 0.363254 0.866776
O O8 0.876282 0.694103 0.048890
O O9 0.115913 0.400948 0.393627
O O10 0.709547 0.636612 0.081719
O O11 0.505938 0.502824 0.688256
O O12 0.331785 0.388515 0.618224
O O13 0.791069 0.043230 0.942274
O O14 0.500000 0.500000 0.500000
O O15 0.213578 0.572877 0.258469
O O16 0.385643 0.067331 0.741623
O O17 0.500000 0.000000 0.000000
O O18 0.000000 0.500000 0.500000
#
# Coordination Sequence:
#
# PCOD8037017 Si02
#       8
#     2   2   2   2   2   2   2   2
#     4  12  28  47  72 111 147 189 240 305 371 434
#     4  12  25  46  75 104 149 189 234 300 367 429
#     4  12  26  46  72 108 147 186 243 301 367 428
#     4  12  24  46  74 105 143 190 244 297 359 432
#     4  12  25  44  72 105 143 188 246 294 362 431
#     4  12  23  47  73 103 146 197 241 289 359 437
#     4  12  25  49  75 103 144 195 244 302 361 436
#     4  12  26  43  73 109 143 192 248 294 351 435
#
# _framework density 21.665351000000001
#
# number of rings (size 3 to 8) (size 9 to 14) (size 15 to 20)
#    0.000    0.000    7.500    2.250    1.750    2.500 
#    0.000    1.250    0.000    0.000    0.000    0.000 
#    0.000    0.000    0.000    0.000    0.000    0.000 
#
# Total GULP energy -198354.011469 kJ/mol
# GULP energy per Si atom -12397.125717 kJ/mol
# Density = 2.161604 g / cm^3
# Si number density = 21.665351 Si / 1000 Ang^3
#
#
#
# Elastic Constant Matrix: (Units=GPa)
#
#
# Indices 1 2 3 4 5 6 
#
# 1 94.1762 31.2585 32.6468 6.4853 -4.9773 -2.7116
# 2 31.2585 135.2776 50.3132 -1.2306 -3.7310 -18.8266
# 3 32.6468 50.3132 129.7037 -5.1996 7.2113 -9.9402
# 4 6.4853 -1.2306 -5.1996 30.5497 3.6220 2.1385
# 5 -4.9773 -3.7310 7.2113 3.6220 37.8098 -7.8735
# 6 -2.7116 -18.8266 -9.9402 2.1385 -7.8735 35.6213
#
#
#
# Elastic Compliance Matrix: (Units=1/GPa)
#
#
# Indices 1 2 3 4 5 6 
#
# 1 0.012533 -0.001869 -0.002702 -0.003463 0.002297 -0.000072
# 2 -0.001869 0.009670 -0.003066 -0.000332 0.002291 0.004639
# 3 -0.002702 -0.003066 0.009842 0.002437 -0.002733 0.000170
# 4 -0.003463 -0.000332 0.002437 0.034653 -0.004881 -0.002918
# 5 0.002297 0.002291 -0.002733 -0.004881 0.029515 0.007440
# 6 -0.000072 0.004639 0.000170 -0.002918 0.007440 0.032387
#
#
# Mechanical properties :
#
#
# Convention : Reuss Voigt Hill
#
# Bulk Modulus (GPa) = 59.62404 65.28828 62.45616
# Shear Modulus (GPa) = 33.45294 37.12543 35.28919
#
# Velocity S-wave (km/s) = 3.93374 4.14404 4.04026
# Velocity P-wave (km/s) = 6.94353 7.28682 7.11724
#
# Compressibility (1/GPa) = 0.01677176
#
# Stress axis : x y z
#
# Youngs Moduli (GPa) = 79.78791 103.41032 101.60754
#
# Poissons Ratio (x) = 0.19332 0.27450
# Poissons Ratio (y) = 0.14916 0.31150
# Poissons Ratio (z) = 0.21555 0.31703
#
# Static dielectric constant tensor:
#      x y z
#    x 3.657700 -0.356520 0.063260 
#    y -0.356520 3.637090 0.117160 
#    z 0.063260 0.117160 3.935310 
# 
# 
# High freq. dielectric constant tensor:
#      x y z
#    x 1.876140 0.003840 -0.002030 
#    y 0.003840 1.846690 -0.000620 
#    z -0.002030 -0.000620 1.856330 
# 
# From -- ./inp_files/476372.got.cif
#   From: 2010.06.25/outbox.cif.g09.slc.cpg/sg2_239_cif.got.tgz:476372.got - 2010.06.27 13:26:56.
