data_PCOD8037788
_publ_section_title
;
Structure prediction by ZEFSAII (Michael W. Deem and Ramdas Pophale) SiO2 
 PCOD8037788
Probable space group: P -1
;
_chemical_formula_sum "Si O2"
_cell_formula_units_Z 12
_cell_length_a 5.346322
_cell_length_b 9.913046
_cell_length_c 14.586644
_cell_angle_alpha 64.508120
_cell_angle_beta 68.430222
_cell_angle_gamma 112.757754
_cell_volume 493.530162
_symmetry_space_group_name_H-M "P -1"
_symmetry_group_IT_number 2
_symmetry_cell_setting 'triclinic'
loop_
_space_group_symop_operation_xyz
x,y,z
-x,-y,-z
loop_
_atom_site_type_symbol
_atom_site_label
_atom_site_fract_x
_atom_site_fract_y
_atom_site_fract_z
Si Si1 0.563976 0.587202 0.181743
Si Si2 0.567369 0.132808 0.867733
Si Si3 0.631838 0.493478 0.386770
Si Si4 0.263504 0.058017 0.531564
Si Si5 0.170125 0.757044 0.931279
Si Si6 0.244903 0.270348 0.174585
O O1 0.637160 0.789755 0.101192
O O2 0.437936 0.510582 0.324973
O O3 0.272591 0.411233 0.205253
O O4 0.945963 0.650597 0.086578
O O5 0.958674 0.324645 0.733493
O O6 0.426088 0.993190 0.838150
O O7 0.500000 0.000000 0.000000
O O8 0.500000 0.500000 0.500000
O O9 0.544814 0.288947 0.445450
O O10 0.500000 0.000000 0.500000
O O11 0.000000 0.000000 0.500000
O O12 0.035201 0.951736 0.685703
O O13 0.381893 0.681345 0.903858
O O14 0.880508 0.694485 0.911275
#
# Coordination Sequence:
#
# PCOD8037788 Si02
#       6
#     2   2   2   2   2   2
#     4  12  27  48  77 113 155 199 258 322 386 459
#     4  12  27  50  78 109 159 203 256 319 391 458
#     4  12  29  49  78 112 155 207 259 317 388 464
#     4  12  26  51  79 108 156 206 256 318 385 455
#     4  12  27  47  80 113 154 201 257 317 389 457
#     4  12  27  49  79 114 153 201 259 320 385 459
#
# _framework density 24.314620000000001
#
# number of rings (size 3 to 8) (size 9 to 14) (size 15 to 20)
#    0.000    0.000    3.333    5.500    7.000    0.667 
#    0.000    0.000    0.000    0.000    0.000    0.000 
#    0.000    0.000    0.000    0.000    0.000    0.000 
#
# Total GULP energy -148799.788992 kJ/mol
# GULP energy per Si atom -12399.982416 kJ/mol
# Density = 2.425928 g / cm^3
# Si number density = 24.314620 Si / 1000 Ang^3
#
#
#
# Elastic Constant Matrix: (Units=GPa)
#
#
# Indices 1 2 3 4 5 6 
#
# 1 151.8555 63.8394 44.5385 19.1375 11.0641 -11.6867
# 2 63.8394 185.3195 39.7204 -2.2509 19.3961 -0.7305
# 3 44.5385 39.7204 155.6976 13.1378 14.0527 -6.6635
# 4 19.1375 -2.2509 13.1378 47.4300 -0.7310 0.3003
# 5 11.0641 19.3961 14.0527 -0.7310 35.5597 -5.6696
# 6 -11.6867 -0.7305 -6.6635 0.3003 -5.6696 47.1375
#
#
#
# Elastic Compliance Matrix: (Units=1/GPa)
#
#
# Indices 1 2 3 4 5 6 
#
# 1 0.008719 -0.002686 -0.001411 -0.003274 -0.000457 0.001887
# 2 -0.002686 0.006809 -0.000911 0.001625 -0.002648 -0.001018
# 3 -0.001411 -0.000911 0.007384 -0.001552 -0.001942 0.000456
# 4 -0.003274 0.001625 -0.001552 0.022934 0.001054 -0.001025
# 5 -0.000457 -0.002648 -0.001942 0.001054 0.031022 0.003296
# 6 0.001887 -0.001018 0.000456 -0.001025 0.003296 0.022134
#
#
# Mechanical properties :
#
#
# Convention : Reuss Voigt Hill
#
# Bulk Modulus (GPa) = 77.52790 87.67434 82.60112
# Shear Modulus (GPa) = 44.12397 49.01038 46.56718
#
# Velocity S-wave (km/s) = 4.26456 4.49450 4.38104
# Velocity P-wave (km/s) = 7.49688 7.94170 7.72249
#
# Compressibility (1/GPa) = 0.01289858
#
# Stress axis : x y z
#
# Youngs Moduli (GPa) = 114.69089 146.85909 135.42199
#
# Poissons Ratio (x) = 0.39442 0.19105
# Poissons Ratio (y) = 0.30802 0.12331
# Poissons Ratio (z) = 0.16180 0.13372
#
# Static dielectric constant tensor:
#      x y z
#    x 4.320430 0.178080 0.179510 
#    y 0.178080 5.466900 -0.335550 
#    z 0.179510 -0.335550 4.071090 
# 
# 
# High freq. dielectric constant tensor:
#      x y z
#    x 1.959940 0.004520 -0.002120 
#    y 0.004520 1.991640 -0.014850 
#    z -0.002120 -0.014850 1.981720 
# 
# From -- ./inp_files/53452.got.cif
#   From: 2010.06.25/outbox.cif.g09.slc.cpg/sg2_27_cif.got.tgz:53452.got - 2010.06.27 13:26:56.
