data_PCOD8037213
_publ_section_title
;
Structure prediction by ZEFSAII (Michael W. Deem and Ramdas Pophale) SiO2 
 PCOD8037213
Probable space group: P -1
;
_chemical_formula_sum "Si O2"
_cell_formula_units_Z 16
_cell_length_a 21.606830
_cell_length_b 15.248330
_cell_length_c 8.569766
_cell_angle_alpha 65.394312
_cell_angle_beta 123.631428
_cell_angle_gamma 161.192344
_cell_volume 693.968275
_symmetry_space_group_name_H-M "P -1"
_symmetry_group_IT_number 2
_symmetry_cell_setting 'triclinic'
loop_
_space_group_symop_operation_xyz
x,y,z
-x,-y,-z
loop_
_atom_site_type_symbol
_atom_site_label
_atom_site_fract_x
_atom_site_fract_y
_atom_site_fract_z
Si Si1 0.057810 0.473059 0.020476
Si Si2 0.586738 0.228107 0.675547
Si Si3 0.103911 0.073411 0.440100
Si Si4 0.174027 0.634465 0.705216
Si Si5 0.435990 0.158195 0.234278
Si Si6 0.543340 0.610528 0.823224
Si Si7 0.929012 0.786548 0.918462
Si Si8 0.812876 0.565532 0.242389
O O1 0.151933 0.596447 0.886114
O O2 0.253629 0.660688 0.255902
O O3 0.821521 0.124577 0.954017
O O4 0.000000 0.500000 0.000000
O O5 0.430698 0.079063 0.432036
O O6 0.772655 0.531568 0.774731
O O7 0.426992 0.986639 0.765118
O O8 0.367803 0.363377 0.624044
O O9 0.083791 0.118833 0.227446
O O10 0.000000 0.000000 0.500000
O O11 0.976208 0.815332 0.415946
O O12 0.124924 0.470001 0.677447
O O13 0.000000 0.500000 0.500000
O O14 0.553342 0.400971 0.269107
O O15 0.555433 0.254533 0.181678
O O16 0.500000 0.500000 0.000000
O O17 0.808115 0.927297 0.909401
O O18 0.818888 0.640004 0.043183
#
# Coordination Sequence:
#
# PCOD8037213 Si02
#       8
#     2   2   2   2   2   2   2   2
#     4  12  27  47  75 106 143 195 251 302 369 440
#     4  12  25  47  79 102 155 197 242 307 370 440
#     4  12  24  49  77 108 146 193 244 309 370 436
#     4  12  27  50  71 110 152 192 247 307 363 439
#     4  12  25  46  71 112 146 193 249 299 367 445
#     4  12  24  45  75 106 146 190 248 304 362 445
#     4  12  25  46  75 110 148 193 243 307 376 439
#     4  12  27  46  76 109 153 195 246 307 374 439
#
# _framework density 23.055810000000001
#
# number of rings (size 3 to 8) (size 9 to 14) (size 15 to 20)
#    0.000    0.000    7.500    1.500    3.500    1.500 
#    0.000    2.500    0.000    0.000    0.000    0.000 
#    0.000    0.000    0.000    0.000    0.000    0.000 
#
# Total GULP energy -198350.229445 kJ/mol
# GULP energy per Si atom -12396.889340 kJ/mol
# Density = 2.300333 g / cm^3
# Si number density = 23.055810 Si / 1000 Ang^3
#
#
#
# Elastic Constant Matrix: (Units=GPa)
#
#
# Indices 1 2 3 4 5 6 
#
# 1 118.5745 47.2226 37.7644 -4.0332 8.6323 -2.5708
# 2 47.2226 126.0184 37.5411 -1.1018 5.9352 10.7606
# 3 37.7644 37.5411 93.9544 5.0501 17.8994 3.6666
# 4 -4.0332 -1.1018 5.0501 43.1452 6.5542 1.6964
# 5 8.6323 5.9352 17.8994 6.5542 33.6163 -5.5808
# 6 -2.5708 10.7606 3.6666 1.6964 -5.5808 38.1294
#
#
#
# Elastic Compliance Matrix: (Units=1/GPa)
#
#
# Indices 1 2 3 4 5 6 
#
# 1 0.010838 -0.003258 -0.003098 0.001299 -0.000510 0.001816
# 2 -0.003258 0.010201 -0.002656 0.000396 -0.000105 -0.002876
# 3 -0.003098 -0.002656 0.014298 -0.000984 -0.006445 -0.001734
# 4 0.001299 0.000396 -0.000984 0.024235 -0.004891 -0.001724
# 5 -0.000510 -0.000105 -0.006445 -0.004891 0.035278 0.005996
# 6 0.001816 -0.002876 -0.001734 -0.001724 0.005996 0.028282
#
#
# Mechanical properties :
#
#
# Convention : Reuss Voigt Hill
#
# Bulk Modulus (GPa) = 57.75538 64.84484 61.30011
# Shear Modulus (GPa) = 34.03043 37.37946 35.70495
#
# Velocity S-wave (km/s) = 3.84605 4.03086 3.93953
# Velocity P-wave (km/s) = 6.69533 7.06045 6.88031
#
# Compressibility (1/GPa) = 0.01731440
#
# Stress axis : x y z
#
# Youngs Moduli (GPa) = 92.26381 98.02580 69.93923
#
# Poissons Ratio (x) = 0.31939 0.21668
# Poissons Ratio (y) = 0.30062 0.18572
# Poissons Ratio (z) = 0.28584 0.26031
#
# Static dielectric constant tensor:
#      x y z
#    x 4.369480 -0.202560 -0.012890 
#    y -0.202560 4.471750 0.034600 
#    z -0.012890 0.034600 4.130170 
# 
# 
# High freq. dielectric constant tensor:
#      x y z
#    x 1.909620 -0.003580 0.008310 
#    y -0.003580 1.933890 0.007650 
#    z 0.008310 0.007650 1.913050 
# 
# From -- ./inp_files/347575.got.cif
#   From: 2010.06.25/outbox.cif.g09.slc.cpg/sg2_174_cif.got.tgz:347575.got - 2010.06.27 13:26:56.
