data_PCOD8037181
_publ_section_title
;
Structure prediction by ZEFSAII (Michael W. Deem and Ramdas Pophale) SiO2 
 PCOD8037181
Probable space group: P -1
;
_chemical_formula_sum "Si O2"
_cell_formula_units_Z 12
_cell_length_a 19.047100
_cell_length_b 14.431309
_cell_length_c 9.134767
_cell_angle_alpha 39.355680
_cell_angle_beta 39.526589
_cell_angle_gamma 18.357430
_cell_volume 492.573200
_symmetry_space_group_name_H-M "P -1"
_symmetry_group_IT_number 2
_symmetry_cell_setting 'triclinic'
loop_
_space_group_symop_operation_xyz
x,y,z
-x,-y,-z
loop_
_atom_site_type_symbol
_atom_site_label
_atom_site_fract_x
_atom_site_fract_y
_atom_site_fract_z
Si Si1 0.470488 0.617006 0.608744
Si Si2 0.466856 0.080889 0.122113
Si Si3 0.295817 0.953167 0.053623
Si Si4 0.487415 0.253948 0.347180
Si Si5 0.994275 0.085082 0.749736
Si Si6 0.134116 0.672378 0.827987
O O1 0.456449 0.666217 0.744971
O O2 0.643529 0.530890 0.366468
O O3 0.219996 0.923849 0.565440
O O4 0.541250 0.368398 0.767125
O O5 0.669444 0.951908 0.009025
O O6 0.452652 0.957339 0.397589
O O7 0.226890 0.447035 0.072207
O O8 0.500000 0.000000 0.000000
O O9 0.352093 0.935729 0.819165
O O10 0.032354 0.209052 0.168830
O O11 0.224380 0.559232 0.348262
O O12 0.990354 0.967623 0.772388
O O13 0.000000 0.000000 0.000000
#
# Coordination Sequence:
#
# PCOD8037181 Si02
#       6
#     2   2   2   2   2   2
#     4  12  24  44  76 111 145 188 248 304 357 436
#     4  12  28  50  70 110 152 194 245 299 371 435
#     4  12  26  46  79 105 151 191 246 306 362 434
#     4  12  26  48  76 114 144 189 249 302 368 433
#     4  12  24  44  77 110 145 189 246 305 362 429
#     4  12  26  45  73 109 148 195 244 296 370 434
#
# _framework density 24.361861999999999
#
# number of rings (size 3 to 8) (size 9 to 14) (size 15 to 20)
#    0.000    0.000    6.667    3.000    0.000    2.667 
#    0.000    0.000    0.000    0.000    0.000    0.000 
#    0.000    0.000    0.000    0.000    0.000    0.000 
#
# Total GULP energy -148872.742596 kJ/mol
# GULP energy per Si atom -12406.061883 kJ/mol
# Density = 2.430641 g / cm^3
# Si number density = 24.361862 Si / 1000 Ang^3
#
#
#
# Elastic Constant Matrix: (Units=GPa)
#
#
# Indices 1 2 3 4 5 6 
#
# 1 145.4198 20.7988 6.1438 17.1250 -8.7451 -9.6309
# 2 20.7988 90.2721 30.7913 -0.8426 -8.0131 -18.1965
# 3 6.1438 30.7913 76.5322 -13.3314 -3.3266 8.1800
# 4 17.1250 -0.8426 -13.3314 41.3540 -4.8806 -0.6650
# 5 -8.7451 -8.0131 -3.3266 -4.8806 28.8736 3.6422
# 6 -9.6309 -18.1965 8.1800 -0.6650 3.6422 37.0929
#
#
#
# Elastic Compliance Matrix: (Units=1/GPa)
#
#
# Indices 1 2 3 4 5 6 
#
# 1 0.007624 -0.001102 -0.000846 -0.003291 0.001166 0.001452
# 2 -0.001102 0.015777 -0.007338 -0.001224 0.001874 0.008866
# 3 -0.000846 -0.007338 0.018072 0.006115 0.001816 -0.007874
# 4 -0.003291 -0.001224 0.006115 0.027971 0.004441 -0.002738
# 5 0.001166 0.001874 0.001816 0.004441 0.036809 -0.002713
# 6 0.001452 0.008866 -0.007874 -0.002738 -0.002713 0.033639
#
#
# Mechanical properties :
#
#
# Convention : Reuss Voigt Hill
#
# Bulk Modulus (GPa) = 43.67017 47.52134 45.59575
# Shear Modulus (GPa) = 30.10246 38.43009 34.26627
#
# Velocity S-wave (km/s) = 3.51898 3.97605 3.75447
# Velocity P-wave (km/s) = 5.87158 6.37396 6.12792
#
# Compressibility (1/GPa) = 0.02289893
#
# Stress axis : x y z
#
# Youngs Moduli (GPa) = 131.16530 63.38478 55.33301
#
# Poissons Ratio (x) = 0.06988 0.04683
# Poissons Ratio (y) = 0.14461 0.40605
# Poissons Ratio (z) = 0.11101 0.46513
#
# Static dielectric constant tensor:
#      x y z
#    x 4.665670 -0.122890 0.012280 
#    y -0.122890 4.531570 -0.072430 
#    z 0.012280 -0.072430 4.479700 
# 
# 
# High freq. dielectric constant tensor:
#      x y z
#    x 1.982270 -0.014360 0.006260 
#    y -0.014360 1.966040 -0.004750 
#    z 0.006260 -0.004750 1.966730 
# 
# From -- ./inp_files/230119.got.cif
#   From: 2010.06.25/outbox.cif.g09.slc.cpg/sg2_116_cif.got.tgz:230119.got - 2010.06.27 13:26:56.
