data_PCOD8037428
_publ_section_title
;
Structure prediction by ZEFSAII (Michael W. Deem and Ramdas Pophale) SiO2 
 PCOD8037428
Probable space group: P -1
;
_chemical_formula_sum "Si O2"
_cell_formula_units_Z 16
_cell_length_a 11.871888
_cell_length_b 11.775968
_cell_length_c 5.240079
_cell_angle_alpha 107.439541
_cell_angle_beta 102.751210
_cell_angle_gamma 74.256098
_cell_volume 664.888084
_symmetry_space_group_name_H-M "P -1"
_symmetry_group_IT_number 2
_symmetry_cell_setting 'triclinic'
loop_
_space_group_symop_operation_xyz
x,y,z
-x,-y,-z
loop_
_atom_site_type_symbol
_atom_site_label
_atom_site_fract_x
_atom_site_fract_y
_atom_site_fract_z
Si Si1 0.838250 0.386297 0.784173
Si Si2 0.566446 0.745798 0.285523
Si Si3 0.910596 0.110073 0.156120
Si Si4 0.060865 0.268451 0.550547
Si Si5 0.215196 0.455644 0.635445
Si Si6 0.701616 0.194717 0.735056
Si Si7 0.399835 0.113985 0.100170
Si Si8 0.216227 0.027003 0.676008
O O1 0.794313 0.482182 0.602198
O O2 0.760684 0.283543 0.648759
O O3 0.979402 0.327323 0.789166
O O4 0.820200 0.447656 0.092257
O O5 0.649374 0.614858 0.302487
O O6 0.430055 0.734669 0.202909
O O7 0.602195 0.783237 0.048011
O O8 0.587656 0.840231 0.577791
O O9 0.883530 0.049840 0.369013
O O10 0.968265 0.227422 0.282780
O O11 0.784351 0.156333 0.993499
O O12 0.000000 0.000000 0.000000
O O13 0.124976 0.365272 0.520547
O O14 0.160099 0.149551 0.582008
O O15 0.687614 0.068962 0.505840
O O16 0.276654 0.068536 0.987928
O O17 0.500000 0.000000 0.000000
#
# Coordination Sequence:
#
# PCOD8037428 Si02
#       8
#     2   2   2   2   2   2   2   2
#     4  12  28  51  76 108 148 203 261 314 368 439
#     4  12  28  49  76 112 152 200 253 312 371 449
#     4  12  25  42  73 114 157 197 237 301 388 464
#     4  12  25  49  77 112 152 194 251 319 381 453
#     4  12  29  52  76 109 146 207 264 310 368 431
#     4  12  27  48  75 112 155 195 249 309 387 455
#     4  12  25  44  75 113 156 194 241 301 386 456
#     4  12  25  44  73 116 152 193 239 310 392 464
#
# _framework density 24.064202999999999
#
# number of rings (size 3 to 8) (size 9 to 14) (size 15 to 20)
#    0.000    0.000    5.000    4.500    3.500    2.000 
#    0.000    0.000    0.000    0.000    0.000    0.000 
#    0.000    0.000    0.000    0.000    0.000    0.000 
#
# Total GULP energy -198371.649191 kJ/mol
# GULP energy per Si atom -12398.228074 kJ/mol
# Density = 2.400943 g / cm^3
# Si number density = 24.064203 Si / 1000 Ang^3
#
#
#
# Elastic Constant Matrix: (Units=GPa)
#
#
# Indices 1 2 3 4 5 6 
#
# 1 114.7946 36.4811 3.9228 1.0984 18.9118 -6.1573
# 2 36.4811 114.4729 5.8297 5.6859 2.5568 10.6780
# 3 3.9228 5.8297 68.2788 6.0349 11.4065 9.1977
# 4 1.0984 5.6859 6.0349 31.8746 -1.4902 -9.5847
# 5 18.9118 2.5568 11.4065 -1.4902 39.8288 4.5505
# 6 -6.1573 10.6780 9.1977 -9.5847 4.5505 36.5534
#
#
#
# Elastic Compliance Matrix: (Units=1/GPa)
#
#
# Indices 1 2 3 4 5 6 
#
# 1 0.011015 -0.003822 -0.000057 0.001260 -0.005377 0.003986
# 2 -0.003822 0.010513 -0.000034 -0.003080 0.001572 -0.004709
# 3 -0.000057 -0.000034 0.016446 -0.004766 -0.004305 -0.004851
# 4 0.001260 -0.003080 -0.004766 0.036351 0.000985 0.011720
# 5 -0.005377 0.001572 -0.004305 0.000985 0.029248 -0.003665
# 6 0.003986 -0.004709 -0.004851 0.011720 -0.003665 0.034155
#
#
# Mechanical properties :
#
#
# Convention : Reuss Voigt Hill
#
# Bulk Modulus (GPa) = 33.16891 43.33485 38.25188
# Shear Modulus (GPa) = 32.13316 38.40553 35.26935
#
# Velocity S-wave (km/s) = 3.65815 3.99928 3.83251
# Velocity P-wave (km/s) = 5.62638 6.27477 5.95940
#
# Compressibility (1/GPa) = 0.03014872
#
# Stress axis : x y z
#
# Youngs Moduli (GPa) = 90.78289 95.12447 60.80535
#
# Poissons Ratio (x) = 0.36355 0.00344
# Poissons Ratio (y) = 0.34696 0.00207
# Poissons Ratio (z) = 0.00514 0.00324
#
# Static dielectric constant tensor:
#      x y z
#    x 4.637040 0.001660 -0.053380 
#    y 0.001660 4.634290 0.039800 
#    z -0.053380 0.039800 4.729010 
# 
# 
# High freq. dielectric constant tensor:
#      x y z
#    x 1.966460 -0.005890 0.002830 
#    y -0.005890 1.969940 0.000650 
#    z 0.002830 0.000650 1.951380 
# 
# From -- ./inp_files/71977.got.cif
#   From: 2010.06.25/outbox.cif.g09.slc.cpg/sg2_36_cif.got.tgz:71977.got - 2010.06.27 13:26:56.
