data_PCOD8037355
_publ_section_title
;
Structure prediction by ZEFSAII (Michael W. Deem and Ramdas Pophale) SiO2 
 PCOD8037355
Probable space group: P -1
;
_chemical_formula_sum "Si O2"
_cell_formula_units_Z 16
_cell_length_a 20.684408
_cell_length_b 9.062554
_cell_length_c 9.284001
_cell_angle_alpha 31.410993
_cell_angle_beta 54.509059
_cell_angle_gamma 53.346756
_cell_volume 717.064539
_symmetry_space_group_name_H-M "P -1"
_symmetry_group_IT_number 2
_symmetry_cell_setting 'triclinic'
loop_
_space_group_symop_operation_xyz
x,y,z
-x,-y,-z
loop_
_atom_site_type_symbol
_atom_site_label
_atom_site_fract_x
_atom_site_fract_y
_atom_site_fract_z
Si Si1 0.686266 0.247469 0.992027
Si Si2 0.082135 0.395270 0.393118
Si Si3 0.281221 0.691339 0.590108
Si Si4 0.812867 0.163829 0.133821
Si Si5 0.449469 0.821104 0.305899
Si Si6 0.768676 0.894337 0.923097
Si Si7 0.580963 0.897346 0.576252
Si Si8 0.051309 0.238089 0.240812
O O1 0.772411 0.232832 0.971687
O O2 0.709904 0.146122 0.883642
O O3 0.653203 0.002323 0.320295
O O4 0.615958 0.547945 0.835430
O O5 0.063431 0.279553 0.359419
O O6 0.000000 0.500000 0.500000
O O7 0.148641 0.170388 0.592295
O O8 0.114208 0.678855 0.080176
O O9 0.261125 0.691506 0.783919
O O10 0.365485 0.786878 0.372810
O O11 0.273849 0.378854 0.797765
O O12 0.219636 0.958082 0.368761
O O13 0.500000 0.500000 0.500000
O O14 0.437347 0.961896 0.361272
O O15 0.500000 0.000000 0.000000
O O16 0.863036 0.814860 0.915866
O O17 0.500000 0.000000 0.500000
O O18 0.000000 0.000000 0.500000
O O19 0.000000 0.500000 0.000000
#
# Coordination Sequence:
#
# PCOD8037355 Si02
#       8
#     2   2   2   2   2   2   2   2
#     4  12  28  47  74 104 141 192 237 297 359 426
#     4  12  27  45  72 105 143 191 236 297 362 422
#     4  12  24  48  73 101 142 185 245 300 345 427
#     4  12  24  49  72 102 139 188 244 298 351 422
#     4  12  28  46  76 107 140 187 240 293 360 428
#     4  12  27  46  74 105 141 190 245 293 360 425
#     4  12  28  50  70 105 149 186 232 296 367 431
#     4  12  26  45  69 103 148 186 233 292 357 426
#
# _framework density 22.313193999999999
#
# number of rings (size 3 to 8) (size 9 to 14) (size 15 to 20)
#    0.000    0.000    3.750    5.250   10.500    0.000 
#    0.000    0.000    0.000    0.000    0.000    0.000 
#    0.000    0.000    0.000    0.000    0.000    0.000 
#
# Total GULP energy -198298.597911 kJ/mol
# GULP energy per Si atom -12393.662369 kJ/mol
# Density = 2.226241 g / cm^3
# Si number density = 22.313194 Si / 1000 Ang^3
#
#
#
# Elastic Constant Matrix: (Units=GPa)
#
#
# Indices 1 2 3 4 5 6 
#
# 1 125.5716 53.8525 44.6861 -4.3878 -1.8540 3.8148
# 2 53.8525 126.4949 40.6344 -2.7245 -7.4736 -14.2551
# 3 44.6861 40.6344 139.7716 -6.9450 -12.2761 -0.2592
# 4 -4.3878 -2.7245 -6.9450 40.7280 -12.4795 -0.3522
# 5 -1.8540 -7.4736 -12.2761 -12.4795 57.0021 -4.4358
# 6 3.8148 -14.2551 -0.2592 -0.3522 -4.4358 30.1377
#
#
#
# Elastic Compliance Matrix: (Units=1/GPa)
#
#
# Indices 1 2 3 4 5 6 
#
# 1 0.010702 -0.004281 -0.002258 0.000163 -0.000939 -0.003536
# 2 -0.004281 0.011040 -0.001670 0.000512 0.001526 0.005980
# 3 -0.002258 -0.001670 0.008615 0.001703 0.001926 -0.000127
# 4 0.000163 0.000512 0.001703 0.026882 0.006441 0.001498
# 5 -0.000939 0.001526 0.001926 0.006441 0.019837 0.003852
# 6 -0.003536 0.005980 -0.000127 0.001498 0.003852 0.037040
#
#
# Mechanical properties :
#
#
# Convention : Reuss Voigt Hill
#
# Bulk Modulus (GPa) = 71.74194 74.46490 73.10342
# Shear Modulus (GPa) = 36.98698 42.41791 39.70244
#
# Velocity S-wave (km/s) = 4.07581 4.36480 4.22278
# Velocity P-wave (km/s) = 7.37372 7.67118 7.52392
#
# Compressibility (1/GPa) = 0.01393885
#
# Stress axis : x y z
#
# Youngs Moduli (GPa) = 93.43657 90.58182 116.07000
#
# Poissons Ratio (x) = 0.38782 0.26207
# Poissons Ratio (y) = 0.40004 0.19385
# Poissons Ratio (z) = 0.21097 0.15128
#
# Static dielectric constant tensor:
#      x y z
#    x 4.145910 -0.044110 -0.050960 
#    y -0.044110 3.708310 -0.234090 
#    z -0.050960 -0.234090 4.090220 
# 
# 
# High freq. dielectric constant tensor:
#      x y z
#    x 1.895480 -0.007040 -0.002330 
#    y -0.007040 1.884770 0.000700 
#    z -0.002330 0.000700 1.900670 
# 
# From -- ./inp_files/343193.got.cif
#   From: 2010.06.25/outbox.cif.g09.slc.cpg/sg2_172_cif.got.tgz:343193.got - 2010.06.27 13:26:56.
