data_PCOD8037698
_publ_section_title
;
Structure prediction by ZEFSAII (Michael W. Deem and Ramdas Pophale) SiO2 
 PCOD8037698
Probable space group: P -1
;
_chemical_formula_sum "Si O2"
_cell_formula_units_Z 14
_cell_length_a 20.073249
_cell_length_b 8.617450
_cell_length_c 8.571460
_cell_angle_alpha 129.668283
_cell_angle_beta 33.219616
_cell_angle_gamma 126.803971
_cell_volume 617.779676
_symmetry_space_group_name_H-M "P -1"
_symmetry_group_IT_number 2
_symmetry_cell_setting 'triclinic'
loop_
_space_group_symop_operation_xyz
x,y,z
-x,-y,-z
loop_
_atom_site_type_symbol
_atom_site_label
_atom_site_fract_x
_atom_site_fract_y
_atom_site_fract_z
Si Si1 0.489213 0.776187 0.947846
Si Si2 0.715729 0.572101 0.887150
Si Si3 0.102434 0.041457 0.695932
Si Si4 0.410355 0.121308 0.844853
Si Si5 0.713361 0.628651 0.281954
Si Si6 0.814736 0.216921 0.865417
Si Si7 0.038655 0.312745 0.715527
O O1 0.570047 0.636270 0.599918
O O2 0.347424 0.666103 0.138434
O O3 0.528989 0.791583 0.058360
O O4 0.500000 0.000000 0.000000
O O5 0.838804 0.602782 0.565360
O O6 0.611598 0.686401 0.090149
O O7 0.747428 0.658327 0.053295
O O8 0.217803 0.185401 0.633722
O O9 0.055823 0.139941 0.694935
O O10 0.141273 0.825251 0.425334
O O11 0.000000 0.000000 0.000000
O O12 0.500000 0.000000 0.500000
O O13 0.280842 0.979540 0.028355
O O14 0.752553 0.418538 0.130210
O O15 0.930183 0.221703 0.754997
O O16 0.000000 0.500000 0.000000
#
# Coordination Sequence:
#
# PCOD8037698 Si02
#       7
#     2   2   2   2   2   2   2
#     4  12  26  50  77 109 150 196 251 307 378 443
#     4  12  27  46  75 108 153 192 251 307 367 446
#     4  12  27  47  75 106 152 197 248 305 371 446
#     4  12  26  46  76 109 144 198 249 312 374 437
#     4  12  26  48  72 113 146 196 249 307 376 437
#     4  12  26  49  75 107 159 189 254 306 370 449
#     4  12  27  47  73 112 147 200 247 305 371 440
#
# _framework density 22.661801000000001
#
# number of rings (size 3 to 8) (size 9 to 14) (size 15 to 20)
#    0.000    0.000    4.286    4.714    6.000    1.143 
#    0.000    0.000    0.000    0.000    0.000    0.000 
#    0.000    0.000    0.000    0.000    0.000    0.000 
#
# Total GULP energy -173670.432407 kJ/mol
# GULP energy per Si atom -12405.030886 kJ/mol
# Density = 2.261022 g / cm^3
# Si number density = 22.661801 Si / 1000 Ang^3
#
#
#
# Elastic Constant Matrix: (Units=GPa)
#
#
# Indices 1 2 3 4 5 6 
#
# 1 137.5846 47.7861 42.8285 7.7309 10.1648 5.2863
# 2 47.7861 39.4793 44.3957 -2.6838 16.9097 20.5548
# 3 42.8285 44.3957 166.1524 -4.9512 15.4011 7.3904
# 4 7.7309 -2.6838 -4.9512 37.6531 1.3950 3.7647
# 5 10.1648 16.9097 15.4011 1.3950 35.0343 0.1468
# 6 5.2863 20.5548 7.3904 3.7647 0.1468 42.8965
#
#
#
# Elastic Compliance Matrix: (Units=1/GPa)
#
#
# Indices 1 2 3 4 5 6 
#
# 1 0.022576 -0.053503 0.005556 -0.010631 0.017159 0.022772
# 2 -0.053503 0.197938 -0.027934 0.032570 -0.068671 -0.086064
# 3 0.005556 -0.027934 0.010798 -0.003087 0.007200 0.011086
# 4 -0.010631 0.032570 -0.003087 0.032780 -0.012514 -0.016599
# 5 0.017159 -0.068671 0.007200 -0.012514 0.053915 0.030464
# 6 0.022772 -0.086064 0.011086 -0.016599 0.030464 0.061188
#
#
# Mechanical properties :
#
#
# Convention : Reuss Voigt Hill
#
# Bulk Modulus (GPa) = 12.57043 68.13742 40.35393
# Shear Modulus (GPa) = 8.96906 36.99717 22.98311
#
# Velocity S-wave (km/s) = 1.99158 4.04490 3.18807
# Velocity P-wave (km/s) = 3.29356 7.20745 5.60334
#
# Compressibility (1/GPa) = 0.07955176
#
# Stress axis : x y z
#
# Youngs Moduli (GPa) = 44.29485 5.05208 92.61265
#
# Poissons Ratio (x) = 0.27030 -0.51459
# Poissons Ratio (y) = 2.36990 2.58702
# Poissons Ratio (z) = -0.24612 0.14112
#
# Static dielectric constant tensor:
#      x y z
#    x 4.365240 0.067830 -0.058360 
#    y 0.067830 4.171210 -0.007270 
#    z -0.058360 -0.007270 4.540040 
# 
# 
# High freq. dielectric constant tensor:
#      x y z
#    x 1.910640 0.008700 0.003030 
#    y 0.008700 1.901990 0.005910 
#    z 0.003030 0.005910 1.914380 
# 
# From -- ./inp_files/203529.got.cif
#   From: 2010.06.25/outbox.cif.g09.slc.cpg/sg2_102_cif.got.tgz:203529.got - 2010.06.27 13:26:56.
