data_PCOD8037212
_publ_section_title
;
Structure prediction by ZEFSAII (Michael W. Deem and Ramdas Pophale) SiO2 
 PCOD8037212
Probable space group: P -1
;
_chemical_formula_sum "Si O2"
_cell_formula_units_Z 14
_cell_length_a 9.054212
_cell_length_b 18.852823
_cell_length_c 13.183593
_cell_angle_alpha 152.782477
_cell_angle_beta 142.334684
_cell_angle_gamma 46.223524
_cell_volume 628.342434
_symmetry_space_group_name_H-M "P -1"
_symmetry_group_IT_number 2
_symmetry_cell_setting 'triclinic'
loop_
_space_group_symop_operation_xyz
x,y,z
-x,-y,-z
loop_
_atom_site_type_symbol
_atom_site_label
_atom_site_fract_x
_atom_site_fract_y
_atom_site_fract_z
Si Si1 0.224969 0.889475 0.472981
Si Si2 0.380607 0.484682 0.523390
Si Si3 0.139241 0.627248 0.938233
Si Si4 0.189023 0.317037 0.687997
Si Si5 0.823933 0.354545 0.688124
Si Si6 0.387487 0.720068 0.991809
Si Si7 0.732653 0.971772 0.772169
O O1 0.184400 0.781882 0.410442
O O2 0.498764 0.972024 0.722985
O O3 0.205813 0.790835 0.234240
O O4 0.000000 0.000000 0.500000
O O5 0.500000 0.500000 0.500000
O O6 0.549165 0.400977 0.588266
O O7 0.144158 0.380148 0.242428
O O8 0.326921 0.648569 0.756404
O O9 0.235986 0.486798 0.879934
O O10 0.250009 0.623113 0.881606
O O11 0.332864 0.291954 0.840038
O O12 0.266304 0.195107 0.492157
O O13 0.912164 0.296601 0.550776
O O14 0.000000 0.500000 0.000000
O O15 0.308059 0.897118 0.167913
O O16 0.000000 0.000000 0.000000
#
# Coordination Sequence:
#
# PCOD8037212 Si02
#       7
#     2   2   2   2   2   2   2
#     4  12  28  48  75 107 148 191 244 300 367 431
#     4  12  25  44  74 107 143 184 242 302 357 425
#     4  12  26  45  74 108 138 189 245 298 356 435
#     4  12  24  47  75 104 143 187 242 295 362 436
#     4  12  24  45  75 105 142 188 238 301 363 426
#     4  12  26  46  73 100 147 189 239 290 365 428
#     4  12  30  48  71 106 151 194 241 301 361 433
#
# _framework density 22.280843000000001
#
# number of rings (size 3 to 8) (size 9 to 14) (size 15 to 20)
#    0.000    0.000    5.714    3.000    8.000    0.000 
#    0.000    1.429    0.000    0.000    0.000    0.000 
#    0.000    0.000    0.000    0.000    0.000    0.000 
#
# Total GULP energy -173535.364095 kJ/mol
# GULP energy per Si atom -12395.383150 kJ/mol
# Density = 2.223013 g / cm^3
# Si number density = 22.280843 Si / 1000 Ang^3
#
#
#
# Elastic Constant Matrix: (Units=GPa)
#
#
# Indices 1 2 3 4 5 6 
#
# 1 134.6225 37.1904 43.1150 7.7594 0.3227 -5.4665
# 2 37.1904 156.7435 44.7547 5.6674 13.2135 -3.3346
# 3 43.1150 44.7547 90.1785 -6.1981 5.5601 -8.2377
# 4 7.7594 5.6674 -6.1981 30.2046 -6.3948 6.2778
# 5 0.3227 13.2135 5.5601 -6.3948 43.2916 -4.8438
# 6 -5.4665 -3.3346 -8.2377 6.2778 -4.8438 44.4613
#
#
#
# Elastic Compliance Matrix: (Units=1/GPa)
#
#
# Indices 1 2 3 4 5 6 
#
# 1 0.009209 -0.000911 -0.004117 -0.003125 0.000364 0.000782
# 2 -0.000911 0.007879 -0.003507 -0.002438 -0.002317 -0.000079
# 3 -0.004117 -0.003507 0.015241 0.004544 -0.000027 0.001410
# 4 -0.003125 -0.002438 0.004544 0.037322 0.005201 -0.004428
# 5 0.000364 -0.002317 -0.000027 0.005201 0.024780 0.001831
# 6 0.000782 -0.000079 0.001410 -0.004428 0.001831 0.023668
#
#
# Mechanical properties :
#
#
# Convention : Reuss Voigt Hill
#
# Bulk Modulus (GPa) = 65.52983 70.18498 67.85741
# Shear Modulus (GPa) = 35.64953 40.69045 38.16999
#
# Velocity S-wave (km/s) = 4.00435 4.27810 4.14349
# Velocity P-wave (km/s) = 7.13123 7.48141 7.30842
#
# Compressibility (1/GPa) = 0.01526022
#
# Stress axis : x y z
#
# Youngs Moduli (GPa) = 108.58637 126.91987 65.61396
#
# Poissons Ratio (x) = 0.11558 0.27012
# Poissons Ratio (y) = 0.09888 0.23010
# Poissons Ratio (z) = 0.44704 0.44509
#
# Static dielectric constant tensor:
#      x y z
#    x 4.136710 -0.099960 -0.057370 
#    y -0.099960 4.071690 0.030180 
#    z -0.057370 0.030180 4.009060 
# 
# 
# High freq. dielectric constant tensor:
#      x y z
#    x 1.898790 -0.011950 0.002260 
#    y -0.011950 1.893420 -0.003970 
#    z 0.002260 -0.003970 1.864840 
# 
# From -- ./inp_files/159338.got.cif
#   From: 2010.06.25/outbox.cif.g09.slc.cpg/sg2_80_cif.got.tgz:159338.got - 2010.06.27 13:26:56.
