data_PCOD8037967
_publ_section_title
;
Structure prediction by ZEFSAII (Michael W. Deem and Ramdas Pophale) SiO2 
 PCOD8037967
Probable space group: P -1
;
_chemical_formula_sum "Si O2"
_cell_formula_units_Z 12
_cell_length_a 15.159792
_cell_length_b 7.728131
_cell_length_c 7.212863
_cell_angle_alpha 95.339883
_cell_angle_beta 47.659302
_cell_angle_gamma 65.753437
_cell_volume 476.197775
_symmetry_space_group_name_H-M "P -1"
_symmetry_group_IT_number 2
_symmetry_cell_setting 'triclinic'
loop_
_space_group_symop_operation_xyz
x,y,z
-x,-y,-z
loop_
_atom_site_type_symbol
_atom_site_label
_atom_site_fract_x
_atom_site_fract_y
_atom_site_fract_z
Si Si1 0.983062 0.314169 0.124115
Si Si2 0.731779 0.573459 0.802514
Si Si3 0.749307 0.188393 0.797244
Si Si4 0.925008 0.130157 0.886794
Si Si5 0.257136 0.290234 0.817715
Si Si6 0.559904 0.053156 0.170413
O O1 0.879788 0.477890 0.456022
O O2 0.064627 0.051622 0.018353
O O3 0.112997 0.342283 0.909717
O O4 0.883233 0.351482 0.082801
O O5 0.676600 0.427655 0.823806
O O6 0.791795 0.530845 0.929008
O O7 0.592387 0.841728 0.988245
O O8 0.785210 0.215797 0.957307
O O9 0.910650 0.980046 0.454432
O O10 0.623692 0.153016 0.968139
O O11 0.345408 0.048642 0.778326
O O12 0.377766 0.253297 0.489893
#
# Coordination Sequence:
#
# PCOD8037967 Si02
#       6
#     2   2   2   2   2   2
#     4  10  17  33  55  79 108 134 173 218 259 306
#     4   9  19  32  57  80 100 138 176 212 258 303
#     4  10  18  35  54  78 103 136 178 212 257 311
#     4   9  19  30  53  83 105 134 172 222 262 295
#     4   9  18  34  53  77 105 143 167 208 265 308
#     4   9  19  35  54  76 106 142 169 211 256 315
#
# _framework density 25.199615000000001
#
# number of rings (size 3 to 8) (size 9 to 14) (size 15 to 20)
#    1.000    1.667    1.667    0.500    0.000    0.667 
#    0.000    4.167    0.000   16.000    0.000    1.167 
#    0.000    0.000    0.000    0.000    0.000    0.000 
#
# Total GULP energy -148734.088705 kJ/mol
# GULP energy per Si atom -12394.507392 kJ/mol
# Density = 2.514226 g / cm^3
# Si number density = 25.199615 Si / 1000 Ang^3
#
#
#
# Elastic Constant Matrix: (Units=GPa)
#
#
# Indices 1 2 3 4 5 6 
#
# 1 31.9983 23.2505 26.5303 13.9331 -7.3656 13.3571
# 2 23.2505 115.8240 52.8888 0.2938 -14.7447 35.9688
# 3 26.5303 52.8888 145.2812 4.4024 -12.3673 34.3097
# 4 13.9331 0.2938 4.4024 44.8144 13.4686 -0.5725
# 5 -7.3656 -14.7447 -12.3673 13.4686 28.7042 2.1025
# 6 13.3571 35.9688 34.3097 -0.5725 2.1025 29.2075
#
#
#
# Elastic Compliance Matrix: (Units=1/GPa)
#
#
# Indices 1 2 3 4 5 6 
#
# 1 0.067665 0.002978 -0.000541 -0.032490 0.036633 -0.037250
# 2 0.002978 0.017142 0.000207 -0.005577 0.014021 -0.023834
# 3 -0.000541 0.000207 0.010707 -0.003166 0.007030 -0.013153
# 4 -0.032490 -0.005577 -0.003166 0.043706 -0.035186 0.028835
# 5 0.036633 0.014021 0.007030 -0.035186 0.074520 -0.048332
# 6 -0.037250 -0.023834 -0.013153 0.028835 -0.048332 0.100120
#
#
# Mechanical properties :
#
#
# Convention : Reuss Voigt Hill
#
# Bulk Modulus (GPa) = 9.92035 55.38254 32.65145
# Shear Modulus (GPa) = 14.61246 33.24080 23.92663
#
# Velocity S-wave (km/s) = 2.41066 3.63588 3.08471
# Velocity P-wave (km/s) = 3.41959 6.29694 5.06681
#
# Compressibility (1/GPa) = 0.10080290
#
# Stress axis : x y z
#
# Youngs Moduli (GPa) = 14.77860 58.33537 93.39460
#
# Poissons Ratio (x) = -0.17370 0.05048
# Poissons Ratio (y) = -0.04400 -0.01933
# Poissons Ratio (z) = 0.00799 -0.01207
#
# Static dielectric constant tensor:
#      x y z
#    x 4.271450 -0.164610 0.254250 
#    y -0.164610 4.840350 0.036010 
#    z 0.254250 0.036010 4.222660 
# 
# 
# High freq. dielectric constant tensor:
#      x y z
#    x 1.988450 -0.008900 0.019240 
#    y -0.008900 2.040390 -0.001050 
#    z 0.019240 -0.001050 1.987190 
# 
# From -- ./inp_files/162684.got.cif
#   From: 2010.06.25/outbox.cif.g09.slc.cpg/sg2_82_cif.got.tgz:162684.got - 2010.06.27 13:26:56.
