data_PCOD8037772
_publ_section_title
;
Structure prediction by ZEFSAII (Michael W. Deem and Ramdas Pophale) SiO2 
 PCOD8037772
Probable space group: P -1
;
_chemical_formula_sum "Si O2"
_cell_formula_units_Z 14
_cell_length_a 15.174278
_cell_length_b 8.765978
_cell_length_c 15.239613
_cell_angle_alpha 133.157991
_cell_angle_beta 27.918436
_cell_angle_gamma 115.227548
_cell_volume 590.671405
_symmetry_space_group_name_H-M "P -1"
_symmetry_group_IT_number 2
_symmetry_cell_setting 'triclinic'
loop_
_space_group_symop_operation_xyz
x,y,z
-x,-y,-z
loop_
_atom_site_type_symbol
_atom_site_label
_atom_site_fract_x
_atom_site_fract_y
_atom_site_fract_z
Si Si1 0.563885 0.026966 0.050249
Si Si2 0.207932 0.001704 0.787155
Si Si3 0.959627 0.333560 0.535331
Si Si4 0.641219 0.154748 0.700393
Si Si5 0.256650 0.406318 0.004378
Si Si6 0.021195 0.246291 0.867160
Si Si7 0.405356 0.549598 0.768965
O O1 0.459653 0.310163 0.283432
O O2 0.501289 0.872904 0.108755
O O3 0.500000 0.000000 0.000000
O O4 0.824611 0.929823 0.775869
O O5 0.228113 0.199456 0.902757
O O6 0.161956 0.064908 0.750252
O O7 0.427708 0.738950 0.507021
O O8 0.000000 0.000000 0.000000
O O9 0.738410 0.325466 0.710001
O O10 0.000000 0.500000 0.500000
O O11 0.944212 0.429939 0.686788
O O12 0.486941 0.279691 0.802480
O O13 0.842511 0.885016 0.392397
O O14 0.261651 0.581292 0.994615
O O15 0.766221 0.317994 0.109140
O O16 0.000000 0.500000 0.000000
#
# Coordination Sequence:
#
# PCOD8037772 Si02
#       7
#     2   2   2   2   2   2   2
#     4  12  30  47  77 116 154 205 260 317 389 462
#     4  12  30  48  77 117 155 205 260 319 387 464
#     4  12  28  49  78 113 150 203 259 316 392 457
#     4  12  27  51  77 114 157 203 257 321 390 459
#     4  12  26  49  80 109 153 205 259 321 387 457
#     4  12  26  49  78 111 157 203 255 316 389 454
#     4  12  27  50  76 113 157 200 260 316 386 469
#
# _framework density 23.701841000000002
#
# number of rings (size 3 to 8) (size 9 to 14) (size 15 to 20)
#    0.000    0.000    5.714    2.571   12.000    1.714 
#    0.000    0.000    0.000    0.000    0.000    0.000 
#    0.000    0.000    0.000    0.000    0.000    0.000 
#
# Total GULP energy -173564.258564 kJ/mol
# GULP energy per Si atom -12397.447040 kJ/mol
# Density = 2.364789 g / cm^3
# Si number density = 23.701841 Si / 1000 Ang^3
#
#
#
# Elastic Constant Matrix: (Units=GPa)
#
#
# Indices 1 2 3 4 5 6 
#
# 1 135.4250 47.5111 37.6829 1.5899 -3.3370 25.3504
# 2 47.5111 133.7613 34.4022 -6.4186 10.8319 35.7341
# 3 37.6829 34.4022 111.6026 -8.0502 0.6461 -1.6902
# 4 1.5899 -6.4186 -8.0502 42.3997 -0.0015 -2.2161
# 5 -3.3370 10.8319 0.6461 -0.0015 43.0890 -2.4837
# 6 25.3504 35.7341 -1.6902 -2.2161 -2.4837 28.9776
#
#
#
# Elastic Compliance Matrix: (Units=1/GPa)
#
#
# Indices 1 2 3 4 5 6 
#
# 1 0.010178 -0.000557 -0.003510 -0.001577 0.000491 -0.008501
# 2 -0.000557 0.013666 -0.004227 0.000401 -0.004393 -0.016958
# 3 -0.003510 -0.004227 0.011741 0.002204 0.001147 0.009235
# 4 -0.001577 0.000401 0.002204 0.024273 -0.000090 0.002862
# 5 0.000491 -0.004393 0.001147 -0.000090 0.024746 0.007169
# 6 -0.008501 -0.016958 0.009235 0.002862 0.007169 0.064230
#
#
# Mechanical properties :
#
#
# Convention : Reuss Voigt Hill
#
# Bulk Modulus (GPa) = 52.64125 68.88679 60.76402
# Shear Modulus (GPa) = 29.11126 40.30610 34.70868
#
# Velocity S-wave (km/s) = 3.50841 4.12824 3.83088
# Velocity P-wave (km/s) = 6.21851 7.20071 6.72756
#
# Compressibility (1/GPa) = 0.01899651
#
# Stress axis : x y z
#
# Youngs Moduli (GPa) = 98.24958 73.17338 85.17252
#
# Poissons Ratio (x) = 0.04075 0.29899
# Poissons Ratio (y) = 0.05471 0.36004
# Poissons Ratio (z) = 0.34489 0.30932
#
# Static dielectric constant tensor:
#      x y z
#    x 4.436410 0.018010 0.248180 
#    y 0.018010 4.327660 -0.116520 
#    z 0.248180 -0.116520 3.420330 
# 
# 
# High freq. dielectric constant tensor:
#      x y z
#    x 1.950030 0.008450 0.000150 
#    y 0.008450 1.943410 0.007910 
#    z 0.000150 0.007910 1.956290 
# 
# From -- ./inp_files/530101.got.cif
#   From: 2010.06.25/outbox.cif.g09.slc.cpg/sg2_266_cif.got.tgz:530101.got - 2010.06.27 13:26:56.
