data_PCOD8037929
_publ_section_title
;
Structure prediction by ZEFSAII (Michael W. Deem and Ramdas Pophale) SiO2 
 PCOD8037929
Probable space group: P -1
;
_chemical_formula_sum "Si O2"
_cell_formula_units_Z 16
_cell_length_a 8.664544
_cell_length_b 13.007874
_cell_length_c 13.263773
_cell_angle_alpha 146.290790
_cell_angle_beta 116.813644
_cell_angle_gamma 65.531027
_cell_volume 738.151351
_symmetry_space_group_name_H-M "P -1"
_symmetry_group_IT_number 2
_symmetry_cell_setting 'triclinic'
loop_
_space_group_symop_operation_xyz
x,y,z
-x,-y,-z
loop_
_atom_site_type_symbol
_atom_site_label
_atom_site_fract_x
_atom_site_fract_y
_atom_site_fract_z
Si Si1 0.828080 0.692383 0.624982
Si Si2 0.042512 0.940678 0.752672
Si Si3 0.149712 0.893905 0.523371
Si Si4 0.150218 0.600353 0.749895
Si Si5 0.295305 0.959940 0.014828
Si Si6 0.424555 0.174734 0.879238
Si Si7 0.252591 0.729924 0.075465
Si Si8 0.805152 0.449080 0.882183
O O1 0.733703 0.537902 0.405108
O O2 0.947480 0.579269 0.651511
O O3 0.701002 0.843037 0.765544
O O4 0.951582 0.783608 0.656026
O O5 0.087871 0.860887 0.591243
O O6 0.913556 0.122849 0.850886
O O7 0.223161 0.985056 0.900048
O O8 0.203460 0.691913 0.328314
O O9 0.313162 0.016735 0.673722
O O10 0.000000 0.000000 0.500000
O O11 0.204040 0.560112 0.848501
O O12 0.172445 0.821118 0.921522
O O13 0.491915 0.875053 0.025047
O O14 0.572177 0.190253 0.849691
O O15 0.309979 0.363192 0.021920
O O16 0.281612 0.645610 0.125238
O O17 0.000000 0.500000 0.000000
#
# Coordination Sequence:
#
# PCOD8037929 Si02
#       8
#     2   2   2   2   2   2   2   2
#     4  10  17  32  60  95 132 161 205 262 313 389
#     4  11  20  41  68  98 129 176 207 262 332 392
#     4  12  26  46  65  92 131 178 227 262 330 394
#     4   9  18  30  56  98 125 162 206 252 321 376
#     4  10  20  40  65  96 139 158 211 271 326 388
#     4  11  25  44  66  99 129 169 220 280 321 383
#     4  11  21  41  70  98 130 169 219 272 325 377
#     4  12  26  47  67  90 134 178 221 269 321 393
#
# _framework density 21.675771999999998
#
# number of rings (size 3 to 8) (size 9 to 14) (size 15 to 20)
#    0.000    1.250    6.250    1.125    1.750    3.000 
#    0.000    0.625    0.000    0.000    0.000    0.000 
#    0.000    0.000    0.000    0.000    0.000    0.000 
#
# Total GULP energy -198219.619308 kJ/mol
# GULP energy per Si atom -12388.726207 kJ/mol
# Density = 2.162644 g / cm^3
# Si number density = 21.675772 Si / 1000 Ang^3
#
#
#
# Elastic Constant Matrix: (Units=GPa)
#
#
# Indices 1 2 3 4 5 6 
#
# 1 73.4524 30.0510 28.6192 -12.7877 -1.4876 -9.9431
# 2 30.0510 97.8039 40.7836 -6.8465 -12.7614 -30.7010
# 3 28.6192 40.7836 156.5898 -3.5646 -23.9826 -17.8994
# 4 -12.7877 -6.8465 -3.5646 37.4696 0.1978 -6.2864
# 5 -1.4876 -12.7614 -23.9826 0.1978 34.3285 -2.5422
# 6 -9.9431 -30.7010 -17.8994 -6.2864 -2.5422 30.6642
#
#
#
# Elastic Compliance Matrix: (Units=1/GPa)
#
#
# Indices 1 2 3 4 5 6 
#
# 1 0.017065 -0.003854 -0.002182 0.005137 -0.002153 0.001276
# 2 -0.003854 0.019146 -0.000772 0.005290 0.007802 0.019200
# 3 -0.002182 -0.000772 0.008329 0.000542 0.005728 0.003967
# 4 0.005137 0.005290 0.000542 0.031804 0.003427 0.014082
# 5 -0.002153 0.007802 0.005728 0.003427 0.036973 0.014225
# 6 0.001276 0.019200 0.003967 0.014082 0.014225 0.058630
#
#
# Mechanical properties :
#
#
# Convention : Reuss Voigt Hill
#
# Bulk Modulus (GPa) = 32.33818 58.52820 45.43319
# Shear Modulus (GPa) = 25.52697 35.71861 30.62279
#
# Velocity S-wave (km/s) = 3.43545 4.06379 3.76276
# Velocity P-wave (km/s) = 5.53966 7.00567 6.31535
#
# Compressibility (1/GPa) = 0.03092320
#
# Stress axis : x y z
#
# Youngs Moduli (GPa) = 58.60030 52.23038 120.06106
#
# Poissons Ratio (x) = 0.20131 0.26197
# Poissons Ratio (y) = 0.22586 0.09269
# Poissons Ratio (z) = 0.12786 0.04032
#
# Static dielectric constant tensor:
#      x y z
#    x 3.658690 -0.062800 -0.039030 
#    y -0.062800 4.236810 -0.182400 
#    z -0.039030 -0.182400 4.383680 
# 
# 
# High freq. dielectric constant tensor:
#      x y z
#    x 1.817440 -0.008130 -0.007860 
#    y -0.008130 1.858160 -0.004680 
#    z -0.007860 -0.004680 1.868120 
# 
# From -- ./inp_files/505944.got.cif
#   From: 2010.06.25/outbox.cif.g09.slc.cpg/sg2_253_cif.got.tgz:505944.got - 2010.06.27 13:26:56.
