data_PCOD8037303
_publ_section_title
;
Structure prediction by ZEFSAII (Michael W. Deem and Ramdas Pophale) SiO2 
 PCOD8037303
Probable space group: P -1
;
_chemical_formula_sum "Si O2"
_cell_formula_units_Z 14
_cell_length_a 12.198521
_cell_length_b 7.910772
_cell_length_c 13.332602
_cell_angle_alpha 33.325554
_cell_angle_beta 127.243624
_cell_angle_gamma 115.406082
_cell_volume 553.989658
_symmetry_space_group_name_H-M "P -1"
_symmetry_group_IT_number 2
_symmetry_cell_setting 'triclinic'
loop_
_space_group_symop_operation_xyz
x,y,z
-x,-y,-z
loop_
_atom_site_type_symbol
_atom_site_label
_atom_site_fract_x
_atom_site_fract_y
_atom_site_fract_z
Si Si1 0.012147 0.688703 0.511376
Si Si2 0.197065 0.300521 0.977140
Si Si3 0.019681 0.169989 0.128608
Si Si4 0.732264 0.263679 0.830646
Si Si5 0.483234 0.643717 0.635293
Si Si6 0.722406 0.657837 0.447016
Si Si7 0.423133 0.667443 0.967495
O O1 0.098368 0.516621 0.736326
O O2 0.000000 0.500000 0.500000
O O3 0.851718 0.787834 0.406863
O O4 0.080206 0.968266 0.360933
O O5 0.113368 0.131123 0.098404
O O6 0.280351 0.527709 0.971622
O O7 0.303108 0.031594 0.107819
O O8 0.000000 0.500000 0.000000
O O9 0.866321 0.103252 0.048159
O O10 0.609351 0.456439 0.732288
O O11 0.774231 0.519751 0.651467
O O12 0.338350 0.618269 0.510503
O O13 0.476296 0.434608 0.832875
O O14 0.500000 0.000000 0.500000
O O15 0.600284 0.959136 0.241418
O O16 0.500000 0.500000 0.000000
#
# Coordination Sequence:
#
# PCOD8037303 Si02
#       7
#     2   2   2   2   2   2   2
#     4  12  26  44  77 112 147 202 246 310 379 438
#     4  12  26  50  74 112 158 194 254 307 376 455
#     4  12  26  45  73 112 157 198 250 305 375 453
#     4  12  24  47  73 108 146 196 247 311 376 443
#     4  12  27  50  75 106 146 200 253 309 384 448
#     4  12  26  46  76 109 148 193 254 310 375 449
#     4  12  28  48  73 109 147 197 253 314 368 446
#
# _framework density 25.271229000000002
#
# number of rings (size 3 to 8) (size 9 to 14) (size 15 to 20)
#    0.000    0.000    2.857    7.286    4.000    2.286 
#    0.000    0.000    0.000    0.000    0.000    0.000 
#    0.000    0.000    0.000    0.000    0.000    0.000 
#
# Total GULP energy -173435.387550 kJ/mol
# GULP energy per Si atom -12388.241968 kJ/mol
# Density = 2.521371 g / cm^3
# Si number density = 25.271229 Si / 1000 Ang^3
#
#
#
# Elastic Constant Matrix: (Units=GPa)
#
#
# Indices 1 2 3 4 5 6 
#
# 1 127.2179 15.6973 51.7208 6.1324 -14.9512 -26.5675
# 2 15.6973 86.5741 14.8948 -17.6344 2.9409 -13.1320
# 3 51.7208 14.8948 136.1165 -6.9553 -19.9952 -13.4711
# 4 6.1324 -17.6344 -6.9553 53.3136 -7.9246 6.5112
# 5 -14.9512 2.9409 -19.9952 -7.9246 47.1749 -3.3064
# 6 -26.5675 -13.1320 -13.4711 6.5112 -3.3064 40.4923
#
#
#
# Elastic Compliance Matrix: (Units=1/GPa)
#
#
# Indices 1 2 3 4 5 6 
#
# 1 0.011025 -0.001054 -0.003243 -0.002491 0.002215 0.006394
# 2 -0.001054 0.013081 -0.000651 0.003954 -0.000575 0.002651
# 3 -0.003243 -0.000651 0.009299 0.001772 0.003304 0.000740
# 4 -0.002491 0.003954 0.001772 0.021404 0.003103 -0.002951
# 5 0.002215 -0.000575 0.003304 0.003103 0.024126 0.003837
# 6 0.006394 0.002651 0.000740 -0.002951 0.003837 0.030785
#
#
# Mechanical properties :
#
#
# Convention : Reuss Voigt Hill
#
# Bulk Modulus (GPa) = 42.53654 57.17047 49.85351
# Shear Modulus (GPa) = 39.23033 46.03589 42.63311
#
# Velocity S-wave (km/s) = 3.94429 4.27274 4.11179
# Velocity P-wave (km/s) = 6.13284 6.85664 6.50482
#
# Compressibility (1/GPa) = 0.02350920
#
# Stress axis : x y z
#
# Youngs Moduli (GPa) = 90.70506 76.44706 107.53670
#
# Poissons Ratio (x) = 0.08056 0.34873
# Poissons Ratio (y) = 0.09559 0.07001
# Poissons Ratio (z) = 0.29415 0.04977
#
# Static dielectric constant tensor:
#      x y z
#    x 4.432160 0.126370 0.214890 
#    y 0.126370 3.728620 -0.550140 
#    z 0.214890 -0.550140 4.130540 
# 
# 
# High freq. dielectric constant tensor:
#      x y z
#    x 2.012410 -0.015810 -0.007910 
#    y -0.015810 2.014460 -0.005450 
#    z -0.007910 -0.005450 2.028020 
# 
# From -- ./inp_files/185512.got.cif
#   From: 2010.06.25/outbox.cif.g09.slc.cpg/sg2_93_cif.got.tgz:185512.got - 2010.06.27 13:26:56.
