data_PCOD8037410
_publ_section_title
;
Structure prediction by ZEFSAII (Michael W. Deem and Ramdas Pophale) SiO2 
 PCOD8037410
Probable space group: P -1
;
_chemical_formula_sum "Si O2"
_cell_formula_units_Z 16
_cell_length_a 14.807429
_cell_length_b 5.224279
_cell_length_c 9.112091
_cell_angle_alpha 73.737348
_cell_angle_beta 93.542126
_cell_angle_gamma 92.630672
_cell_volume 675.096623
_symmetry_space_group_name_H-M "P -1"
_symmetry_group_IT_number 2
_symmetry_cell_setting 'triclinic'
loop_
_space_group_symop_operation_xyz
x,y,z
-x,-y,-z
loop_
_atom_site_type_symbol
_atom_site_label
_atom_site_fract_x
_atom_site_fract_y
_atom_site_fract_z
Si Si1 0.318550 0.046068 0.261588
Si Si2 0.480625 0.718664 0.340916
Si Si3 0.796535 0.014152 0.991744
Si Si4 0.665347 0.002833 0.210933
Si Si5 0.203886 0.066251 0.518069
Si Si6 0.095764 0.534570 0.580816
Si Si7 0.594171 0.467657 0.939045
Si Si8 0.095803 0.489752 0.934971
O O1 0.256429 0.859689 0.175101
O O2 0.256775 0.167829 0.362286
O O3 0.348030 0.261021 0.106674
O O4 0.409391 0.928345 0.365477
O O5 0.500000 0.500000 0.500000
O O6 0.573462 0.843327 0.267482
O O7 0.422291 0.608331 0.218572
O O8 0.731282 0.851892 0.129440
O O9 0.863569 0.793901 0.971262
O O10 0.845257 0.257456 0.043597
O O11 0.720169 0.071505 0.352684
O O12 0.648486 0.269343 0.075976
O O13 0.162374 0.319519 0.552727
O O14 0.131260 0.835905 0.503672
O O15 0.083732 0.495661 0.758235
O O16 0.000000 0.500000 0.500000
O O17 0.500000 0.500000 0.000000
O O18 0.000000 0.500000 0.000000
#
# Coordination Sequence:
#
# PCOD8037410 Si02
#       8
#     2   2   2   2   2   2   2   2
#     4  12  29  47  73 116 155 212 265 322 390 455
#     4  12  28  45  71 110 161 206 261 323 390 458
#     4  12  26  47  79 112 153 199 265 319 382 464
#     4  12  24  50  74 110 151 212 262 325 380 461
#     4  12  30  48  82 114 162 204 260 323 397 474
#     4  12  28  53  80 115 155 205 251 319 408 479
#     4  12  25  46  74 103 153 212 270 326 380 450
#     4  12  27  50  81 116 151 196 255 326 395 465
#
# _framework density 23.700312
#
# number of rings (size 3 to 8) (size 9 to 14) (size 15 to 20)
#    0.000    0.000    5.000    3.375    8.750    1.000 
#    0.000    0.000    0.000    0.000    0.000    0.000 
#    0.000    0.000    0.000    0.000    0.000    0.000 
#
# Total GULP energy -198321.556178 kJ/mol
# GULP energy per Si atom -12395.097261 kJ/mol
# Density = 2.364637 g / cm^3
# Si number density = 23.700312 Si / 1000 Ang^3
#
#
#
# Elastic Constant Matrix: (Units=GPa)
#
#
# Indices 1 2 3 4 5 6 
#
# 1 156.6370 55.2637 77.1200 12.7332 -6.7987 -8.7490
# 2 55.2637 122.7408 44.8378 2.6264 -4.0380 -6.3012
# 3 77.1200 44.8378 149.9332 -1.2640 -1.3465 -5.0123
# 4 12.7332 2.6264 -1.2640 42.3785 -5.1460 0.9775
# 5 -6.7987 -4.0380 -1.3465 -5.1460 54.6157 8.7460
# 6 -8.7490 -6.3012 -5.0123 0.9775 8.7460 28.6621
#
#
#
# Elastic Compliance Matrix: (Units=1/GPa)
#
#
# Indices 1 2 3 4 5 6 
#
# 1 0.009727 -0.002702 -0.004162 -0.002871 0.000377 0.001630
# 2 -0.002702 0.009990 -0.001560 0.000148 0.000213 0.001029
# 3 -0.004162 -0.001560 0.009289 0.001592 -0.000260 0.000036
# 4 -0.002871 0.000148 0.001592 0.024836 0.002375 -0.002137
# 5 0.000377 0.000213 -0.000260 0.002375 0.019539 -0.005927
# 6 0.001630 0.001029 0.000036 -0.002137 -0.005927 0.037501
#
#
# Mechanical properties :
#
#
# Convention : Reuss Voigt Hill
#
# Bulk Modulus (GPa) = 82.24316 87.08377 84.66347
# Shear Modulus (GPa) = 37.94120 41.93722 39.93921
#
# Velocity S-wave (km/s) = 4.00543 4.21108 4.10954
# Velocity P-wave (km/s) = 7.49453 7.77610 7.63661
#
# Compressibility (1/GPa) = 0.01215907
#
# Stress axis : x y z
#
# Youngs Moduli (GPa) = 102.80390 100.09598 107.65232
#
# Poissons Ratio (x) = 0.27045 0.44801
# Poissons Ratio (y) = 0.27776 0.16798
# Poissons Ratio (z) = 0.42783 0.15619
#
# Static dielectric constant tensor:
#      x y z
#    x 4.597010 -0.090050 0.036870 
#    y -0.090050 4.258810 0.128710 
#    z 0.036870 0.128710 4.419940 
# 
# 
# High freq. dielectric constant tensor:
#      x y z
#    x 1.963980 -0.002350 0.002520 
#    y -0.002350 1.932720 0.014400 
#    z 0.002520 0.014400 1.956180 
# 
# From -- ./inp_files/288498.got.cif
#   From: 2010.06.25/outbox.cif.g09.slc.cpg/sg2_145_cif.got.tgz:288498.got - 2010.06.27 13:26:56.
