data_PCOD8037347
_publ_section_title
;
Structure prediction by ZEFSAII (Michael W. Deem and Ramdas Pophale) SiO2 
 PCOD8037347
Probable space group: P -1
;
_chemical_formula_sum "Si O2"
_cell_formula_units_Z 16
_cell_length_a 13.527037
_cell_length_b 13.671682
_cell_length_c 9.689990
_cell_angle_alpha 96.262247
_cell_angle_beta 106.457613
_cell_angle_gamma 147.581381
_cell_volume 677.833214
_symmetry_space_group_name_H-M "P -1"
_symmetry_group_IT_number 2
_symmetry_cell_setting 'triclinic'
loop_
_space_group_symop_operation_xyz
x,y,z
-x,-y,-z
loop_
_atom_site_type_symbol
_atom_site_label
_atom_site_fract_x
_atom_site_fract_y
_atom_site_fract_z
Si Si1 0.692818 0.526457 0.884431
Si Si2 0.008013 0.234706 0.492977
Si Si3 0.254607 0.062661 0.173864
Si Si4 0.439326 0.475972 0.630519
Si Si5 0.927004 0.442298 0.806068
Si Si6 0.230862 0.890257 0.889469
Si Si7 0.482528 0.189884 0.563524
Si Si8 0.737515 0.423951 0.133018
O O1 0.478113 0.419398 0.742685
O O2 0.704970 0.460469 0.749227
O O3 0.626215 0.405428 0.976083
O O4 0.958225 0.815815 0.067489
O O5 0.937652 0.227629 0.325893
O O6 0.140547 0.247392 0.502764
O O7 0.234058 0.497494 0.696548
O O8 0.766754 0.012227 0.467879
O O9 0.364812 0.265370 0.210391
O O10 0.419535 0.157265 0.375886
O O11 0.228726 0.970249 0.018824
O O12 0.500000 0.500000 0.500000
O O13 0.623928 0.206854 0.628751
O O14 0.128671 0.694553 0.857691
O O15 0.979737 0.377669 0.758458
O O16 0.000000 0.500000 0.000000
O O17 0.536496 0.156490 0.011654
#
# Coordination Sequence:
#
# PCOD8037347 Si02
#       8
#     2   2   2   2   2   2   2   2
#     4  12  24  48  71 106 151 192 244 304 365 437
#     4  12  27  49  73 111 152 190 250 308 361 443
#     4  12  24  48  76 106 148 195 243 307 372 431
#     4  12  26  46  78 110 147 199 246 301 379 438
#     4  12  25  48  78 108 150 199 241 300 378 436
#     4  12  25  48  77 104 152 191 245 312 361 437
#     4  12  25  47  74 107 149 193 245 304 364 443
#     4  12  26  48  72 110 151 195 248 306 368 434
#
# _framework density 23.604626
#
# number of rings (size 3 to 8) (size 9 to 14) (size 15 to 20)
#    0.000    0.000    7.500    2.250    0.000    2.000 
#    2.250    0.000    0.000    0.000    0.000    0.000 
#    0.000    0.000    0.000    0.000    0.000    0.000 
#
# Total GULP energy -198329.757846 kJ/mol
# GULP energy per Si atom -12395.609865 kJ/mol
# Density = 2.355090 g / cm^3
# Si number density = 23.604626 Si / 1000 Ang^3
#
#
#
# Elastic Constant Matrix: (Units=GPa)
#
#
# Indices 1 2 3 4 5 6 
#
# 1 133.9419 32.6771 46.8593 -20.3757 18.3627 11.3862
# 2 32.6771 94.9683 30.3099 -10.7463 14.2191 -0.8375
# 3 46.8593 30.3099 145.4288 -28.9074 1.6746 -1.7521
# 4 -20.3757 -10.7463 -28.9074 43.4947 4.0712 4.7963
# 5 18.3627 14.2191 1.6746 4.0712 45.9315 -0.5748
# 6 11.3862 -0.8375 -1.7521 4.7963 -0.5748 31.4391
#
#
#
# Elastic Compliance Matrix: (Units=1/GPa)
#
#
# Indices 1 2 3 4 5 6 
#
# 1 0.010134 -0.001853 -0.002153 0.003706 -0.003784 -0.004474
# 2 -0.001853 0.012319 -0.001671 0.001284 -0.003117 0.000653
# 3 -0.002153 -0.001671 0.008767 0.004277 0.000686 0.000584
# 4 0.003706 0.001284 0.004277 0.028939 -0.004670 -0.005570
# 5 -0.003784 -0.003117 0.000686 -0.004670 0.024669 0.002489
# 6 -0.004474 0.000653 0.000584 -0.005570 0.002489 0.034373
#
#
# Mechanical properties :
#
#
# Convention : Reuss Voigt Hill
#
# Bulk Modulus (GPa) = 50.33802 66.00349 58.17076
# Shear Modulus (GPa) = 36.44897 41.80592 39.12744
#
# Velocity S-wave (km/s) = 3.93382 4.21300 4.07580
# Velocity P-wave (km/s) = 6.48113 7.18948 6.84448
#
# Compressibility (1/GPa) = 0.01986570
#
# Stress axis : x y z
#
# Youngs Moduli (GPa) = 98.67660 81.17688 114.05870
#
# Poissons Ratio (x) = 0.15046 0.24553
# Poissons Ratio (y) = 0.18290 0.19061
# Poissons Ratio (z) = 0.21242 0.13566
#
# Static dielectric constant tensor:
#      x y z
#    x 4.556540 0.123680 -0.050910 
#    y 0.123680 4.458040 0.369910 
#    z -0.050910 0.369910 4.559030 
# 
# 
# High freq. dielectric constant tensor:
#      x y z
#    x 1.935040 0.005760 0.004670 
#    y 0.005760 1.938720 0.003700 
#    z 0.004670 0.003700 1.952210 
# 
# From -- ./inp_files/315343.got.cif
#   From: 2010.06.25/outbox.cif.g09.slc.cpg/sg2_158_cif.got.tgz:315343.got - 2010.06.27 13:26:56.
