data_PCOD8037564
_publ_section_title
;
Structure prediction by ZEFSAII (Michael W. Deem and Ramdas Pophale) SiO2 
 PCOD8037564
Probable space group: P -1
;
_chemical_formula_sum "Si O2"
_cell_formula_units_Z 12
_cell_length_a 8.368267
_cell_length_b 9.176359
_cell_length_c 17.389113
_cell_angle_alpha 120.676748
_cell_angle_beta 146.504406
_cell_angle_gamma 80.219292
_cell_volume 534.061191
_symmetry_space_group_name_H-M "P -1"
_symmetry_group_IT_number 2
_symmetry_cell_setting 'triclinic'
loop_
_space_group_symop_operation_xyz
x,y,z
-x,-y,-z
loop_
_atom_site_type_symbol
_atom_site_label
_atom_site_fract_x
_atom_site_fract_y
_atom_site_fract_z
Si Si1 0.264635 0.645346 0.709860
Si Si2 0.267961 0.149330 0.708654
Si Si3 0.869802 0.549205 0.685001
Si Si4 0.750577 0.060188 0.952616
Si Si5 0.244926 0.438420 0.047169
Si Si6 0.136740 0.802844 0.316561
O O1 0.606018 0.634222 0.845264
O O2 0.000000 0.500000 0.500000
O O3 0.086621 0.586995 0.705448
O O4 0.419291 0.876959 0.813771
O O5 0.582356 0.116197 0.831522
O O6 0.415727 0.374972 0.803156
O O7 0.081455 0.123451 0.707332
O O8 0.000000 0.000000 0.500000
O O9 0.500000 0.500000 0.500000
O O10 0.838808 0.367234 0.673457
O O11 0.046177 0.751705 0.859257
O O12 0.000000 0.000000 0.000000
O O13 0.000000 0.500000 0.000000
O O14 0.041838 0.270167 0.856782
O O15 0.500000 0.000000 0.500000
#
# Coordination Sequence:
#
# PCOD8037564 Si02
#       6
#     2   2   2   2   2   2
#     4  12  27  47  74 108 149 190 240 297 366 431
#     4  12  25  47  75 104 144 189 245 302 358 428
#     4  12  28  48  76 108 148 192 245 301 362 433
#     4  12  27  47  74 108 149 190 240 297 366 431
#     4  12  25  47  75 104 144 189 245 302 358 428
#     4  12  28  49  76 108 144 194 248 301 362 427
#
# _framework density 22.469335999999998
#
# number of rings (size 3 to 8) (size 9 to 14) (size 15 to 20)
#    0.000    0.000    3.333    6.000    9.333    0.000 
#    0.000    0.000    0.000    0.000    0.000    0.000 
#    0.000    0.000    0.000    0.000    0.000    0.000 
#
# Total GULP energy -148827.897491 kJ/mol
# GULP energy per Si atom -12402.324791 kJ/mol
# Density = 2.241819 g / cm^3
# Si number density = 22.469336 Si / 1000 Ang^3
#
#
#
# Elastic Constant Matrix: (Units=GPa)
#
#
# Indices 1 2 3 4 5 6 
#
# 1 127.2709 26.9953 61.3235 4.7332 -20.7088 -20.3004
# 2 26.9953 115.0670 69.1794 0.0285 -14.4816 -6.1337
# 3 61.3235 69.1794 222.5227 4.7880 -32.3195 -8.3254
# 4 4.7332 0.0285 4.7880 60.3259 5.7645 13.1775
# 5 -20.7088 -14.4816 -32.3195 5.7645 41.1068 0.9529
# 6 -20.3004 -6.1337 -8.3254 13.1775 0.9529 41.4401
#
#
#
# Elastic Compliance Matrix: (Units=1/GPa)
#
#
# Indices 1 2 3 4 5 6 
#
# 1 0.010421 -0.000542 -0.001918 -0.002167 0.003733 0.005242
# 2 -0.000542 0.010815 -0.003021 0.000016 0.001144 0.000697
# 3 -0.001918 -0.003021 0.006431 -0.000666 0.003118 0.000045
# 4 -0.002167 0.000016 -0.000666 0.018730 -0.004073 -0.007055
# 5 0.003733 0.001144 0.003118 -0.004073 0.029557 0.003240
# 6 0.005242 0.000697 0.000045 -0.007055 0.003240 0.028981
#
#
# Mechanical properties :
#
#
# Convention : Reuss Voigt Hill
#
# Bulk Modulus (GPa) = 59.86561 86.65079 73.25820
# Shear Modulus (GPa) = 41.16412 49.06538 45.11475
#
# Velocity S-wave (km/s) = 4.28485 4.67803 4.48575
# Velocity P-wave (km/s) = 7.15409 8.23568 7.71386
#
# Compressibility (1/GPa) = 0.01670408
#
# Stress axis : x y z
#
# Youngs Moduli (GPa) = 95.96274 92.46343 155.50436
#
# Poissons Ratio (x) = 0.05007 0.29833
# Poissons Ratio (y) = 0.05197 0.46981
# Poissons Ratio (z) = 0.18410 0.27935
#
# Static dielectric constant tensor:
#      x y z
#    x 4.130740 0.127680 0.076120 
#    y 0.127680 4.446450 -0.052090 
#    z 0.076120 -0.052090 4.417520 
# 
# 
# High freq. dielectric constant tensor:
#      x y z
#    x 1.895000 -0.000970 0.006310 
#    y -0.000970 1.904240 0.000180 
#    z 0.006310 0.000180 1.910950 
# 
# From -- ./inp_files/148659.got.cif
#   From: 2010.06.25/outbox.cif.g09.slc.cpg/sg2_75_cif.got.tgz:148659.got - 2010.06.27 13:26:56.
