data_PCOD8037642
_publ_section_title
;
Structure prediction by ZEFSAII (Michael W. Deem and Ramdas Pophale) SiO2 
 PCOD8037642
Probable space group: P -1
;
_chemical_formula_sum "Si O2"
_cell_formula_units_Z 14
_cell_length_a 11.672299
_cell_length_b 14.336736
_cell_length_c 19.182329
_cell_angle_alpha 21.084579
_cell_angle_beta 139.795582
_cell_angle_gamma 148.561383
_cell_volume 593.312739
_symmetry_space_group_name_H-M "P -1"
_symmetry_group_IT_number 2
_symmetry_cell_setting 'triclinic'
loop_
_space_group_symop_operation_xyz
x,y,z
-x,-y,-z
loop_
_atom_site_type_symbol
_atom_site_label
_atom_site_fract_x
_atom_site_fract_y
_atom_site_fract_z
Si Si1 0.379435 0.289929 0.388993
Si Si2 0.936128 0.431240 0.219265
Si Si3 0.108283 0.639054 0.299537
Si Si4 0.370714 0.374511 0.598866
Si Si5 0.496637 0.659988 0.957220
Si Si6 0.640789 0.362815 0.335960
Si Si7 0.817889 0.352496 0.958867
O O1 0.444752 0.348228 0.458408
O O2 0.591880 0.364671 0.393396
O O3 0.331836 0.535721 0.166576
O O4 0.163946 0.911693 0.549518
O O5 0.747034 0.429934 0.093416
O O6 0.060395 0.691747 0.159956
O O7 0.103871 0.514556 0.176484
O O8 0.152996 0.368193 0.504529
O O9 0.899289 0.534964 0.322649
O O10 0.315899 0.953948 0.215805
O O11 0.500000 0.500000 0.500000
O O12 0.315283 0.033610 0.833544
O O13 0.500000 0.500000 0.000000
O O14 0.535735 0.511921 0.143689
O O15 0.500000 0.000000 0.500000
O O16 0.000000 0.500000 0.000000
#
# Coordination Sequence:
#
# PCOD8037642 Si02
#       7
#     2   2   2   2   2   2   2
#     4  12  25  49  74 110 156 195 248 321 368 449
#     4  12  25  49  75 110 154 197 252 314 377 448
#     4  12  27  49  77 110 153 202 248 309 385 447
#     4  12  28  49  76 112 150 196 256 313 378 452
#     4  12  26  48  74 110 152 200 252 306 374 449
#     4  12  27  48  76 112 154 194 255 308 377 451
#     4  12  27  46  78 110 147 202 253 310 384 448
#
# _framework density 23.596323000000002
#
# number of rings (size 3 to 8) (size 9 to 14) (size 15 to 20)
#    0.000    0.000    4.286    4.714    6.000    0.571 
#    0.000    0.000    0.000    0.000    0.000    0.000 
#    0.000    0.000    0.000    0.000    0.000    0.000 
#
# Total GULP energy -173546.232603 kJ/mol
# GULP energy per Si atom -12396.159472 kJ/mol
# Density = 2.354262 g / cm^3
# Si number density = 23.596323 Si / 1000 Ang^3
#
#
#
# Elastic Constant Matrix: (Units=GPa)
#
#
# Indices 1 2 3 4 5 6 
#
# 1 175.6166 37.9691 42.9555 1.2900 -0.5392 -7.4291
# 2 37.9691 99.5666 6.0222 4.1695 11.5034 -6.6391
# 3 42.9555 6.0222 120.3842 14.1383 11.4501 14.6621
# 4 1.2900 4.1695 14.1383 34.0325 2.8802 10.8180
# 5 -0.5392 11.5034 11.4501 2.8802 36.9195 8.8949
# 6 -7.4291 -6.6391 14.6621 10.8180 8.8949 44.4025
#
#
#
# Elastic Compliance Matrix: (Units=1/GPa)
#
#
# Indices 1 2 3 4 5 6 
#
# 1 0.006974 -0.002604 -0.002721 0.000675 0.001408 0.001229
# 2 -0.002604 0.011746 0.000695 -0.002043 -0.004347 0.002460
# 3 -0.002721 0.000695 0.010159 -0.003220 -0.002576 -0.002405
# 4 0.000675 -0.002043 -0.003220 0.033225 0.000834 -0.007391
# 5 0.001408 -0.004347 -0.002576 0.000834 0.030616 -0.005900
# 6 0.001229 0.002460 -0.002405 -0.007391 -0.005900 0.026872
#
#
# Mechanical properties :
#
#
# Convention : Reuss Voigt Hill
#
# Bulk Modulus (GPa) = 50.96877 63.27346 57.12111
# Shear Modulus (GPa) = 36.92977 43.64559 40.28768
#
# Velocity S-wave (km/s) = 3.96038 4.30545 4.13652
# Velocity P-wave (km/s) = 6.52380 7.18255 6.86109
#
# Compressibility (1/GPa) = 0.01961986
#
# Stress axis : x y z
#
# Youngs Moduli (GPa) = 143.38559 85.13362 98.43379
#
# Poissons Ratio (x) = 0.22169 0.26786
# Poissons Ratio (y) = 0.37337 -0.06845
# Poissons Ratio (z) = 0.39019 -0.05920
#
# Static dielectric constant tensor:
#      x y z
#    x 4.272680 -0.125820 0.268310 
#    y -0.125820 4.543370 0.167540 
#    z 0.268310 0.167540 4.655140 
# 
# 
# High freq. dielectric constant tensor:
#      x y z
#    x 1.948430 -0.009320 0.015790 
#    y -0.009320 1.950730 0.007600 
#    z 0.015790 0.007600 1.936670 
# 
# From -- ./inp_files/595582.got.cif
#   From: 2010.06.25/outbox.cif.g09.slc.cpg/sg2_298_cif.got.tgz:595582.got - 2010.06.27 13:26:56.
