data_PCOD8037770
_publ_section_title
;
Structure prediction by ZEFSAII (Michael W. Deem and Ramdas Pophale) SiO2 
 PCOD8037770
Probable space group: P -1
;
_chemical_formula_sum "Si O2"
_cell_formula_units_Z 14
_cell_length_a 17.156743
_cell_length_b 9.264352
_cell_length_c 8.572116
_cell_angle_alpha 109.384728
_cell_angle_beta 31.362156
_cell_angle_gamma 120.797835
_cell_volume 591.974710
_symmetry_space_group_name_H-M "P -1"
_symmetry_group_IT_number 2
_symmetry_cell_setting 'triclinic'
loop_
_space_group_symop_operation_xyz
x,y,z
-x,-y,-z
loop_
_atom_site_type_symbol
_atom_site_label
_atom_site_fract_x
_atom_site_fract_y
_atom_site_fract_z
Si Si1 0.141913 0.955354 0.675340
Si Si2 0.403974 0.490019 0.321073
Si Si3 0.474547 0.256636 0.334368
Si Si4 0.452880 0.153541 0.671314
Si Si5 0.151284 0.618856 0.174523
Si Si6 0.061641 0.392452 0.958819
Si Si7 0.130052 0.944552 0.326712
O O1 0.110193 0.918195 0.534763
O O2 0.338685 0.093008 0.409672
O O3 0.104738 0.779748 0.767115
O O4 0.000000 0.000000 0.000000
O O5 0.484474 0.429753 0.303516
O O6 0.406311 0.673022 0.424209
O O7 0.201261 0.356084 0.611576
O O8 0.500000 0.500000 0.000000
O O9 0.402545 0.215547 0.618965
O O10 0.666601 0.281547 0.012406
O O11 0.500000 0.000000 0.500000
O O12 0.308371 0.096030 0.025243
O O13 0.107772 0.764249 0.227411
O O14 0.000000 0.500000 0.500000
O O15 0.163829 0.500726 0.974689
O O16 0.000000 0.500000 0.000000
O O17 0.000000 0.000000 0.500000
#
# Coordination Sequence:
#
# PCOD8037770 Si02
#       7
#     2   2   2   2   2   2   2
#     4  12  27  50  75 119 152 202 255 324 387 461
#     4  12  28  49  79 115 152 209 264 319 392 465
#     4  12  27  49  80 109 164 197 262 319 395 459
#     4  12  26  49  76 112 155 205 258 317 395 466
#     4  12  28  52  76 114 150 211 256 322 393 462
#     4  12  29  49  78 110 162 198 260 323 393 460
#     4  12  28  47  80 111 157 203 262 315 393 468
#
# _framework density 23.649657000000001
#
# number of rings (size 3 to 8) (size 9 to 14) (size 15 to 20)
#    0.000    0.000    5.714    2.143   10.000    0.571 
#    0.000    0.000    0.000    0.000    0.000    0.000 
#    0.000    0.000    0.000    0.000    0.000    0.000 
#
# Total GULP energy -173513.085849 kJ/mol
# GULP energy per Si atom -12393.791846 kJ/mol
# Density = 2.359583 g / cm^3
# Si number density = 23.649657 Si / 1000 Ang^3
#
#
#
# Elastic Constant Matrix: (Units=GPa)
#
#
# Indices 1 2 3 4 5 6 
#
# 1 99.2377 42.0281 44.8704 -8.0936 -0.9403 -26.0572
# 2 42.0281 136.4880 43.5974 -11.4478 -6.6552 -13.0811
# 3 44.8704 43.5974 164.3100 -22.5667 0.8864 -14.5565
# 4 -8.0936 -11.4478 -22.5667 41.9244 -2.5542 1.4495
# 5 -0.9403 -6.6552 0.8864 -2.5542 54.2272 -5.5323
# 6 -26.0572 -13.0811 -14.5565 1.4495 -5.5323 48.3192
#
#
#
# Elastic Compliance Matrix: (Units=1/GPa)
#
#
# Indices 1 2 3 4 5 6 
#
# 1 0.014065 -0.002891 -0.002479 0.000415 0.000572 0.006109
# 2 -0.002891 0.008857 -0.001358 0.001183 0.001169 0.000528
# 3 -0.002479 -0.001358 0.007609 0.003222 -0.000134 0.000476
# 4 0.000415 0.001183 0.003222 0.026045 0.001418 0.000896
# 5 0.000572 0.001169 -0.000134 0.001418 0.018940 0.002711
# 6 0.006109 0.000528 0.000476 0.000896 0.002711 0.024560
#
#
# Mechanical properties :
#
#
# Convention : Reuss Voigt Hill
#
# Bulk Modulus (GPa) = 58.56181 73.44750 66.00466
# Shear Modulus (GPa) = 41.93820 46.86347 44.40083
#
# Velocity S-wave (km/s) = 4.21564 4.45631 4.33765
# Velocity P-wave (km/s) = 6.96502 7.58961 7.28401
#
# Compressibility (1/GPa) = 0.01707597
#
# Stress axis : x y z
#
# Youngs Moduli (GPa) = 71.09719 112.90018 131.43058
#
# Poissons Ratio (x) = 0.32640 0.32579
# Poissons Ratio (y) = 0.20555 0.17845
# Poissons Ratio (z) = 0.17623 0.15329
#
# Static dielectric constant tensor:
#      x y z
#    x 4.449410 0.133270 0.383680 
#    y 0.133270 5.072630 0.287420 
#    z 0.383680 0.287420 5.284740 
# 
# 
# High freq. dielectric constant tensor:
#      x y z
#    x 1.926070 -0.013100 0.011150 
#    y -0.013100 1.952850 -0.017700 
#    z 0.011150 -0.017700 1.956160 
# 
# From -- ./inp_files/219009.got.cif
#   From: 2010.06.25/outbox.cif.g09.slc.cpg/sg2_110_cif.got.tgz:219009.got - 2010.06.27 13:26:56.
