data_PCOD8037836
_publ_section_title
;
Structure prediction by ZEFSAII (Michael W. Deem and Ramdas Pophale) SiO2 
 PCOD8037836
Probable space group: P -1
;
_chemical_formula_sum "Si O2"
_cell_formula_units_Z 16
_cell_length_a 8.698334
_cell_length_b 18.795395
_cell_length_c 25.249401
_cell_angle_alpha 18.574427
_cell_angle_beta 62.416437
_cell_angle_gamma 52.195497
_cell_volume 917.659396
_symmetry_space_group_name_H-M "P -1"
_symmetry_group_IT_number 2
_symmetry_cell_setting 'triclinic'
loop_
_space_group_symop_operation_xyz
x,y,z
-x,-y,-z
loop_
_atom_site_type_symbol
_atom_site_label
_atom_site_fract_x
_atom_site_fract_y
_atom_site_fract_z
Si Si1 0.256357 0.081446 0.538264
Si Si2 0.239691 0.580878 0.902978
Si Si3 0.267796 0.841611 0.887121
Si Si4 0.762014 0.648841 0.753693
Si Si5 0.387245 0.748044 0.384715
Si Si6 0.780335 0.715085 0.352541
Si Si7 0.935253 0.620690 0.010948
Si Si8 0.958434 0.313372 0.516616
O O1 0.168548 0.284262 0.358426
O O2 0.125660 0.279565 0.470558
O O3 0.202115 0.865284 0.691541
O O4 0.516235 0.915030 0.622360
O O5 0.174152 0.488815 0.927648
O O6 0.491802 0.338673 0.050951
O O7 0.097343 0.638572 0.936225
O O8 0.278607 0.979748 0.842156
O O9 0.210990 0.636747 0.058183
O O10 0.089600 0.070314 0.712122
O O11 0.928878 0.596849 0.809359
O O12 0.500000 0.500000 0.500000
O O13 0.587864 0.705663 0.414904
O O14 0.214692 0.719469 0.462186
O O15 0.252033 0.064800 0.158113
O O16 0.824108 0.622714 0.348570
O O17 0.000000 0.500000 0.500000
#
# Coordination Sequence:
#
# PCOD8037836 Si02
#       8
#     2   2   2   2   2   2   2   2
#     4  10  20  36  49  75 102 144 169 202 250 298
#     4  10  20  30  53  76 105 125 168 212 253 299
#     4  10  17  32  51  79 100 132 166 209 251 300
#     4  10  21  33  53  71 107 138 172 203 248 301
#     4  10  18  31  52  79 101 128 163 212 256 297
#     4   9  19  31  51  80 102 129 162 211 260 299
#     4  11  19  33  51  82  98 132 165 216 252 295
#     4  10  18  32  55  75 103 131 169 210 250 298
#
# _framework density 17.435662000000001
#
# number of rings (size 3 to 8) (size 9 to 14) (size 15 to 20)
#    0.000    2.000    3.750    0.750    0.000    2.500 
#    0.000    0.625    0.000    3.000    0.000    0.000 
#    0.000    0.000    0.000    0.000    0.000    0.000 
#
# Total GULP energy -198235.706118 kJ/mol
# GULP energy per Si atom -12389.731632 kJ/mol
# Density = 1.739598 g / cm^3
# Si number density = 17.435662 Si / 1000 Ang^3
#
#
#
# Elastic Constant Matrix: (Units=GPa)
#
#
# Indices 1 2 3 4 5 6 
#
# 1 82.0825 25.3898 20.6353 -1.0910 8.3327 -5.6923
# 2 25.3898 94.1550 39.4874 -2.5528 -0.6654 0.5206
# 3 20.6353 39.4874 62.3814 1.3187 4.8866 3.9990
# 4 -1.0910 -2.5528 1.3187 28.5044 3.5790 -1.8028
# 5 8.3327 -0.6654 4.8866 3.5790 23.1289 -1.8724
# 6 -5.6923 0.5206 3.9990 -1.8028 -1.8724 20.8693
#
#
#
# Elastic Compliance Matrix: (Units=1/GPa)
#
#
# Indices 1 2 3 4 5 6 
#
# 1 0.014556 -0.002650 -0.003089 0.001304 -0.004519 0.004336
# 2 -0.002650 0.015201 -0.009091 0.001346 0.003189 0.001042
# 3 -0.003089 -0.009091 0.023546 -0.001841 -0.004298 -0.005672
# 4 0.001304 0.001346 -0.001841 0.036223 -0.005379 0.003322
# 5 -0.004519 0.003189 -0.004298 -0.005379 0.046960 0.003260
# 6 0.004336 0.001042 -0.005672 0.003322 0.003260 0.050740
#
#
# Mechanical properties :
#
#
# Convention : Reuss Voigt Hill
#
# Bulk Modulus (GPa) = 42.29558 45.51599 43.90578
# Shear Modulus (GPa) = 22.24522 24.70761 23.47641
#
# Velocity S-wave (km/s) = 3.57577 3.76849 3.67339
# Velocity P-wave (km/s) = 6.43109 6.71544 6.57480
#
# Compressibility (1/GPa) = 0.02364313
#
# Stress axis : x y z
#
# Youngs Moduli (GPa) = 68.70074 65.78391 42.47023
#
# Poissons Ratio (x) = 0.17434 0.13119
# Poissons Ratio (y) = 0.18207 0.38609
# Poissons Ratio (z) = 0.21221 0.59803
#
# Static dielectric constant tensor:
#      x y z
#    x 3.792220 -0.131090 -0.107440 
#    y -0.131090 3.483770 -0.511560 
#    z -0.107440 -0.511560 3.327960 
# 
# 
# High freq. dielectric constant tensor:
#      x y z
#    x 1.690420 -0.012920 -0.006540 
#    y -0.012920 1.657030 -0.038140 
#    z -0.006540 -0.038140 1.653690 
# 
# From -- ./inp_files/170476.got.cif
#   From: 2010.06.25/outbox.cif.g09.slc.cpg/sg2_86_cif.got.tgz:170476.got - 2010.06.27 13:26:56.
