data_PCOD8037247
_publ_section_title
;
Structure prediction by ZEFSAII (Michael W. Deem and Ramdas Pophale) SiO2 
 PCOD8037247
Probable space group: P -1
;
_chemical_formula_sum "Si O2"
_cell_formula_units_Z 14
_cell_length_a 12.473292
_cell_length_b 13.747610
_cell_length_c 6.769291
_cell_angle_alpha 84.766697
_cell_angle_beta 134.336007
_cell_angle_gamma 122.010164
_cell_volume 624.963907
_symmetry_space_group_name_H-M "P -1"
_symmetry_group_IT_number 2
_symmetry_cell_setting 'triclinic'
loop_
_space_group_symop_operation_xyz
x,y,z
-x,-y,-z
loop_
_atom_site_type_symbol
_atom_site_label
_atom_site_fract_x
_atom_site_fract_y
_atom_site_fract_z
Si Si1 0.890376 0.552454 0.799641
Si Si2 0.520870 0.611578 0.896970
Si Si3 0.619317 0.989986 0.818451
Si Si4 0.479741 0.191640 0.936422
Si Si5 0.848746 0.018219 0.758027
Si Si6 0.846598 0.258410 0.227947
Si Si7 0.119160 0.304107 0.898699
O O1 0.688936 0.442126 0.446603
O O2 0.054195 0.681328 0.865354
O O3 0.820286 0.589151 0.884080
O O4 0.000000 0.500000 0.000000
O O5 0.500000 0.500000 0.000000
O O6 0.582634 0.723583 0.108987
O O7 0.686809 0.672386 0.928458
O O8 0.500000 0.000000 0.500000
O O9 0.768390 0.991421 0.881150
O O10 0.496919 0.863040 0.822746
O O11 0.725287 0.106304 0.088447
O O12 0.314898 0.079276 0.596957
O O13 0.694903 0.280194 0.091001
O O14 0.955315 0.161869 0.800117
O O15 0.000000 0.000000 0.000000
O O16 0.026082 0.326269 0.597982
#
# Coordination Sequence:
#
# PCOD8037247 Si02
#       7
#     2   2   2   2   2   2   2
#     4  12  29  49  77 105 142 196 248 294 358 433
#     4  12  29  50  71 104 149 194 240 299 354 431
#     4  12  24  46  72 112 146 183 237 300 372 430
#     4  12  28  46  74 110 149 187 242 300 366 434
#     4  12  27  43  74 108 145 189 235 301 365 429
#     4  12  25  46  77 108 144 186 241 302 362 429
#     4  12  26  49  76 104 144 191 241 299 362 424
#
# _framework density 22.401295000000001
#
# number of rings (size 3 to 8) (size 9 to 14) (size 15 to 20)
#    0.000    0.000    5.714    3.429    8.000    3.429 
#    0.000    0.000    0.000    0.000    0.000    0.000 
#    0.000    0.000    0.000    0.000    0.000    0.000 
#
# Total GULP energy -173611.925468 kJ/mol
# GULP energy per Si atom -12400.851819 kJ/mol
# Density = 2.235031 g / cm^3
# Si number density = 22.401295 Si / 1000 Ang^3
#
#
#
# Elastic Constant Matrix: (Units=GPa)
#
#
# Indices 1 2 3 4 5 6 
#
# 1 169.7871 22.3624 29.9568 7.0874 2.9795 -7.5671
# 2 22.3624 72.9181 23.0796 3.5315 -7.5126 -8.6458
# 3 29.9568 23.0796 90.8562 -7.2337 15.2750 2.7604
# 4 7.0874 3.5315 -7.2337 36.4394 -4.4653 -0.1205
# 5 2.9795 -7.5126 15.2750 -4.4653 44.4891 0.4129
# 6 -7.5671 -8.6458 2.7604 -0.1205 0.4129 36.9117
#
#
#
# Elastic Compliance Matrix: (Units=1/GPa)
#
#
# Indices 1 2 3 4 5 6 
#
# 1 0.006516 -0.001159 -0.001996 -0.001561 -0.000115 0.001210
# 2 -0.001159 0.016597 -0.004823 -0.001798 0.004319 0.003956
# 3 -0.001996 -0.004823 0.014078 0.003006 -0.005189 -0.002524
# 4 -0.001561 -0.001798 0.003006 0.028718 0.001659 -0.000891
# 5 -0.000115 0.004319 -0.005189 0.001659 0.025153 0.001100
# 6 0.001210 0.003956 -0.002524 -0.000891 0.001100 0.028440
#
#
# Mechanical properties :
#
#
# Convention : Reuss Voigt Hill
#
# Bulk Modulus (GPa) = 47.09317 53.81767 50.45542
# Shear Modulus (GPa) = 35.07881 40.77889 37.92885
#
# Velocity S-wave (km/s) = 3.96147 4.27122 4.11926
# Velocity P-wave (km/s) = 6.48016 6.95708 6.72285
#
# Compressibility (1/GPa) = 0.02123450
#
# Stress axis : x y z
#
# Youngs Moduli (GPa) = 153.47769 60.25018 71.03250
#
# Poissons Ratio (x) = 0.06985 0.14175
# Poissons Ratio (y) = 0.17794 0.34262
# Poissons Ratio (z) = 0.30627 0.29061
#
# Static dielectric constant tensor:
#      x y z
#    x 4.176520 -0.079740 0.112550 
#    y -0.079740 3.941890 0.115100 
#    z 0.112550 0.115100 4.000730 
# 
# 
# High freq. dielectric constant tensor:
#      x y z
#    x 1.909290 -0.000060 -0.000540 
#    y -0.000060 1.883740 0.000010 
#    z -0.000540 0.000010 1.887590 
# 
# From -- ./inp_files/25824.got.cif
#   From: 2010.06.25/outbox.cif.g09.slc.cpg/sg2_13_cif.got.tgz:25824.got - 2010.06.27 13:26:56.
