data_PCOD8037391
_publ_section_title
;
Structure prediction by ZEFSAII (Michael W. Deem and Ramdas Pophale) SiO2 
 PCOD8037391
Probable space group: P -1
;
_chemical_formula_sum "Si O2"
_cell_formula_units_Z 16
_cell_length_a 14.968159
_cell_length_b 11.807680
_cell_length_c 9.497942
_cell_angle_alpha 68.646092
_cell_angle_beta 56.056643
_cell_angle_gamma 115.503583
_cell_volume 741.574074
_symmetry_space_group_name_H-M "P -1"
_symmetry_group_IT_number 2
_symmetry_cell_setting 'triclinic'
loop_
_space_group_symop_operation_xyz
x,y,z
-x,-y,-z
loop_
_atom_site_type_symbol
_atom_site_label
_atom_site_fract_x
_atom_site_fract_y
_atom_site_fract_z
Si Si1 0.047643 0.156713 0.484777
Si Si2 0.785982 0.332798 0.786696
Si Si3 0.306768 0.067225 0.653227
Si Si4 0.733398 0.443816 0.038504
Si Si5 0.310870 0.582533 0.413853
Si Si6 0.970945 0.610536 0.017225
Si Si7 0.285266 0.002469 0.022910
Si Si8 0.164944 0.185456 0.666668
O O1 0.228035 0.398640 0.158197
O O2 0.092995 0.130329 0.598702
O O3 0.000000 0.000000 0.500000
O O4 0.879504 0.099256 0.684316
O O5 0.766832 0.354457 0.955968
O O6 0.704840 0.365783 0.746285
O O7 0.000000 0.500000 0.500000
O O8 0.678417 0.108560 0.949420
O O9 0.235620 0.992464 0.910761
O O10 0.311127 0.210063 0.532773
O O11 0.167819 0.857759 0.772765
O O12 0.522637 0.227801 0.377677
O O13 0.877532 0.590595 0.975126
O O14 0.521248 0.763385 0.201205
O O15 0.256131 0.392816 0.543175
O O16 0.173800 0.526234 0.664589
O O17 0.000000 0.500000 0.000000
O O18 0.000000 0.000000 0.000000
#
# Coordination Sequence:
#
# PCOD8037391 Si02
#       8
#     2   2   2   2   2   2   2   2
#     4  12  27  47  71 107 144 189 245 303 362 431
#     4  12  24  49  73 102 152 191 240 301 364 434
#     4  12  27  47  77 107 149 195 242 302 365 436
#     4  12  27  47  73 111 146 189 244 305 362 427
#     4  12  26  46  74 108 142 197 245 294 366 442
#     4  12  26  45  72 109 150 189 242 300 367 435
#     4  12  26  47  76 107 145 198 240 296 374 433
#     4  12  24  49  74  99 144 195 243 293 367 439
#
# _framework density 21.575727000000001
#
# number of rings (size 3 to 8) (size 9 to 14) (size 15 to 20)
#    0.000    0.000    6.250    3.375    3.500    4.000 
#    0.000    0.000    0.000    0.000    0.000    0.000 
#    0.000    0.000    0.000    0.000    0.000    0.000 
#
# Total GULP energy -198427.955388 kJ/mol
# GULP energy per Si atom -12401.747212 kJ/mol
# Density = 2.152662 g / cm^3
# Si number density = 21.575727 Si / 1000 Ang^3
#
#
#
# Elastic Constant Matrix: (Units=GPa)
#
#
# Indices 1 2 3 4 5 6 
#
# 1 101.3169 38.4807 25.3533 -16.6833 7.5744 7.9977
# 2 38.4807 126.6519 42.9897 -7.6312 -2.8697 6.3199
# 3 25.3533 42.9897 101.0317 -5.5238 -1.0303 8.3638
# 4 -16.6833 -7.6312 -5.5238 35.5390 -2.9341 0.6092
# 5 7.5744 -2.8697 -1.0303 -2.9341 36.7154 -0.6190
# 6 7.9977 6.3199 8.3638 0.6092 -0.6190 46.5386
#
#
#
# Elastic Compliance Matrix: (Units=1/GPa)
#
#
# Indices 1 2 3 4 5 6 
#
# 1 0.012475 -0.002970 -0.001500 0.004807 -0.002490 -0.001567
# 2 -0.002970 0.010039 -0.003477 0.000334 0.001323 -0.000215
# 3 -0.001500 -0.003477 0.011899 0.000455 0.000384 -0.001409
# 4 0.004807 0.000334 0.000455 0.030682 0.001477 -0.001335
# 5 -0.002490 0.001323 0.000384 0.001477 0.027991 0.000532
# 6 -0.001567 -0.000215 -0.001409 -0.001335 0.000532 0.022064
#
#
# Mechanical properties :
#
#
# Convention : Reuss Voigt Hill
#
# Bulk Modulus (GPa) = 53.99543 60.29419 57.14481
# Shear Modulus (GPa) = 36.43910 38.57039 37.50474
#
# Velocity S-wave (km/s) = 4.11407 4.23268 4.17380
# Velocity P-wave (km/s) = 6.90274 7.20371 7.05483
#
# Compressibility (1/GPa) = 0.01852009
#
# Stress axis : x y z
#
# Youngs Moduli (GPa) = 80.16348 99.61227 84.03994
#
# Poissons Ratio (x) = 0.29582 0.12603
# Poissons Ratio (y) = 0.23806 0.29220
# Poissons Ratio (z) = 0.12022 0.34634
#
# Static dielectric constant tensor:
#      x y z
#    x 3.768530 0.571280 0.076250 
#    y 0.571280 3.951360 0.454940 
#    z 0.076250 0.454940 4.025820 
# 
# 
# High freq. dielectric constant tensor:
#      x y z
#    x 1.854850 -0.001100 0.006440 
#    y -0.001100 1.868990 -0.000010 
#    z 0.006440 -0.000010 1.851440 
# 
# From -- ./inp_files/181335.got.cif
#   From: 2010.06.25/outbox.cif.g09.slc.cpg/sg2_91_cif.got.tgz:181335.got - 2010.06.27 13:26:56.
