data_PCOD8037899
_publ_section_title
;
Structure prediction by ZEFSAII (Michael W. Deem and Ramdas Pophale) SiO2 
 PCOD8037899
Probable space group: P -1
;
_chemical_formula_sum "Si O2"
_cell_formula_units_Z 14
_cell_length_a 14.701124
_cell_length_b 8.994753
_cell_length_c 8.633817
_cell_angle_alpha 116.815149
_cell_angle_beta 133.911721
_cell_angle_gamma 64.447448
_cell_volume 721.461469
_symmetry_space_group_name_H-M "P -1"
_symmetry_group_IT_number 2
_symmetry_cell_setting 'triclinic'
loop_
_space_group_symop_operation_xyz
x,y,z
-x,-y,-z
loop_
_atom_site_type_symbol
_atom_site_label
_atom_site_fract_x
_atom_site_fract_y
_atom_site_fract_z
Si Si1 0.437716 0.800331 0.287498
Si Si2 0.576390 0.549928 0.969139
Si Si3 0.577301 0.118171 0.055189
Si Si4 0.972517 0.256062 0.465741
Si Si5 0.705035 0.853660 0.688556
Si Si6 0.839112 0.957612 0.182900
Si Si7 0.174434 0.380893 0.547145
O O1 0.575297 0.778232 0.523785
O O2 0.335795 0.948446 0.319313
O O3 0.387181 0.623188 0.168279
O O4 0.454807 0.858683 0.156022
O O5 0.703962 0.621511 0.198017
O O6 0.500000 0.500000 0.000000
O O7 0.473524 0.698984 0.836299
O O8 0.729348 0.044278 0.216848
O O9 0.500000 0.000000 0.000000
O O10 0.064580 0.304661 0.466575
O O11 0.894648 0.113666 0.243766
O O12 0.874237 0.426650 0.478396
O O13 0.050892 0.176711 0.670065
O O14 0.794003 0.741984 0.618110
O O15 0.781486 0.846624 0.936082
#
# Coordination Sequence:
#
# PCOD8037899 Si02
#       7
#     2   2   2   2   2   2   2
#     4   9  19  33  54  88 114 141 175 222 292 337
#     4  10  17  32  57  86 103 140 182 226 271 335
#     4  10  18  31  59  85 106 139 182 231 275 322
#     4  10  23  39  55  79 109 153 196 221 257 331
#     4  10  19  33  58  83 113 145 176 234 282 326
#     4  10  22  38  54  79 116 147 184 227 277 326
#     4  11  20  35  62  82 106 145 192 230 264 325
#
# _framework density 19.405056999999999
#
# number of rings (size 3 to 8) (size 9 to 14) (size 15 to 20)
#    0.000    2.000    2.857    3.429    0.000    1.143 
#    0.000    0.000    0.000   22.286    0.000    0.000 
#    0.000    0.000    0.000    0.000    0.000    0.000 
#
# Total GULP energy -173457.365021 kJ/mol
# GULP energy per Si atom -12389.811787 kJ/mol
# Density = 1.936089 g / cm^3
# Si number density = 19.405057 Si / 1000 Ang^3
#
#
#
# Elastic Constant Matrix: (Units=GPa)
#
#
# Indices 1 2 3 4 5 6 
#
# 1 64.8809 39.0164 18.9873 6.8544 9.3375 -11.9519
# 2 39.0164 131.4438 23.9510 18.0732 -9.3401 -18.3472
# 3 18.9873 23.9510 76.5313 8.8593 4.3845 -7.6331
# 4 6.8544 18.0732 8.8593 18.5165 -3.8059 1.9036
# 5 9.3375 -9.3401 4.3845 -3.8059 22.2891 5.9943
# 6 -11.9519 -18.3472 -7.6331 1.9036 5.9943 39.5845
#
#
#
# Elastic Compliance Matrix: (Units=1/GPa)
#
#
# Indices 1 2 3 4 5 6 
#
# 1 0.023442 -0.005998 -0.001803 -0.005640 -0.014675 0.006444
# 2 -0.005998 0.011424 -0.001263 -0.007474 0.005529 0.002763
# 3 -0.001803 -0.001263 0.015227 -0.006635 -0.004664 0.002832
# 4 -0.005640 -0.007474 -0.006635 0.071111 0.015983 -0.012286
# 5 -0.014675 0.005529 -0.004664 0.015983 0.060387 -0.012681
# 6 0.006444 0.002763 0.002832 -0.012286 -0.012681 0.031546
#
#
# Mechanical properties :
#
#
# Convention : Reuss Voigt Hill
#
# Bulk Modulus (GPa) = 31.28316 48.52949 39.90632
# Shear Modulus (GPa) = 20.66802 28.80478 24.73640
#
# Velocity S-wave (km/s) = 3.26710 3.85696 3.57422
# Velocity P-wave (km/s) = 5.51254 6.70059 6.13539
#
# Compressibility (1/GPa) = 0.03196608
#
# Stress axis : x y z
#
# Youngs Moduli (GPa) = 42.65841 87.53150 65.67366
#
# Poissons Ratio (x) = 0.52498 0.11838
# Poissons Ratio (y) = 0.25585 0.08297
# Poissons Ratio (z) = 0.07689 0.11059
#
# Static dielectric constant tensor:
#      x y z
#    x 3.383510 -0.391880 0.125900 
#    y -0.391880 4.586460 0.410630 
#    z 0.125900 0.410630 3.178830 
# 
# 
# High freq. dielectric constant tensor:
#      x y z
#    x 1.730890 -0.020130 0.030260 
#    y -0.020130 1.778270 0.009700 
#    z 0.030260 0.009700 1.737320 
# 
# From -- ./inp_files/245839.got.cif
#   From: 2010.06.25/outbox.cif.g09.slc.cpg/sg2_123_cif.got.tgz:245839.got - 2010.06.27 13:26:56.
