data_PCOD8037262
_publ_section_title
;
Structure prediction by ZEFSAII (Michael W. Deem and Ramdas Pophale) SiO2 
 PCOD8037262
Probable space group: P -1
;
_chemical_formula_sum "Si O2"
_cell_formula_units_Z 14
_cell_length_a 9.150970
_cell_length_b 19.924559
_cell_length_c 16.828232
_cell_angle_alpha 160.803851
_cell_angle_beta 45.173954
_cell_angle_gamma 143.825907
_cell_volume 568.840492
_symmetry_space_group_name_H-M "P -1"
_symmetry_group_IT_number 2
_symmetry_cell_setting 'triclinic'
loop_
_space_group_symop_operation_xyz
x,y,z
-x,-y,-z
loop_
_atom_site_type_symbol
_atom_site_label
_atom_site_fract_x
_atom_site_fract_y
_atom_site_fract_z
Si Si1 0.028211 0.120740 0.766123
Si Si2 0.504493 0.840760 0.389117
Si Si3 0.195699 0.800420 0.904428
Si Si4 0.687461 0.565513 0.322872
Si Si5 0.844447 0.264207 0.855423
Si Si6 0.130102 0.154007 0.042762
Si Si7 0.014653 0.689022 0.481792
O O1 0.022848 0.242560 0.822700
O O2 0.337025 0.261045 0.819311
O O3 0.873088 0.810705 0.467504
O O4 0.889648 0.138532 0.914075
O O5 0.202784 0.637724 0.304460
O O6 0.500000 0.000000 0.500000
O O7 0.655576 0.998215 0.585756
O O8 0.119200 0.515661 0.624304
O O9 0.059312 0.806572 0.886058
O O10 0.500000 0.000000 0.000000
O O11 0.791418 0.651171 0.468899
O O12 0.681438 0.321092 0.035013
O O13 0.386372 0.441409 0.286420
O O14 0.000000 0.500000 0.000000
O O15 0.180918 0.981360 0.776481
O O16 0.000000 0.000000 0.000000
#
# Coordination Sequence:
#
# PCOD8037262 Si02
#       7
#     2   2   2   2   2   2   2
#     4  12  27  47  77 113 154 206 250 313 388 450
#     4  12  24  46  74 111 156 196 250 309 383 455
#     4  12  29  51  78 110 150 201 258 316 378 450
#     4  12  25  48  75 106 157 194 255 310 380 451
#     4  12  25  45  71 114 153 200 250 310 376 458
#     4  12  29  48  79 111 145 206 254 313 383 445
#     4  12  26  51  76 111 155 195 250 321 374 459
#
# _framework density 24.611470000000001
#
# number of rings (size 3 to 8) (size 9 to 14) (size 15 to 20)
#    0.000    0.000    7.143    1.286    4.000    2.286 
#    0.000    0.000    0.000    0.000    0.000    0.000 
#    0.000    0.000    0.000    0.000    0.000    0.000 
#
# Total GULP energy -173551.640087 kJ/mol
# GULP energy per Si atom -12396.545720 kJ/mol
# Density = 2.455545 g / cm^3
# Si number density = 24.611470 Si / 1000 Ang^3
#
#
#
# Elastic Constant Matrix: (Units=GPa)
#
#
# Indices 1 2 3 4 5 6 
#
# 1 219.5733 78.1367 27.6641 21.8534 -6.7480 -6.0715
# 2 78.1367 127.8820 28.5088 26.6681 -1.0947 7.7258
# 3 27.6641 28.5088 61.0018 17.0937 6.2344 4.1062
# 4 21.8534 26.6681 17.0937 50.8084 -4.5813 -0.4475
# 5 -6.7480 -1.0947 6.2344 -4.5813 42.3148 9.3450
# 6 -6.0715 7.7258 4.1062 -0.4475 9.3450 48.8388
#
#
#
# Elastic Compliance Matrix: (Units=1/GPa)
#
#
# Indices 1 2 3 4 5 6 
#
# 1 0.006006 -0.003404 -0.001204 -0.000314 0.000739 0.001242
# 2 -0.003404 0.011369 -0.002638 -0.003615 0.000206 -0.002072
# 3 -0.001204 -0.002638 0.020041 -0.005172 -0.003602 -0.000776
# 4 -0.000314 -0.003615 -0.005172 0.023735 0.003056 0.000601
# 5 0.000739 0.000206 -0.003602 0.003056 0.025613 -0.004511
# 6 0.001242 -0.002072 -0.000776 0.000601 -0.004511 0.021892
#
#
# Mechanical properties :
#
#
# Convention : Reuss Voigt Hill
#
# Bulk Modulus (GPa) = 43.62302 75.23070 59.42686
# Shear Modulus (GPa) = 38.22966 46.66891 42.44928
#
# Velocity S-wave (km/s) = 3.94550 4.35929 4.15755
# Velocity P-wave (km/s) = 6.20638 7.48142 6.87353
#
# Compressibility (1/GPa) = 0.02292368
#
# Stress axis : x y z
#
# Youngs Moduli (GPa) = 166.50771 87.96031 49.89745
#
# Poissons Ratio (x) = 0.29946 0.06006
# Poissons Ratio (y) = 0.56688 0.13162
# Poissons Ratio (z) = 0.20043 0.23202
#
# Static dielectric constant tensor:
#      x y z
#    x 4.683030 0.313930 0.149430 
#    y 0.313930 5.308570 0.871070 
#    z 0.149430 0.871070 5.878920 
# 
# 
# High freq. dielectric constant tensor:
#      x y z
#    x 1.991410 0.000530 -0.005440 
#    y 0.000530 1.976020 0.002940 
#    z -0.005440 0.002940 1.985810 
# 
# From -- ./inp_files/562734.got.cif
#   From: 2010.06.25/outbox.cif.g09.slc.cpg/sg2_282_cif.got.tgz:562734.got - 2010.06.27 13:26:56.
