data_PCOD8037374
_publ_section_title
;
Structure prediction by ZEFSAII (Michael W. Deem and Ramdas Pophale) SiO2 
 PCOD8037374
Probable space group: P -1
;
_chemical_formula_sum "Si O2"
_cell_formula_units_Z 14
_cell_length_a 8.838181
_cell_length_b 9.002391
_cell_length_c 13.015915
_cell_angle_alpha 111.792258
_cell_angle_beta 123.786953
_cell_angle_gamma 44.360873
_cell_volume 601.165141
_symmetry_space_group_name_H-M "P -1"
_symmetry_group_IT_number 2
_symmetry_cell_setting 'triclinic'
loop_
_space_group_symop_operation_xyz
x,y,z
-x,-y,-z
loop_
_atom_site_type_symbol
_atom_site_label
_atom_site_fract_x
_atom_site_fract_y
_atom_site_fract_z
Si Si1 0.024213 0.665615 0.009772
Si Si2 0.641207 0.216904 0.666880
Si Si3 0.027424 0.830807 0.393336
Si Si4 0.555918 0.419389 0.161206
Si Si5 0.830272 0.568553 0.549077
Si Si6 0.706220 0.983264 0.134586
Si Si7 0.951265 0.779757 0.792446
O O1 0.294383 0.549008 0.044164
O O2 0.942777 0.833804 0.111991
O O3 0.868077 0.796045 0.882856
O O4 0.000000 0.500000 0.000000
O O5 0.468847 0.437256 0.721348
O O6 0.446871 0.227665 0.531143
O O7 0.807864 0.215500 0.651549
O O8 0.794514 0.013298 0.746256
O O9 0.786349 0.894180 0.260287
O O10 0.148291 0.626398 0.455985
O O11 0.000000 0.000000 0.500000
O O12 0.761870 0.349303 0.140173
O O13 0.624822 0.209808 0.180857
O O14 0.000000 0.500000 0.500000
O O15 0.905888 0.638575 0.686624
O O16 0.500000 0.000000 0.000000
#
# Coordination Sequence:
#
# PCOD8037374 Si02
#       7
#     2   2   2   2   2   2   2
#     4  12  26  47  74 110 149 196 247 304 375 448
#     4  12  26  50  75 109 147 197 253 310 376 446
#     4  12  26  50  81 110 149 203 254 309 378 449
#     4  12  24  48  76 103 154 189 250 299 382 438
#     4  12  26  47  75 109 151 193 252 311 372 445
#     4  12  26  46  77 114 152 192 258 309 369 453
#     4  12  27  47  77 109 151 196 249 309 377 450
#
# _framework density 23.288111000000001
#
# number of rings (size 3 to 8) (size 9 to 14) (size 15 to 20)
#    0.000    0.000    5.714    3.857    0.000    5.714 
#    0.000    0.000    0.000    0.000    0.000    0.000 
#    0.000    0.000    0.000    0.000    0.000    0.000 
#
# Total GULP energy -173495.430627 kJ/mol
# GULP energy per Si atom -12392.530759 kJ/mol
# Density = 2.323511 g / cm^3
# Si number density = 23.288111 Si / 1000 Ang^3
#
#
#
# Elastic Constant Matrix: (Units=GPa)
#
#
# Indices 1 2 3 4 5 6 
#
# 1 97.2302 53.9108 57.2228 -20.6364 -1.6879 14.8873
# 2 53.9108 149.3911 50.7705 0.5972 -11.2732 9.0535
# 3 57.2228 50.7705 152.3755 -10.9382 -4.9315 3.2594
# 4 -20.6364 0.5972 -10.9382 42.7165 0.9530 0.9926
# 5 -1.6879 -11.2732 -4.9315 0.9530 48.1545 -8.3880
# 6 14.8873 9.0535 3.2594 0.9926 -8.3880 36.9970
#
#
#
# Elastic Compliance Matrix: (Units=1/GPa)
#
#
# Indices 1 2 3 4 5 6 
#
# 1 0.018350 -0.004854 -0.004637 0.007947 -0.002260 -0.006513
# 2 -0.004854 0.009035 -0.001339 -0.002866 0.001930 0.000374
# 3 -0.004637 -0.001339 0.008736 -0.000037 0.000695 0.001583
# 4 0.007947 -0.002866 -0.000037 0.027398 -0.001562 -0.003583
# 5 -0.002260 0.001930 0.000695 -0.001562 0.022190 0.005449
# 6 -0.006513 0.000374 0.001583 -0.003583 0.005449 0.030750
#
#
# Mechanical properties :
#
#
# Convention : Reuss Voigt Hill
#
# Bulk Modulus (GPa) = 69.14872 80.31165 74.73019
# Shear Modulus (GPa) = 34.97979 41.37978 38.17978
#
# Velocity S-wave (km/s) = 3.87983 4.21986 4.05341
# Velocity P-wave (km/s) = 7.05889 7.63570 7.35295
#
# Compressibility (1/GPa) = 0.01446158
#
# Stress axis : x y z
#
# Youngs Moduli (GPa) = 54.49628 110.68384 114.46481
#
# Poissons Ratio (x) = 0.53721 0.53080
# Poissons Ratio (y) = 0.26450 0.15326
# Poissons Ratio (z) = 0.25271 0.14819
#
# Static dielectric constant tensor:
#      x y z
#    x 4.240770 -0.213800 0.297580 
#    y -0.213800 4.358320 -0.255730 
#    z 0.297580 -0.255730 4.798770 
# 
# 
# High freq. dielectric constant tensor:
#      x y z
#    x 1.917780 -0.003480 0.009010 
#    y -0.003480 1.929820 -0.001960 
#    z 0.009010 -0.001960 1.945980 
# 
# From -- ./inp_files/369312.got.cif
#   From: 2010.06.25/outbox.cif.g09.slc.cpg/sg2_185_cif.got.tgz:369312.got - 2010.06.27 13:26:56.
