data_PCOD8037021
_publ_section_title
;
Structure prediction by ZEFSAII (Michael W. Deem and Ramdas Pophale) SiO2 
 PCOD8037021
Probable space group: P -1
;
_chemical_formula_sum "Si O2"
_cell_formula_units_Z 16
_cell_length_a 8.561033
_cell_length_b 8.712261
_cell_length_c 12.552717
_cell_angle_alpha 54.044180
_cell_angle_beta 63.434824
_cell_angle_gamma 67.099507
_cell_volume 667.425866
_symmetry_space_group_name_H-M "P -1"
_symmetry_group_IT_number 2
_symmetry_cell_setting 'triclinic'
loop_
_space_group_symop_operation_xyz
x,y,z
-x,-y,-z
loop_
_atom_site_type_symbol
_atom_site_label
_atom_site_fract_x
_atom_site_fract_y
_atom_site_fract_z
Si Si1 0.260330 0.288550 0.085778
Si Si2 0.036269 0.649516 0.518974
Si Si3 0.105928 0.107916 0.842390
Si Si4 0.506038 0.614205 0.204997
Si Si5 0.677936 0.290820 0.440635
Si Si6 0.050147 0.941299 0.710936
Si Si7 0.814253 0.474854 0.793385
Si Si8 0.509094 0.080912 0.753831
O O1 0.213030 0.484135 0.089821
O O2 0.087497 0.195096 0.160126
O O3 0.413571 0.143940 0.160995
O O4 0.320429 0.351161 0.926574
O O5 0.219183 0.590824 0.554957
O O6 0.000000 0.500000 0.500000
O O7 0.866589 0.665192 0.643862
O O8 0.053471 0.858867 0.385603
O O9 0.298391 0.124329 0.820507
O O10 0.985797 0.315567 0.777392
O O11 0.147095 0.987159 0.770250
O O12 0.000000 0.000000 0.000000
O O13 0.549828 0.442292 0.346071
O O14 0.364458 0.575582 0.177735
O O15 0.416010 0.802924 0.220352
O O16 0.812424 0.156416 0.377994
O O17 0.559885 0.156368 0.592544
#
# Coordination Sequence:
#
# PCOD8037021 Si02
#       8
#     2   2   2   2   2   2   2   2
#     4  12  26  50  78 106 155 199 248 308 378 450
#     4  12  23  47  74 105 145 200 247 302 374 446
#     4  12  28  48  76 110 151 198 253 308 376 450
#     4  12  28  46  77 112 151 195 250 313 372 441
#     4  12  27  47  74 115 147 194 257 312 367 445
#     4  12  26  46  77 107 152 199 248 308 384 441
#     4  12  26  47  76 109 151 197 249 307 382 442
#     4  12  26  49  74 108 151 196 253 309 372 446
#
# _framework density 23.9727
#
# number of rings (size 3 to 8) (size 9 to 14) (size 15 to 20)
#    0.000    0.000    3.750    6.000    5.250    1.000 
#    0.000    0.000    0.000    0.000    0.000    0.000 
#    0.000    0.000    0.000    0.000    0.000    0.000 
#
# Total GULP energy -198443.740374 kJ/mol
# GULP energy per Si atom -12402.733773 kJ/mol
# Density = 2.391814 g / cm^3
# Si number density = 23.972700 Si / 1000 Ang^3
#
#
#
# Elastic Constant Matrix: (Units=GPa)
#
#
# Indices 1 2 3 4 5 6 
#
# 1 63.3066 35.8990 4.2901 -0.8389 -5.7706 1.3884
# 2 35.8990 93.1318 8.9260 17.9123 4.5150 10.4598
# 3 4.2901 8.9260 134.4369 11.0956 -15.0946 0.3927
# 4 -0.8389 17.9123 11.0956 37.2447 0.4018 -1.7725
# 5 -5.7706 4.5150 -15.0946 0.4018 41.5763 4.9600
# 6 1.3884 10.4598 0.3927 -1.7725 4.9600 28.7164
#
#
#
# Elastic Compliance Matrix: (Units=1/GPa)
#
#
# Indices 1 2 3 4 5 6 
#
# 1 0.021731 -0.009818 -0.000065 0.005295 0.003745 0.002206
# 2 -0.009818 0.016971 -0.000383 -0.008517 -0.002572 -0.005783
# 3 -0.000065 -0.000383 0.007995 -0.002262 0.003032 -0.000630
# 4 0.005295 -0.008517 -0.002262 0.031970 -0.000050 0.004859
# 5 0.003745 -0.002572 0.003032 -0.000050 0.026412 -0.003851
# 6 0.002206 -0.005783 -0.000630 0.004859 -0.003851 0.037797
#
#
# Mechanical properties :
#
#
# Convention : Reuss Voigt Hill
#
# Bulk Modulus (GPa) = 38.21711 43.23394 40.72553
# Shear Modulus (GPa) = 29.04805 37.62484 33.33644
#
# Velocity S-wave (km/s) = 3.48474 3.96597 3.73312
# Velocity P-wave (km/s) = 5.67167 6.24866 5.96714
#
# Compressibility (1/GPa) = 0.02616629
#
# Stress axis : x y z
#
# Youngs Moduli (GPa) = 46.01677 58.92437 125.08000
#
# Poissons Ratio (x) = 0.57853 0.00809
# Poissons Ratio (y) = 0.45180 0.04784
# Poissons Ratio (z) = 0.00297 0.02254
#
# Static dielectric constant tensor:
#      x y z
#    x 4.234190 0.140540 -0.005070 
#    y 0.140540 4.520040 -0.028150 
#    z -0.005070 -0.028150 4.745530 
# 
# 
# High freq. dielectric constant tensor:
#      x y z
#    x 1.948800 0.009550 -0.007580 
#    y 0.009550 1.951790 0.008140 
#    z -0.007580 0.008140 1.976330 
# 
# From -- ./inp_files/381248.got.cif
#   From: 2010.06.25/outbox.cif.g09.slc.cpg/sg2_191_cif.got.tgz:381248.got - 2010.06.27 13:26:56.
