data_PCOD8037818
_publ_section_title
;
Structure prediction by ZEFSAII (Michael W. Deem and Ramdas Pophale) SiO2 
 PCOD8037818
Probable space group: P -1
;
_chemical_formula_sum "Si O2"
_cell_formula_units_Z 10
_cell_length_a 11.132240
_cell_length_b 10.381110
_cell_length_c 12.210330
_cell_angle_alpha 39.069288
_cell_angle_beta 146.154185
_cell_angle_gamma 154.646640
_cell_volume 334.549157
_symmetry_space_group_name_H-M "P -1"
_symmetry_group_IT_number 2
_symmetry_cell_setting 'triclinic'
loop_
_space_group_symop_operation_xyz
x,y,z
-x,-y,-z
loop_
_atom_site_type_symbol
_atom_site_label
_atom_site_fract_x
_atom_site_fract_y
_atom_site_fract_z
Si Si1 0.133365 0.295676 0.838603
Si Si2 0.743421 0.012595 0.119878
Si Si3 0.118202 0.502229 0.902154
Si Si4 0.489020 0.751026 0.635559
Si Si5 0.270568 0.389100 0.497702
O O1 0.168480 0.445725 0.652765
O O2 0.979763 0.331232 0.794236
O O3 0.500000 0.500000 0.000000
O O4 0.847351 0.924331 0.843384
O O5 0.878228 0.925533 0.357715
O O6 0.502061 0.736731 0.031059
O O7 0.500000 0.000000 0.000000
O O8 0.019943 0.313755 0.062387
O O9 0.016091 0.670094 0.729753
O O10 0.473913 0.667403 0.554184
O O11 0.500000 0.000000 0.500000
O O12 0.500000 0.500000 0.500000
#
# Coordination Sequence:
#
# PCOD8037818 Si02
#       5
#     2   2   2   2   2
#     4  12  27  52  82 117 165 214 273 350 416 487
#     4  12  28  52  79 122 165 213 282 337 413 511
#     4  12  28  53  82 120 165 215 278 346 415 493
#     4  12  27  52  80 117 164 213 280 335 412 505
#     4  12  29  52  86 119 166 225 273 345 422 484
#
# _framework density 29.890969999999999
#
# number of rings (size 3 to 8) (size 9 to 14) (size 15 to 20)
#    0.000    0.000    4.000    4.200    0.000    7.200 
#    0.000    0.000    0.000    0.000    0.000    0.000 
#    0.000    0.000    0.000    0.000    0.000    0.000 
#
# Total GULP energy -123969.207463 kJ/mol
# GULP energy per Si atom -12396.920746 kJ/mol
# Density = 2.982294 g / cm^3
# Si number density = 29.890970 Si / 1000 Ang^3
#
#
#
# Elastic Constant Matrix: (Units=GPa)
#
#
# Indices 1 2 3 4 5 6 
#
# 1 159.6199 19.6824 56.1818 -33.6360 -14.7320 5.6052
# 2 19.6824 149.9466 40.8259 -25.8827 -0.7968 18.8093
# 3 56.1818 40.8259 175.0810 -15.6049 15.3611 10.1112
# 4 -33.6360 -25.8827 -15.6049 57.6676 5.6884 8.0610
# 5 -14.7320 -0.7968 15.3611 5.6884 45.8886 2.9902
# 6 5.6052 18.8093 10.1112 8.0610 2.9902 27.3761
#
#
#
# Elastic Compliance Matrix: (Units=1/GPa)
#
#
# Indices 1 2 3 4 5 6 
#
# 1 0.008477 0.000811 -0.002594 0.004719 0.003219 -0.003076
# 2 0.000811 0.008717 -0.001513 0.004895 0.000776 -0.007122
# 3 -0.002594 -0.001513 0.007248 0.000204 -0.003257 -0.000810
# 4 0.004719 0.004895 0.000204 0.024008 -0.000702 -0.011397
# 5 0.003219 0.000776 -0.003257 -0.000702 0.024174 -0.002423
# 6 -0.003076 -0.007122 -0.000810 -0.011397 -0.002423 0.045971
#
#
# Mechanical properties :
#
#
# Convention : Reuss Voigt Hill
#
# Bulk Modulus (GPa) = 56.02199 79.78088 67.90143
# Shear Modulus (GPa) = 38.12792 50.71696 44.42244
#
# Velocity S-wave (km/s) = 3.57538 4.12361 3.85924
# Velocity P-wave (km/s) = 5.98559 7.02999 6.52871
#
# Compressibility (1/GPa) = 0.01785013
#
# Stress axis : x y z
#
# Youngs Moduli (GPa) = 117.96124 114.71655 137.97789
#
# Poissons Ratio (x) = -0.09303 0.35786
# Poissons Ratio (y) = -0.09566 0.20881
# Poissons Ratio (z) = 0.30594 0.17361
#
# Static dielectric constant tensor:
#      x y z
#    x 6.076820 -0.015080 -0.525300 
#    y -0.015080 7.217540 0.199810 
#    z -0.525300 0.199810 6.933990 
# 
# 
# High freq. dielectric constant tensor:
#      x y z
#    x 2.246190 -0.017660 -0.004880 
#    y -0.017660 2.237920 0.014810 
#    z -0.004880 0.014810 2.248610 
# 
# From -- ./inp_files/164533.got.cif
#   From: 2010.06.25/outbox.cif.g09.slc.cpg/sg2_83_cif.got.tgz:164533.got - 2010.06.27 13:26:56.
