data_PCOD8037866
_publ_section_title
;
Structure prediction by ZEFSAII (Michael W. Deem and Ramdas Pophale) SiO2 
 PCOD8037866
Probable space group: P -1
;
_chemical_formula_sum "Si O2"
_cell_formula_units_Z 16
_cell_length_a 19.015017
_cell_length_b 14.429163
_cell_length_c 11.376115
_cell_angle_alpha 152.106983
_cell_angle_beta 136.009639
_cell_angle_gamma 34.018972
_cell_volume 815.910499
_symmetry_space_group_name_H-M "P -1"
_symmetry_group_IT_number 2
_symmetry_cell_setting 'triclinic'
loop_
_space_group_symop_operation_xyz
x,y,z
-x,-y,-z
loop_
_atom_site_type_symbol
_atom_site_label
_atom_site_fract_x
_atom_site_fract_y
_atom_site_fract_z
Si Si1 0.376450 0.803207 0.561066
Si Si2 0.405583 0.740631 0.789123
Si Si3 0.380954 0.179031 0.856738
Si Si4 0.053960 0.982997 0.917986
Si Si5 0.265804 0.487433 0.691388
Si Si6 0.790259 0.314654 0.888786
Si Si7 0.462642 0.858141 0.375380
Si Si8 0.257984 0.029659 0.155814
O O1 0.341587 0.799064 0.649843
O O2 0.515122 0.552027 0.418126
O O3 0.275230 0.816193 0.368984
O O4 0.371903 0.047267 0.811984
O O5 0.497659 0.822801 0.994688
O O6 0.293734 0.898138 0.924448
O O7 0.391194 0.010106 0.575106
O O8 0.256582 0.459069 0.003676
O O9 0.940871 0.104996 0.824181
O O10 0.167052 0.694541 0.711488
O O11 0.121249 0.117607 0.135112
O O12 0.000000 0.000000 0.000000
O O13 0.405452 0.402803 0.728732
O O14 0.250562 0.272834 0.417148
O O15 0.242885 0.580847 0.902248
O O16 0.366117 0.833010 0.157694
O O17 0.500000 0.000000 0.500000
#
# Coordination Sequence:
#
# PCOD8037866 Si02
#       8
#     2   2   2   2   2   2   2   2
#     4  10  23  36  61  85 116 156 184 240 281 340
#     4  10  21  40  56  90 119 142 196 231 291 345
#     4  11  19  35  62  85 116 149 181 236 292 344
#     4  10  25  37  54  85 117 158 196 228 279 345
#     4  10  20  37  56  86 120 147 184 236 290 353
#     4  10  21  39  53  82 118 152 198 229 276 343
#     4  10  17  32  55  91 114 136 176 233 299 342
#     4  11  21  37  59  84 119 153 179 245 289 334
#
# _framework density 19.609994
#
# number of rings (size 3 to 8) (size 9 to 14) (size 15 to 20)
#    0.000    1.750    5.000    1.125    5.250    3.500 
#    0.000    0.625    0.000    1.500    0.000    0.000 
#    0.000    0.000    0.000    0.000    0.000    0.000 
#
# Total GULP energy -198293.432059 kJ/mol
# GULP energy per Si atom -12393.339504 kJ/mol
# Density = 1.956536 g / cm^3
# Si number density = 19.609994 Si / 1000 Ang^3
#
#
#
# Elastic Constant Matrix: (Units=GPa)
#
#
# Indices 1 2 3 4 5 6 
#
# 1 44.7241 30.3407 11.4228 -7.2440 -0.2049 -3.7960
# 2 30.3407 120.4806 20.4417 11.1078 7.8757 -9.1225
# 3 11.4228 20.4417 56.8278 2.7470 -6.0767 8.8451
# 4 -7.2440 11.1078 2.7470 23.7921 7.6457 3.6342
# 5 -0.2049 7.8757 -6.0767 7.6457 29.3749 3.3575
# 6 -3.7960 -9.1225 8.8451 3.6342 3.3575 24.1687
#
#
#
# Elastic Compliance Matrix: (Units=1/GPa)
#
#
# Indices 1 2 3 4 5 6 
#
# 1 0.031610 -0.008219 -0.004637 0.014543 -0.002517 0.001722
# 2 -0.008219 0.012392 -0.003707 -0.007924 -0.002807 0.006324
# 3 -0.004637 -0.003707 0.022542 -0.003075 0.007680 -0.010982
# 4 0.014543 -0.007924 -0.003075 0.055354 -0.012106 -0.006223
# 5 -0.002517 -0.002807 0.007680 -0.012106 0.040439 -0.008063
# 6 0.001722 0.006324 -0.010982 -0.006223 -0.008063 0.050109
#
#
# Mechanical properties :
#
#
# Convention : Reuss Voigt Hill
#
# Bulk Modulus (GPa) = 29.92565 38.49367 34.20966
# Shear Modulus (GPa) = 19.47713 26.12229 22.79971
#
# Velocity S-wave (km/s) = 3.15497 3.65374 3.41348
# Velocity P-wave (km/s) = 5.34465 6.12144 5.74618
#
# Compressibility (1/GPa) = 0.03341615
#
# Stress axis : x y z
#
# Youngs Moduli (GPa) = 31.63564 80.69832 44.36211
#
# Poissons Ratio (x) = 0.66329 0.20573
# Poissons Ratio (y) = 0.26002 0.16444
# Poissons Ratio (z) = 0.14671 0.29914
#
# Static dielectric constant tensor:
#      x y z
#    x 1.663660 -0.037020 -0.342640 
#    y -0.037020 4.276970 0.144780 
#    z -0.342640 0.144780 3.493990 
# 
# 
# High freq. dielectric constant tensor:
#      x y z
#    x 1.738880 0.006850 0.014160 
#    y 0.006850 1.767130 0.006820 
#    z 0.014160 0.006820 1.757860 
# 
# From -- ./inp_files/425996.got.cif
#   From: 2010.06.25/outbox.cif.g09.slc.cpg/sg2_213_cif.got.tgz:425996.got - 2010.06.27 13:26:56.
