data_PCOD8037578
_publ_section_title
;
Structure prediction by ZEFSAII (Michael W. Deem and Ramdas Pophale) SiO2 
 PCOD8037578
Probable space group: P -1
;
_chemical_formula_sum "Si O2"
_cell_formula_units_Z 16
_cell_length_a 17.620872
_cell_length_b 5.615229
_cell_length_c 18.259529
_cell_angle_alpha 48.704757
_cell_angle_beta 150.437164
_cell_angle_gamma 119.698992
_cell_volume 654.490899
_symmetry_space_group_name_H-M "P -1"
_symmetry_group_IT_number 2
_symmetry_cell_setting 'triclinic'
loop_
_space_group_symop_operation_xyz
x,y,z
-x,-y,-z
loop_
_atom_site_type_symbol
_atom_site_label
_atom_site_fract_x
_atom_site_fract_y
_atom_site_fract_z
Si Si1 0.100067 0.251378 0.006490
Si Si2 0.338115 0.231488 0.338751
Si Si3 0.730919 0.814582 0.363553
Si Si4 0.726594 0.086082 0.152415
Si Si5 0.370287 0.913460 0.205103
Si Si6 0.585428 0.807323 0.954534
Si Si7 0.681094 0.147313 0.462636
Si Si8 0.037413 0.178574 0.322213
O O1 0.206251 0.325154 0.147246
O O2 0.213071 0.138006 0.056843
O O3 0.980174 0.560470 0.811062
O O4 0.000000 0.000000 0.000000
O O5 0.387360 0.569020 0.329236
O O6 0.500000 0.000000 0.500000
O O7 0.261833 0.065907 0.373861
O O8 0.635518 0.531708 0.358925
O O9 0.892599 0.717664 0.564276
O O10 0.778732 0.845103 0.313045
O O11 0.605970 0.140413 0.218694
O O12 0.652640 0.443614 0.052575
O O13 0.875405 0.080806 0.225881
O O14 0.617188 0.910975 0.044146
O O15 0.526515 0.043239 0.325549
O O16 0.351518 0.934689 0.097069
O O17 0.827014 0.109799 0.536554
#
# Coordination Sequence:
#
# PCOD8037578 Si02
#       8
#     2   2   2   2   2   2   2   2
#     4  12  27  46  74 111 151 198 253 315 392 457
#     4  12  26  44  77 109 149 200 258 318 387 464
#     4  12  28  49  78 110 155 204 260 320 389 465
#     4  12  29  50  81 116 155 205 263 329 390 457
#     4  12  25  47  78 105 153 199 257 319 384 467
#     4  12  26  50  82 115 150 202 267 322 386 464
#     4  12  27  46  76 113 152 206 262 315 389 467
#     4  12  28  47  73 111 160 202 254 320 393 467
#
# _framework density 24.446482
#
# number of rings (size 3 to 8) (size 9 to 14) (size 15 to 20)
#    0.000    0.000    3.750    5.250    5.250    4.500 
#    0.000    0.000    0.000    0.000    0.000    0.000 
#    0.000    0.000    0.000    0.000    0.000    0.000 
#
# Total GULP energy -198274.473767 kJ/mol
# GULP energy per Si atom -12392.154610 kJ/mol
# Density = 2.439084 g / cm^3
# Si number density = 24.446482 Si / 1000 Ang^3
#
#
#
# Elastic Constant Matrix: (Units=GPa)
#
#
# Indices 1 2 3 4 5 6 
#
# 1 109.8500 12.2522 32.4636 -9.8799 -17.3565 8.4615
# 2 12.2522 86.0865 28.0656 -1.4096 -4.7236 3.4005
# 3 32.4636 28.0656 132.0983 10.6723 -16.1596 0.3742
# 4 -9.8799 -1.4096 10.6723 24.3660 0.1010 -5.0362
# 5 -17.3565 -4.7236 -16.1596 0.1010 58.5957 -5.6083
# 6 8.4615 3.4005 0.3742 -5.0362 -5.6083 44.8086
#
#
#
# Elastic Compliance Matrix: (Units=1/GPa)
#
#
# Indices 1 2 3 4 5 6 
#
# 1 0.010891 -0.000399 -0.002737 0.005352 0.002323 -0.001111
# 2 -0.000399 0.012610 -0.002699 0.001612 0.000088 -0.000667
# 3 -0.002737 -0.002699 0.009445 -0.005360 0.001609 0.000242
# 4 0.005352 0.001612 -0.005360 0.046520 0.000560 0.004210
# 5 0.002323 0.000088 0.001609 0.000560 0.018386 0.001905
# 6 -0.001111 -0.000667 0.000242 0.004210 0.001905 0.023287
#
#
# Mechanical properties :
#
#
# Convention : Reuss Voigt Hill
#
# Bulk Modulus (GPa) = 46.99775 52.62196 49.80985
# Shear Modulus (GPa) = 35.73961 42.57096 39.15529
#
# Velocity S-wave (km/s) = 3.82770 4.17753 4.00643
# Velocity P-wave (km/s) = 6.22909 6.69635 6.46694
#
# Compressibility (1/GPa) = 0.02127762
#
# Stress axis : x y z
#
# Youngs Moduli (GPa) = 91.82187 79.29977 105.87376
#
# Poissons Ratio (x) = 0.03162 0.28975
# Poissons Ratio (y) = 0.03662 0.28573
# Poissons Ratio (z) = 0.25129 0.21401
#
# Static dielectric constant tensor:
#      x y z
#    x 4.826680 -0.059690 -0.222110 
#    y -0.059690 3.744890 0.201010 
#    z -0.222110 0.201010 4.470830 
# 
# 
# High freq. dielectric constant tensor:
#      x y z
#    x 1.995970 0.009110 -0.008080 
#    y 0.009110 1.960710 -0.005470 
#    z -0.008080 -0.005470 1.985990 
# 
# From -- ./inp_files/106632.got.cif
#   From: 2010.06.25/outbox.cif.g09.slc.cpg/sg2_54_cif.got.tgz:106632.got - 2010.06.27 13:26:56.
