data_PCOD8037942
_publ_section_title
;
Structure prediction by ZEFSAII (Michael W. Deem and Ramdas Pophale) SiO2 
 PCOD8037942
Probable space group: P -1
;
_chemical_formula_sum "Si O2"
_cell_formula_units_Z 16
_cell_length_a 13.512799
_cell_length_b 11.472246
_cell_length_c 9.658736
_cell_angle_alpha 98.554457
_cell_angle_beta 76.102101
_cell_angle_gamma 32.207373
_cell_volume 567.783567
_symmetry_space_group_name_H-M "P -1"
_symmetry_group_IT_number 2
_symmetry_cell_setting 'triclinic'
loop_
_space_group_symop_operation_xyz
x,y,z
-x,-y,-z
loop_
_atom_site_type_symbol
_atom_site_label
_atom_site_fract_x
_atom_site_fract_y
_atom_site_fract_z
Si Si1 0.733673 0.319100 0.218000
Si Si2 0.182153 0.535302 0.910101
Si Si3 0.898420 0.985988 0.320435
Si Si4 0.616217 0.919214 0.790568
Si Si5 0.425379 0.499906 0.155941
Si Si6 0.343637 0.977501 0.914484
Si Si7 0.586909 0.101799 0.437480
Si Si8 0.855909 0.599781 0.364479
O O1 0.697802 0.498377 0.247869
O O2 0.486517 0.512964 0.271996
O O3 0.762390 0.249854 0.356453
O O4 0.000000 0.000000 0.000000
O O5 0.403549 0.236785 0.868862
O O6 0.018890 0.785481 0.116442
O O7 0.972360 0.668131 0.930019
O O8 0.123950 0.783610 0.314515
O O9 0.677134 0.132450 0.482385
O O10 0.490276 0.939091 0.916207
O O11 0.755089 0.718855 0.575154
O O12 0.833239 0.756305 0.785427
O O13 0.595690 0.200092 0.042480
O O14 0.500000 0.500000 0.000000
O O15 0.457629 0.830809 0.697699
O O16 0.819318 0.761520 0.323073
O O17 0.328115 0.309327 0.626568
#
# Coordination Sequence:
#
# PCOD8037942 Si02
#       8
#     2   2   2   2   2   2   2   2
#     4  10  17  33  51  77 114 145 169 214 261 325
#     4  10  18  33  51  78 119 140 163 221 279 317
#     4  10  19  32  56  84 107 142 173 220 271 323
#     4  10  20  34  54  80 105 141 188 219 263 323
#     4  12  18  30  55  81 113 145 179 200 263 338
#     4  10  19  32  52  84 109 141 171 222 271 322
#     4   9  17  35  56  74 104 138 183 225 268 306
#     4   9  19  35  55  74  99 147 189 221 260 313
#
# _framework density 28.179753000000002
#
# number of rings (size 3 to 8) (size 9 to 14) (size 15 to 20)
#    0.000    2.000    6.250    1.125    0.000    0.000 
#    0.000    9.375    0.000    1.500    0.000    0.000 
#    0.000    0.000    0.000    0.000    0.000    0.000 
#
# Total GULP energy -198459.189983 kJ/mol
# GULP energy per Si atom -12403.699374 kJ/mol
# Density = 2.811561 g / cm^3
# Si number density = 28.179753 Si / 1000 Ang^3
#
#
#
# Elastic Constant Matrix: (Units=GPa)
#
#
# Indices 1 2 3 4 5 6 
#
# 1 203.8714 83.5126 20.7299 5.6366 -35.9548 -5.2713
# 2 83.5126 196.8575 29.4413 10.0761 -29.4709 19.9482
# 3 20.7299 29.4413 100.6488 -3.6962 -28.3352 0.6453
# 4 5.6366 10.0761 -3.6962 26.2967 -7.2412 -18.7847
# 5 -35.9548 -29.4709 -28.3352 -7.2412 44.3009 1.8682
# 6 -5.2713 19.9482 0.6453 -18.7847 1.8682 68.4021
#
#
#
# Elastic Compliance Matrix: (Units=1/GPa)
#
#
# Indices 1 2 3 4 5 6 
#
# 1 0.006637 -0.002535 0.000678 0.002064 0.004400 0.001691
# 2 -0.002535 0.007138 -0.001370 -0.004591 0.001214 -0.003558
# 3 0.000678 -0.001370 0.012859 0.005796 0.008741 0.001684
# 4 0.002064 -0.004591 0.005796 0.054608 0.010573 0.016151
# 5 0.004400 0.001214 0.008741 0.010573 0.034191 0.001872
# 6 0.001691 -0.003558 0.001684 0.016151 0.001872 0.020156
#
#
# Mechanical properties :
#
#
# Convention : Reuss Voigt Hill
#
# Bulk Modulus (GPa) = 49.55283 85.41615 67.48449
# Shear Modulus (GPa) = 33.60889 52.31285 42.96087
#
# Velocity S-wave (km/s) = 3.45724 4.31327 3.90876
# Velocity P-wave (km/s) = 5.79305 7.42851 6.66116
#
# Compressibility (1/GPa) = 0.02018048
#
# Stress axis : x y z
#
# Youngs Moduli (GPa) = 150.66207 140.10354 77.76481
#
# Poissons Ratio (x) = 0.35523 -0.05275
# Poissons Ratio (y) = 0.38200 0.10651
# Poissons Ratio (z) = -0.10219 0.19190
#
# Static dielectric constant tensor:
#      x y z
#    x 6.122650 -0.168900 -0.598130 
#    y -0.168900 5.362260 0.012670 
#    z -0.598130 0.012670 5.884990 
# 
# 
# High freq. dielectric constant tensor:
#      x y z
#    x 2.180130 -0.006940 0.005870 
#    y -0.006940 2.133880 -0.003020 
#    z 0.005870 -0.003020 2.203120 
# 
# From -- ./inp_files/531123.got.cif
#   From: 2010.06.25/outbox.cif.g09.slc.cpg/sg2_266_cif.got.tgz:531123.got - 2010.06.27 13:26:56.
