data_PCOD8037302
_publ_section_title
;
Structure prediction by ZEFSAII (Michael W. Deem and Ramdas Pophale) SiO2 
 PCOD8037302
Probable space group: P -1
;
_chemical_formula_sum "Si O2"
_cell_formula_units_Z 16
_cell_length_a 8.723536
_cell_length_b 21.392980
_cell_length_c 7.864303
_cell_angle_alpha 58.576393
_cell_angle_beta 121.526932
_cell_angle_gamma 148.732610
_cell_volume 640.071115
_symmetry_space_group_name_H-M "P -1"
_symmetry_group_IT_number 2
_symmetry_cell_setting 'triclinic'
loop_
_space_group_symop_operation_xyz
x,y,z
-x,-y,-z
loop_
_atom_site_type_symbol
_atom_site_label
_atom_site_fract_x
_atom_site_fract_y
_atom_site_fract_z
Si Si1 0.094171 0.357661 0.188617
Si Si2 0.453255 0.139632 0.979903
Si Si3 0.697750 0.750083 0.194707
Si Si4 0.311083 0.582039 0.905757
Si Si5 0.078675 0.641853 0.584939
Si Si6 0.641507 0.049263 0.695136
Si Si7 0.597296 0.412817 0.420410
Si Si8 0.645934 0.903006 0.401492
O O1 0.331294 0.375156 0.247208
O O2 0.101811 0.360562 0.395903
O O3 0.173692 0.458003 0.996419
O O4 0.779649 0.230504 0.112870
O O5 0.296730 0.159059 0.951104
O O6 0.442441 0.151468 0.758288
O O7 0.297143 0.010906 0.105040
O O8 0.480491 0.660873 0.354635
O O9 0.014413 0.812792 0.320724
O O10 0.592670 0.679370 0.056818
O O11 0.087078 0.576705 0.822906
O O12 0.352604 0.619793 0.673339
O O13 0.417834 0.782966 0.557812
O O14 0.885094 0.558611 0.423580
O O15 0.433674 0.036373 0.704851
O O16 0.500000 0.000000 0.500000
O O17 0.000000 0.000000 0.500000
#
# Coordination Sequence:
#
# PCOD8037302 Si02
#       8
#     2   2   2   2   2   2   2   2
#     4  12  25  46  75 112 154 195 250 311 378 457
#     4  12  26  48  74 107 153 201 253 311 376 447
#     4  12  26  48  78 111 157 200 252 312 379 455
#     4  12  26  44  75 111 152 198 249 302 388 448
#     4  12  24  47  73 105 153 199 243 309 385 448
#     4  12  28  50  77 107 150 201 256 316 383 443
#     4  12  26  45  75 114 157 194 250 312 381 457
#     4  12  29  49  77 111 148 198 260 317 378 452
#
# _framework density 24.997222000000001
#
# number of rings (size 3 to 8) (size 9 to 14) (size 15 to 20)
#    0.000    0.000    2.500    7.500    5.250    1.000 
#    0.000    0.000    0.000    0.000    0.000    0.000 
#    0.000    0.000    0.000    0.000    0.000    0.000 
#
# Total GULP energy -198288.980139 kJ/mol
# GULP energy per Si atom -12393.061259 kJ/mol
# Density = 2.494033 g / cm^3
# Si number density = 24.997222 Si / 1000 Ang^3
#
#
#
# Elastic Constant Matrix: (Units=GPa)
#
#
# Indices 1 2 3 4 5 6 
#
# 1 80.0342 43.9308 16.5433 10.1655 5.8705 10.5931
# 2 43.9308 92.9181 20.3493 27.8988 3.7677 -2.1140
# 3 16.5433 20.3493 83.7396 16.2111 -7.9171 -5.6229
# 4 10.1655 27.8988 16.2111 58.2233 -13.7498 9.0040
# 5 5.8705 3.7677 -7.9171 -13.7498 46.4613 15.3516
# 6 10.5931 -2.1140 -5.6229 9.0040 15.3516 37.1430
#
#
#
# Elastic Compliance Matrix: (Units=1/GPa)
#
#
# Indices 1 2 3 4 5 6 
#
# 1 0.018763 -0.009680 -0.002429 0.003647 0.001672 -0.007845
# 2 -0.009680 0.018975 -0.000764 -0.010036 -0.006313 0.008767
# 3 -0.002429 -0.000764 0.013529 -0.003335 0.000613 0.003253
# 4 0.003647 -0.010036 -0.003335 0.027375 0.012483 -0.013911
# 5 0.001672 -0.006313 0.000613 0.012483 0.031117 -0.016630
# 6 -0.007845 0.008767 0.003253 -0.013911 -0.016630 0.040397
#
#
# Mechanical properties :
#
#
# Convention : Reuss Voigt Hill
#
# Bulk Modulus (GPa) = 39.18392 46.48207 42.83300
# Shear Modulus (GPa) = 27.11357 40.09012 33.60185
#
# Velocity S-wave (km/s) = 3.29700 4.00907 3.67034
# Velocity P-wave (km/s) = 5.49572 6.32973 5.92741
#
# Compressibility (1/GPa) = 0.02552067
#
# Stress axis : x y z
#
# Youngs Moduli (GPa) = 53.29764 52.70161 73.91383
#
# Poissons Ratio (x) = 0.51015 0.17954
# Poissons Ratio (y) = 0.51592 0.05647
# Poissons Ratio (z) = 0.12946 0.04026
#
# Static dielectric constant tensor:
#      x y z
#    x 4.767610 -0.040860 0.014410 
#    y -0.040860 4.649430 -0.208470 
#    z 0.014410 -0.208470 4.577530 
# 
# 
# High freq. dielectric constant tensor:
#      x y z
#    x 2.012820 -0.008920 0.009140 
#    y -0.008920 1.999210 0.005440 
#    z 0.009140 0.005440 2.005500 
# 
# From -- ./inp_files/223497.got.cif
#   From: 2010.06.25/outbox.cif.g09.slc.cpg/sg2_112_cif.got.tgz:223497.got - 2010.06.27 13:26:56.
