data_PCOD8037925
_publ_section_title
;
Structure prediction by ZEFSAII (Michael W. Deem and Ramdas Pophale) SiO2 
 PCOD8037925
Probable space group: P -1
;
_chemical_formula_sum "Si O2"
_cell_formula_units_Z 14
_cell_length_a 14.703729
_cell_length_b 21.070739
_cell_length_c 10.346528
_cell_angle_alpha 37.869417
_cell_angle_beta 39.425554
_cell_angle_gamma 23.839786
_cell_volume 778.757225
_symmetry_space_group_name_H-M "P -1"
_symmetry_group_IT_number 2
_symmetry_cell_setting 'triclinic'
loop_
_space_group_symop_operation_xyz
x,y,z
-x,-y,-z
loop_
_atom_site_type_symbol
_atom_site_label
_atom_site_fract_x
_atom_site_fract_y
_atom_site_fract_z
Si Si1 0.310269 0.825956 0.041881
Si Si2 0.878251 0.940913 0.353853
Si Si3 0.658083 0.047703 0.684134
Si Si4 0.807578 0.775957 0.104607
Si Si5 0.837003 0.727489 0.769442
Si Si6 0.165547 0.474040 0.037153
Si Si7 0.331139 0.957951 0.039585
O O1 0.569765 0.639613 0.068689
O O2 0.234287 0.941371 0.059756
O O3 0.285763 0.904540 0.811472
O O4 0.143720 0.820961 0.232355
O O5 0.841861 0.840567 0.527459
O O6 0.806526 0.014053 0.460789
O O7 0.390118 0.197627 0.695774
O O8 0.689399 0.088744 0.722159
O O9 0.740981 0.880834 0.880007
O O10 0.046188 0.581904 0.127001
O O11 0.818246 0.850364 0.094822
O O12 0.859402 0.636281 0.769373
O O13 0.596962 0.836593 0.925514
O O14 0.050588 0.590702 0.850591
#
# Coordination Sequence:
#
# PCOD8037925 Si02
#       7
#     2   2   2   2   2   2   2
#     4  10  25  33  54  75 115 138 187 202 265 304
#     4  11  20  40  50  75 109 157 165 215 252 333
#     4   9  15  30  60  75 102 140 171 210 264 312
#     4   9  14  31  57  81 104 123 171 229 264 295
#     4  10  17  32  60  76 110 130 183 211 273 297
#     4  10  18  32  54  88 101 133 168 237 256 312
#     4   9  16  34  56  85  94 142 175 225 244 331
#
# _framework density 17.977360999999998
#
# number of rings (size 3 to 8) (size 9 to 14) (size 15 to 20)
#    0.857    1.429    4.286    0.000    0.000    3.429 
#    0.000    0.714    3.143    1.714    0.000    0.000 
#    0.000    0.000    0.000    0.000    0.000    0.000 
#
# Total GULP energy -173457.006209 kJ/mol
# GULP energy per Si atom -12389.786158 kJ/mol
# Density = 1.793644 g / cm^3
# Si number density = 17.977361 Si / 1000 Ang^3
#
#
#
# Elastic Constant Matrix: (Units=GPa)
#
#
# Indices 1 2 3 4 5 6 
#
# 1 56.9194 30.8022 13.9264 3.1154 6.0611 11.3897
# 2 30.8022 104.1844 19.1430 12.5211 2.5640 16.0849
# 3 13.9264 19.1430 74.8771 6.5723 9.0521 2.9682
# 4 3.1154 12.5211 6.5723 10.7917 1.2571 -0.6211
# 5 6.0611 2.5640 9.0521 1.2571 15.1713 1.7299
# 6 11.3897 16.0849 2.9682 -0.6211 1.7299 29.7972
#
#
#
# Elastic Compliance Matrix: (Units=1/GPa)
#
#
# Indices 1 2 3 4 5 6 
#
# 1 0.022693 -0.005607 -0.001940 0.001605 -0.006519 -0.005042
# 2 -0.005607 0.014079 -0.001360 -0.014516 0.002533 -0.005771
# 3 -0.001940 -0.001360 0.015557 -0.006417 -0.007773 0.000244
# 4 0.001605 -0.014516 -0.006417 0.114141 -0.005018 0.010532
# 5 -0.006519 0.002533 -0.007773 -0.005018 0.073426 -0.002468
# 6 -0.005042 -0.005771 0.000244 0.010532 -0.002468 0.038941
#
#
# Mechanical properties :
#
#
# Convention : Reuss Voigt Hill
#
# Bulk Modulus (GPa) = 28.97249 40.41379 34.69314
# Shear Modulus (GPa) = 16.22555 22.62599 19.42577
#
# Velocity S-wave (km/s) = 3.00751 3.55150 3.29077
# Velocity P-wave (km/s) = 5.31143 6.27270 5.81197
#
# Compressibility (1/GPa) = 0.03451550
#
# Stress axis : x y z
#
# Youngs Moduli (GPa) = 44.06701 71.02754 64.27932
#
# Poissons Ratio (x) = 0.39822 0.12471
# Poissons Ratio (y) = 0.24707 0.08742
# Poissons Ratio (z) = 0.08550 0.09660
#
# Static dielectric constant tensor:
#      x y z
#    x 3.285570 0.238740 0.007840 
#    y 0.238740 3.291490 0.087780 
#    z 0.007840 0.087780 2.962170 
# 
# 
# High freq. dielectric constant tensor:
#      x y z
#    x 1.689070 0.012950 0.001620 
#    y 0.012950 1.689520 0.015780 
#    z 0.001620 0.015780 1.659600 
# 
# From -- ./inp_files/467565.got.cif
#   From: 2010.06.25/outbox.cif.g09.slc.cpg/sg2_234_cif.got.tgz:467565.got - 2010.06.27 13:26:56.
