data_PCOD8037566
_publ_section_title
;
Structure prediction by ZEFSAII (Michael W. Deem and Ramdas Pophale) SiO2 
 PCOD8037566
Probable space group: P -1
;
_chemical_formula_sum "Si O2"
_cell_formula_units_Z 12
_cell_length_a 8.796153
_cell_length_b 8.655607
_cell_length_c 8.826080
_cell_angle_alpha 75.760711
_cell_angle_beta 106.724374
_cell_angle_gamma 121.482123
_cell_volume 545.048398
_symmetry_space_group_name_H-M "P -1"
_symmetry_group_IT_number 2
_symmetry_cell_setting 'triclinic'
loop_
_space_group_symop_operation_xyz
x,y,z
-x,-y,-z
loop_
_atom_site_type_symbol
_atom_site_label
_atom_site_fract_x
_atom_site_fract_y
_atom_site_fract_z
Si Si1 0.681954 0.154037 0.589141
Si Si2 0.620297 0.661675 0.889619
Si Si3 0.015027 0.195591 0.485150
Si Si4 0.370273 0.523145 0.572371
Si Si5 0.981151 0.667871 0.879946
Si Si6 0.327686 0.973682 0.051736
O O1 0.711508 0.355959 0.545769
O O2 0.680727 0.125904 0.772745
O O3 0.847762 0.150674 0.555493
O O4 0.500000 0.000000 0.500000
O O5 0.489630 0.639647 0.719010
O O6 0.795971 0.651698 0.890870
O O7 0.671955 0.840517 0.956833
O O8 0.500000 0.500000 0.000000
O O9 0.199643 0.322284 0.603000
O O10 0.016807 0.310987 0.308046
O O11 0.000000 0.000000 0.500000
O O12 0.500000 0.500000 0.500000
O O13 0.000000 0.500000 0.000000
O O14 0.148769 0.856419 0.932533
O O15 0.500000 0.000000 0.000000
#
# Coordination Sequence:
#
# PCOD8037566 Si02
#       6
#     2   2   2   2   2   2
#     4  12  25  47  75 106 141 186 246 296 356 428
#     4  12  28  46  73 108 145 191 237 295 362 428
#     4  12  27  48  78 106 144 194 243 300 358 428
#     4  12  26  48  73 106 146 187 242 297 357 426
#     4  12  27  49  74 108 148 191 242 295 366 430
#     4  12  27  48  75 105 147 189 238 299 360 431
#
# _framework density 22.016393000000001
#
# number of rings (size 3 to 8) (size 9 to 14) (size 15 to 20)
#    0.000    0.000    3.333    6.000    9.333    0.000 
#    0.000    0.000    0.000    0.000    0.000    0.000 
#    0.000    0.000    0.000    0.000    0.000    0.000 
#
# Total GULP energy -148777.959343 kJ/mol
# GULP energy per Si atom -12398.163279 kJ/mol
# Density = 2.196628 g / cm^3
# Si number density = 22.016393 Si / 1000 Ang^3
#
#
#
# Elastic Constant Matrix: (Units=GPa)
#
#
# Indices 1 2 3 4 5 6 
#
# 1 184.1754 66.3094 59.6764 -3.4143 -15.4421 15.1418
# 2 66.3094 158.0957 25.8188 6.6174 8.8685 2.3876
# 3 59.6764 25.8188 101.4404 -8.7434 -10.9057 2.3711
# 4 -3.4143 6.6174 -8.7434 45.3398 1.5147 10.9644
# 5 -15.4421 8.8685 -10.9057 1.5147 39.8268 -3.6977
# 6 15.1418 2.3876 2.3711 10.9644 -3.6977 56.2946
#
#
#
# Elastic Compliance Matrix: (Units=1/GPa)
#
#
# Indices 1 2 3 4 5 6 
#
# 1 0.008031 -0.002927 -0.003598 0.000699 0.002582 -0.001851
# 2 -0.002927 0.007901 -0.000759 -0.001563 -0.002988 0.000592
# 3 -0.003598 -0.000759 0.012580 0.002147 0.002155 0.000194
# 4 0.000699 -0.001563 0.002147 0.023937 -0.000157 -0.004885
# 5 0.002582 -0.002988 0.002155 -0.000157 0.027480 0.001177
# 6 -0.001851 0.000592 0.000194 -0.004885 0.001177 0.019257
#
#
# Mechanical properties :
#
#
# Convention : Reuss Voigt Hill
#
# Bulk Modulus (GPa) = 71.71689 83.03562 77.37625
# Shear Modulus (GPa) = 42.22868 47.75269 44.99069
#
# Velocity S-wave (km/s) = 4.38431 4.66226 4.52542
# Velocity P-wave (km/s) = 7.63378 8.17187 7.90741
#
# Compressibility (1/GPa) = 0.01394372
#
# Stress axis : x y z
#
# Youngs Moduli (GPa) = 124.51790 126.56783 79.48935
#
# Poissons Ratio (x) = 0.37045 0.28604
# Poissons Ratio (y) = 0.36445 0.06032
# Poissons Ratio (z) = 0.44807 0.09605
#
# Static dielectric constant tensor:
#      x y z
#    x 4.147950 0.179850 0.065650 
#    y 0.179850 5.079610 0.613610 
#    z 0.065650 0.613610 4.713800 
# 
# 
# High freq. dielectric constant tensor:
#      x y z
#    x 1.884740 0.004720 -0.000260 
#    y 0.004720 1.895790 0.003550 
#    z -0.000260 0.003550 1.876480 
# 
# From -- ./inp_files/149651.got.cif
#   From: 2010.06.25/outbox.cif.g09.slc.cpg/sg2_75_cif.got.tgz:149651.got - 2010.06.27 13:26:56.
