data_PCOD8037105
_publ_section_title
;
Structure prediction by ZEFSAII (Michael W. Deem and Ramdas Pophale) SiO2 
 PCOD8037105
Probable space group: P -1
;
_chemical_formula_sum "Si O2"
_cell_formula_units_Z 16
_cell_length_a 12.096289
_cell_length_b 9.295753
_cell_length_c 8.806481
_cell_angle_alpha 58.758104
_cell_angle_beta 111.898064
_cell_angle_gamma 126.178892
_cell_volume 680.179332
_symmetry_space_group_name_H-M "P -1"
_symmetry_group_IT_number 2
_symmetry_cell_setting 'triclinic'
loop_
_space_group_symop_operation_xyz
x,y,z
-x,-y,-z
loop_
_atom_site_type_symbol
_atom_site_label
_atom_site_fract_x
_atom_site_fract_y
_atom_site_fract_z
Si Si1 0.285498 0.405958 0.059615
Si Si2 0.120545 0.047112 0.654546
Si Si3 0.867926 0.299060 0.597400
Si Si4 0.714764 0.921933 0.552570
Si Si5 0.328296 0.346032 0.776755
Si Si6 0.584622 0.276662 0.533946
Si Si7 0.014168 0.829635 0.015550
Si Si8 0.527095 0.214605 0.879850
O O1 0.284461 0.255344 0.263474
O O2 0.368778 0.629901 0.029617
O O3 0.342324 0.375632 0.946954
O O4 0.132725 0.362125 0.971151
O O5 0.252533 0.081424 0.606154
O O6 0.173961 0.245108 0.677353
O O7 0.000000 0.000000 0.500000
O O8 0.073443 0.879905 0.847714
O O9 0.723626 0.297435 0.524506
O O10 0.000000 0.500000 0.500000
O O11 0.891467 0.234570 0.809511
O O12 0.839981 0.124857 0.565422
O O13 0.564008 0.907990 0.491147
O O14 0.429527 0.547078 0.637762
O O15 0.380365 0.196415 0.844265
O O16 0.596365 0.297292 0.708262
O O17 0.000000 0.000000 0.000000
O O18 0.500000 0.000000 0.000000
#
# Coordination Sequence:
#
# PCOD8037105 Si02
#       8
#     2   2   2   2   2   2   2   2
#     4  12  25  47  81 110 149 204 260 307 388 465
#     4  12  24  42  80 112 147 198 263 319 378 462
#     4  12  29  49  74 115 159 202 260 322 384 461
#     4  12  25  48  76 112 154 204 259 314 389 458
#     4  12  25  49  77 108 151 207 258 305 391 470
#     4  12  28  47  77 106 156 201 257 314 389 454
#     4  12  24  47  77 109 152 205 256 315 385 464
#     4  12  29  47  74 115 152 191 257 327 382 453
#
# _framework density 23.523209000000001
#
# number of rings (size 3 to 8) (size 9 to 14) (size 15 to 20)
#    0.000    0.000    6.250    2.625    5.250    2.000 
#    0.000    1.250    0.000    0.000    0.000    0.000 
#    0.000    0.000    0.000    0.000    0.000    0.000 
#
# Total GULP energy -198269.666776 kJ/mol
# GULP energy per Si atom -12391.854173 kJ/mol
# Density = 2.346967 g / cm^3
# Si number density = 23.523209 Si / 1000 Ang^3
#
#
#
# Elastic Constant Matrix: (Units=GPa)
#
#
# Indices 1 2 3 4 5 6 
#
# 1 99.1028 48.1539 53.6686 -7.8736 -6.8706 14.3925
# 2 48.1539 174.6609 61.3984 7.9110 -0.0016 20.3096
# 3 53.6686 61.3984 147.9960 -0.2012 -22.9910 -6.2388
# 4 -7.8736 7.9110 -0.2012 41.9659 2.5896 6.9503
# 5 -6.8706 -0.0016 -22.9910 2.5896 42.3978 7.7519
# 6 14.3925 20.3096 -6.2388 6.9503 7.7519 41.5736
#
#
#
# Elastic Compliance Matrix: (Units=1/GPa)
#
#
# Indices 1 2 3 4 5 6 
#
# 1 0.014751 -0.001949 -0.004673 0.004008 0.000644 -0.005646
# 2 -0.001949 0.007652 -0.002783 -0.001243 -0.001191 -0.003051
# 3 -0.004673 -0.002783 0.010432 -0.001219 0.004251 0.003954
# 4 0.004008 -0.001243 -0.001219 0.025700 -0.000642 -0.005140
# 5 0.000644 -0.001191 0.004251 -0.000642 0.026745 -0.003883
# 6 -0.005646 -0.003051 0.003954 -0.005140 -0.003883 0.029676
#
#
# Mechanical properties :
#
#
# Convention : Reuss Voigt Hill
#
# Bulk Modulus (GPa) = 71.30584 83.13350 77.21967
# Shear Modulus (GPa) = 36.11626 42.42337 39.26981
#
# Velocity S-wave (km/s) = 3.92260 4.25133 4.09027
# Velocity P-wave (km/s) = 7.13404 7.71468 7.43003
#
# Compressibility (1/GPa) = 0.01402410
#
# Stress axis : x y z
#
# Youngs Moduli (GPa) = 67.78990 130.68147 95.86194
#
# Poissons Ratio (x) = 0.25472 0.44799
# Poissons Ratio (y) = 0.13213 0.26680
# Poissons Ratio (z) = 0.31680 0.36370
#
# Static dielectric constant tensor:
#      x y z
#    x 4.300880 0.291370 -0.118880 
#    y 0.291370 4.463200 0.141720 
#    z -0.118880 0.141720 4.472870 
# 
# 
# High freq. dielectric constant tensor:
#      x y z
#    x 1.934540 0.027840 -0.011180 
#    y 0.027840 1.939620 0.020080 
#    z -0.011180 0.020080 1.940370 
# 
# From -- ./inp_files/242649.got.cif
#   From: 2010.06.25/outbox.cif.g09.slc.cpg/sg2_122_cif.got.tgz:242649.got - 2010.06.27 13:26:56.
