data_PCOD8037903
_publ_section_title
;
Structure prediction by ZEFSAII (Michael W. Deem and Ramdas Pophale) SiO2 
 PCOD8037903
Probable space group: P -1
;
_chemical_formula_sum "Si O2"
_cell_formula_units_Z 16
_cell_length_a 20.802575
_cell_length_b 26.335817
_cell_length_c 11.389801
_cell_angle_alpha 139.858113
_cell_angle_beta 39.646196
_cell_angle_gamma 168.276657
_cell_volume 806.292926
_symmetry_space_group_name_H-M "P -1"
_symmetry_group_IT_number 2
_symmetry_cell_setting 'triclinic'
loop_
_space_group_symop_operation_xyz
x,y,z
-x,-y,-z
loop_
_atom_site_type_symbol
_atom_site_label
_atom_site_fract_x
_atom_site_fract_y
_atom_site_fract_z
Si Si1 0.232069 0.920084 0.508944
Si Si2 0.293821 0.702719 0.091573
Si Si3 0.739291 0.926028 0.437093
Si Si4 0.204718 0.989020 0.902074
Si Si5 0.191865 0.144608 0.107446
Si Si6 0.336333 0.878217 0.644592
Si Si7 0.270913 0.484380 0.155053
Si Si8 0.233860 0.573789 0.708751
O O1 0.958704 0.650867 0.424586
O O2 0.244474 0.974681 0.465350
O O3 0.175677 0.944183 0.728209
O O4 0.576591 0.135866 0.432341
O O5 0.438644 0.766428 0.115680
O O6 0.948854 0.490720 0.218990
O O7 0.536620 0.953359 0.160262
O O8 0.275382 0.625898 0.878179
O O9 0.529803 0.703975 0.273821
O O10 0.587571 0.824587 0.599901
O O11 0.096903 0.152540 0.330329
O O12 0.128574 0.025001 0.073772
O O13 0.929063 0.740055 0.921330
O O14 0.566947 0.419040 0.026604
O O15 0.000000 0.000000 0.000000
O O16 0.954631 0.605215 0.694049
O O17 0.500000 0.000000 0.500000
#
# Coordination Sequence:
#
# PCOD8037903 Si02
#       8
#     2   2   2   2   2   2   2   2
#     4  11  20  33  59  87 111 144 192 225 281 342
#     4   9  20  37  61  85 114 146 185 224 284 345
#     4  11  22  35  54  82 116 150 189 229 274 335
#     4  11  19  36  60  85 112 142 191 239 276 327
#     4  10  22  35  50  87 117 142 192 236 277 325
#     4  10  17  32  57  87 111 135 181 234 279 334
#     4  10  19  32  54  82 114 143 175 237 289 310
#     4  10  21  40  57  81 119 154 175 226 287 335
#
# _framework density 19.843903999999998
#
# number of rings (size 3 to 8) (size 9 to 14) (size 15 to 20)
#    0.000    1.750    6.250    0.750    0.000    4.500 
#    0.000    8.750    0.000    3.750    0.000    0.000 
#    0.000    0.000    0.000    0.000    0.000    0.000 
#
# Total GULP energy -198229.900654 kJ/mol
# GULP energy per Si atom -12389.368791 kJ/mol
# Density = 1.979874 g / cm^3
# Si number density = 19.843904 Si / 1000 Ang^3
#
#
#
# Elastic Constant Matrix: (Units=GPa)
#
#
# Indices 1 2 3 4 5 6 
#
# 1 96.3274 22.4307 23.3134 -1.5060 -28.2235 -13.0177
# 2 22.4307 61.6566 28.7910 -28.0592 -1.6664 -2.6956
# 3 23.3134 28.7910 81.7137 -20.9201 -4.3627 5.3143
# 4 -1.5060 -28.0592 -20.9201 35.4536 7.5333 2.5234
# 5 -28.2235 -1.6664 -4.3627 7.5333 26.3850 -0.7515
# 6 -13.0177 -2.6956 5.3143 2.5234 -0.7515 21.6432
#
#
#
# Elastic Compliance Matrix: (Units=1/GPa)
#
#
# Indices 1 2 3 4 5 6 
#
# 1 0.030819 -0.017577 -0.009186 -0.027957 0.038981 0.023216
# 2 -0.017577 0.037484 0.000184 0.035520 -0.026859 -0.011023
# 3 -0.009186 0.000184 0.018549 0.013910 -0.011063 -0.012063
# 4 -0.027957 0.035520 0.013910 0.075323 -0.047615 -0.026242
# 5 0.038981 -0.026859 -0.011063 -0.047615 0.090564 0.031513
# 6 0.023216 -0.011023 -0.012063 -0.026242 0.031513 0.065910
#
#
# Mechanical properties :
#
#
# Convention : Reuss Voigt Hill
#
# Bulk Modulus (GPa) = 29.67856 43.19641 36.43748
# Shear Modulus (GPa) = 13.05352 27.70722 20.38037
#
# Velocity S-wave (km/s) = 2.56756 3.74071 3.20821
# Velocity P-wave (km/s) = 4.87630 6.36180 5.66793
#
# Compressibility (1/GPa) = 0.03369436
#
# Stress axis : x y z
#
# Youngs Moduli (GPa) = 32.44750 26.67794 53.91176
#
# Poissons Ratio (x) = 0.46892 0.49524
# Poissons Ratio (y) = 0.57033 -0.00993
# Poissons Ratio (z) = 0.29807 -0.00492
#
# Static dielectric constant tensor:
#      x y z
#    x 3.552080 0.238860 -0.308770 
#    y 0.238860 3.836580 -0.370370 
#    z -0.308770 -0.370370 3.717980 
# 
# 
# High freq. dielectric constant tensor:
#      x y z
#    x 1.760450 0.002560 -0.024190 
#    y 0.002560 1.756960 -0.016990 
#    z -0.024190 -0.016990 1.761710 
# 
# From -- ./inp_files/475766.got.cif
#   From: 2010.06.25/outbox.cif.g09.slc.cpg/sg2_238_cif.got.tgz:475766.got - 2010.06.27 13:26:56.
