data_PCOD8037226
_publ_section_title
;
Structure prediction by ZEFSAII (Michael W. Deem and Ramdas Pophale) SiO2 
 PCOD8037226
Probable space group: P -1
;
_chemical_formula_sum "Si O2"
_cell_formula_units_Z 16
_cell_length_a 11.753600
_cell_length_b 8.571792
_cell_length_c 19.478853
_cell_angle_alpha 31.894951
_cell_angle_beta 134.589664
_cell_angle_gamma 121.462906
_cell_volume 723.979738
_symmetry_space_group_name_H-M "P -1"
_symmetry_group_IT_number 2
_symmetry_cell_setting 'triclinic'
loop_
_space_group_symop_operation_xyz
x,y,z
-x,-y,-z
loop_
_atom_site_type_symbol
_atom_site_label
_atom_site_fract_x
_atom_site_fract_y
_atom_site_fract_z
Si Si1 0.698375 0.602630 0.162428
Si Si2 0.333254 0.698856 0.137959
Si Si3 0.115171 0.687804 0.177372
Si Si4 0.080580 0.695137 0.513170
Si Si5 0.378560 0.766092 0.528978
Si Si6 0.642918 0.233276 0.637661
Si Si7 0.855035 0.292443 0.215799
Si Si8 0.356442 0.451491 0.098326
O O1 0.838881 0.504876 0.314392
O O2 0.730390 0.392063 0.187694
O O3 0.522882 0.575193 0.126223
O O4 0.696784 0.943877 0.013279
O O5 0.238706 0.599979 0.199773
O O6 0.524163 0.562735 0.283296
O O7 0.271841 0.547054 0.100521
O O8 0.199456 0.715023 0.275304
O O9 0.012700 0.434011 0.237349
O O10 0.000000 0.000000 0.000000
O O11 0.217910 0.850950 0.476489
O O12 0.000000 0.500000 0.500000
O O13 0.926358 0.938687 0.383080
O O14 0.318790 0.751744 0.431587
O O15 0.500000 0.000000 0.500000
O O16 0.500000 0.500000 0.500000
O O17 0.603909 0.907422 0.762213
O O18 0.762540 0.382465 0.071943
#
# Coordination Sequence:
#
# PCOD8037226 Si02
#       8
#     2   2   2   2   2   2   2   2
#     4  12  26  48  73 103 145 192 235 289 367 439
#     4  12  24  45  77 101 145 185 240 298 352 435
#     4  12  25  47  69 109 142 183 237 298 363 419
#     4  12  29  48  72 109 145 189 242 299 368 426
#     4  12  25  48  74 108 143 191 244 299 352 426
#     4  12  26  43  74 104 140 188 242 291 355 427
#     4  12  28  47  72 104 149 183 237 301 363 424
#     4  12  26  46  73 107 137 193 242 290 362 433
#
# _framework density 22.100066000000002
#
# number of rings (size 3 to 8) (size 9 to 14) (size 15 to 20)
#    0.000    0.000    6.250    2.625    5.250    2.500 
#    0.000    0.000    0.000    0.000    0.000    0.000 
#    0.000    0.000    0.000    0.000    0.000    0.000 
#
# Total GULP energy -198473.237435 kJ/mol
# GULP energy per Si atom -12404.577340 kJ/mol
# Density = 2.204977 g / cm^3
# Si number density = 22.100066 Si / 1000 Ang^3
#
#
#
# Elastic Constant Matrix: (Units=GPa)
#
#
# Indices 1 2 3 4 5 6 
#
# 1 85.7397 23.0614 15.1678 8.9188 -2.3714 -21.1013
# 2 23.0614 121.6143 47.6052 18.2366 -4.2768 -15.1156
# 3 15.1678 47.6052 141.5266 12.7044 -0.5138 -13.7703
# 4 8.9188 18.2366 12.7044 53.3200 -13.0021 -8.9133
# 5 -2.3714 -4.2768 -0.5138 -13.0021 36.9614 0.8516
# 6 -21.1013 -15.1156 -13.7703 -8.9133 0.8516 40.0812
#
#
#
# Elastic Compliance Matrix: (Units=1/GPa)
#
#
# Indices 1 2 3 4 5 6 
#
# 1 0.013794 -0.001623 -0.000257 -0.000527 0.000360 0.006437
# 2 -0.001623 0.010196 -0.002910 -0.002219 0.000220 0.001492
# 3 -0.000257 -0.002910 0.008285 -0.000832 -0.000564 0.001440
# 4 -0.000527 -0.002219 -0.000832 0.022173 0.007420 0.003373
# 5 0.000360 0.000220 -0.000564 0.007420 0.029681 0.001098
# 6 0.006437 0.001492 0.001440 0.003373 0.001098 0.030122
#
#
# Mechanical properties :
#
#
# Convention : Reuss Voigt Hill
#
# Bulk Modulus (GPa) = 44.06639 57.83882 50.95260
# Shear Modulus (GPa) = 38.05218 43.60892 40.83055
#
# Velocity S-wave (km/s) = 4.15398 4.44694 4.30295
# Velocity P-wave (km/s) = 6.55668 7.25226 6.91322
#
# Compressibility (1/GPa) = 0.02269303
#
# Stress axis : x y z
#
# Youngs Moduli (GPa) = 72.49385 98.07982 120.69758
#
# Poissons Ratio (x) = 0.15921 0.03107
# Poissons Ratio (y) = 0.11768 0.35127
# Poissons Ratio (z) = 0.01866 0.28545
#
# Static dielectric constant tensor:
#      x y z
#    x 4.312700 -0.250780 0.169140 
#    y -0.250780 3.994390 0.078360 
#    z 0.169140 0.078360 4.252100 
# 
# 
# High freq. dielectric constant tensor:
#      x y z
#    x 1.874790 -0.015680 0.000080 
#    y -0.015680 1.876120 0.003980 
#    z 0.000080 0.003980 1.891620 
# 
# From -- ./inp_files/263375.got.cif
#   From: 2010.06.25/outbox.cif.g09.slc.cpg/sg2_132_cif.got.tgz:263375.got - 2010.06.27 13:26:56.
