data_PCOD8037894
_publ_section_title
;
Structure prediction by ZEFSAII (Michael W. Deem and Ramdas Pophale) SiO2 
 PCOD8037894
Probable space group: P -1
;
_chemical_formula_sum "Si O2"
_cell_formula_units_Z 16
_cell_length_a 22.679870
_cell_length_b 8.452923
_cell_length_c 13.862879
_cell_angle_alpha 68.206732
_cell_angle_beta 21.896883
_cell_angle_gamma 58.065087
_cell_volume 778.832980
_symmetry_space_group_name_H-M "P -1"
_symmetry_group_IT_number 2
_symmetry_cell_setting 'triclinic'
loop_
_space_group_symop_operation_xyz
x,y,z
-x,-y,-z
loop_
_atom_site_type_symbol
_atom_site_label
_atom_site_fract_x
_atom_site_fract_y
_atom_site_fract_z
Si Si1 0.539476 0.476074 0.058260
Si Si2 0.930643 0.179212 0.490868
Si Si3 0.848724 0.898615 0.336231
Si Si4 0.529227 0.856141 0.777611
Si Si5 0.267401 0.728344 0.705195
Si Si6 0.311474 0.091122 0.881723
Si Si7 0.521382 0.268096 0.430399
Si Si8 0.708779 0.102786 0.692018
O O1 0.471440 0.329442 0.230377
O O2 0.419492 0.703029 0.228375
O O3 0.500000 0.500000 0.000000
O O4 0.761933 0.374931 0.757366
O O5 0.861075 0.127424 0.511282
O O6 0.000000 0.000000 0.500000
O O7 0.091278 0.220272 0.209952
O O8 0.742471 0.793598 0.480435
O O9 0.760812 0.116273 0.370134
O O10 0.815061 0.919698 0.498013
O O11 0.068214 0.751140 0.018857
O O12 0.424313 0.042026 0.821400
O O13 0.419449 0.926592 0.030507
O O14 0.420630 0.498278 0.492858
O O15 0.336320 0.775557 0.688736
O O16 0.358554 0.230007 0.716563
O O17 0.359143 0.886947 0.800674
#
# Coordination Sequence:
#
# PCOD8037894 Si02
#       8
#     2   2   2   2   2   2   2   2
#     4   8  18  33  53  85 113 145 176 222 281 327
#     4  10  17  32  57  84 114 141 177 228 280 331
#     4  11  22  38  61  80 115 155 190 225 285 337
#     4  10  19  36  57  84 117 144 180 235 278 338
#     4  10  23  42  57  81 113 152 193 239 276 326
#     4  11  20  36  63  85 111 148 189 235 284 330
#     4  10  23  40  60  82 110 150 196 238 281 321
#     4  10  21  36  58  88 114 150 182 226 287 342
#
# _framework density 20.543558000000001
#
# number of rings (size 3 to 8) (size 9 to 14) (size 15 to 20)
#    0.000    2.250    3.750    1.125    1.750    3.000 
#    0.000    0.625    0.000    1.500    0.000    0.000 
#    0.000    0.000    0.000    0.000    0.000    0.000 
#
# Total GULP energy -198295.609680 kJ/mol
# GULP energy per Si atom -12393.475605 kJ/mol
# Density = 2.049680 g / cm^3
# Si number density = 20.543558 Si / 1000 Ang^3
#
#
#
# Elastic Constant Matrix: (Units=GPa)
#
#
# Indices 1 2 3 4 5 6 
#
# 1 61.1710 7.9648 25.4321 6.1088 -11.0643 1.4711
# 2 7.9648 47.2653 11.4855 3.9961 -1.1757 -5.2262
# 3 25.4321 11.4855 105.5639 -11.6099 -25.2463 10.0115
# 4 6.1088 3.9961 -11.6099 32.6507 -0.5605 -5.8329
# 5 -11.0643 -1.1757 -25.2463 -0.5605 32.8062 -2.1252
# 6 1.4711 -5.2262 10.0115 -5.8329 -2.1252 27.6376
#
#
#
# Elastic Compliance Matrix: (Units=1/GPa)
#
#
# Indices 1 2 3 4 5 6 
#
# 1 0.019414 -0.001821 -0.004221 -0.004975 0.003107 -0.000660
# 2 -0.001821 0.023004 -0.003339 -0.002823 -0.002090 0.004900
# 3 -0.004221 -0.003339 0.013992 0.005691 0.009090 -0.003575
# 4 -0.004975 -0.002823 0.005691 0.034937 0.003542 0.005315
# 5 0.003107 -0.002090 0.009090 0.003542 0.038501 -0.000145
# 6 -0.000660 0.004900 -0.003575 0.005315 -0.000145 0.039550
#
#
# Mechanical properties :
#
#
# Convention : Reuss Voigt Hill
#
# Bulk Modulus (GPa) = 26.56160 33.75166 30.15663
# Shear Modulus (GPa) = 24.91159 29.89342 27.40251
#
# Velocity S-wave (km/s) = 3.48605 3.81875 3.65619
# Velocity P-wave (km/s) = 5.40008 5.99239 5.70393
#
# Compressibility (1/GPa) = 0.03764833
#
# Stress axis : x y z
#
# Youngs Moduli (GPa) = 51.50917 43.47090 71.46951
#
# Poissons Ratio (x) = 0.07916 0.30164
# Poissons Ratio (y) = 0.09380 0.23865
# Poissons Ratio (z) = 0.21740 0.14516
#
# Static dielectric constant tensor:
#      x y z
#    x 3.594570 -0.189300 -0.164270 
#    y -0.189300 4.278080 0.461360 
#    z -0.164270 0.461360 3.712480 
# 
# 
# High freq. dielectric constant tensor:
#      x y z
#    x 1.797410 -0.015660 -0.008790 
#    y -0.015660 1.787850 -0.006450 
#    z -0.008790 -0.006450 1.805790 
# 
# From -- ./inp_files/251637.got.cif
#   From: 2010.06.25/outbox.cif.g09.slc.cpg/sg2_126_cif.got.tgz:251637.got - 2010.06.27 13:26:56.
