data_PCOD8037787
_publ_section_title
;
Structure prediction by ZEFSAII (Michael W. Deem and Ramdas Pophale) SiO2 
 PCOD8037787
Probable space group: P -1
;
_chemical_formula_sum "Si O2"
_cell_formula_units_Z 12
_cell_length_a 12.964660
_cell_length_b 24.446939
_cell_length_c 4.911676
_cell_angle_alpha 64.166034
_cell_angle_beta 53.253519
_cell_angle_gamma 23.704774
_cell_volume 470.179564
_symmetry_space_group_name_H-M "P -1"
_symmetry_group_IT_number 2
_symmetry_cell_setting 'triclinic'
loop_
_space_group_symop_operation_xyz
x,y,z
-x,-y,-z
loop_
_atom_site_type_symbol
_atom_site_label
_atom_site_fract_x
_atom_site_fract_y
_atom_site_fract_z
Si Si1 0.890927 0.614533 0.878048
Si Si2 0.811835 0.745349 0.117395
Si Si3 0.737612 0.154711 0.706837
Si Si4 0.478439 0.939356 0.721579
Si Si5 0.375445 0.493869 0.064039
Si Si6 0.812266 0.199681 0.016873
O O1 0.139253 0.552537 0.481056
O O2 0.800077 0.680849 0.173770
O O3 0.566650 0.752113 0.922366
O O4 0.000000 0.500000 0.000000
O O5 0.623544 0.869337 0.943323
O O6 0.180662 0.601894 0.875947
O O7 0.673442 0.813639 0.486326
O O8 0.609314 0.253483 0.451895
O O9 0.871783 0.133758 0.798320
O O10 0.000000 0.000000 0.500000
O O11 0.500000 0.000000 0.500000
O O12 0.125557 0.072621 0.967837
O O13 0.661744 0.328297 0.885891
O O14 0.500000 0.500000 0.000000
#
# Coordination Sequence:
#
# PCOD8037787 Si02
#       6
#     2   2   2   2   2   2
#     4  12  26  51  78 114 160 209 260 327 396 468
#     4  12  27  50  79 115 155 208 264 323 400 464
#     4  12  27  47  79 113 158 203 264 322 393 465
#     4  12  26  51  78 115 160 211 260 327 397 469
#     4  12  29  52  81 117 158 209 267 327 395 472
#     4  12  27  48  76 118 154 204 265 326 385 471
#
# _framework density 25.522162000000002
#
# number of rings (size 3 to 8) (size 9 to 14) (size 15 to 20)
#    0.000    0.000    3.333    6.000    2.333    3.333 
#    0.000    0.000    0.000    0.000    0.000    0.000 
#    0.000    0.000    0.000    0.000    0.000    0.000 
#
# Total GULP energy -148703.371765 kJ/mol
# GULP energy per Si atom -12391.947647 kJ/mol
# Density = 2.546407 g / cm^3
# Si number density = 25.522162 Si / 1000 Ang^3
#
#
#
# Elastic Constant Matrix: (Units=GPa)
#
#
# Indices 1 2 3 4 5 6 
#
# 1 179.3407 86.8113 44.9140 4.3415 -15.6381 -4.0010
# 2 86.8113 167.1333 38.3673 22.9074 -19.4400 -13.4355
# 3 44.9140 38.3673 55.3902 1.4505 0.3166 3.7378
# 4 4.3415 22.9074 1.4505 38.0169 -3.9788 -1.1384
# 5 -15.6381 -19.4400 0.3166 -3.9788 40.0328 2.8580
# 6 -4.0010 -13.4355 3.7378 -1.1384 2.8580 66.0112
#
#
#
# Elastic Compliance Matrix: (Units=1/GPa)
#
#
# Indices 1 2 3 4 5 6 
#
# 1 0.008465 -0.003305 -0.004625 0.001399 0.001874 0.000045
# 2 -0.003305 0.009818 -0.004128 -0.005025 0.002880 0.001820
# 3 -0.004625 -0.004128 0.024800 0.001614 -0.003680 -0.002338
# 4 0.001399 -0.005025 0.001614 0.029202 0.001037 -0.000571
# 5 0.001874 0.002880 -0.003680 0.001037 0.027260 -0.000254
# 6 0.000045 0.001820 -0.002338 -0.000571 -0.000254 0.015656
#
#
# Mechanical properties :
#
#
# Convention : Reuss Voigt Hill
#
# Bulk Modulus (GPa) = 52.72573 82.44993 67.58783
# Shear Modulus (GPa) = 34.33181 44.26361 39.29771
#
# Velocity S-wave (km/s) = 3.67164 4.16904 3.92822
# Velocity P-wave (km/s) = 6.21919 7.45318 6.86397
#
# Compressibility (1/GPa) = 0.01896607
#
# Stress axis : x y z
#
# Youngs Moduli (GPa) = 118.13915 101.85791 40.32312
#
# Poissons Ratio (x) = 0.33665 0.18648
# Poissons Ratio (y) = 0.39046 0.16646
# Poissons Ratio (z) = 0.54636 0.42048
#
# Static dielectric constant tensor:
#      x y z
#    x 4.993350 -0.636450 -0.221160 
#    y -0.636450 7.163400 0.947930 
#    z -0.221160 0.947930 4.738110 
# 
# 
# High freq. dielectric constant tensor:
#      x y z
#    x 2.037500 -0.003210 -0.006000 
#    y -0.003210 2.048100 0.012410 
#    z -0.006000 0.012410 2.010280 
# 
# From -- ./inp_files/83167.got.cif
#   From: 2010.06.25/outbox.cif.g09.slc.cpg/sg2_42_cif.got.tgz:83167.got - 2010.06.27 13:26:56.
