data_PCOD8037386
_publ_section_title
;
Structure prediction by ZEFSAII (Michael W. Deem and Ramdas Pophale) SiO2 
 PCOD8037386
Probable space group: P -1
;
_chemical_formula_sum "Si O2"
_cell_formula_units_Z 12
_cell_length_a 14.437074
_cell_length_b 6.479915
_cell_length_c 9.415376
_cell_angle_alpha 120.561509
_cell_angle_beta 69.918743
_cell_angle_gamma 67.080061
_cell_volume 510.515386
_symmetry_space_group_name_H-M "P -1"
_symmetry_group_IT_number 2
_symmetry_cell_setting 'triclinic'
loop_
_space_group_symop_operation_xyz
x,y,z
-x,-y,-z
loop_
_atom_site_type_symbol
_atom_site_label
_atom_site_fract_x
_atom_site_fract_y
_atom_site_fract_z
Si Si1 0.292899 0.395283 0.374333
Si Si2 0.925328 0.604201 0.431596
Si Si3 0.104255 0.410663 0.032559
Si Si4 0.505964 0.718851 0.171261
Si Si5 0.621077 0.242149 0.456219
Si Si6 0.789595 0.335864 0.792739
O O1 0.176797 0.447512 0.540181
O O2 0.293707 0.670294 0.512362
O O3 0.267214 0.415591 0.225949
O O4 0.437729 0.044498 0.228028
O O5 0.000000 0.500000 0.500000
O O6 0.844153 0.990694 0.582581
O O7 0.049274 0.341952 0.166160
O O8 0.264188 0.111971 0.805765
O O9 0.093951 0.706692 0.198406
O O10 0.000000 0.500000 0.000000
O O11 0.438355 0.795708 0.388383
O O12 0.500000 0.500000 0.000000
O O13 0.666588 0.507209 0.030902
O O14 0.500000 0.500000 0.500000
#
# Coordination Sequence:
#
# PCOD8037386 Si02
#       6
#     2   2   2   2   2   2
#     4  12  24  48  78 110 145 196 251 304 366 448
#     4  12  27  46  77 108 140 202 256 291 368 447
#     4  12  28  49  72 109 156 189 244 315 372 435
#     4  12  25  46  80 110 143 194 255 296 370 450
#     4  12  30  49  73 116 155 192 243 313 384 432
#     4  12  26  47  80 108 147 195 255 306 361 448
#
# _framework density 23.505658
#
# number of rings (size 3 to 8) (size 9 to 14) (size 15 to 20)
#    0.000    0.000    5.000    4.000    7.000    4.667 
#    0.000    0.000    0.000    0.000    0.000    0.000 
#    0.000    0.000    0.000    0.000    0.000    0.000 
#
# Total GULP energy -148723.242682 kJ/mol
# GULP energy per Si atom -12393.603557 kJ/mol
# Density = 2.345216 g / cm^3
# Si number density = 23.505658 Si / 1000 Ang^3
#
#
#
# Elastic Constant Matrix: (Units=GPa)
#
#
# Indices 1 2 3 4 5 6 
#
# 1 151.4387 31.8410 30.6962 -20.8609 0.9940 8.9417
# 2 31.8410 118.4438 47.5706 -19.0040 -3.2141 -9.0784
# 3 30.6962 47.5706 131.8983 -34.5101 -26.4118 5.1630
# 4 -20.8609 -19.0040 -34.5101 39.0074 4.0691 0.0930
# 5 0.9940 -3.2141 -26.4118 4.0691 49.6480 -2.2816
# 6 8.9417 -9.0784 5.1630 0.0930 -2.2816 50.5331
#
#
#
# Elastic Compliance Matrix: (Units=1/GPa)
#
#
# Indices 1 2 3 4 5 6 
#
# 1 0.007527 -0.001473 -0.000574 0.002894 -0.000861 -0.001582
# 2 -0.001473 0.010605 -0.003417 0.001466 -0.001109 0.002462
# 3 -0.000574 -0.003417 0.012307 0.008338 0.005584 -0.001533
# 4 0.002894 0.001466 0.008338 0.035116 0.001544 -0.001095
# 5 -0.000861 -0.001109 0.005584 0.001544 0.022950 0.000416
# 6 -0.001582 0.002462 -0.001533 -0.001095 0.000416 0.020689
#
#
# Mechanical properties :
#
#
# Convention : Reuss Voigt Hill
#
# Bulk Modulus (GPa) = 51.25291 69.11072 60.18182
# Shear Modulus (GPa) = 39.48650 47.28258 43.38454
#
# Velocity S-wave (km/s) = 4.10307 4.48989 4.30083
# Velocity P-wave (km/s) = 6.65573 7.50629 7.09377
#
# Compressibility (1/GPa) = 0.01951109
#
# Stress axis : x y z
#
# Youngs Moduli (GPa) = 132.85337 94.29495 81.25421
#
# Poissons Ratio (x) = 0.13894 0.04662
# Poissons Ratio (y) = 0.19575 0.27763
# Poissons Ratio (z) = 0.07623 0.32219
#
# Static dielectric constant tensor:
#      x y z
#    x 4.641680 0.209590 -0.200910 
#    y 0.209590 4.351720 -0.332170 
#    z -0.200910 -0.332170 3.685920 
# 
# 
# High freq. dielectric constant tensor:
#      x y z
#    x 1.957240 0.004220 -0.009360 
#    y 0.004220 1.925260 -0.011720 
#    z -0.009360 -0.011720 1.933840 
# 
# From -- ./inp_files/26420.got.cif
#   From: 2010.06.25/outbox.cif.g09.slc.cpg/sg2_14_cif.got.tgz:26420.got - 2010.06.27 13:26:56.
