data_PCOD8037521
_publ_section_title
;
Structure prediction by ZEFSAII (Michael W. Deem and Ramdas Pophale) SiO2 
 PCOD8037521
Probable space group: P -1
;
_chemical_formula_sum "Si O2"
_cell_formula_units_Z 16
_cell_length_a 9.380172
_cell_length_b 18.797138
_cell_length_c 19.004638
_cell_angle_alpha 26.610877
_cell_angle_beta 143.713611
_cell_angle_gamma 152.239177
_cell_volume 697.336053
_symmetry_space_group_name_H-M "P -1"
_symmetry_group_IT_number 2
_symmetry_cell_setting 'triclinic'
loop_
_space_group_symop_operation_xyz
x,y,z
-x,-y,-z
loop_
_atom_site_type_symbol
_atom_site_label
_atom_site_fract_x
_atom_site_fract_y
_atom_site_fract_z
Si Si1 0.115353 0.421957 0.056945
Si Si2 0.823452 0.027541 0.742058
Si Si3 0.728572 0.293908 0.539331
Si Si4 0.261187 0.912711 0.045985
Si Si5 0.196890 0.293829 0.530983
Si Si6 0.681018 0.964900 0.276170
Si Si7 0.693947 0.474110 0.227191
Si Si8 0.779568 0.347331 0.233579
O O1 0.482979 0.541270 0.101336
O O2 0.042086 0.453221 0.921271
O O3 0.969858 0.188431 0.216708
O O4 0.000000 0.500000 0.000000
O O5 0.813304 0.142318 0.702674
O O6 0.948450 0.186105 0.588483
O O7 0.477687 0.835637 0.756454
O O8 0.050771 0.979711 0.894351
O O9 0.435993 0.181531 0.573614
O O10 0.652197 0.333580 0.397964
O O11 0.000000 0.500000 0.500000
O O12 0.437853 0.988879 0.123578
O O13 0.045214 0.668776 0.180961
O O14 0.500000 0.000000 0.000000
O O15 0.500000 0.500000 0.500000
O O16 0.248276 0.135113 0.667125
O O17 0.045320 0.333558 0.373202
O O18 0.600039 0.351918 0.224255
#
# Coordination Sequence:
#
# PCOD8037521 Si02
#       8
#     2   2   2   2   2   2   2   2
#     4  12  29  49  72 112 152 198 248 305 378 446
#     4  12  26  46  76 106 144 196 247 303 376 442
#     4  12  27  49  71 107 151 194 246 303 373 444
#     4  12  25  46  76 110 144 189 253 306 367 439
#     4  12  26  46  74 113 145 193 251 309 370 443
#     4  12  27  46  75 108 149 198 245 305 376 443
#     4  12  26  49  76 106 151 195 245 313 370 441
#     4  12  26  49  76 109 150 192 251 309 372 443
#
# _framework density 22.944462999999999
#
# number of rings (size 3 to 8) (size 9 to 14) (size 15 to 20)
#    0.000    0.000    5.000    4.500    5.250    2.000 
#    0.000    0.000    0.000    0.000    0.000    0.000 
#    0.000    0.000    0.000    0.000    0.000    0.000 
#
# Total GULP energy -198427.030529 kJ/mol
# GULP energy per Si atom -12401.689408 kJ/mol
# Density = 2.289224 g / cm^3
# Si number density = 22.944463 Si / 1000 Ang^3
#
#
#
# Elastic Constant Matrix: (Units=GPa)
#
#
# Indices 1 2 3 4 5 6 
#
# 1 118.9498 46.9736 32.8080 -0.0697 1.1944 -10.2043
# 2 46.9736 106.5829 38.5680 -9.2812 11.7561 4.4953
# 3 32.8080 38.5680 107.8887 13.8109 -8.8806 4.0162
# 4 -0.0697 -9.2812 13.8109 48.5130 4.6888 2.0703
# 5 1.1944 11.7561 -8.8806 4.6888 54.9967 -7.2975
# 6 -10.2043 4.4953 4.0162 2.0703 -7.2975 38.0173
#
#
#
# Elastic Compliance Matrix: (Units=1/GPa)
#
#
# Indices 1 2 3 4 5 6 
#
# 1 0.011003 -0.004574 -0.001688 -0.000646 0.001040 0.003907
# 2 -0.004574 0.014044 -0.004446 0.004529 -0.004474 -0.003524
# 3 -0.001688 -0.004446 0.012252 -0.004647 0.003318 -0.000332
# 4 -0.000646 0.004529 -0.004647 0.023283 -0.003988 -0.002251
# 5 0.001040 -0.004474 0.003318 -0.003988 0.020607 0.004630
# 6 0.003907 -0.003524 -0.000332 -0.002251 0.004630 0.028816
#
#
# Mechanical properties :
#
#
# Convention : Reuss Voigt Hill
#
# Bulk Modulus (GPa) = 62.96432 63.34674 63.15553
# Shear Modulus (GPa) = 36.57224 42.64353 39.60788
#
# Velocity S-wave (km/s) = 3.99676 4.31577 4.15932
# Velocity P-wave (km/s) = 6.98573 7.24591 7.11701
#
# Compressibility (1/GPa) = 0.01588201
#
# Stress axis : x y z
#
# Youngs Moduli (GPa) = 90.88196 71.20572 81.62026
#
# Poissons Ratio (x) = 0.32572 0.13777
# Poissons Ratio (y) = 0.41573 0.36290
# Poissons Ratio (z) = 0.15340 0.31659
#
# Static dielectric constant tensor:
#      x y z
#    x 4.206110 0.073110 -0.202700 
#    y 0.073110 4.080910 -0.106610 
#    z -0.202700 -0.106610 4.624760 
# 
# 
# High freq. dielectric constant tensor:
#      x y z
#    x 1.911000 0.006000 -0.006180 
#    y 0.006000 1.905160 -0.006120 
#    z -0.006180 -0.006120 1.924190 
# 
# From -- ./inp_files/279205.got.cif
#   From: 2010.06.25/outbox.cif.g09.slc.cpg/sg2_140_cif.got.tgz:279205.got - 2010.06.27 13:26:56.
