data_PCOD8037817
_publ_section_title
;
Structure prediction by ZEFSAII (Michael W. Deem and Ramdas Pophale) SiO2 
 PCOD8037817
Probable space group: P -1
;
_chemical_formula_sum "Si O2"
_cell_formula_units_Z 10
_cell_length_a 17.145423
_cell_length_b 16.614630
_cell_length_c 5.049496
_cell_angle_alpha 72.321716
_cell_angle_beta 75.232867
_cell_angle_gamma 16.870226
_cell_volume 394.393613
_symmetry_space_group_name_H-M "P -1"
_symmetry_group_IT_number 2
_symmetry_cell_setting 'triclinic'
loop_
_space_group_symop_operation_xyz
x,y,z
-x,-y,-z
loop_
_atom_site_type_symbol
_atom_site_label
_atom_site_fract_x
_atom_site_fract_y
_atom_site_fract_z
Si Si1 0.499999 0.940588 0.809363
Si Si2 0.790430 0.380749 0.756965
Si Si3 0.000185 0.675799 0.074216
Si Si4 0.499743 0.561059 0.189231
Si Si5 0.208173 0.962927 0.400309
O O1 0.760424 0.621853 0.938247
O O2 0.500000 0.000000 0.500000
O O3 0.239657 0.142513 0.797120
O O4 0.500000 0.000000 0.000000
O O5 0.893389 0.372345 0.729659
O O6 0.999047 0.126708 0.623852
O O7 0.499167 0.673578 0.577323
O O8 0.755159 0.367438 0.087602
O O9 0.894191 0.840153 0.761721
O O10 0.500000 0.500000 0.500000
O O11 0.243861 0.878490 0.167363
O O12 0.500000 0.500000 0.000000
#
# Coordination Sequence:
#
# PCOD8037817 Si02
#       5
#     2   2   2   2   2
#     4  12  29  52  81 120 158 204 254 326 407 464
#     4  12  27  51  82 116 157 218 272 324 405 467
#     4  12  28  50  82 112 164 202 268 322 384 498
#     4  12  27  52  77 118 164 210 270 342 393 468
#     4  12  27  51  82 116 157 218 272 324 405 467
#
# _framework density 25.35538
#
# number of rings (size 3 to 8) (size 9 to 14) (size 15 to 20)
#    0.000    0.000    2.000    7.200    8.400    1.600 
#    0.000    0.000    0.000    0.000    0.000    0.000 
#    0.000    0.000    0.000    0.000    0.000    0.000 
#
# Total GULP energy -123927.992877 kJ/mol
# GULP energy per Si atom -12392.799288 kJ/mol
# Density = 2.529767 g / cm^3
# Si number density = 25.355380 Si / 1000 Ang^3
#
#
#
# Elastic Constant Matrix: (Units=GPa)
#
#
# Indices 1 2 3 4 5 6 
#
# 1 158.6546 100.7809 84.4204 19.0420 -10.7007 31.0311
# 2 100.7809 224.4445 82.4726 42.6353 -5.2099 -0.0161
# 3 84.4204 82.4726 203.6120 44.1036 -10.4825 1.4715
# 4 19.0420 42.6353 44.1036 47.0844 0.1205 8.6007
# 5 -10.7007 -5.2099 -10.4825 0.1205 56.7803 15.4487
# 6 31.0311 -0.0161 1.4715 8.6007 15.4487 41.3860
#
#
#
# Elastic Compliance Matrix: (Units=1/GPa)
#
#
# Indices 1 2 3 4 5 6 
#
# 1 0.015285 -0.006215 -0.004886 0.006693 0.005392 -0.014693
# 2 -0.006215 0.008283 0.000516 -0.006715 -0.002165 0.006849
# 3 -0.004886 0.000516 0.008190 -0.007097 -0.000740 0.005124
# 4 0.006693 -0.006715 -0.007097 0.033585 0.002738 -0.012771
# 5 0.005392 -0.002165 -0.000740 0.002738 0.021743 -0.012703
# 6 -0.014693 0.006849 0.005124 -0.012771 -0.012703 0.042396
#
#
# Mechanical properties :
#
#
# Convention : Reuss Voigt Hill
#
# Bulk Modulus (GPa) = 94.45843 124.67323 109.56583
# Shear Modulus (GPa) = 32.42932 50.31929 41.37431
#
# Velocity S-wave (km/s) = 3.58018 4.45967 4.04391
# Velocity P-wave (km/s) = 7.37732 8.70605 8.06908
#
# Compressibility (1/GPa) = 0.01058667
#
# Stress axis : x y z
#
# Youngs Moduli (GPa) = 65.42349 120.73543 122.09640
#
# Poissons Ratio (x) = 0.75041 0.59655
# Poissons Ratio (y) = 0.40663 -0.06295
# Poissons Ratio (z) = 0.31965 -0.06225
#
# Static dielectric constant tensor:
#      x y z
#    x 4.993680 -0.005320 -0.291110 
#    y -0.005320 5.410380 0.184470 
#    z -0.291110 0.184470 4.523840 
# 
# 
# High freq. dielectric constant tensor:
#      x y z
#    x 2.021760 0.000610 0.000880 
#    y 0.000610 2.037640 0.012120 
#    z 0.000880 0.012120 2.031740 
# 
# From -- ./inp_files/95765.got.cif
#   From: 2010.06.25/outbox.cif.g09.slc.cpg/sg2_48_cif.got.tgz:95765.got - 2010.06.27 13:26:56.
