data_PCOD8037718
_publ_section_title
;
Structure prediction by ZEFSAII (Michael W. Deem and Ramdas Pophale) SiO2 
 PCOD8037718
Probable space group: P -1
;
_chemical_formula_sum "Si O2"
_cell_formula_units_Z 14
_cell_length_a 5.153272
_cell_length_b 15.931524
_cell_length_c 18.008007
_cell_angle_alpha 147.809521
_cell_angle_beta 131.457725
_cell_angle_gamma 60.324712
_cell_volume 582.352061
_symmetry_space_group_name_H-M "P -1"
_symmetry_group_IT_number 2
_symmetry_cell_setting 'triclinic'
loop_
_space_group_symop_operation_xyz
x,y,z
-x,-y,-z
loop_
_atom_site_type_symbol
_atom_site_label
_atom_site_fract_x
_atom_site_fract_y
_atom_site_fract_z
Si Si1 0.358465 0.733011 0.948808
Si Si2 0.291245 0.403460 0.955626
Si Si3 0.356175 0.937965 0.758123
Si Si4 0.710853 0.867642 0.908230
Si Si5 0.405123 0.213681 0.453747
Si Si6 0.309388 0.551327 0.653495
Si Si7 0.221385 0.892080 0.418425
O O1 0.218403 0.623843 0.770288
O O2 0.096230 0.864048 0.012916
O O3 0.421303 0.618234 0.942863
O O4 0.696080 0.873142 0.103464
O O5 0.078601 0.229704 0.769844
O O6 0.500000 0.500000 0.000000
O O7 0.000000 0.500000 0.000000
O O8 0.695656 0.895243 0.837003
O O9 0.400302 0.885788 0.642517
O O10 0.013475 0.840970 0.661136
O O11 0.559460 0.685054 0.757975
O O12 0.500000 0.000000 0.000000
O O13 0.499330 0.399472 0.589301
O O14 0.562504 0.201994 0.556068
O O15 0.000000 0.500000 0.500000
O O16 0.500000 0.000000 0.500000
O O17 0.000000 0.000000 0.500000
#
# Coordination Sequence:
#
# PCOD8037718 Si02
#       7
#     2   2   2   2   2   2   2
#     4  12  28  46  79 104 152 204 250 306 383 448
#     4  12  29  51  78 114 154 200 262 321 382 455
#     4  12  26  48  75 110 148 198 248 300 370 467
#     4  12  26  47  75 109 153 196 255 301 376 461
#     4  12  27  46  77 110 151 192 249 312 380 433
#     4  12  27  46  72 111 152 194 245 313 376 448
#     4  12  26  50  78 110 151 199 258 319 378 449
#
# _framework density 24.040441000000001
#
# number of rings (size 3 to 8) (size 9 to 14) (size 15 to 20)
#    0.000    0.000    2.857    6.429    6.000    1.143 
#    0.000    0.000    0.000    0.000    0.000    0.000 
#    0.000    0.000    0.000    0.000    0.000    0.000 
#
# Total GULP energy -173484.058399 kJ/mol
# GULP energy per Si atom -12391.718457 kJ/mol
# Density = 2.398572 g / cm^3
# Si number density = 24.040441 Si / 1000 Ang^3
#
#
#
# Elastic Constant Matrix: (Units=GPa)
#
#
# Indices 1 2 3 4 5 6 
#
# 1 128.4523 43.9597 43.3921 8.0820 -8.6710 10.6645
# 2 43.9597 201.9638 49.8427 0.7376 -1.4891 17.1230
# 3 43.3921 49.8427 146.7443 14.0019 -11.1726 11.5036
# 4 8.0820 0.7376 14.0019 47.4865 6.9740 0.5793
# 5 -8.6710 -1.4891 -11.1726 6.9740 36.8394 6.7593
# 6 10.6645 17.1230 11.5036 0.5793 6.7593 45.5344
#
#
#
# Elastic Compliance Matrix: (Units=1/GPa)
#
#
# Indices 1 2 3 4 5 6 
#
# 1 0.009236 -0.001408 -0.001859 -0.001287 0.002064 -0.001454
# 2 -0.001408 0.005746 -0.001524 0.000681 -0.000435 -0.001390
# 3 -0.001859 -0.001524 0.008460 -0.002551 0.002828 -0.001516
# 4 -0.001287 0.000681 -0.002551 0.022826 -0.005596 0.001230
# 5 0.002064 -0.000435 0.002828 -0.005596 0.030538 -0.005496
# 6 -0.001454 -0.001390 -0.001516 0.001230 -0.005496 0.024008
#
#
# Mechanical properties :
#
#
# Convention : Reuss Voigt Hill
#
# Bulk Modulus (GPa) = 72.15789 83.50549 77.83169
# Shear Modulus (GPa) = 43.47193 48.63644 46.05419
#
# Velocity S-wave (km/s) = 4.25701 4.50278 4.38162
# Velocity P-wave (km/s) = 7.36500 7.86411 7.61864
#
# Compressibility (1/GPa) = 0.01385850
#
# Stress axis : x y z
#
# Youngs Moduli (GPa) = 108.27340 174.02502 118.20982
#
# Poissons Ratio (x) = 0.24510 0.21972
# Poissons Ratio (y) = 0.15249 0.18021
# Poissons Ratio (z) = 0.20125 0.26530
#
# Static dielectric constant tensor:
#      x y z
#    x 3.981900 -0.072650 -0.081520 
#    y -0.072650 4.861510 -0.178920 
#    z -0.081520 -0.178920 4.333660 
# 
# 
# High freq. dielectric constant tensor:
#      x y z
#    x 1.947940 0.010680 0.009980 
#    y 0.010680 1.977800 0.008560 
#    z 0.009980 0.008560 1.973310 
# 
# From -- ./inp_files/550222.got.cif
#   From: 2010.06.25/outbox.cif.g09.slc.cpg/sg2_276_cif.got.tgz:550222.got - 2010.06.27 13:26:56.
