data_PCOD8037299
_publ_section_title
;
Structure prediction by ZEFSAII (Michael W. Deem and Ramdas Pophale) SiO2 
 PCOD8037299
Probable space group: P -1
;
_chemical_formula_sum "Si O2"
_cell_formula_units_Z 14
_cell_length_a 13.743820
_cell_length_b 14.891101
_cell_length_c 8.790996
_cell_angle_alpha 133.730346
_cell_angle_beta 65.688718
_cell_angle_gamma 148.192691
_cell_volume 607.896806
_symmetry_space_group_name_H-M "P -1"
_symmetry_group_IT_number 2
_symmetry_cell_setting 'triclinic'
loop_
_space_group_symop_operation_xyz
x,y,z
-x,-y,-z
loop_
_atom_site_type_symbol
_atom_site_label
_atom_site_fract_x
_atom_site_fract_y
_atom_site_fract_z
Si Si1 0.656477 0.417207 0.355378
Si Si2 0.049719 0.171627 0.761116
Si Si3 0.917664 0.449267 0.325442
Si Si4 0.171312 0.146498 0.183800
Si Si5 0.486435 0.682514 0.982761
Si Si6 0.667294 0.069012 0.522508
Si Si7 0.266078 0.947335 0.210298
O O1 0.793429 0.454642 0.404035
O O2 0.766131 0.660102 0.555976
O O3 0.612689 0.334300 0.110648
O O4 0.439112 0.214664 0.347130
O O5 0.298731 0.439657 0.922328
O O6 0.941928 0.183876 0.766573
O O7 0.000000 0.000000 0.500000
O O8 0.944466 0.058258 0.861520
O O9 0.000000 0.500000 0.500000
O O10 0.770783 0.192563 0.059877
O O11 0.108680 0.649401 0.322085
O O12 0.375631 0.288515 0.146194
O O13 0.000000 0.000000 0.000000
O O14 0.635700 0.911434 0.262822
O O15 0.500000 0.000000 0.500000
O O16 0.643160 0.024115 0.663947
#
# Coordination Sequence:
#
# PCOD8037299 Si02
#       7
#     2   2   2   2   2   2   2
#     4  12  24  47  72 104 143 188 238 297 359 422
#     4  12  26  47  74 105 146 191 236 293 361 421
#     4  12  26  46  73 102 141 190 239 297 364 424
#     4  12  28  46  73 108 147 188 241 295 355 431
#     4  12  25  47  74 106 147 187 241 293 358 430
#     4  12  26  46  70 106 144 187 244 296 355 428
#     4  12  26  45  73 106 144 186 240 296 359 428
#
# _framework density 23.030225000000002
#
# number of rings (size 3 to 8) (size 9 to 14) (size 15 to 20)
#    0.000    0.000    2.857    7.286    6.000    0.571 
#    0.000    0.000    0.000    0.000    0.000    0.000 
#    0.000    0.000    0.000    0.000    0.000    0.000 
#
# Total GULP energy -173676.189008 kJ/mol
# GULP energy per Si atom -12405.442072 kJ/mol
# Density = 2.297781 g / cm^3
# Si number density = 23.030225 Si / 1000 Ang^3
#
#
#
# Elastic Constant Matrix: (Units=GPa)
#
#
# Indices 1 2 3 4 5 6 
#
# 1 135.7056 35.5986 38.4451 -8.3941 8.0467 6.9518
# 2 35.5986 142.0306 23.9759 16.4976 10.1146 1.3467
# 3 38.4451 23.9759 100.1651 -12.2850 12.3728 -15.0671
# 4 -8.3941 16.4976 -12.2850 40.2480 -2.1170 4.8940
# 5 8.0467 10.1146 12.3728 -2.1170 41.1530 -6.1633
# 6 6.9518 1.3467 -15.0671 4.8940 -6.1633 44.7159
#
#
#
# Elastic Compliance Matrix: (Units=1/GPa)
#
#
# Indices 1 2 3 4 5 6 
#
# 1 0.009049 -0.001907 -0.003093 0.002018 -0.000672 -0.002705
# 2 -0.001907 0.008420 -0.001681 -0.004410 -0.001454 -0.000241
# 3 -0.003093 -0.001681 0.012872 0.003352 -0.002048 0.004220
# 4 0.002018 -0.004410 0.003352 0.028390 0.000836 -0.002043
# 5 -0.000672 -0.001454 -0.002048 0.000836 0.025887 0.002935
# 6 -0.002705 -0.000241 0.004220 -0.002043 0.002935 0.024841
#
#
# Mechanical properties :
#
#
# Convention : Reuss Voigt Hill
#
# Bulk Modulus (GPa) = 58.89597 63.77117 61.33357
# Shear Modulus (GPa) = 38.91653 43.88215 41.39934
#
# Velocity S-wave (km/s) = 4.11518 4.36984 4.24442
# Velocity P-wave (km/s) = 6.94323 7.29459 7.12108
#
# Compressibility (1/GPa) = 0.01697909
#
# Stress axis : x y z
#
# Youngs Moduli (GPa) = 110.51488 118.75790 77.68887
#
# Poissons Ratio (x) = 0.22644 0.24029
# Poissons Ratio (y) = 0.21072 0.13061
# Poissons Ratio (z) = 0.34182 0.19966
#
# Static dielectric constant tensor:
#      x y z
#    x 4.184910 -0.054710 0.089960 
#    y -0.054710 4.140680 -0.064250 
#    z 0.089960 -0.064250 4.076430 
# 
# 
# High freq. dielectric constant tensor:
#      x y z
#    x 1.920080 0.001410 0.007130 
#    y 0.001410 1.925440 0.007870 
#    z 0.007130 0.007870 1.914260 
# 
# From -- ./inp_files/199928.got.cif
#   From: 2010.06.25/outbox.cif.g09.slc.cpg/sg2_100_cif.got.tgz:199928.got - 2010.06.27 13:26:56.
