data_PCOD8037094
_publ_section_title
;
Structure prediction by ZEFSAII (Michael W. Deem and Ramdas Pophale) SiO2 
 PCOD8037094
Probable space group: P -1
;
_chemical_formula_sum "Si O2"
_cell_formula_units_Z 14
_cell_length_a 26.282381
_cell_length_b 5.277954
_cell_length_c 28.629058
_cell_angle_alpha 108.042528
_cell_angle_beta 170.848089
_cell_angle_gamma 71.558348
_cell_volume 599.126540
_symmetry_space_group_name_H-M "P -1"
_symmetry_group_IT_number 2
_symmetry_cell_setting 'triclinic'
loop_
_space_group_symop_operation_xyz
x,y,z
-x,-y,-z
loop_
_atom_site_type_symbol
_atom_site_label
_atom_site_fract_x
_atom_site_fract_y
_atom_site_fract_z
Si Si1 0.129028 0.288952 0.067093
Si Si2 0.544276 0.613422 0.777296
Si Si3 0.374881 0.961714 0.833364
Si Si4 0.407518 0.997241 0.469686
Si Si5 0.559618 0.352601 0.943042
Si Si6 0.268312 0.508537 0.425500
Si Si7 0.287839 0.216220 0.593541
O O1 0.451263 0.341487 0.335513
O O2 0.259239 0.036414 0.201930
O O3 0.000000 0.500000 0.000000
O O4 0.847829 0.233675 0.772428
O O5 0.391142 0.454671 0.586543
O O6 0.504007 0.423420 0.774702
O O7 0.366201 0.906776 0.634609
O O8 0.920714 0.667323 0.117892
O O9 0.491060 0.669020 0.904050
O O10 0.498691 0.191449 0.925698
O O11 0.000000 0.000000 0.500000
O O12 0.500000 0.000000 0.000000
O O13 0.212076 0.251498 0.328400
O O14 0.500000 0.000000 0.500000
O O15 0.328981 0.251448 0.688185
O O16 0.923556 0.292493 0.253213
#
# Coordination Sequence:
#
# PCOD8037094 Si02
#       7
#     2   2   2   2   2   2   2
#     4  12  26  44  69  98 135 174 224 275 360 462
#     4  12  28  47  72 102 139 179 246 312 351 414
#     4  12  24  42  70 114 152 186 233 288 347 410
#     4  12  26  44  69  98 135 174 224 275 360 462
#     4  12  24  45  74 100 147 198 235 288 347 412
#     4  12  28  45  69 100 134 181 221 304 376 416
#     4  12  26  49  71 102 136 194 251 290 349 412
#
# _framework density 23.367350999999999
#
# number of rings (size 3 to 8) (size 9 to 14) (size 15 to 20)
#    0.000    0.000    1.429    8.571    8.000    0.000 
#    0.000    0.000    0.000    0.000    0.000    0.000 
#    0.000    0.000    0.000    0.000    0.000    0.000 
#
# Total GULP energy -173560.448883 kJ/mol
# GULP energy per Si atom -12397.174920 kJ/mol
# Density = 2.331417 g / cm^3
# Si number density = 23.367351 Si / 1000 Ang^3
#
#
#
# Elastic Constant Matrix: (Units=GPa)
#
#
# Indices 1 2 3 4 5 6 
#
# 1 107.5090 27.2748 26.1501 -2.2422 -4.8586 -6.3955
# 2 27.2748 112.7927 30.3909 -5.8044 7.1205 -1.8520
# 3 26.1501 30.3909 137.2344 -6.4446 2.2683 -7.2869
# 4 -2.2422 -5.8044 -6.4446 41.7522 -0.5305 -3.5366
# 5 -4.8586 7.1205 2.2683 -0.5305 46.2817 8.3382
# 6 -6.3955 -1.8520 -7.2869 -3.5366 8.3382 39.8251
#
#
#
# Elastic Compliance Matrix: (Units=1/GPa)
#
#
# Indices 1 2 3 4 5 6 
#
# 1 0.010326 -0.002165 -0.001449 0.000134 0.001304 0.001031
# 2 -0.002165 0.010016 -0.001716 0.001011 -0.001718 0.000254
# 3 -0.001449 -0.001716 0.008073 0.001039 -0.000518 0.001365
# 4 0.000134 0.001011 0.001039 0.024467 -0.000364 0.002507
# 5 0.001304 -0.001718 -0.000518 -0.000364 0.022892 -0.004791
# 6 0.001031 0.000254 0.001365 0.002507 -0.004791 0.026763
#
#
# Mechanical properties :
#
#
# Convention : Reuss Voigt Hill
#
# Bulk Modulus (GPa) = 56.32134 58.35197 57.33665
# Shear Modulus (GPa) = 41.97592 43.81982 42.89787
#
# Velocity S-wave (km/s) = 4.24293 4.33512 4.28928
# Velocity P-wave (km/s) = 6.93961 7.07697 7.00863
#
# Compressibility (1/GPa) = 0.01775526
#
# Stress axis : x y z
#
# Youngs Moduli (GPa) = 96.84011 99.83543 123.87346
#
# Poissons Ratio (x) = 0.21616 0.17946
# Poissons Ratio (y) = 0.20968 0.21260
# Poissons Ratio (z) = 0.14029 0.17134
#
# Static dielectric constant tensor:
#      x y z
#    x 4.571750 -0.235460 -0.485290 
#    y -0.235460 4.450440 0.172920 
#    z -0.485290 0.172920 5.033420 
# 
# 
# High freq. dielectric constant tensor:
#      x y z
#    x 1.941560 -0.004490 -0.003460 
#    y -0.004490 1.925050 -0.004700 
#    z -0.003460 -0.004700 1.949710 
# 
# From -- ./inp_files/114801.got.cif
#   From: 2010.06.25/outbox.cif.g09.slc.cpg/sg2_58_cif.got.tgz:114801.got - 2010.06.27 13:26:56.
