data_PCOD8037848
_publ_section_title
;
Structure prediction by ZEFSAII (Michael W. Deem and Ramdas Pophale) SiO2 
 PCOD8037848
Probable space group: P -1
;
_chemical_formula_sum "Si O2"
_cell_formula_units_Z 16
_cell_length_a 9.194794
_cell_length_b 11.722879
_cell_length_c 11.638101
_cell_angle_alpha 74.379594
_cell_angle_beta 121.044856
_cell_angle_gamma 67.865274
_cell_volume 808.066447
_symmetry_space_group_name_H-M "P -1"
_symmetry_group_IT_number 2
_symmetry_cell_setting 'triclinic'
loop_
_space_group_symop_operation_xyz
x,y,z
-x,-y,-z
loop_
_atom_site_type_symbol
_atom_site_label
_atom_site_fract_x
_atom_site_fract_y
_atom_site_fract_z
Si Si1 0.602892 0.523460 0.749591
Si Si2 0.571929 0.046760 0.850183
Si Si3 0.491435 0.329452 0.660536
Si Si4 0.245837 0.818191 0.414022
Si Si5 0.705008 0.937588 0.678432
Si Si6 0.919104 0.472667 0.702764
Si Si7 0.940921 0.422871 0.085391
Si Si8 0.842610 0.842860 0.217789
O O1 0.476772 0.455867 0.693675
O O2 0.431497 0.706127 0.614972
O O3 0.801361 0.447835 0.760932
O O4 0.703493 0.479550 0.931942
O O5 0.550245 0.197796 0.805315
O O6 0.354449 0.075829 0.795109
O O7 0.623319 0.977869 0.763872
O O8 0.772614 0.930606 0.045287
O O9 0.672543 0.266312 0.652676
O O10 0.262400 0.394627 0.491656
O O11 0.026568 0.844551 0.349717
O O12 0.198505 0.978638 0.346658
O O13 0.887543 0.758357 0.792233
O O14 0.500000 0.000000 0.500000
O O15 0.059992 0.518470 0.803731
O O16 0.076900 0.324407 0.730616
O O17 0.000000 0.500000 0.000000
#
# Coordination Sequence:
#
# PCOD8037848 Si02
#       8
#     2   2   2   2   2   2   2   2
#     4  10  17  32  53  88 113 144 193 243 288 331
#     4  10  24  35  57  85 119 153 189 238 287 346
#     4  10  18  33  56  84 111 143 196 243 281 333
#     4  10  20  34  59  83 114 151 191 241 288 336
#     4  11  22  39  60  87 118 151 195 237 287 345
#     4  10  18  35  57  82 115 150 187 236 291 340
#     4  10  20  31  56  87 113 147 188 241 287 332
#     4  11  21  39  55  87 119 153 188 235 296 344
#
# _framework density 19.800353000000001
#
# number of rings (size 3 to 8) (size 9 to 14) (size 15 to 20)
#    0.000    1.750    2.500    5.250    1.750    1.500 
#    0.000    0.625    0.000    0.750    0.000    0.000 
#    0.000    0.000    0.000    0.000    0.000    0.000 
#
# Total GULP energy -198388.599157 kJ/mol
# GULP energy per Si atom -12399.287447 kJ/mol
# Density = 1.975529 g / cm^3
# Si number density = 19.800353 Si / 1000 Ang^3
#
#
#
# Elastic Constant Matrix: (Units=GPa)
#
#
# Indices 1 2 3 4 5 6 
#
# 1 42.5511 23.8253 32.2888 0.4991 7.5619 7.9255
# 2 23.8253 104.6877 43.4413 -5.1003 1.4859 25.5544
# 3 32.2888 43.4413 116.5542 -2.3808 15.5482 13.9456
# 4 0.4991 -5.1003 -2.3808 40.1985 7.8817 1.9922
# 5 7.5619 1.4859 15.5482 7.8817 23.6475 -0.2487
# 6 7.9255 25.5544 13.9456 1.9922 -0.2487 21.4068
#
#
#
# Elastic Compliance Matrix: (Units=1/GPa)
#
#
# Indices 1 2 3 4 5 6 
#
# 1 0.032063 -0.003791 -0.006275 0.000081 -0.005951 -0.003334
# 2 -0.003791 0.015510 -0.003016 0.002347 0.001277 -0.015350
# 3 -0.006275 -0.003016 0.012704 0.001915 -0.006822 -0.002609
# 4 0.000081 0.002347 0.001915 0.027730 -0.010746 -0.006784
# 5 -0.005951 0.001277 -0.006822 -0.010746 0.052248 0.006730
# 6 -0.003334 -0.015350 -0.002609 -0.006784 0.006730 0.068682
#
#
# Mechanical properties :
#
#
# Convention : Reuss Voigt Hill
#
# Bulk Modulus (GPa) = 29.31527 51.43377 40.37452
# Shear Modulus (GPa) = 20.28634 27.99975 24.14304
#
# Velocity S-wave (km/s) = 3.20432 3.76454 3.49567
# Velocity P-wave (km/s) = 5.34114 6.70285 6.06036
#
# Compressibility (1/GPa) = 0.03411192
#
# Stress axis : x y z
#
# Youngs Moduli (GPa) = 31.18859 64.47570 78.71738
#
# Poissons Ratio (x) = 0.24442 0.49395
# Poissons Ratio (y) = 0.11823 0.23744
# Poissons Ratio (z) = 0.19571 0.19448
#
# Static dielectric constant tensor:
#      x y z
#    x 3.239290 0.236510 0.062410 
#    y 0.236510 3.676350 0.056630 
#    z 0.062410 0.056630 4.037040 
# 
# 
# High freq. dielectric constant tensor:
#      x y z
#    x 1.731470 0.023540 0.008210 
#    y 0.023540 1.766280 -0.008800 
#    z 0.008210 -0.008800 1.792210 
# 
# From -- ./inp_files/252391.got.cif
#   From: 2010.06.25/outbox.cif.g09.slc.cpg/sg2_127_cif.got.tgz:252391.got - 2010.06.27 13:26:56.
