data_PCOD8037806
_publ_section_title
;
Structure prediction by ZEFSAII (Michael W. Deem and Ramdas Pophale) SiO2 
 PCOD8037806
Probable space group: P -1
;
_chemical_formula_sum "Si O2"
_cell_formula_units_Z 14
_cell_length_a 9.397132
_cell_length_b 10.943743
_cell_length_c 9.620218
_cell_angle_alpha 71.652218
_cell_angle_beta 60.833768
_cell_angle_gamma 115.449382
_cell_volume 582.711558
_symmetry_space_group_name_H-M "P -1"
_symmetry_group_IT_number 2
_symmetry_cell_setting 'triclinic'
loop_
_space_group_symop_operation_xyz
x,y,z
-x,-y,-z
loop_
_atom_site_type_symbol
_atom_site_label
_atom_site_fract_x
_atom_site_fract_y
_atom_site_fract_z
Si Si1 0.596446 0.911127 0.019620
Si Si2 0.180889 0.592572 0.503947
Si Si3 0.808097 0.324497 0.240088
Si Si4 0.106366 0.268473 0.745221
Si Si5 0.649010 0.771195 0.534494
Si Si6 0.969353 0.153913 0.149764
Si Si7 0.666585 0.714454 0.855844
O O1 0.440586 0.762558 0.268881
O O2 0.574675 0.793510 0.947695
O O3 0.500000 0.000000 0.000000
O O4 0.861494 0.075693 0.876947
O O5 0.135936 0.666379 0.626047
O O6 0.128975 0.432292 0.664468
O O7 0.000000 0.500000 0.500000
O O8 0.592991 0.295845 0.326000
O O9 0.787962 0.171120 0.239188
O O10 0.000000 0.500000 0.000000
O O11 0.328136 0.348652 0.519170
O O12 0.130293 0.248014 0.903796
O O13 0.739459 0.800807 0.636811
O O14 0.819850 0.944438 0.292253
O O15 0.123050 0.233965 0.184688
O O16 0.500000 0.500000 0.000000
#
# Coordination Sequence:
#
# PCOD8037806 Si02
#       7
#     2   2   2   2   2   2   2
#     4  12  28  48  82 117 157 207 269 325 388 473
#     4  12  28  47  79 112 160 207 262 320 399 462
#     4  12  28  49  75 114 156 202 257 326 392 474
#     4  12  27  52  79 115 156 207 261 328 394 472
#     4  12  28  49  79 110 155 204 260 322 397 462
#     4  12  27  49  79 111 156 201 265 317 397 471
#     4  12  29  49  78 114 161 202 263 325 398 465
#
# _framework density 24.025608999999999
#
# number of rings (size 3 to 8) (size 9 to 14) (size 15 to 20)
#    0.000    0.000    4.286    3.857   12.000    0.571 
#    0.000    0.000    0.000    0.000    0.000    0.000 
#    0.000    0.000    0.000    0.000    0.000    0.000 
#
# Total GULP energy -173470.871863 kJ/mol
# GULP energy per Si atom -12390.776562 kJ/mol
# Density = 2.397093 g / cm^3
# Si number density = 24.025609 Si / 1000 Ang^3
#
#
#
# Elastic Constant Matrix: (Units=GPa)
#
#
# Indices 1 2 3 4 5 6 
#
# 1 131.5095 23.9894 50.0699 17.8909 -2.0983 3.4066
# 2 23.9894 98.0295 33.6307 13.4665 4.9194 -16.8700
# 3 50.0699 33.6307 164.1216 19.3480 17.3122 -7.0862
# 4 17.8909 13.4665 19.3480 59.0310 0.0746 0.8331
# 5 -2.0983 4.9194 17.3122 0.0746 50.9647 5.0101
# 6 3.4066 -16.8700 -7.0862 0.8331 5.0101 36.0210
#
#
#
# Elastic Compliance Matrix: (Units=1/GPa)
#
#
# Indices 1 2 3 4 5 6 
#
# 1 0.009171 -0.001640 -0.002554 -0.001538 0.001635 -0.002329
# 2 -0.001640 0.012450 -0.001419 -0.001960 -0.001369 0.005942
# 3 -0.002554 -0.001419 0.007685 -0.001439 -0.002724 0.001501
# 4 -0.001538 -0.001960 -0.001439 0.018346 0.000743 -0.001583
# 5 0.001635 -0.001369 -0.002724 0.000743 0.021167 -0.004293
# 6 -0.002329 0.005942 0.001501 -0.001583 -0.004293 0.031694
#
#
# Mechanical properties :
#
#
# Convention : Reuss Voigt Hill
#
# Bulk Modulus (GPa) = 55.30769 67.67119 61.48944
# Shear Modulus (GPa) = 42.45783 48.26806 45.36295
#
# Velocity S-wave (km/s) = 4.20836 4.48708 4.34995
# Velocity P-wave (km/s) = 6.83257 7.42109 7.13290
#
# Compressibility (1/GPa) = 0.01808067
#
# Stress axis : x y z
#
# Youngs Moduli (GPa) = 109.03954 80.32369 130.13095
#
# Poissons Ratio (x) = 0.13173 0.33230
# Poissons Ratio (y) = 0.17882 0.18463
# Poissons Ratio (z) = 0.27844 0.11396
#
# Static dielectric constant tensor:
#      x y z
#    x 0.509430 0.580140 1.021400 
#    y 0.580140 5.031730 -0.099910 
#    z 1.021400 -0.099910 4.206340 
# 
# 
# High freq. dielectric constant tensor:
#      x y z
#    x 1.954320 -0.013260 0.007850 
#    y -0.013260 1.973280 0.003650 
#    z 0.007850 0.003650 1.972920 
# 
# From -- ./inp_files/181406.got.cif
#   From: 2010.06.25/outbox.cif.g09.slc.cpg/sg2_91_cif.got.tgz:181406.got - 2010.06.27 13:26:56.
