data_PCOD8037850
_publ_section_title
;
Structure prediction by ZEFSAII (Michael W. Deem and Ramdas Pophale) SiO2 
 PCOD8037850
Probable space group: P -1
;
_chemical_formula_sum "Si O2"
_cell_formula_units_Z 16
_cell_length_a 9.413664
_cell_length_b 19.417359
_cell_length_c 14.100817
_cell_angle_alpha 30.832418
_cell_angle_beta 70.929887
_cell_angle_gamma 50.670867
_cell_volume 854.367638
_symmetry_space_group_name_H-M "P -1"
_symmetry_group_IT_number 2
_symmetry_cell_setting 'triclinic'
loop_
_space_group_symop_operation_xyz
x,y,z
-x,-y,-z
loop_
_atom_site_type_symbol
_atom_site_label
_atom_site_fract_x
_atom_site_fract_y
_atom_site_fract_z
Si Si1 0.470460 0.196262 0.366482
Si Si2 0.792664 0.905117 0.494713
Si Si3 0.471023 0.113927 0.665463
Si Si4 0.039092 0.352911 0.594807
Si Si5 0.657393 0.023384 0.921606
Si Si6 0.821966 0.510296 0.059613
Si Si7 0.555554 0.615958 0.331324
Si Si8 0.510048 0.186667 0.068931
O O1 0.335531 0.149028 0.432109
O O2 0.485463 0.207885 0.462476
O O3 0.711064 0.024790 0.469463
O O4 0.344884 0.401035 0.098021
O O5 0.054488 0.708842 0.679328
O O6 0.734117 0.036204 0.261099
O O7 0.224214 0.274008 0.571619
O O8 0.651889 0.049249 0.778494
O O9 0.537729 0.920625 0.848704
O O10 0.000000 0.500000 0.500000
O O11 0.817310 0.465790 0.453480
O O12 0.108553 0.174252 0.851656
O O13 0.567367 0.215437 0.762823
O O14 0.500000 0.000000 0.000000
O O15 0.696374 0.651568 0.010034
O O16 0.000000 0.500000 0.000000
O O17 0.500000 0.500000 0.500000
O O18 0.465326 0.712099 0.133239
#
# Coordination Sequence:
#
# PCOD8037850 Si02
#       8
#     2   2   2   2   2   2   2   2
#     4   8  15  25  40  73 105 133 166 222 267 325
#     4   8  15  28  40  65 107 141 168 210 275 325
#     4  10  17  32  54  76 109 141 181 220 283 317
#     4  11  20  36  58  76 105 151 187 228 276 323
#     4  10  19  39  54  77 110 140 187 237 271 326
#     4   9  16  26  44  72 107 138 174 217 274 330
#     4  12  25  38  54  83 113 148 191 231 273 332
#     4  10  19  31  48  72 108 148 174 224 274 324
#
# _framework density 18.727301000000001
#
# number of rings (size 3 to 8) (size 9 to 14) (size 15 to 20)
#    0.000    2.250    5.000    2.250    5.250    0.500 
#    2.250    0.000    0.000    0.000    0.000    3.500 
#    0.000    9.000    0.000    0.000    0.000    0.000 
#
# Total GULP energy -198259.139439 kJ/mol
# GULP energy per Si atom -12391.196215 kJ/mol
# Density = 1.868468 g / cm^3
# Si number density = 18.727301 Si / 1000 Ang^3
#
#
#
# Elastic Constant Matrix: (Units=GPa)
#
#
# Indices 1 2 3 4 5 6 
#
# 1 23.9299 23.1280 34.5754 2.3889 -1.9033 5.3777
# 2 23.1280 147.0070 81.9474 11.7184 10.3317 19.4458
# 3 34.5754 81.9474 162.4936 4.9197 22.5415 9.9228
# 4 2.3889 11.7184 4.9197 38.7155 2.7528 7.8836
# 5 -1.9033 10.3317 22.5415 2.7528 27.3512 1.4220
# 6 5.3777 19.4458 9.9228 7.8836 1.4220 14.2982
#
#
#
# Elastic Compliance Matrix: (Units=1/GPa)
#
#
# Indices 1 2 3 4 5 6 
#
# 1 0.071980 -0.001547 -0.016342 -0.000149 0.019883 -0.015523
# 2 -0.001547 0.011102 -0.004593 -0.000428 0.000104 -0.011104
# 3 -0.016342 -0.004593 0.013144 0.000672 -0.010508 0.003946
# 4 -0.000149 -0.000428 0.000672 0.029262 -0.002531 -0.015711
# 5 0.019883 0.000104 -0.010508 -0.002531 0.047008 -0.003608
# 6 -0.015523 -0.011104 0.003946 -0.015711 -0.003608 0.097162
#
#
# Mechanical properties :
#
#
# Convention : Reuss Voigt Hill
#
# Bulk Modulus (GPa) = 19.50746 68.08134 43.79440
# Shear Modulus (GPa) = 15.07351 28.99162 22.03257
#
# Velocity S-wave (km/s) = 2.84015 3.93885 3.43373
# Velocity P-wave (km/s) = 4.60374 7.55771 6.25753
#
# Compressibility (1/GPa) = 0.05126245
#
# Stress axis : x y z
#
# Youngs Moduli (GPa) = 13.89272 90.07704 76.08098
#
# Poissons Ratio (x) = 0.13935 1.24328
# Poissons Ratio (y) = 0.02149 0.34944
# Poissons Ratio (z) = 0.22703 0.41372
#
# Static dielectric constant tensor:
#      x y z
#    x 2.940240 0.292640 0.685630 
#    y 0.292640 3.052770 0.172310 
#    z 0.685630 0.172310 4.663740 
# 
# 
# High freq. dielectric constant tensor:
#      x y z
#    x 1.645850 0.014460 0.032180 
#    y 0.014460 1.738570 0.002530 
#    z 0.032180 0.002530 1.747500 
# 
# From -- ./inp_files/506969.got.cif
#   From: 2010.06.25/outbox.cif.g09.slc.cpg/sg2_254_cif.got.tgz:506969.got - 2010.06.27 13:26:56.
