data_PCOD8037016
_publ_section_title
;
Structure prediction by ZEFSAII (Michael W. Deem and Ramdas Pophale) SiO2 
 PCOD8037016
Probable space group: P -1
;
_chemical_formula_sum "Si O2"
_cell_formula_units_Z 14
_cell_length_a 8.360361
_cell_length_b 15.083126
_cell_length_c 17.923020
_cell_angle_alpha 157.506509
_cell_angle_beta 129.238938
_cell_angle_gamma 49.199900
_cell_volume 651.291988
_symmetry_space_group_name_H-M "P -1"
_symmetry_group_IT_number 2
_symmetry_cell_setting 'triclinic'
loop_
_space_group_symop_operation_xyz
x,y,z
-x,-y,-z
loop_
_atom_site_type_symbol
_atom_site_label
_atom_site_fract_x
_atom_site_fract_y
_atom_site_fract_z
Si Si1 0.030448 0.132669 0.812937
Si Si2 0.865735 0.670556 0.414403
Si Si3 0.532037 0.930871 0.040484
Si Si4 0.795942 0.976963 0.378196
Si Si5 0.690880 0.597876 0.598362
Si Si6 0.570132 0.570132 0.379397
Si Si7 0.717522 0.571563 0.130772
O O1 0.127205 0.159702 0.781615
O O2 0.228144 0.047214 0.859448
O O3 0.882427 0.943336 0.623300
O O4 0.900526 0.389427 0.999418
O O5 0.696050 0.653175 0.413774
O O6 0.783851 0.581982 0.244426
O O7 0.093631 0.506099 0.374498
O O8 0.495716 0.673056 0.849605
O O9 0.500000 0.000000 0.000000
O O10 0.366130 0.116357 0.186771
O O11 0.673722 0.827629 0.277660
O O12 0.645885 0.234007 0.515985
O O13 0.000000 0.000000 0.500000
O O14 0.500000 0.500000 0.500000
O O15 0.716487 0.534951 0.469317
O O16 0.500000 0.500000 0.000000
#
# Coordination Sequence:
#
# PCOD8037016 Si02
#       7
#     2   2   2   2   2   2   2
#     4  12  25  46  73 101 138 190 240 286 346 417
#     4  12  27  47  71 104 149 185 228 295 358 415
#     4  12  24  41  76 104 136 182 236 289 344 421
#     4  12  25  47  74 101 142 190 242 287 342 419
#     4  12  23  47  73 103 141 182 238 289 352 418
#     4  12  27  44  71 108 143 183 233 293 358 412
#     4  12  29  46  71 106 144 186 236 291 352 416
#
# _framework density 21.495735
#
# number of rings (size 3 to 8) (size 9 to 14) (size 15 to 20)
#    0.000    0.000    5.714    3.429    4.000    2.857 
#    0.000    0.000    0.000    0.000    0.000    0.000 
#    0.000    0.000    0.000    0.000    0.000    0.000 
#
# Total GULP energy -173679.267069 kJ/mol
# GULP energy per Si atom -12405.661934 kJ/mol
# Density = 2.144681 g / cm^3
# Si number density = 21.495735 Si / 1000 Ang^3
#
#
#
# Elastic Constant Matrix: (Units=GPa)
#
#
# Indices 1 2 3 4 5 6 
#
# 1 105.2751 36.5843 32.8762 -16.0825 3.0960 23.8443
# 2 36.5843 126.4162 40.7648 -26.0797 1.7507 8.9411
# 3 32.8762 40.7648 116.9815 -11.0509 1.3030 12.7866
# 4 -16.0825 -26.0797 -11.0509 43.7387 -1.3120 2.4156
# 5 3.0960 1.7507 1.3030 -1.3120 44.5465 0.1647
# 6 23.8443 8.9411 12.7866 2.4156 0.1647 33.3011
#
#
#
# Elastic Compliance Matrix: (Units=1/GPa)
#
#
# Indices 1 2 3 4 5 6 
#
# 1 0.013234 -0.001869 -0.001770 0.003758 -0.000652 -0.008564
# 2 -0.001869 0.010330 -0.002523 0.004878 -0.000056 -0.000820
# 3 -0.001770 -0.002523 0.010195 0.000530 -0.000053 -0.002008
# 4 0.003758 0.004878 0.000530 0.027641 0.000369 -0.006211
# 5 -0.000652 -0.000056 -0.000053 0.000369 0.022507 0.000364
# 6 -0.008564 -0.000820 -0.002008 -0.006211 0.000364 0.037601
#
#
# Mechanical properties :
#
#
# Convention : Reuss Voigt Hill
#
# Bulk Modulus (GPa) = 46.65274 63.23594 54.94434
# Shear Modulus (GPa) = 35.46648 40.21377 37.84012
#
# Velocity S-wave (km/s) = 4.06634 4.32994 4.20021
# Velocity P-wave (km/s) = 6.61795 7.38103 7.00988
#
# Compressibility (1/GPa) = 0.02143497
#
# Stress axis : x y z
#
# Youngs Moduli (GPa) = 75.56258 96.80385 98.08575
#
# Poissons Ratio (x) = 0.18095 0.17357
# Poissons Ratio (y) = 0.14125 0.24751
# Poissons Ratio (z) = 0.13371 0.24427
#
# Static dielectric constant tensor:
#      x y z
#    x 3.865730 -0.056750 -0.147270 
#    y -0.056750 4.021220 -0.122700 
#    z -0.147270 -0.122700 4.134730 
# 
# 
# High freq. dielectric constant tensor:
#      x y z
#    x 1.843940 0.002030 -0.003740 
#    y 0.002030 1.863380 -0.003640 
#    z -0.003740 -0.003640 1.860020 
# 
# From -- ./inp_files/46188.got.cif
#   From: 2010.06.25/outbox.cif.g09.slc.cpg/sg2_24_cif.got.tgz:46188.got - 2010.06.27 13:26:56.
