data_PCOD8037865
_publ_section_title
;
Structure prediction by ZEFSAII (Michael W. Deem and Ramdas Pophale) SiO2 
 PCOD8037865
Probable space group: P -1
;
_chemical_formula_sum "Si O2"
_cell_formula_units_Z 14
_cell_length_a 7.295940
_cell_length_b 8.859162
_cell_length_c 10.229465
_cell_angle_alpha 107.755949
_cell_angle_beta 115.864353
_cell_angle_gamma 97.538819
_cell_volume 539.010007
_symmetry_space_group_name_H-M "P -1"
_symmetry_group_IT_number 2
_symmetry_cell_setting 'triclinic'
loop_
_space_group_symop_operation_xyz
x,y,z
-x,-y,-z
loop_
_atom_site_type_symbol
_atom_site_label
_atom_site_fract_x
_atom_site_fract_y
_atom_site_fract_z
Si Si1 0.724872 0.379180 0.007154
Si Si2 0.654076 0.473995 0.427150
Si Si3 0.514311 0.928804 0.278536
Si Si4 0.652493 0.660925 0.923299
Si Si5 0.990352 0.615716 0.347500
Si Si6 0.086334 0.083630 0.755707
Si Si7 0.643488 0.822548 0.561218
O O1 0.697350 0.195111 0.892429
O O2 0.749821 0.507054 0.926654
O O3 0.503781 0.358145 0.007307
O O4 0.921043 0.453376 0.187500
O O5 0.459464 0.344105 0.252644
O O6 0.822219 0.588702 0.406554
O O7 0.588645 0.623257 0.526782
O O8 0.772151 0.370328 0.525386
O O9 0.727949 0.972587 0.270745
O O10 0.543883 0.833176 0.392762
O O11 0.467945 0.099353 0.341063
O O12 0.837094 0.836160 0.055822
O O13 0.993786 0.785786 0.321419
O O14 0.896589 0.913530 0.667543
#
# Coordination Sequence:
#
# PCOD8037865 Si02
#       7
#     2   2   2   2   2   2   2
#     4   8  13  29  50  76  99 150 182 215 265 334
#     4  10  17  32  55  84 111 147 183 224 282 336
#     4  10  19  33  56  82 116 142 183 228 280 321
#     4   8  14  28  54  75 106 144 183 223 271 320
#     4   9  18  30  57  81 111 146 184 225 283 325
#     4  10  19  36  59  85 107 141 191 234 266 323
#     4  11  21  32  58  88 109 142 189 230 272 326
#
# _framework density 25.973542999999999
#
# number of rings (size 3 to 8) (size 9 to 14) (size 15 to 20)
#    0.000    2.571    2.857    2.143    0.000    0.000 
#    0.000    3.571    3.143    8.571    0.000    0.000 
#    0.000    0.000    0.000    0.000    0.000    0.000 
#
# Total GULP energy -173586.327295 kJ/mol
# GULP energy per Si atom -12399.023378 kJ/mol
# Density = 2.591443 g / cm^3
# Si number density = 25.973543 Si / 1000 Ang^3
#
#
#
# Elastic Constant Matrix: (Units=GPa)
#
#
# Indices 1 2 3 4 5 6 
#
# 1 92.1649 50.7455 55.3989 13.5385 -7.1404 -9.4625
# 2 50.7455 96.1072 58.3810 20.1883 6.2843 6.5661
# 3 55.3989 58.3810 182.1879 16.4186 9.2259 -4.1030
# 4 13.5385 20.1883 16.4186 41.3121 -6.6752 7.3822
# 5 -7.1404 6.2843 9.2259 -6.6752 15.3258 7.4514
# 6 -9.4625 6.5661 -4.1030 7.3822 7.4514 37.0915
#
#
#
# Elastic Compliance Matrix: (Units=1/GPa)
#
#
# Indices 1 2 3 4 5 6 
#
# 1 0.019520 -0.009541 -0.003672 0.001497 0.014373 0.003077
# 2 -0.009541 0.019161 -0.001948 -0.007283 -0.013375 -0.001905
# 3 -0.003672 -0.001948 0.007942 -0.002746 -0.008083 0.002457
# 4 0.001497 -0.007283 -0.002746 0.034371 0.025455 -0.010587
# 5 0.014373 -0.013375 -0.008083 0.025455 0.103452 -0.020709
# 6 0.003077 -0.001905 0.002457 -0.010587 -0.020709 0.034622
#
#
# Mechanical properties :
#
#
# Convention : Reuss Voigt Hill
#
# Bulk Modulus (GPa) = 61.34500 77.72342 69.53421
# Shear Modulus (GPa) = 19.62159 32.47485 26.04822
#
# Velocity S-wave (km/s) = 2.75152 3.53980 3.17026
# Velocity P-wave (km/s) = 5.81068 6.83344 6.34271
#
# Compressibility (1/GPa) = 0.01630125
#
# Stress axis : x y z
#
# Youngs Moduli (GPa) = 51.23032 52.19021 125.91771
#
# Poissons Ratio (x) = 0.49793 0.46233
# Poissons Ratio (y) = 0.48878 0.24529
# Poissons Ratio (z) = 0.18810 0.10167
#
# Static dielectric constant tensor:
#      x y z
#    x 4.713270 -0.027050 0.003100 
#    y -0.027050 4.237990 0.251920 
#    z 0.003100 0.251920 5.091010 
# 
# 
# High freq. dielectric constant tensor:
#      x y z
#    x 2.047740 0.008660 0.000130 
#    y 0.008660 2.018160 0.019980 
#    z 0.000130 0.019980 2.059390 
# 
# From -- ./inp_files/383376.got.cif
#   From: 2010.06.25/outbox.cif.g09.slc.cpg/sg2_192_cif.got.tgz:383376.got - 2010.06.27 13:26:56.
