data_PCOD8037948
_publ_section_title
;
Structure prediction by ZEFSAII (Michael W. Deem and Ramdas Pophale) SiO2 
 PCOD8037948
Probable space group: P -1
;
_chemical_formula_sum "Si O2"
_cell_formula_units_Z 16
_cell_length_a 5.495517
_cell_length_b 15.538857
_cell_length_c 27.595358
_cell_angle_alpha 18.931572
_cell_angle_beta 79.789529
_cell_angle_gamma 79.549523
_cell_volume 751.731485
_symmetry_space_group_name_H-M "P -1"
_symmetry_group_IT_number 2
_symmetry_cell_setting 'triclinic'
loop_
_space_group_symop_operation_xyz
x,y,z
-x,-y,-z
loop_
_atom_site_type_symbol
_atom_site_label
_atom_site_fract_x
_atom_site_fract_y
_atom_site_fract_z
Si Si1 0.621511 0.199357 0.248082
Si Si2 0.728562 0.578622 0.417857
Si Si3 0.509136 0.082579 0.834187
Si Si4 0.929154 0.900823 0.323042
Si Si5 0.144980 0.709775 0.095405
Si Si6 0.283450 0.855663 0.110211
Si Si7 0.923458 0.664722 0.784460
Si Si8 0.160689 0.278968 0.049830
O O1 0.336324 0.162713 0.293009
O O2 0.830698 0.168093 0.300970
O O3 0.639551 0.496693 0.067001
O O4 0.690685 0.975606 0.324609
O O5 0.500000 0.500000 0.500000
O O6 0.666508 0.707076 0.299933
O O7 0.901627 0.319605 0.537772
O O8 0.864618 0.797022 0.327572
O O9 0.621508 0.258387 0.780615
O O10 0.720363 0.972559 0.849261
O O11 0.380675 0.825671 0.997721
O O12 0.072361 0.171419 0.162663
O O13 0.197580 0.641249 0.187317
O O14 0.063617 0.442293 0.214307
O O15 0.933537 0.935768 0.979612
O O16 0.500000 0.000000 0.000000
O O17 0.932443 0.409782 0.956416
#
# Coordination Sequence:
#
# PCOD8037948 Si02
#       8
#     2   2   2   2   2   2   2   2
#     4  10  23  36  58  84 115 155 199 244 298 344
#     4  11  25  38  58  76 115 163 202 247 282 334
#     4  11  19  35  55  81 117 154 195 234 294 347
#     4  11  24  39  51  82 110 157 210 243 284 343
#     4  10  17  33  52  83 122 143 185 230 301 363
#     4   9  19  29  53  82 114 150 180 234 290 367
#     4  10  20  33  55  86 112 154 179 240 304 345
#     4  10  20  33  57  82 116 152 189 246 293 341
#
# _framework density 21.284192999999998
#
# number of rings (size 3 to 8) (size 9 to 14) (size 15 to 20)
#    0.750    1.000    3.750    1.125    3.500    0.500 
#    0.000    0.000    0.000    0.000    0.000    1.750 
#    0.000    0.000    0.000    0.000    0.000    0.000 
#
# Total GULP energy -198222.482113 kJ/mol
# GULP energy per Si atom -12388.905132 kJ/mol
# Density = 2.123575 g / cm^3
# Si number density = 21.284193 Si / 1000 Ang^3
#
#
#
# Elastic Constant Matrix: (Units=GPa)
#
#
# Indices 1 2 3 4 5 6 
#
# 1 104.0550 28.8088 9.3764 -2.2855 22.7884 -0.0853
# 2 28.8088 91.8795 17.8988 -7.1516 33.0009 2.2194
# 3 9.3764 17.8988 31.2927 -1.2341 17.6668 9.1480
# 4 -2.2855 -7.1516 -1.2341 19.1669 -0.1959 9.0511
# 5 22.7884 33.0009 17.6668 -0.1959 28.9208 5.0359
# 6 -0.0853 2.2194 9.1480 9.0511 5.0359 38.9945
#
#
#
# Elastic Compliance Matrix: (Units=1/GPa)
#
#
# Indices 1 2 3 4 5 6 
#
# 1 0.011809 -0.000335 0.002467 0.001061 -0.010524 0.000579
# 2 -0.000335 0.019480 0.002590 0.007343 -0.023428 -0.000396
# 3 0.002467 0.002590 0.053105 0.009098 -0.035514 -0.010126
# 4 0.001061 0.007343 0.009098 0.062896 -0.011621 -0.015648
# 5 -0.010524 -0.023428 -0.035514 -0.011621 0.091118 0.000572
# 6 0.000579 -0.000396 -0.010126 -0.015648 0.000572 0.031602
#
#
# Mechanical properties :
#
#
# Convention : Reuss Voigt Hill
#
# Bulk Modulus (GPa) = 10.65667 37.71056 24.18362
# Shear Modulus (GPa) = 17.13233 28.82599 22.97916
#
# Velocity S-wave (km/s) = 2.84021 3.68413 3.28934
# Velocity P-wave (km/s) = 3.97158 5.98775 5.08068
#
# Compressibility (1/GPa) = 0.09383793
#
# Stress axis : x y z
#
# Youngs Moduli (GPa) = 84.67952 51.33459 18.83069
#
# Poissons Ratio (x) = 0.01719 -0.04646
# Poissons Ratio (y) = 0.02836 -0.04877
# Poissons Ratio (z) = -0.20890 -0.13295
#
# Static dielectric constant tensor:
#      x y z
#    x 4.010390 0.303160 0.146420 
#    y 0.303160 4.139170 -0.039100 
#    z 0.146420 -0.039100 3.274510 
# 
# 
# High freq. dielectric constant tensor:
#      x y z
#    x 1.846470 0.002080 0.011360 
#    y 0.002080 1.841840 -0.012980 
#    z 0.011360 -0.012980 1.766440 
# 
# From -- ./inp_files/93368.got.cif
#   From: 2010.06.25/outbox.cif.g09.slc.cpg/sg2_47_cif.got.tgz:93368.got - 2010.06.27 13:26:56.
