data_PCOD8037789
_publ_section_title
;
Structure prediction by ZEFSAII (Michael W. Deem and Ramdas Pophale) SiO2 
 PCOD8037789
Probable space group: P -1
;
_chemical_formula_sum "Si O2"
_cell_formula_units_Z 16
_cell_length_a 10.048596
_cell_length_b 7.998073
_cell_length_c 9.320097
_cell_angle_alpha 87.793979
_cell_angle_beta 123.943239
_cell_angle_gamma 83.152317
_cell_volume 611.932932
_symmetry_space_group_name_H-M "P -1"
_symmetry_group_IT_number 2
_symmetry_cell_setting 'triclinic'
loop_
_space_group_symop_operation_xyz
x,y,z
-x,-y,-z
loop_
_atom_site_type_symbol
_atom_site_label
_atom_site_fract_x
_atom_site_fract_y
_atom_site_fract_z
Si Si1 0.613331 0.956943 0.236926
Si Si2 0.119678 0.608653 0.500298
Si Si3 0.230103 0.572973 0.022594
Si Si4 0.926557 0.238428 0.822106
Si Si5 0.274444 0.177012 0.092274
Si Si6 0.222300 0.045476 0.359873
Si Si7 0.561129 0.588188 0.176861
Si Si8 0.872820 0.156190 0.273607
O O1 0.567721 0.931595 0.885893
O O2 0.663171 0.952922 0.434133
O O3 0.617408 0.769734 0.179943
O O4 0.737018 0.035218 0.204874
O O5 0.081463 0.618098 0.309354
O O6 0.306040 0.533426 0.647011
O O7 0.081542 0.800982 0.535829
O O8 0.000000 0.500000 0.500000
O O9 0.090976 0.654897 0.045164
O O10 0.401693 0.617432 0.181796
O O11 0.248392 0.371834 0.020190
O O12 0.198784 0.659860 0.844144
O O13 0.105489 0.115479 0.942478
O O14 0.775904 0.137752 0.708596
O O15 0.284696 0.165107 0.273250
O O16 0.033554 0.085139 0.286805
O O17 0.500000 0.500000 0.000000
#
# Coordination Sequence:
#
# PCOD8037789 Si02
#       8
#     2   2   2   2   2   2   2   2
#     4  12  29  51  81 119 159 210 267 338 403 476
#     4  12  27  48  80 115 160 210 270 330 397 476
#     4  12  28  50  79 116 159 212 268 325 399 475
#     4  12  28  49  79 116 159 215 268 326 398 477
#     4  12  28  49  82 116 162 214 267 326 403 480
#     4  12  27  51  79 118 161 213 265 331 401 477
#     4  12  29  52  80 116 157 209 267 332 407 475
#     4  12  26  51  80 116 162 208 270 327 399 475
#
# _framework density 26.146656
#
# number of rings (size 3 to 8) (size 9 to 14) (size 15 to 20)
#    0.000    0.000    3.750    4.500    7.000    1.000 
#    0.000    0.000    0.000    0.000    0.000    0.000 
#    0.000    0.000    0.000    0.000    0.000    0.000 
#
# Total GULP energy -198357.671504 kJ/mol
# GULP energy per Si atom -12397.354469 kJ/mol
# Density = 2.608714 g / cm^3
# Si number density = 26.146656 Si / 1000 Ang^3
#
#
#
# Elastic Constant Matrix: (Units=GPa)
#
#
# Indices 1 2 3 4 5 6 
#
# 1 110.2512 8.6403 4.8909 0.4679 3.5418 -6.3295
# 2 8.6403 119.4483 15.9740 18.3570 -9.1937 15.4407
# 3 4.8909 15.9740 106.9284 -9.8284 6.0510 3.9159
# 4 0.4679 18.3570 -9.8284 45.8329 7.4542 -0.7715
# 5 3.5418 -9.1937 6.0510 7.4542 39.9804 -0.6683
# 6 -6.3295 15.4407 3.9159 -0.7715 -0.6683 45.9195
#
#
#
# Elastic Compliance Matrix: (Units=1/GPa)
#
#
# Indices 1 2 3 4 5 6 
#
# 1 0.009285 -0.001005 -0.000231 0.000461 -0.001078 0.001630
# 2 -0.001005 0.010241 -0.002041 -0.005183 0.003662 -0.003442
# 3 -0.000231 -0.002041 0.010137 0.003417 -0.002624 -0.000191
# 4 0.000461 -0.005183 0.003417 0.025713 -0.006513 0.001852
# 5 -0.001078 0.003662 -0.002624 -0.006513 0.027547 -0.000865
# 6 0.001630 -0.003442 -0.000191 0.001852 -0.000865 0.023194
#
#
# Mechanical properties :
#
#
# Convention : Reuss Voigt Hill
#
# Bulk Modulus (GPa) = 43.27455 43.95981 43.61718
# Shear Modulus (GPa) = 41.53707 46.82141 44.17924
#
# Velocity S-wave (km/s) = 3.99007 4.23628 4.11502
# Velocity P-wave (km/s) = 6.14933 6.38572 6.26864
#
# Compressibility (1/GPa) = 0.02310827
#
# Stress axis : x y z
#
# Youngs Moduli (GPa) = 107.69557 97.64915 98.64730
#
# Poissons Ratio (x) = 0.09816 0.02278
# Poissons Ratio (y) = 0.10826 0.20138
# Poissons Ratio (z) = 0.02486 0.19934
#
# Static dielectric constant tensor:
#      x y z
#    x 5.381210 -0.302710 0.283230 
#    y -0.302710 5.173550 -0.163960 
#    z 0.283230 -0.163960 4.979050 
# 
# 
# High freq. dielectric constant tensor:
#      x y z
#    x 2.064670 0.003900 0.002080 
#    y 0.003900 2.048730 -0.001590 
#    z 0.002080 -0.001590 2.059960 
# 
# From -- ./inp_files/239329.got.cif
#   From: 2010.06.25/outbox.cif.g09.slc.cpg/sg2_120_cif.got.tgz:239329.got - 2010.06.27 13:26:56.
