data_PCOD8037811
_publ_section_title
;
Structure prediction by ZEFSAII (Michael W. Deem and Ramdas Pophale) SiO2 
 PCOD8037811
Probable space group: P -1
;
_chemical_formula_sum "Si O2"
_cell_formula_units_Z 12
_cell_length_a 8.244809
_cell_length_b 15.217767
_cell_length_c 15.817372
_cell_angle_alpha 161.599592
_cell_angle_beta 127.548878
_cell_angle_gamma 52.534568
_cell_volume 493.080834
_symmetry_space_group_name_H-M "P -1"
_symmetry_group_IT_number 2
_symmetry_cell_setting 'triclinic'
loop_
_space_group_symop_operation_xyz
x,y,z
-x,-y,-z
loop_
_atom_site_type_symbol
_atom_site_label
_atom_site_fract_x
_atom_site_fract_y
_atom_site_fract_z
Si Si1 0.540225 0.844289 0.457548
Si Si2 0.132156 0.704465 0.275646
Si Si3 0.765456 0.255378 0.002866
Si Si4 0.206835 0.645480 0.707472
Si Si5 0.644419 0.407606 0.585542
Si Si6 0.207941 0.045086 0.915812
O O1 0.341124 0.704369 0.290986
O O2 0.721116 0.586612 0.271401
O O3 0.500000 0.000000 0.500000
O O4 0.587475 0.072391 0.750510
O O5 0.188637 0.604080 0.296972
O O6 0.000000 0.000000 0.500000
O O7 0.000000 0.500000 0.000000
O O8 0.799966 0.204862 0.067341
O O9 0.968176 0.144022 0.912205
O O10 0.411748 0.419110 0.558808
O O11 0.225920 0.881447 0.859778
O O12 0.000000 0.500000 0.500000
O O13 0.307315 0.865956 0.705872
O O14 0.669019 0.683288 0.788291
#
# Coordination Sequence:
#
# PCOD8037811 Si02
#       6
#     2   2   2   2   2   2
#     4  12  28  50  81 110 153 200 264 318 383 455
#     4  12  28  50  79 112 154 201 253 319 390 456
#     4  12  27  50  78 114 154 202 256 321 381 458
#     4  12  27  53  80 114 156 208 262 315 384 456
#     4  12  28  50  77 113 160 197 255 317 387 455
#     4  12  28  47  79 113 155 203 251 311 384 462
#
# _framework density 24.336780999999998
#
# number of rings (size 3 to 8) (size 9 to 14) (size 15 to 20)
#    0.000    0.000    1.667    7.000    9.333    2.667 
#    0.000    0.000    0.000    0.000    0.000    0.000 
#    0.000    0.000    0.000    0.000    0.000    0.000 
#
# Total GULP energy -148889.149145 kJ/mol
# GULP energy per Si atom -12407.429095 kJ/mol
# Density = 2.428139 g / cm^3
# Si number density = 24.336781 Si / 1000 Ang^3
#
#
#
# Elastic Constant Matrix: (Units=GPa)
#
#
# Indices 1 2 3 4 5 6 
#
# 1 126.5685 39.0334 41.8615 -9.7074 -7.2706 -15.2756
# 2 39.0334 147.0892 54.5522 -8.0257 0.4018 1.7476
# 3 41.8615 54.5522 145.5116 -7.8962 -9.3914 -8.8032
# 4 -9.7074 -8.0257 -7.8962 47.7508 -5.6479 0.3920
# 5 -7.2706 0.4018 -9.3914 -5.6479 42.8335 7.7514
# 6 -15.2756 1.7476 -8.8032 0.3920 7.7514 38.5993
#
#
#
# Elastic Compliance Matrix: (Units=1/GPa)
#
#
# Indices 1 2 3 4 5 6 
#
# 1 0.009608 -0.001872 -0.001729 0.001427 0.000859 0.003306
# 2 -0.001872 0.008346 -0.002701 0.000515 -0.000628 -0.001614
# 3 -0.001729 -0.002701 0.008589 0.000786 0.001523 0.001083
# 4 0.001427 0.000515 0.000786 0.021843 0.003320 -0.000168
# 5 0.000859 -0.000628 0.001523 0.003320 0.025057 -0.004350
# 6 0.003306 -0.001614 0.001083 -0.000168 -0.004350 0.028411
#
#
# Mechanical properties :
#
#
# Convention : Reuss Voigt Hill
#
# Bulk Modulus (GPa) = 71.74321 76.67372 74.20846
# Shear Modulus (GPa) = 41.98052 44.75154 43.36603
#
# Velocity S-wave (km/s) = 4.15780 4.29283 4.22585
# Velocity P-wave (km/s) = 7.25211 7.49298 7.37353
#
# Compressibility (1/GPa) = 0.01393860
#
# Stress axis : x y z
#
# Youngs Moduli (GPa) = 104.08066 119.81878 116.43216
#
# Poissons Ratio (x) = 0.22431 0.20135
# Poissons Ratio (y) = 0.19484 0.31443
# Poissons Ratio (z) = 0.17999 0.32358
#
# Static dielectric constant tensor:
#      x y z
#    x 4.686450 -0.281650 -0.137750 
#    y -0.281650 4.739330 0.010980 
#    z -0.137750 0.010980 4.215020 
# 
# 
# High freq. dielectric constant tensor:
#      x y z
#    x 1.980880 -0.008710 -0.001860 
#    y -0.008710 1.985920 0.005220 
#    z -0.001860 0.005220 1.976370 
# 
# From -- ./inp_files/506014.got.cif
#   From: 2010.06.25/outbox.cif.g09.slc.cpg/sg2_254_cif.got.tgz:506014.got - 2010.06.27 13:26:56.
