data_PCOD8037646
_publ_section_title
;
Structure prediction by ZEFSAII (Michael W. Deem and Ramdas Pophale) SiO2 
 PCOD8037646
Probable space group: P -1
;
_chemical_formula_sum "Si O2"
_cell_formula_units_Z 16
_cell_length_a 8.874421
_cell_length_b 9.134022
_cell_length_c 14.739727
_cell_angle_alpha 87.035446
_cell_angle_beta 39.304033
_cell_angle_gamma 74.753713
_cell_volume 707.312219
_symmetry_space_group_name_H-M "P -1"
_symmetry_group_IT_number 2
_symmetry_cell_setting 'triclinic'
loop_
_space_group_symop_operation_xyz
x,y,z
-x,-y,-z
loop_
_atom_site_type_symbol
_atom_site_label
_atom_site_fract_x
_atom_site_fract_y
_atom_site_fract_z
Si Si1 0.350226 0.141049 0.861359
Si Si2 0.271794 0.657211 0.077984
Si Si3 0.382872 0.805654 0.841151
Si Si4 0.253632 0.340820 0.725874
Si Si5 0.963130 0.677043 0.532451
Si Si6 0.110930 0.685982 0.821098
Si Si7 0.795174 0.217337 0.419298
Si Si8 0.133694 0.868230 0.302432
O O1 0.287453 0.207088 0.787984
O O2 0.646831 0.100256 0.743370
O O3 0.266432 0.989846 0.911089
O O4 0.176568 0.266985 0.009658
O O5 0.254929 0.793141 0.152986
O O6 0.007973 0.625093 0.207622
O O7 0.500000 0.500000 0.000000
O O8 0.315058 0.709413 0.955938
O O9 0.680743 0.766245 0.694753
O O10 0.271720 0.767754 0.800792
O O11 0.249829 0.499792 0.770799
O O12 0.489594 0.276701 0.548406
O O13 0.000000 0.500000 0.500000
O O14 0.150596 0.687943 0.524385
O O15 0.023764 0.753205 0.410587
O O16 0.085697 0.740628 0.727477
O O17 0.906021 0.031601 0.389243
#
# Coordination Sequence:
#
# PCOD8037646 Si02
#       8
#     2   2   2   2   2   2   2   2
#     4  12  25  49  76 102 149 192 239 295 363 425
#     4  12  29  47  75 110 144 189 247 296 362 429
#     4  12  27  47  72 108 146 187 241 300 361 423
#     4  12  27  48  73 102 150 191 239 296 358 434
#     4  12  26  46  73 105 150 189 237 300 358 429
#     4  12  28  45  75 107 146 192 239 301 359 423
#     4  12  27  49  73 108 145 193 244 292 362 431
#     4  12  27  48  76 107 145 196 238 299 358 427
#
# _framework density 22.620844000000002
#
# number of rings (size 3 to 8) (size 9 to 14) (size 15 to 20)
#    0.000    0.000    3.750    5.250   10.500    1.500 
#    0.000    0.000    0.000    0.000    0.000    0.000 
#    0.000    0.000    0.000    0.000    0.000    0.000 
#
# Total GULP energy -198546.408458 kJ/mol
# GULP energy per Si atom -12409.150529 kJ/mol
# Density = 2.256936 g / cm^3
# Si number density = 22.620844 Si / 1000 Ang^3
#
#
#
# Elastic Constant Matrix: (Units=GPa)
#
#
# Indices 1 2 3 4 5 6 
#
# 1 92.4252 32.1495 20.5522 8.9046 -6.4413 3.8669
# 2 32.1495 138.5619 15.9722 11.3817 0.5323 11.9229
# 3 20.5522 15.9722 90.2039 4.9028 -9.8911 2.3239
# 4 8.9046 11.3817 4.9028 43.2943 -5.8964 3.7109
# 5 -6.4413 0.5323 -9.8911 -5.8964 49.7122 0.6119
# 6 3.8669 11.9229 2.3239 3.7109 0.6119 28.0116
#
#
#
# Elastic Compliance Matrix: (Units=1/GPa)
#
#
# Indices 1 2 3 4 5 6 
#
# 1 0.012395 -0.002480 -0.002184 -0.001485 0.001026 -0.000300
# 2 -0.002480 0.008256 -0.000822 -0.001415 -0.000705 -0.002901
# 3 -0.002184 -0.000822 0.011986 -0.000381 0.002069 -0.000338
# 4 -0.001485 -0.001415 -0.000381 0.024392 0.002670 -0.002451
# 5 0.001026 -0.000705 0.002069 0.002670 0.020995 -0.000825
# 6 -0.000300 -0.002901 -0.000338 -0.002451 -0.000825 0.037346
#
#
# Mechanical properties :
#
#
# Convention : Reuss Voigt Hill
#
# Bulk Modulus (GPa) = 46.16228 50.94876 48.55552
# Shear Modulus (GPa) = 37.43525 41.03809 39.23667
#
# Velocity S-wave (km/s) = 4.07246 4.26393 4.16929
# Velocity P-wave (km/s) = 6.52415 6.84202 6.68498
#
# Compressibility (1/GPa) = 0.02166271
#
# Stress axis : x y z
#
# Youngs Moduli (GPa) = 80.67737 121.12708 83.43368
#
# Poissons Ratio (x) = 0.30044 0.18222
# Poissons Ratio (y) = 0.20011 0.06862
# Poissons Ratio (z) = 0.17620 0.09962
#
# Static dielectric constant tensor:
#      x y z
#    x 4.069970 -0.026710 -0.121320 
#    y -0.026710 4.225160 0.132020 
#    z -0.121320 0.132020 4.270080 
# 
# 
# High freq. dielectric constant tensor:
#      x y z
#    x 1.893620 -0.000950 -0.005560 
#    y -0.000950 1.906280 0.005830 
#    z -0.005560 0.005830 1.910550 
# 
# From -- ./inp_files/207349.got.cif
#   From: 2010.06.25/outbox.cif.g09.slc.cpg/sg2_104_cif.got.tgz:207349.got - 2010.06.27 13:26:56.
