data_PCOD8037112
_publ_section_title
;
Structure prediction by ZEFSAII (Michael W. Deem and Ramdas Pophale) SiO2 
 PCOD8037112
Probable space group: P -1
;
_chemical_formula_sum "Si O2"
_cell_formula_units_Z 12
_cell_length_a 12.414881
_cell_length_b 12.414712
_cell_length_c 8.472490
_cell_angle_alpha 85.719025
_cell_angle_beta 85.719193
_cell_angle_gamma 22.261428
_cell_volume 493.262252
_symmetry_space_group_name_H-M "P -1"
_symmetry_group_IT_number 2
_symmetry_cell_setting 'triclinic'
loop_
_space_group_symop_operation_xyz
x,y,z
-x,-y,-z
loop_
_atom_site_type_symbol
_atom_site_label
_atom_site_fract_x
_atom_site_fract_y
_atom_site_fract_z
Si Si1 0.944659 0.177561 0.979025
Si Si2 0.148623 0.394005 0.334083
Si Si3 0.528400 0.266313 0.851196
Si Si4 0.394019 0.148635 0.834093
Si Si5 0.822572 0.055191 0.520964
Si Si6 0.733551 0.471754 0.648811
O O1 0.710530 0.426797 0.107171
O O2 0.838824 0.307013 0.804524
O O3 0.242544 0.962084 0.008173
O O4 0.000000 0.000000 0.000000
O O5 0.291605 0.378879 0.327227
O O6 0.000000 0.500000 0.500000
O O7 0.921460 0.602858 0.193790
O O8 0.397120 0.078521 0.306212
O O9 0.378890 0.291621 0.827282
O O10 0.693047 0.161100 0.695444
O O11 0.500000 0.000000 0.000000
O O12 0.573419 0.289178 0.392774
O O13 0.000000 0.000000 0.500000
O O14 0.038181 0.757210 0.491874
#
# Coordination Sequence:
#
# PCOD8037112 Si02
#       6
#     2   2   2   2   2   2
#     4  12  26  45  69  98 135 182 227 278 336 397
#     4  12  24  43  70 103 137 178 223 277 340 405
#     4  12  25  46  69 101 138 178 226 281 335 402
#     4  12  24  43  70 103 137 178 223 277 340 405
#     4  12  26  45  69  98 135 182 227 278 336 397
#     4  12  25  46  69 101 138 178 226 281 335 402
#
# _framework density 24.327829000000001
#
# number of rings (size 3 to 8) (size 9 to 14) (size 15 to 20)
#    0.000    0.000    0.000   11.000    0.000    2.667 
#    0.000    0.000    0.000    0.000    0.000    0.000 
#    0.000    0.000    0.000    0.000    0.000    0.000 
#
# Total GULP energy -148919.730175 kJ/mol
# GULP energy per Si atom -12409.977515 kJ/mol
# Density = 2.427246 g / cm^3
# Si number density = 24.327829 Si / 1000 Ang^3
#
#
#
# Elastic Constant Matrix: (Units=GPa)
#
#
# Indices 1 2 3 4 5 6 
#
# 1 157.1867 73.5060 70.8291 -4.6514 11.1647 -1.5123
# 2 73.5060 150.1664 24.1640 11.5189 28.0237 2.6782
# 3 70.8291 24.1640 76.2912 1.7743 10.0090 8.4756
# 4 -4.6514 11.5189 1.7743 60.5140 -3.5230 16.9519
# 5 11.1647 28.0237 10.0090 -3.5230 41.1820 -6.5966
# 6 -1.5123 2.6782 8.4756 16.9519 -6.5966 45.0579
#
#
#
# Elastic Compliance Matrix: (Units=1/GPa)
#
#
# Indices 1 2 3 4 5 6 
#
# 1 0.014725 -0.006114 -0.012631 0.002043 0.003899 0.003036
# 2 -0.006114 0.010601 0.003447 -0.002561 -0.006857 -0.001524
# 3 -0.012631 0.003447 0.025216 -0.001080 -0.006080 -0.005856
# 4 0.002043 -0.002561 -0.001080 0.019134 0.002051 -0.006475
# 5 0.003899 -0.006857 -0.006080 0.002051 0.030404 0.005362
# 6 0.003036 -0.001524 -0.005856 -0.006475 0.005362 0.026709
#
#
# Mechanical properties :
#
#
# Convention : Reuss Voigt Hill
#
# Bulk Modulus (GPa) = 50.13460 80.07140 65.10300
# Shear Modulus (GPa) = 30.48193 43.69379 37.08786
#
# Velocity S-wave (km/s) = 3.54357 4.24257 3.90873
# Velocity P-wave (km/s) = 6.11516 7.54879 6.86947
#
# Compressibility (1/GPa) = 0.01994631
#
# Stress axis : x y z
#
# Youngs Moduli (GPa) = 67.91133 94.33422 39.65795
#
# Poissons Ratio (x) = 0.57675 0.50091
# Poissons Ratio (y) = 0.41520 -0.13670
# Poissons Ratio (z) = 0.85777 -0.32518
#
# Static dielectric constant tensor:
#      x y z
#    x 4.533600 -0.068740 0.373620 
#    y -0.068740 4.910020 0.065900 
#    z 0.373620 0.065900 4.719460 
# 
# 
# High freq. dielectric constant tensor:
#      x y z
#    x 1.972170 -0.003300 0.017970 
#    y -0.003300 1.990250 0.003170 
#    z 0.017970 0.003170 1.980320 
# 
# From -- ./inp_files/258525.got.cif
#   From: 2010.06.25/outbox.cif.g09.slc.cpg/sg2_130_cif.got.tgz:258525.got - 2010.06.27 13:26:56.
