data_PCOD8037867
_publ_section_title
;
Structure prediction by ZEFSAII (Michael W. Deem and Ramdas Pophale) SiO2 
 PCOD8037867
Probable space group: P -1
;
_chemical_formula_sum "Si O2"
_cell_formula_units_Z 14
_cell_length_a 16.274191
_cell_length_b 9.171169
_cell_length_c 5.011301
_cell_angle_alpha 114.383220
_cell_angle_beta 76.670358
_cell_angle_gamma 119.137331
_cell_volume 594.621786
_symmetry_space_group_name_H-M "P -1"
_symmetry_group_IT_number 2
_symmetry_cell_setting 'triclinic'
loop_
_space_group_symop_operation_xyz
x,y,z
-x,-y,-z
loop_
_atom_site_type_symbol
_atom_site_label
_atom_site_fract_x
_atom_site_fract_y
_atom_site_fract_z
Si Si1 0.192114 0.143416 0.303639
Si Si2 0.242800 0.526834 0.523782
Si Si3 0.343797 0.734022 0.114687
Si Si4 0.049032 0.872239 0.878405
Si Si5 0.051517 0.279283 0.657582
Si Si6 0.640923 0.884138 0.599502
Si Si7 0.471206 0.300357 0.957035
O O1 0.251164 0.345046 0.295759
O O2 0.098729 0.137986 0.516952
O O3 0.254200 0.098205 0.434473
O O4 0.157519 0.992762 0.980288
O O5 0.264882 0.650714 0.341168
O O6 0.135689 0.473795 0.663723
O O7 0.314713 0.619932 0.780250
O O8 0.439106 0.739014 0.160993
O O9 0.359624 0.931059 0.182281
O O10 0.992098 0.716739 0.020565
O O11 0.035034 0.775894 0.530603
O O12 0.000000 0.000000 0.000000
O O13 0.609108 0.833159 0.281347
O O14 0.570143 0.733906 0.739672
O O15 0.500000 0.500000 0.000000
#
# Coordination Sequence:
#
# PCOD8037867 Si02
#       7
#     2   2   2   2   2   2   2
#     4   9  21  35  61  88 117 147 203 243 291 332
#     4  10  22  36  62  84 117 153 203 236 284 344
#     4  12  23  42  59  85 121 160 191 233 298 351
#     4  10  17  32  55  92 112 149 189 256 285 333
#     4   9  20  32  59  86 116 147 199 242 290 331
#     4  12  25  41  61  90 120 154 190 242 294 350
#     4  12  25  42  66  87 118 149 200 241 289 343
#
# _framework density 23.544377000000001
#
# number of rings (size 3 to 8) (size 9 to 14) (size 15 to 20)
#    0.857    0.571    0.000    7.286    0.000    3.429 
#    0.000    0.000    0.000    5.143    0.000    0.000 
#    0.000    0.000    0.000    0.000    0.000    0.000 
#
# Total GULP energy -173556.006746 kJ/mol
# GULP energy per Si atom -12396.857625 kJ/mol
# Density = 2.349079 g / cm^3
# Si number density = 23.544377 Si / 1000 Ang^3
#
#
#
# Elastic Constant Matrix: (Units=GPa)
#
#
# Indices 1 2 3 4 5 6 
#
# 1 72.6639 37.8755 25.5550 22.8980 20.2688 4.5990
# 2 37.8755 97.4983 20.7275 -9.4965 4.8037 -2.6251
# 3 25.5550 20.7275 74.0479 -9.7423 23.1750 5.2369
# 4 22.8980 -9.4965 -9.7423 39.9878 6.9214 7.6608
# 5 20.2688 4.8037 23.1750 6.9214 30.0365 7.9862
# 6 4.5990 -2.6251 5.2369 7.6608 7.9862 24.3031
#
#
#
# Elastic Compliance Matrix: (Units=1/GPa)
#
#
# Indices 1 2 3 4 5 6 
#
# 1 0.032958 -0.012717 -0.008074 -0.023036 -0.009904 0.004645
# 2 -0.012717 0.015996 0.000241 0.010613 0.003502 -0.000414
# 3 -0.008074 0.000241 0.022662 0.013222 -0.014385 -0.002770
# 4 -0.023036 0.010613 0.013222 0.046725 -0.004286 -0.010664
# 5 -0.009904 0.003502 -0.014385 -0.004286 0.054480 -0.011199
# 6 0.004645 -0.000414 -0.002770 -0.010664 -0.011199 0.047862
#
#
# Mechanical properties :
#
#
# Convention : Reuss Voigt Hill
#
# Bulk Modulus (GPa) = 32.77186 45.83625 39.30406
# Shear Modulus (GPa) = 18.38539 29.53561 23.96050
#
# Velocity S-wave (km/s) = 2.79746 3.54569 3.19356
# Velocity P-wave (km/s) = 4.93799 6.02269 5.50711
#
# Compressibility (1/GPa) = 0.03051398
#
# Stress axis : x y z
#
# Youngs Moduli (GPa) = 30.34170 62.51642 44.12761
#
# Poissons Ratio (x) = 0.79505 0.35629
# Poissons Ratio (y) = 0.38587 -0.01063
# Poissons Ratio (z) = 0.24498 -0.01506
#
# Static dielectric constant tensor:
#      x y z
#    x 4.169680 0.232670 0.540330 
#    y 0.232670 4.303960 0.081610 
#    z 0.540330 0.081610 4.269500 
# 
# 
# High freq. dielectric constant tensor:
#      x y z
#    x 1.913570 0.016260 0.032990 
#    y 0.016260 1.936250 -0.007140 
#    z 0.032990 -0.007140 1.919940 
# 
# From -- ./inp_files/105599.got.cif
#   From: 2010.06.25/outbox.cif.g09.slc.cpg/sg2_53_cif.got.tgz:105599.got - 2010.06.27 13:26:56.
