data_PCOD8037896
_publ_section_title
;
Structure prediction by ZEFSAII (Michael W. Deem and Ramdas Pophale) SiO2 
 PCOD8037896
Probable space group: P -1
;
_chemical_formula_sum "Si O2"
_cell_formula_units_Z 16
_cell_length_a 18.160169
_cell_length_b 11.191241
_cell_length_c 17.444995
_cell_angle_alpha 148.710265
_cell_angle_beta 150.324201
_cell_angle_gamma 32.674273
_cell_volume 840.951373
_symmetry_space_group_name_H-M "P -1"
_symmetry_group_IT_number 2
_symmetry_cell_setting 'triclinic'
loop_
_space_group_symop_operation_xyz
x,y,z
-x,-y,-z
loop_
_atom_site_type_symbol
_atom_site_label
_atom_site_fract_x
_atom_site_fract_y
_atom_site_fract_z
Si Si1 0.860809 0.772221 0.031254
Si Si2 0.241884 0.987496 0.686496
Si Si3 0.773519 0.599277 0.001538
Si Si4 0.393618 0.781186 0.348392
Si Si5 0.930778 0.154463 0.407652
Si Si6 0.723217 0.704794 0.542387
Si Si7 0.845764 0.652875 0.791923
Si Si8 0.421577 0.514570 0.517255
O O1 0.732475 0.725781 0.948291
O O2 0.916711 0.986384 0.231665
O O3 0.801506 0.851369 0.932549
O O4 0.000000 0.500000 0.000000
O O5 0.301222 0.195195 0.887510
O O6 0.118176 0.092059 0.560988
O O7 0.159436 0.886087 0.622019
O O8 0.407755 0.765142 0.687391
O O9 0.966088 0.504358 0.133693
O O10 0.715131 0.379821 0.846707
O O11 0.544535 0.697024 0.379689
O O12 0.466216 0.736274 0.474987
O O13 0.280553 0.070346 0.392900
O O14 0.845821 0.450711 0.475577
O O15 0.775206 0.768083 0.708677
O O16 0.763550 0.461947 0.639804
O O17 0.500000 0.500000 0.500000
#
# Coordination Sequence:
#
# PCOD8037896 Si02
#       8
#     2   2   2   2   2   2   2   2
#     4   9  18  29  54  87 114 133 173 235 288 316
#     4  10  17  32  57  85 110 140 191 231 283 325
#     4  10  19  33  57  87 112 137 187 245 275 321
#     4  10  22  36  55  83 113 150 188 224 278 342
#     4  10  17  34  60  84 109 150 185 233 272 333
#     4  10  20  39  59  76 114 157 188 220 274 347
#     4  10  18  36  56  84 108 149 184 224 282 321
#     4  11  21  36  57  81 117 151 181 229 287 340
#
# _framework density 19.026070000000001
#
# number of rings (size 3 to 8) (size 9 to 14) (size 15 to 20)
#    0.000    2.000    3.750    3.000    0.000    2.000 
#    2.250    0.000    2.750    6.000    0.000    0.000 
#    0.000    0.000    0.000    0.000    0.000    0.000 
#
# Total GULP energy -198227.438176 kJ/mol
# GULP energy per Si atom -12389.214886 kJ/mol
# Density = 1.898277 g / cm^3
# Si number density = 19.026070 Si / 1000 Ang^3
#
#
#
# Elastic Constant Matrix: (Units=GPa)
#
#
# Indices 1 2 3 4 5 6 
#
# 1 81.0374 37.3902 49.2693 13.4886 -12.9543 3.8064
# 2 37.3902 92.5956 37.4225 17.5801 -17.0971 14.2312
# 3 49.2693 37.4225 101.4530 20.1797 -17.2367 3.3065
# 4 13.4886 17.5801 20.1797 27.9869 -7.8801 1.4439
# 5 -12.9543 -17.0971 -17.2367 -7.8801 33.3601 6.2987
# 6 3.8064 14.2312 3.3065 1.4439 6.2987 21.7875
#
#
#
# Elastic Compliance Matrix: (Units=1/GPa)
#
#
# Indices 1 2 3 4 5 6 
#
# 1 0.019144 -0.004484 -0.007303 -0.000864 0.001076 0.000439
# 2 -0.004484 0.017460 -0.001612 -0.004894 0.007527 -0.012228
# 3 -0.007303 -0.001612 0.015728 -0.005881 0.003187 -0.000590
# 4 -0.000864 -0.004894 -0.005881 0.044795 0.004716 -0.000092
# 5 0.001076 0.007527 0.003187 0.004716 0.040327 -0.017559
# 6 0.000439 -0.012228 -0.000590 -0.000092 -0.017559 0.058980
#
#
# Mechanical properties :
#
#
# Convention : Reuss Voigt Hill
#
# Bulk Modulus (GPa) = 39.16149 58.13886 48.65017
# Shear Modulus (GPa) = 21.57562 26.69385 24.13474
#
# Velocity S-wave (km/s) = 3.37115 3.74975 3.56548
# Velocity P-wave (km/s) = 5.98169 7.02647 6.52502
#
# Compressibility (1/GPa) = 0.02553529
#
# Stress axis : x y z
#
# Youngs Moduli (GPa) = 52.23614 57.27346 63.57975
#
# Poissons Ratio (x) = 0.25679 0.46430
# Poissons Ratio (y) = 0.23420 0.10250
# Poissons Ratio (z) = 0.38146 0.09234
#
# Static dielectric constant tensor:
#      x y z
#    x 3.492120 0.020540 -0.310480 
#    y 0.020540 3.538700 0.015030 
#    z -0.310480 0.015030 3.780760 
# 
# 
# High freq. dielectric constant tensor:
#      x y z
#    x 1.712820 -0.010580 -0.009880 
#    y -0.010580 1.724350 -0.006420 
#    z -0.009880 -0.006420 1.743460 
# 
# From -- ./inp_files/274658.got.cif
#   From: 2010.06.25/outbox.cif.g09.slc.cpg/sg2_138_cif.got.tgz:274658.got - 2010.06.27 13:26:56.
