data_PCOD8037474
_publ_section_title
;
Structure prediction by ZEFSAII (Michael W. Deem and Ramdas Pophale) SiO2 
 PCOD8037474
Probable space group: P -1
;
_chemical_formula_sum "Si O2"
_cell_formula_units_Z 16
_cell_length_a 8.958421
_cell_length_b 8.549354
_cell_length_c 12.040788
_cell_angle_alpha 89.708088
_cell_angle_beta 87.620843
_cell_angle_gamma 49.404631
_cell_volume 699.344102
_symmetry_space_group_name_H-M "P -1"
_symmetry_group_IT_number 2
_symmetry_cell_setting 'triclinic'
loop_
_space_group_symop_operation_xyz
x,y,z
-x,-y,-z
loop_
_atom_site_type_symbol
_atom_site_label
_atom_site_fract_x
_atom_site_fract_y
_atom_site_fract_z
Si Si1 0.621911 0.702969 0.775563
Si Si2 0.558606 0.664937 0.360693
Si Si3 0.730246 0.236841 0.284682
Si Si4 0.548266 0.089857 0.858815
Si Si5 0.796557 0.050143 0.500754
Si Si6 0.784364 0.697323 0.535695
Si Si7 0.197744 0.457412 0.007210
Si Si8 0.008872 0.121772 0.092801
O O1 0.459203 0.676477 0.783073
O O2 0.722867 0.657224 0.652884
O O3 0.523383 0.930508 0.819035
O O4 0.779184 0.531831 0.861197
O O5 0.708293 0.418272 0.347282
O O6 0.508892 0.758336 0.239882
O O7 0.356443 0.743418 0.422790
O O8 0.643832 0.742523 0.438347
O O9 0.738394 0.089418 0.373164
O O10 0.933573 0.100710 0.210878
O O11 0.390827 0.231541 0.960429
O O12 0.771282 0.961782 0.897232
O O13 0.788066 0.881364 0.550299
O O14 0.000000 0.000000 0.500000
O O15 0.000000 0.500000 0.500000
O O16 0.160222 0.639545 0.937926
O O17 0.000000 0.500000 0.000000
O O18 0.000000 0.000000 0.000000
#
# Coordination Sequence:
#
# PCOD8037474 Si02
#       8
#     2   2   2   2   2   2   2   2
#     4  12  27  48  76 108 151 198 253 304 376 442
#     4  12  25  48  74 106 155 194 245 306 375 441
#     4  12  27  46  75 110 149 194 248 310 372 445
#     4  12  26  50  79 107 151 198 246 314 372 445
#     4  12  25  45  72 108 149 194 248 301 371 439
#     4  12  28  46  73 110 151 199 247 305 368 450
#     4  12  28  49  78 110 148 199 250 307 373 445
#     4  12  29  50  75 112 149 194 253 312 376 440
#
# _framework density 22.878582000000002
#
# number of rings (size 3 to 8) (size 9 to 14) (size 15 to 20)
#    0.000    0.000    5.000    4.125    8.750    2.000 
#    0.000    0.000    0.000    0.000    0.000    0.000 
#    0.000    0.000    0.000    0.000    0.000    0.000 
#
# Total GULP energy -198418.046398 kJ/mol
# GULP energy per Si atom -12401.127900 kJ/mol
# Density = 2.282651 g / cm^3
# Si number density = 22.878582 Si / 1000 Ang^3
#
#
#
# Elastic Constant Matrix: (Units=GPa)
#
#
# Indices 1 2 3 4 5 6 
#
# 1 130.5222 25.3467 41.7368 15.1742 1.3408 -19.3364
# 2 25.3467 83.4651 33.7235 14.7721 -6.8256 -18.2998
# 3 41.7368 33.7235 125.3961 4.0145 -7.2691 -11.5591
# 4 15.1742 14.7721 4.0145 47.7372 -5.5372 -1.3190
# 5 1.3408 -6.8256 -7.2691 -5.5372 45.1615 2.9975
# 6 -19.3364 -18.2998 -11.5591 -1.3190 2.9975 39.7126
#
#
#
# Elastic Compliance Matrix: (Units=1/GPa)
#
#
# Indices 1 2 3 4 5 6 
#
# 1 0.009486 -0.000678 -0.002642 -0.002644 -0.001369 0.003553
# 2 -0.000678 0.015539 -0.003244 -0.004050 0.000973 0.005678
# 3 -0.002642 -0.003244 0.009765 0.001174 0.001304 0.000002
# 4 -0.002644 -0.004050 0.001174 0.023188 0.002647 -0.002242
# 5 -0.001369 0.000973 0.001304 0.002647 0.022963 -0.001484
# 6 0.003553 0.005678 0.000002 -0.002242 -0.001484 0.029565
#
#
# Mechanical properties :
#
#
# Convention : Reuss Voigt Hill
#
# Bulk Modulus (GPa) = 46.16536 60.11081 53.13809
# Shear Modulus (GPa) = 38.21019 42.42734 40.31876
#
# Velocity S-wave (km/s) = 4.09116 4.31101 4.20252
# Velocity P-wave (km/s) = 6.52219 7.14917 6.84286
#
# Compressibility (1/GPa) = 0.02166126
#
# Stress axis : x y z
#
# Youngs Moduli (GPa) = 105.41999 64.35420 102.41041
#
# Poissons Ratio (x) = 0.04365 0.27058
# Poissons Ratio (y) = 0.07150 0.33219
# Poissons Ratio (z) = 0.27853 0.20875
#
# Static dielectric constant tensor:
#      x y z
#    x 4.217600 -0.088540 0.031620 
#    y -0.088540 4.054820 -0.240970 
#    z 0.031620 -0.240970 4.499870 
# 
# 
# High freq. dielectric constant tensor:
#      x y z
#    x 1.912270 -0.006690 -0.005360 
#    y -0.006690 1.905030 -0.004760 
#    z -0.005360 -0.004760 1.924450 
# 
# From -- ./inp_files/187282.got.cif
#   From: 2010.06.25/outbox.cif.g09.slc.cpg/sg2_94_cif.got.tgz:187282.got - 2010.06.27 13:26:56.
