data_PCOD8037717
_publ_section_title
;
Structure prediction by ZEFSAII (Michael W. Deem and Ramdas Pophale) SiO2 
 PCOD8037717
Probable space group: P -1
;
_chemical_formula_sum "Si O2"
_cell_formula_units_Z 14
_cell_length_a 9.420837
_cell_length_b 9.521058
_cell_length_c 12.738308
_cell_angle_alpha 123.984419
_cell_angle_beta 51.741104
_cell_angle_gamma 135.658344
_cell_volume 612.873870
_symmetry_space_group_name_H-M "P -1"
_symmetry_group_IT_number 2
_symmetry_cell_setting 'triclinic'
loop_
_space_group_symop_operation_xyz
x,y,z
-x,-y,-z
loop_
_atom_site_type_symbol
_atom_site_label
_atom_site_fract_x
_atom_site_fract_y
_atom_site_fract_z
Si Si1 0.080629 0.350077 0.399250
Si Si2 0.016732 0.825859 0.859107
Si Si3 0.540444 0.021687 0.201673
Si Si4 0.747831 0.370040 0.097283
Si Si5 0.353727 0.571150 0.048554
Si Si6 0.453156 0.446383 0.619130
Si Si7 0.190981 0.020565 0.487447
O O1 0.075507 0.242164 0.245841
O O2 0.328539 0.459332 0.372157
O O3 0.000000 0.500000 0.500000
O O4 0.903931 0.185165 0.491693
O O5 0.896392 0.619624 0.898868
O O6 0.267938 0.904020 0.770530
O O7 0.000000 0.000000 0.000000
O O8 0.649357 0.137394 0.087833
O O9 0.375700 0.075411 0.339996
O O10 0.404701 0.776155 0.164000
O O11 0.708400 0.484075 0.253220
O O12 0.602096 0.368199 0.068212
O O13 0.000000 0.500000 0.000000
O O14 0.500000 0.500000 0.000000
O O15 0.500000 0.500000 0.500000
O O16 0.300627 0.200467 0.599279
O O17 0.000000 0.000000 0.500000
#
# Coordination Sequence:
#
# PCOD8037717 Si02
#       7
#     2   2   2   2   2   2   2
#     4  12  28  49  81 112 151 205 261 319 392 462
#     4  12  27  48  74 113 158 199 257 321 384 463
#     4  12  26  48  76 110 157 197 259 320 385 459
#     4  12  27  46  77 111 150 206 253 316 387 461
#     4  12  26  47  75 108 155 202 251 317 387 460
#     4  12  26  51  77 112 157 196 260 322 385 463
#     4  12  27  47  80 111 151 204 256 320 385 463
#
# _framework density 22.843198999999998
#
# number of rings (size 3 to 8) (size 9 to 14) (size 15 to 20)
#    0.000    0.000    5.714    3.000    4.000    3.429 
#    0.000    0.000    0.000    0.000    0.000    0.000 
#    0.000    0.000    0.000    0.000    0.000    0.000 
#
# Total GULP energy -173479.553347 kJ/mol
# GULP energy per Si atom -12391.396668 kJ/mol
# Density = 2.279121 g / cm^3
# Si number density = 22.843199 Si / 1000 Ang^3
#
#
#
# Elastic Constant Matrix: (Units=GPa)
#
#
# Indices 1 2 3 4 5 6 
#
# 1 145.9257 53.4233 69.3617 6.5483 -0.4011 8.2356
# 2 53.4233 179.5256 50.8639 8.7302 -1.7463 2.9324
# 3 69.3617 50.8639 136.0719 5.8539 -5.4422 9.8908
# 4 6.5483 8.7302 5.8539 39.7114 1.4965 1.8449
# 5 -0.4011 -1.7463 -5.4422 1.4965 48.9020 -4.3324
# 6 8.2356 2.9324 9.8908 1.8449 -4.3324 43.8422
#
#
#
# Elastic Compliance Matrix: (Units=1/GPa)
#
#
# Indices 1 2 3 4 5 6 
#
# 1 0.009494 -0.001607 -0.004180 -0.000542 -0.000495 -0.000759
# 2 -0.001607 0.006545 -0.001603 -0.000954 0.000096 0.000275
# 3 -0.004180 -0.001603 0.010230 -0.000442 0.000945 -0.001304
# 4 -0.000542 -0.000954 -0.000442 0.025624 -0.000952 -0.000907
# 5 -0.000495 0.000096 0.000945 -0.000952 0.020757 0.001965
# 6 -0.000759 0.000275 -0.001304 -0.000907 0.001965 0.023460
#
#
# Mechanical properties :
#
#
# Convention : Reuss Voigt Hill
#
# Bulk Modulus (GPa) = 87.03004 89.86900 88.44952
# Shear Modulus (GPa) = 43.58466 45.68272 44.63369
#
# Velocity S-wave (km/s) = 4.37280 4.47681 4.42511
# Velocity P-wave (km/s) = 7.97977 8.13323 8.05687
#
# Compressibility (1/GPa) = 0.01149029
#
# Stress axis : x y z
#
# Youngs Moduli (GPa) = 105.33241 152.78064 97.74758
#
# Poissons Ratio (x) = 0.24550 0.40859
# Poissons Ratio (y) = 0.16926 0.15666
# Poissons Ratio (z) = 0.44029 0.24486
#
# Static dielectric constant tensor:
#      x y z
#    x 4.262660 0.141050 0.119370 
#    y 0.141050 4.694510 0.300600 
#    z 0.119370 0.300600 4.318370 
# 
# 
# High freq. dielectric constant tensor:
#      x y z
#    x 1.914220 0.001980 -0.001720 
#    y 0.001980 1.928200 -0.000990 
#    z -0.001720 -0.000990 1.900250 
# 
# From -- ./inp_files/383151.got.cif
#   From: 2010.06.25/outbox.cif.g09.slc.cpg/sg2_192_cif.got.tgz:383151.got - 2010.06.27 13:26:56.
