data_PCOD8037248
_publ_section_title
;
Structure prediction by ZEFSAII (Michael W. Deem and Ramdas Pophale) SiO2 
 PCOD8037248
Probable space group: P -1
;
_chemical_formula_sum "Si O2"
_cell_formula_units_Z 12
_cell_length_a 9.135172
_cell_length_b 8.454651
_cell_length_c 11.739050
_cell_angle_alpha 55.200202
_cell_angle_beta 53.957663
_cell_angle_gamma 89.720458
_cell_volume 521.900090
_symmetry_space_group_name_H-M "P -1"
_symmetry_group_IT_number 2
_symmetry_cell_setting 'triclinic'
loop_
_space_group_symop_operation_xyz
x,y,z
-x,-y,-z
loop_
_atom_site_type_symbol
_atom_site_label
_atom_site_fract_x
_atom_site_fract_y
_atom_site_fract_z
Si Si1 0.085819 0.337782 0.496776
Si Si2 0.149316 0.426429 0.902369
Si Si3 0.426507 0.321601 0.508575
Si Si4 0.781396 0.104496 0.070439
Si Si5 0.373756 0.603643 0.069972
Si Si6 0.739620 0.902472 0.923410
O O1 0.265698 0.355090 0.490912
O O2 0.000000 0.500000 0.500000
O O3 0.170667 0.400075 0.303991
O O4 0.890899 0.090200 0.688977
O O5 0.367529 0.633358 0.674914
O O6 0.197400 0.287908 0.029644
O O7 0.000000 0.500000 0.000000
O O8 0.027989 0.258957 0.920751
O O9 0.500000 0.500000 0.500000
O O10 0.324351 0.075012 0.707410
O O11 0.685423 0.269224 0.049847
O O12 0.753928 0.996157 0.004526
O O13 0.503388 0.787833 0.032610
O O14 0.500000 0.500000 0.000000
#
# Coordination Sequence:
#
# PCOD8037248 Si02
#       6
#     2   2   2   2   2   2
#     4  12  26  44  74 104 138 188 238 286 350 422
#     4  12  26  44  71 106 147 182 229 298 353 406
#     4  12  25  44  73 106 140 183 241 286 346 424
#     4  12  25  44  76 106 139 189 238 285 348 426
#     4  12  28  47  70 106 147 182 234 299 355 409
#     4  12  24  46  73 103 141 186 241 284 347 428
#
# _framework density 22.992906999999999
#
# number of rings (size 3 to 8) (size 9 to 14) (size 15 to 20)
#    0.000    0.000    6.667    3.000    2.333    2.667 
#    0.000    0.000    0.000    0.000    0.000    0.000 
#    0.000    0.000    0.000    0.000    0.000    0.000 
#
# Total GULP energy -148827.657838 kJ/mol
# GULP energy per Si atom -12402.304820 kJ/mol
# Density = 2.294057 g / cm^3
# Si number density = 22.992907 Si / 1000 Ang^3
#
#
#
# Elastic Constant Matrix: (Units=GPa)
#
#
# Indices 1 2 3 4 5 6 
#
# 1 107.2895 7.2673 51.2489 -15.5203 6.0213 -23.0108
# 2 7.2673 58.5730 55.7151 1.7754 7.9195 -27.9481
# 3 51.2489 55.7151 197.2917 -10.7816 1.5057 -29.7946
# 4 -15.5203 1.7754 -10.7816 40.3531 -6.7251 -1.3582
# 5 6.0213 7.9195 1.5057 -6.7251 37.2072 -9.9212
# 6 -23.0108 -27.9481 -29.7946 -1.3582 -9.9212 50.3683
#
#
#
# Elastic Compliance Matrix: (Units=1/GPa)
#
#
# Indices 1 2 3 4 5 6 
#
# 1 0.012574 0.004647 -0.003412 0.003848 -0.000508 0.006308
# 2 0.004647 0.031370 -0.008027 -0.001885 -0.003712 0.014000
# 3 -0.003412 -0.008027 0.008179 0.001537 0.002011 -0.000737
# 4 0.003848 -0.001885 0.001537 0.027818 0.005675 0.003489
# 5 -0.000508 -0.003712 0.002011 0.005675 0.030016 0.004963
# 6 0.006308 0.014000 -0.000737 0.003489 0.004963 0.031140
#
#
# Mechanical properties :
#
#
# Convention : Reuss Voigt Hill
#
# Bulk Modulus (GPa) = 25.94662 65.73521 45.84092
# Shear Modulus (GPa) = 29.84634 42.18060 36.01347
#
# Velocity S-wave (km/s) = 3.60678 4.28776 3.96193
# Velocity P-wave (km/s) = 5.35297 7.29140 6.39605
#
# Compressibility (1/GPa) = 0.03854067
#
# Stress axis : x y z
#
# Youngs Moduli (GPa) = 79.53190 31.87767 122.26527
#
# Poissons Ratio (x) = -0.14815 0.41714
# Poissons Ratio (y) = -0.36962 0.98137
# Poissons Ratio (z) = 0.27134 0.25587
#
# Static dielectric constant tensor:
#      x y z
#    x 4.427520 -0.519780 0.377090 
#    y -0.519780 3.374570 0.260040 
#    z 0.377090 0.260040 3.727960 
# 
# 
# High freq. dielectric constant tensor:
#      x y z
#    x 1.929070 -0.014340 -0.002870 
#    y -0.014340 1.902230 -0.011790 
#    z -0.002870 -0.011790 1.918550 
# 
# From -- ./inp_files/148651.got.cif
#   From: 2010.06.25/outbox.cif.g09.slc.cpg/sg2_75_cif.got.tgz:148651.got - 2010.06.27 13:26:56.
