data_PCOD8037546
_publ_section_title
;
Structure prediction by ZEFSAII (Michael W. Deem and Ramdas Pophale) SiO2 
 PCOD8037546
Probable space group: P -1
;
_chemical_formula_sum "Si O2"
_cell_formula_units_Z 14
_cell_length_a 5.627940
_cell_length_b 11.880007
_cell_length_c 11.743421
_cell_angle_alpha 127.079718
_cell_angle_beta 81.908815
_cell_angle_gamma 106.819237
_cell_volume 599.021957
_symmetry_space_group_name_H-M "P -1"
_symmetry_group_IT_number 2
_symmetry_cell_setting 'triclinic'
loop_
_space_group_symop_operation_xyz
x,y,z
-x,-y,-z
loop_
_atom_site_type_symbol
_atom_site_label
_atom_site_fract_x
_atom_site_fract_y
_atom_site_fract_z
Si Si1 0.617399 0.618919 0.156509
Si Si2 0.039049 0.393167 0.335898
Si Si3 0.943303 0.134740 0.777528
Si Si4 0.134642 0.880852 0.677406
Si Si5 0.430253 0.599923 0.787897
Si Si6 0.330473 0.836609 0.407696
Si Si7 0.508496 0.095601 0.945242
O O1 0.708871 0.527459 0.193949
O O2 0.445776 0.708586 0.281706
O O3 0.814352 0.735175 0.140173
O O4 0.500000 0.500000 0.000000
O O5 0.326832 0.446345 0.307085
O O6 0.000000 0.500000 0.500000
O O7 0.017061 0.232415 0.290613
O O8 0.801580 0.382604 0.262677
O O9 0.877729 0.160801 0.668472
O O10 0.776897 0.154064 0.906753
O O11 0.962854 0.968748 0.680087
O O12 0.234119 0.794908 0.517356
O O13 0.344151 0.002723 0.801033
O O14 0.567256 0.756658 0.929229
O O15 0.500000 0.000000 0.500000
O O16 0.500000 0.000000 0.000000
#
# Coordination Sequence:
#
# PCOD8037546 Si02
#       7
#     2   2   2   2   2   2   2
#     4  12  29  48  76 111 157 206 261 328 395 472
#     4  12  29  52  77 112 155 208 260 323 398 468
#     4  12  26  46  79 108 153 200 261 321 397 459
#     4  12  26  46  78 109 153 197 260 325 386 469
#     4  12  29  50  78 113 157 206 263 322 395 469
#     4  12  25  47  72 115 150 197 261 319 394 468
#     4  12  26  48  75 112 151 202 259 320 391 470
#
# _framework density 23.371431999999999
#
# number of rings (size 3 to 8) (size 9 to 14) (size 15 to 20)
#    0.000    0.000    4.286    4.286    8.000    2.286 
#    0.000    0.000    0.000    0.000    0.000    0.000 
#    0.000    0.000    0.000    0.000    0.000    0.000 
#
# Total GULP energy -173454.852502 kJ/mol
# GULP energy per Si atom -12389.632322 kJ/mol
# Density = 2.331824 g / cm^3
# Si number density = 23.371432 Si / 1000 Ang^3
#
#
#
# Elastic Constant Matrix: (Units=GPa)
#
#
# Indices 1 2 3 4 5 6 
#
# 1 80.4428 26.7331 23.1714 -8.2558 -0.9770 -5.8491
# 2 26.7331 137.3354 18.0958 -3.6959 -1.5505 -21.9363
# 3 23.1714 18.0958 138.4940 -0.2618 -9.7976 -15.2050
# 4 -8.2558 -3.6959 -0.2618 46.4695 -3.8937 -7.2809
# 5 -0.9770 -1.5505 -9.7976 -3.8937 34.6320 -7.0695
# 6 -5.8491 -21.9363 -15.2050 -7.2809 -7.0695 36.5441
#
#
#
# Elastic Compliance Matrix: (Units=1/GPa)
#
#
# Indices 1 2 3 4 5 6 
#
# 1 0.014059 -0.002326 -0.001978 0.002394 0.000110 0.000529
# 2 -0.002326 0.008644 -0.000042 0.001240 0.001540 0.005344
# 3 -0.001978 -0.000042 0.008191 0.000541 0.003090 0.003772
# 4 0.002394 0.001240 0.000541 0.023484 0.004318 0.006867
# 5 0.000110 0.001540 0.003090 0.004318 0.032209 0.009319
# 6 0.000529 0.005344 0.003772 0.006867 0.009319 0.035397
#
#
# Mechanical properties :
#
#
# Convention : Reuss Voigt Hill
#
# Bulk Modulus (GPa) = 45.04122 54.69696 49.86909
# Shear Modulus (GPa) = 36.21156 42.74724 39.47940
#
# Velocity S-wave (km/s) = 3.94050 4.28137 4.11447
# Velocity P-wave (km/s) = 6.32591 6.92057 6.62991
#
# Compressibility (1/GPa) = 0.02220189
#
# Stress axis : x y z
#
# Youngs Moduli (GPa) = 71.12680 115.68584 122.08967
#
# Poissons Ratio (x) = 0.26907 0.24148
# Poissons Ratio (y) = 0.16543 0.00517
# Poissons Ratio (z) = 0.14068 0.00490
#
# Static dielectric constant tensor:
#      x y z
#    x 5.124630 0.139520 1.224310 
#    y 0.139520 4.866900 0.235620 
#    z 1.224310 0.235620 7.067240 
# 
# 
# High freq. dielectric constant tensor:
#      x y z
#    x 1.915430 -0.006850 -0.002590 
#    y -0.006850 1.952090 0.001580 
#    z -0.002590 0.001580 1.945390 
# 
# From -- ./inp_files/69069.got.cif
#   From: 2010.06.25/outbox.cif.g09.slc.cpg/sg2_35_cif.got.tgz:69069.got - 2010.06.27 13:26:56.
