data_PCOD8037835
_publ_section_title
;
Structure prediction by ZEFSAII (Michael W. Deem and Ramdas Pophale) SiO2 
 PCOD8037835
Probable space group: P -1
;
_chemical_formula_sum "Si O2"
_cell_formula_units_Z 14
_cell_length_a 8.323364
_cell_length_b 13.363696
_cell_length_c 13.757449
_cell_angle_alpha 104.982749
_cell_angle_beta 80.049436
_cell_angle_gamma 148.722285
_cell_volume 763.931794
_symmetry_space_group_name_H-M "P -1"
_symmetry_group_IT_number 2
_symmetry_cell_setting 'triclinic'
loop_
_space_group_symop_operation_xyz
x,y,z
-x,-y,-z
loop_
_atom_site_type_symbol
_atom_site_label
_atom_site_fract_x
_atom_site_fract_y
_atom_site_fract_z
Si Si1 0.789784 0.920171 0.708200
Si Si2 0.565076 0.471603 0.390748
Si Si3 0.006460 0.955917 0.882646
Si Si4 0.726486 0.241647 0.372339
Si Si5 0.157049 0.671591 0.405180
Si Si6 0.185673 0.363532 0.240398
Si Si7 0.459358 0.250381 0.753701
O O1 0.644650 0.743057 0.625568
O O2 0.597565 0.916237 0.691419
O O3 0.764150 0.886971 0.820121
O O4 0.154962 0.126037 0.694161
O O5 0.500000 0.500000 0.500000
O O6 0.472328 0.485485 0.308883
O O7 0.928589 0.638741 0.384097
O O8 0.912493 0.783976 0.856625
O O9 0.351778 0.155434 0.848925
O O10 0.000000 0.000000 0.000000
O O11 0.665443 0.193479 0.481834
O O12 0.962823 0.463672 0.393028
O O13 0.889670 0.229342 0.305767
O O14 0.404301 0.776741 0.322191
O O15 0.294148 0.521878 0.205992
#
# Coordination Sequence:
#
# PCOD8037835 Si02
#       7
#     2   2   2   2   2   2   2
#     4   8  19  34  50  77 110 137 178 220 263 315
#     4  10  17  32  51  77 112 152 177 204 261 312
#     4   9  20  40  58  75 105 138 178 236 276 303
#     4   9  16  31  52  77 111 148 169 209 267 313
#     4   9  17  29  52  76 116 146 172 211 256 316
#     4  10  19  35  57  78 109 142 180 216 260 325
#     4   9  20  36  52  84 104 141 182 219 263 321
#
# _framework density 18.326243000000002
#
# number of rings (size 3 to 8) (size 9 to 14) (size 15 to 20)
#    0.857    2.000    1.429    0.000    2.000    1.143 
#    2.571    2.143    0.000   13.714    0.000    0.000 
#    0.000    0.000    0.000    0.000    0.000    0.000 
#
# Total GULP energy -173462.310568 kJ/mol
# GULP energy per Si atom -12390.165041 kJ/mol
# Density = 1.828453 g / cm^3
# Si number density = 18.326243 Si / 1000 Ang^3
#
#
#
# Elastic Constant Matrix: (Units=GPa)
#
#
# Indices 1 2 3 4 5 6 
#
# 1 98.4730 26.4737 53.0042 -1.9460 -13.5945 25.2669
# 2 26.4737 69.6850 48.6802 -8.2040 -7.9836 3.4044
# 3 53.0042 48.6802 158.2660 -2.9423 -15.8379 8.7671
# 4 -1.9460 -8.2040 -2.9423 25.6595 1.9810 -3.9818
# 5 -13.5945 -7.9836 -15.8379 1.9810 14.2117 -6.9988
# 6 25.2669 3.4044 8.7671 -3.9818 -6.9988 27.8527
#
#
#
# Elastic Compliance Matrix: (Units=1/GPa)
#
#
# Indices 1 2 3 4 5 6 
#
# 1 0.016777 -0.003034 -0.003581 -0.002456 0.004297 -0.012993
# 2 -0.003034 0.019791 -0.004777 0.005816 0.003875 0.003642
# 3 -0.003581 -0.004777 0.009408 -0.000815 0.005547 0.002149
# 4 -0.002456 0.005816 -0.000815 0.041842 -0.002287 0.007181
# 5 0.004297 0.003875 0.005547 -0.002287 0.091273 0.016491
# 6 -0.012993 0.003642 0.002149 0.007181 0.016491 0.051738
#
#
# Mechanical properties :
#
#
# Convention : Reuss Voigt Hill
#
# Bulk Modulus (GPa) = 43.12049 64.74889 53.93469
# Shear Modulus (GPa) = 19.13183 26.76251 22.94717
#
# Velocity S-wave (km/s) = 3.23454 3.82558 3.54241
# Velocity P-wave (km/s) = 6.12618 7.41090 6.79895
#
# Compressibility (1/GPa) = 0.02319083
#
# Stress axis : x y z
#
# Youngs Moduli (GPa) = 59.60604 50.52864 106.29007
#
# Poissons Ratio (x) = 0.15330 0.38067
# Poissons Ratio (y) = 0.18084 0.50776
# Poissons Ratio (z) = 0.21348 0.24138
#
# Static dielectric constant tensor:
#      x y z
#    x 3.501950 0.164030 -0.137550 
#    y 0.164030 3.183370 0.013420 
#    z -0.137550 0.013420 3.077590 
# 
# 
# High freq. dielectric constant tensor:
#      x y z
#    x 1.707050 0.003410 -0.014710 
#    y 0.003410 1.698260 0.002690 
#    z -0.014710 0.002690 1.680630 
# 
# From -- ./inp_files/178738.got.cif
#   From: 2010.06.25/outbox.cif.g09.slc.cpg/sg2_90_cif.got.tgz:178738.got - 2010.06.27 13:26:56.
