data_PCOD8037984
_publ_section_title
;
Structure prediction by ZEFSAII (Michael W. Deem and Ramdas Pophale) SiO2 
 PCOD8037984
Probable space group: P -1
;
_chemical_formula_sum "Si O2"
_cell_formula_units_Z 16
_cell_length_a 12.000000
_cell_length_b 9.000000
_cell_length_c 27.000000
_cell_angle_alpha 150.000000
_cell_angle_beta 30.000000
_cell_angle_gamma 140.000000
_cell_volume 727.497153
_symmetry_space_group_name_H-M "P -1"
_symmetry_group_IT_number 2
_symmetry_cell_setting 'triclinic'
loop_
_space_group_symop_operation_xyz
x,y,z
-x,-y,-z
loop_
_atom_site_type_symbol
_atom_site_label
_atom_site_fract_x
_atom_site_fract_y
_atom_site_fract_z
Si Si1 0.793733 0.487784 0.540442
Si Si2 0.053458 0.715801 0.752575
Si Si3 0.265779 0.515051 0.025300
Si Si4 0.043340 0.109110 0.270063
Si Si5 0.697736 0.851573 0.999798
Si Si6 0.608080 0.816176 0.212869
Si Si7 0.525393 0.564580 0.754680
Si Si8 0.857757 0.085859 0.625670
O O1 0.582032 0.412015 0.636085
O O2 0.000000 0.500000 0.500000
O O3 0.819371 0.216408 0.413998
O O4 0.794701 0.812673 0.607725
O O5 0.992555 0.828577 0.754987
O O6 0.001753 0.358902 0.676566
O O7 0.301991 0.841015 0.710601
O O8 0.905540 0.901461 0.898775
O O9 0.513445 0.649208 0.981991
O O10 0.083906 0.765768 0.166958
O O11 0.211062 0.281923 0.022900
O O12 0.249242 0.357361 0.932466
O O13 0.254605 0.315570 0.266292
O O14 0.616358 0.172942 0.134678
O O15 0.612340 0.654157 0.218022
O O16 0.366125 0.802271 0.278130
O O17 0.000000 0.000000 0.500000
#
# Coordination Sequence:
#
# PCOD8037984 Si02
#       8
#     2   2   2   2   2   2   2   2
#     4  10  21  39  71  99 125 176 221 264 334 385
#     4  12  25  41  68 102 130 174 221 266 336 392
#     4  10  21  39  68  96 135 171 223 273 328 391
#     4  10  20  40  63  98 129 175 220 264 328 391
#     4  10  21  38  67 100 127 176 221 272 333 387
#     4  12  25  43  68 101 132 175 218 269 331 393
#     4  10  20  39  67  95 135 174 221 269 325 393
#     4  12  23  46  72  94 136 172 216 277 325 391
#
# _framework density 21.993213000000001
#
# number of rings (size 3 to 8) (size 9 to 14) (size 15 to 20)
#    0.000    1.250    3.750    2.250    5.250    5.000 
#    0.000    1.875    0.000    0.000    0.000    0.000 
#    0.000    0.000    0.000    0.000    0.000    0.000 
#
# Total GULP energy -198261.401039 kJ/mol
# GULP energy per Si atom -12391.337565 kJ/mol
# Density = 2.194316 g / cm^3
# Si number density = 21.993213 Si / 1000 Ang^3
#
#
#
# Elastic Constant Matrix: (Units=GPa)
#
#
# Indices 1 2 3 4 5 6 
#
# 1 68.3787 73.5120 51.7497 0.9432 6.2824 -41.7825
# 2 73.5120 55.0931 58.7276 18.6906 37.1472 -0.5040
# 3 51.7497 58.7276 131.5432 3.9999 25.9092 -17.7400
# 4 0.9432 18.6906 3.9999 28.8706 -18.8101 4.5215
# 5 6.2824 37.1472 25.9092 -18.8101 19.5757 -8.7302
# 6 -41.7825 -0.5040 -17.7400 4.5215 -8.7302 44.5322
#
#
#
# Elastic Compliance Matrix: (Units=1/GPa)
#
#
# Indices 1 2 3 4 5 6 
#
# 1 0.025742 0.005148 -0.000891 -0.033256 -0.040173 0.019357
# 2 0.005148 0.000275 -0.005596 0.012104 0.019152 0.005129
# 3 -0.000891 -0.005596 0.012496 -0.003633 -0.007824 0.002913
# 4 -0.033256 0.012104 -0.003633 0.051284 0.027360 -0.032356
# 5 -0.040173 0.019152 -0.007824 0.027360 0.049241 -0.033717
# 6 0.019357 0.005129 0.002913 -0.032356 -0.033717 0.038511
#
#
# Mechanical properties :
#
#
# Convention : Reuss Voigt Hill
#
# Bulk Modulus (GPa) = 27.90707 69.22152 48.56430
# Shear Modulus (GPa) = 26.01822 23.33073 24.67447
#
# Velocity S-wave (km/s) = 3.44322 3.26055 3.35313
# Velocity P-wave (km/s) = 5.34081 6.76145 6.09268
#
# Compressibility (1/GPa) = 0.03583321
#
# Stress axis : x y z
#
# Youngs Moduli (GPa) = 38.84657 3640.36856 80.02845
#
# Poissons Ratio (x) = -18.73965 0.07130
# Poissons Ratio (y) = -0.19997 0.44787
# Poissons Ratio (z) = 0.03461 20.37312
#
# Static dielectric constant tensor:
#      x y z
#    x 4.024770 -0.205220 0.326420 
#    y -0.205220 3.819140 -0.292240 
#    z 0.326420 -0.292240 5.305940 
# 
# 
# High freq. dielectric constant tensor:
#      x y z
#    x 1.867240 -0.020330 0.012620 
#    y -0.020330 1.854530 0.002530 
#    z 0.012620 0.002530 1.869560 
# 
# From -- ./inp_files/469154.got.cif
#   From: 2010.06.25/outbox.ucp.g09.slc.cvg/sg2_235_cif.got.tgz:469154.got - 2010.06.28 11:54:26.
