data_PCOD8037529
_publ_section_title
;
Structure prediction by ZEFSAII (Michael W. Deem and Ramdas Pophale) SiO2 
 PCOD8037529
Probable space group: P -1
;
_chemical_formula_sum "Si O2"
_cell_formula_units_Z 16
_cell_length_a 9.145595
_cell_length_b 14.841482
_cell_length_c 9.091876
_cell_angle_alpha 106.352125
_cell_angle_beta 43.512596
_cell_angle_gamma 85.106910
_cell_volume 732.880215
_symmetry_space_group_name_H-M "P -1"
_symmetry_group_IT_number 2
_symmetry_cell_setting 'triclinic'
loop_
_space_group_symop_operation_xyz
x,y,z
-x,-y,-z
loop_
_atom_site_type_symbol
_atom_site_label
_atom_site_fract_x
_atom_site_fract_y
_atom_site_fract_z
Si Si1 0.927672 0.600999 0.696246
Si Si2 0.506443 0.776006 0.923284
Si Si3 0.650014 0.842904 0.552734
Si Si4 0.169807 0.680399 0.034370
Si Si5 0.201006 0.904107 0.723933
Si Si6 0.271566 0.678335 0.619571
Si Si7 0.776535 0.536904 0.073225
Si Si8 0.764045 0.033671 0.599969
O O1 0.752572 0.690998 0.761619
O O2 0.000000 0.500000 0.500000
O O3 0.150487 0.623561 0.580480
O O4 0.806049 0.592246 0.931223
O O5 0.534215 0.807955 0.753417
O O6 0.302557 0.736778 0.051306
O O7 0.442813 0.869791 0.126010
O O8 0.462778 0.879394 0.574657
O O9 0.889216 0.747545 0.280792
O O10 0.692525 0.940132 0.613685
O O11 0.239224 0.661024 0.805120
O O12 0.252737 0.566885 0.996271
O O13 0.156005 0.801648 0.725641
O O14 0.185225 0.936896 0.583393
O O15 0.000000 0.000000 0.000000
O O16 0.550533 0.623383 0.360352
O O17 0.000000 0.500000 0.000000
O O18 0.000000 0.000000 0.500000
#
# Coordination Sequence:
#
# PCOD8037529 Si02
#       8
#     2   2   2   2   2   2   2   2
#     4  12  29  46  72 110 145 186 239 297 361 418
#     4  12  27  46  72 106 145 187 237 295 361 419
#     4  12  26  48  74 103 146 191 239 290 357 429
#     4  12  25  46  77 104 143 188 242 292 351 431
#     4  12  27  47  76 106 143 192 243 289 354 432
#     4  12  27  47  75 106 144 189 243 293 352 430
#     4  12  26  46  76 103 141 190 238 291 356 422
#     4  12  26  46  71 107 145 185 236 299 357 415
#
# _framework density 21.831672999999999
#
# number of rings (size 3 to 8) (size 9 to 14) (size 15 to 20)
#    0.000    0.000    3.750    5.625    7.000    4.000 
#    0.000    0.000    0.000    0.000    0.000    0.000 
#    0.000    0.000    0.000    0.000    0.000    0.000 
#
# Total GULP energy -198526.511034 kJ/mol
# GULP energy per Si atom -12407.906940 kJ/mol
# Density = 2.178198 g / cm^3
# Si number density = 21.831673 Si / 1000 Ang^3
#
#
#
# Elastic Constant Matrix: (Units=GPa)
#
#
# Indices 1 2 3 4 5 6 
#
# 1 116.6678 35.2010 26.4484 -2.2123 1.3527 -1.1011
# 2 35.2010 113.5003 23.0511 9.5708 -1.1853 7.5240
# 3 26.4484 23.0511 141.2180 14.1954 2.5082 -2.0312
# 4 -2.2123 9.5708 14.1954 44.3857 -0.0916 3.9660
# 5 1.3527 -1.1853 2.5082 -0.0916 30.9093 0.8202
# 6 -1.1011 7.5240 -2.0312 3.9660 0.8202 45.9025
#
#
#
# Elastic Compliance Matrix: (Units=1/GPa)
#
#
# Indices 1 2 3 4 5 6 
#
# 1 0.009831 -0.002913 -0.001507 0.001553 -0.000429 0.000520
# 2 -0.002913 0.010183 -0.000962 -0.001886 0.000634 -0.001630
# 3 -0.001507 -0.000962 0.007785 -0.002420 -0.000628 0.000686
# 4 0.001553 -0.001886 -0.002420 0.023952 0.000176 -0.001833
# 5 -0.000429 0.000634 -0.000628 0.000176 0.032467 -0.000737
# 6 0.000520 -0.001630 0.000686 -0.001833 -0.000737 0.022267
#
#
# Mechanical properties :
#
#
# Convention : Reuss Voigt Hill
#
# Bulk Modulus (GPa) = 58.69871 60.08745 59.39308
# Shear Modulus (GPa) = 40.67487 43.35189 42.01338
#
# Velocity S-wave (km/s) = 4.32106 4.46099 4.39158
# Velocity P-wave (km/s) = 7.20005 7.35641 7.27865
#
# Compressibility (1/GPa) = 0.01703615
#
# Stress axis : x y z
#
# Youngs Moduli (GPa) = 101.71774 98.20280 128.45682
#
# Poissons Ratio (x) = 0.28606 0.19355
# Poissons Ratio (y) = 0.29629 0.12354
# Poissons Ratio (z) = 0.15326 0.09444
#
# Static dielectric constant tensor:
#      x y z
#    x 3.962110 -0.022230 -0.129760 
#    y -0.022230 4.239790 -0.069560 
#    z -0.129760 -0.069560 3.892690 
# 
# 
# High freq. dielectric constant tensor:
#      x y z
#    x 1.871360 0.004260 0.000660 
#    y 0.004260 1.880230 0.006600 
#    z 0.000660 0.006600 1.873520 
# 
# From -- ./inp_files/56974.got.cif
#   From: 2010.06.25/outbox.cif.g09.slc.cpg/sg2_29_cif.got.tgz:56974.got - 2010.06.27 13:26:56.
