data_PCOD8037176
_publ_section_title
;
Structure prediction by ZEFSAII (Michael W. Deem and Ramdas Pophale) SiO2 
 PCOD8037176
Probable space group: P -1
;
_chemical_formula_sum "Si O2"
_cell_formula_units_Z 14
_cell_length_a 24.039444
_cell_length_b 26.527430
_cell_length_c 6.741949
_cell_angle_alpha 60.218069
_cell_angle_beta 119.803443
_cell_angle_gamma 170.082756
_cell_volume 641.799401
_symmetry_space_group_name_H-M "P -1"
_symmetry_group_IT_number 2
_symmetry_cell_setting 'triclinic'
loop_
_space_group_symop_operation_xyz
x,y,z
-x,-y,-z
loop_
_atom_site_type_symbol
_atom_site_label
_atom_site_fract_x
_atom_site_fract_y
_atom_site_fract_z
Si Si1 0.446750 0.580703 0.170903
Si Si2 0.630867 0.061830 0.990890
Si Si3 0.319378 0.991595 0.491331
Si Si4 0.421541 0.652941 0.653238
Si Si5 0.787193 0.356224 0.283370
Si Si6 0.705312 0.705323 0.144794
Si Si7 0.883298 0.017228 0.427709
O O1 0.497560 0.564558 0.183615
O O2 0.074324 0.244516 0.244893
O O3 0.717488 0.830383 0.330971
O O4 0.484950 0.669338 0.922769
O O5 0.987205 0.391807 0.892395
O O6 0.378575 0.826338 0.829601
O O7 0.645940 0.019242 0.238444
O O8 0.500000 0.000000 0.000000
O O9 0.953048 0.673434 0.406660
O O10 0.444776 0.165183 0.431558
O O11 0.512189 0.138879 0.357562
O O12 0.593245 0.777566 0.524903
O O13 0.000000 0.500000 0.500000
O O14 0.832377 0.765427 0.384545
O O15 0.500000 0.500000 0.000000
O O16 0.000000 0.000000 0.000000
#
# Coordination Sequence:
#
# PCOD8037176 Si02
#       7
#     2   2   2   2   2   2   2
#     4  12  26  46  74 103 143 186 238 289 353 413
#     4  12  26  45  76 106 140 180 231 291 356 413
#     4  12  28  46  72 105 142 184 238 286 348 423
#     4  12  28  47  70 102 148 188 232 286 348 426
#     4  12  26  45  76 106 140 180 231 291 356 413
#     4  12  24  44  76 105 139 184 236 299 350 402
#     4  12  26  46  74 103 143 186 238 289 353 413
#
# _framework density 21.813669000000001
#
# number of rings (size 3 to 8) (size 9 to 14) (size 15 to 20)
#    0.000    0.000    2.857    6.857    4.000    6.857 
#    0.000    0.000    0.000    0.000    0.000    0.000 
#    0.000    0.000    0.000    0.000    0.000    0.000 
#
# Total GULP energy -173681.008493 kJ/mol
# GULP energy per Si atom -12405.786321 kJ/mol
# Density = 2.176402 g / cm^3
# Si number density = 21.813669 Si / 1000 Ang^3
#
#
#
# Elastic Constant Matrix: (Units=GPa)
#
#
# Indices 1 2 3 4 5 6 
#
# 1 148.5306 72.0965 86.1506 16.1259 -0.5690 -7.7098
# 2 72.0965 178.2202 76.3665 1.9869 -12.8935 -13.3993
# 3 86.1506 76.3665 156.2600 2.0950 -4.6528 -7.7084
# 4 16.1259 1.9869 2.0950 53.8262 -11.1576 -4.9559
# 5 -0.5690 -12.8935 -4.6528 -11.1576 41.5475 1.6463
# 6 -7.7098 -13.3993 -7.7084 -4.9559 1.6463 56.0658
#
#
#
# Elastic Compliance Matrix: (Units=1/GPa)
#
#
# Indices 1 2 3 4 5 6 
#
# 1 0.011209 -0.002522 -0.004963 -0.003512 -0.002129 0.000008
# 2 -0.002522 0.007894 -0.002349 0.001172 0.002417 0.001249
# 3 -0.004963 -0.002349 0.010301 0.001344 0.000707 0.000270
# 4 -0.003512 0.001172 0.001344 0.020936 0.006023 0.001656
# 5 -0.002129 0.002417 0.000707 0.006023 0.026481 0.000137
# 6 0.000008 0.001249 0.000270 0.001656 0.000137 0.018315
#
#
# Mechanical properties :
#
#
# Convention : Reuss Voigt Hill
#
# Bulk Modulus (GPa) = 102.73229 105.80422 104.26825
# Shear Modulus (GPa) = 42.35496 46.84772 44.60134
#
# Velocity S-wave (km/s) = 4.41122 4.63928 4.52669
# Velocity P-wave (km/s) = 8.55235 8.79239 8.67320
#
# Compressibility (1/GPa) = 0.00973404
#
# Stress axis : x y z
#
# Youngs Moduli (GPa) = 89.21225 126.68271 97.08202
#
# Poissons Ratio (x) = 0.31949 0.48185
# Poissons Ratio (y) = 0.22499 0.22809
# Poissons Ratio (z) = 0.44279 0.29763
#
# Static dielectric constant tensor:
#      x y z
#    x 3.218430 -0.370260 -0.334160 
#    y -0.370260 3.972030 -0.389720 
#    z -0.334160 -0.389720 4.133560 
# 
# 
# High freq. dielectric constant tensor:
#      x y z
#    x 1.866420 -0.007140 -0.003290 
#    y -0.007140 1.883570 -0.008730 
#    z -0.003290 -0.008730 1.879420 
# 
# From -- ./inp_files/102921.got.cif
#   From: 2010.06.25/outbox.cif.g09.slc.cpg/sg2_52_cif.got.tgz:102921.got - 2010.06.27 13:26:56.
