data_PCOD8037234
_publ_section_title
;
Structure prediction by ZEFSAII (Michael W. Deem and Ramdas Pophale) SiO2 
 PCOD8037234
Probable space group: P -1
;
_chemical_formula_sum "Si O2"
_cell_formula_units_Z 16
_cell_length_a 27.605633
_cell_length_b 8.946283
_cell_length_c 14.893428
_cell_angle_alpha 132.674898
_cell_angle_beta 160.561225
_cell_angle_gamma 38.859826
_cell_volume 739.414025
_symmetry_space_group_name_H-M "P -1"
_symmetry_group_IT_number 2
_symmetry_cell_setting 'triclinic'
loop_
_space_group_symop_operation_xyz
x,y,z
-x,-y,-z
loop_
_atom_site_type_symbol
_atom_site_label
_atom_site_fract_x
_atom_site_fract_y
_atom_site_fract_z
Si Si1 0.066815 0.078746 0.567246
Si Si2 0.733241 0.372306 0.986166
Si Si3 0.816413 0.687900 0.700675
Si Si4 0.455834 0.908681 0.473335
Si Si5 0.504922 0.227661 0.128405
Si Si6 0.832856 0.545097 0.060484
Si Si7 0.880800 0.905135 0.735169
Si Si8 0.659399 0.459901 0.211068
O O1 0.125393 0.261193 0.759130
O O2 0.916685 0.198316 0.282093
O O3 0.232196 0.831282 0.718129
O O4 0.000000 0.000000 0.500000
O O5 0.795061 0.410542 0.015560
O O6 0.647918 0.217879 0.773274
O O7 0.606319 0.636355 0.920910
O O8 0.831183 0.865654 0.731561
O O9 0.766003 0.543763 0.487515
O O10 0.655226 0.861398 0.558248
O O11 0.000000 0.500000 0.000000
O O12 0.500000 0.000000 0.500000
O O13 0.649313 0.687310 0.747722
O O14 0.710341 0.112922 0.463138
O O15 0.409435 0.422299 0.959904
O O16 0.500000 0.000000 0.000000
O O17 0.003111 0.351781 0.219861
O O18 0.000000 0.000000 0.000000
O O19 0.500000 0.500000 0.000000
#
# Coordination Sequence:
#
# PCOD8037234 Si02
#       8
#     2   2   2   2   2   2   2   2
#     4  12  24  46  68 104 142 182 236 287 357 419
#     4  12  26  46  73 104 144 188 234 294 354 424
#     4  12  26  48  72 104 144 185 236 293 355 423
#     4  12  26  47  73 103 143 186 240 293 350 425
#     4  12  26  48  72 104 147 185 238 293 359 425
#     4  12  26  45  72 106 143 187 238 292 356 421
#     4  12  26  46  74 104 143 188 238 293 354 426
#     4  12  28  44  74 105 142 188 236 296 356 423
#
# _framework density 21.638756999999998
#
# number of rings (size 3 to 8) (size 9 to 14) (size 15 to 20)
#    0.000    0.000    2.500    7.500    7.000    0.000 
#    0.000    0.000    0.000    0.000    0.000    0.000 
#    0.000    0.000    0.000    0.000    0.000    0.000 
#
# Total GULP energy -198258.775962 kJ/mol
# GULP energy per Si atom -12391.173498 kJ/mol
# Density = 2.158951 g / cm^3
# Si number density = 21.638757 Si / 1000 Ang^3
#
#
#
# Elastic Constant Matrix: (Units=GPa)
#
#
# Indices 1 2 3 4 5 6 
#
# 1 142.7815 42.8258 55.5290 -6.9556 6.3478 10.7648
# 2 42.8258 135.9860 58.1010 -0.3176 2.8033 -2.3544
# 3 55.5290 58.1010 172.7265 -14.7761 -19.0928 14.8443
# 4 -6.9556 -0.3176 -14.7761 62.9968 4.1272 13.6496
# 5 6.3478 2.8033 -19.0928 4.1272 46.5135 -6.4295
# 6 10.7648 -2.3544 14.8443 13.6496 -6.4295 48.8727
#
#
#
# Elastic Compliance Matrix: (Units=1/GPa)
#
#
# Indices 1 2 3 4 5 6 
#
# 1 0.008692 -0.001778 -0.002204 0.001003 -0.002338 -0.001918
# 2 -0.001778 0.009214 -0.002917 -0.001170 -0.001144 0.001898
# 3 -0.002204 -0.002917 0.008210 0.001934 0.003364 -0.002246
# 4 0.001003 -0.001170 0.001934 0.017860 -0.001697 -0.006076
# 5 -0.002338 -0.001144 0.003364 -0.001697 0.023840 0.003048
# 6 -0.001918 0.001898 -0.002246 -0.006076 0.003048 0.023755
#
#
# Mechanical properties :
#
#
# Convention : Reuss Voigt Hill
#
# Bulk Modulus (GPa) = 81.19355 84.93396 83.06376
# Shear Modulus (GPa) = 45.67260 51.34581 48.50920
#
# Velocity S-wave (km/s) = 4.59920 4.87649 4.73987
# Velocity P-wave (km/s) = 8.11217 8.42870 8.27195
#
# Compressibility (1/GPa) = 0.01231625
#
# Stress axis : x y z
#
# Youngs Moduli (GPa) = 115.05397 108.53171 121.80741
#
# Poissons Ratio (x) = 0.19300 0.26844
# Poissons Ratio (y) = 0.20460 0.35535
# Poissons Ratio (z) = 0.25356 0.31662
#
# Static dielectric constant tensor:
#      x y z
#    x 3.849420 -0.186200 0.018630 
#    y -0.186200 3.857510 0.032150 
#    z 0.018630 0.032150 4.123110 
# 
# 
# High freq. dielectric constant tensor:
#      x y z
#    x 1.864840 0.000970 0.001970 
#    y 0.000970 1.871420 -0.006520 
#    z 0.001970 -0.006520 1.880570 
# 
# From -- ./inp_files/543868.got.cif
#   From: 2010.06.25/outbox.cif.g09.slc.cpg/sg2_272_cif.got.tgz:543868.got - 2010.06.27 13:26:56.
