data_PCOD8037638
_publ_section_title
;
Structure prediction by ZEFSAII (Michael W. Deem and Ramdas Pophale) SiO2 
 PCOD8037638
Probable space group: P -1
;
_chemical_formula_sum "Si O2"
_cell_formula_units_Z 16
_cell_length_a 9.557942
_cell_length_b 8.348185
_cell_length_c 13.583239
_cell_angle_alpha 41.784526
_cell_angle_beta 74.815152
_cell_angle_gamma 83.744329
_cell_volume 690.661126
_symmetry_space_group_name_H-M "P -1"
_symmetry_group_IT_number 2
_symmetry_cell_setting 'triclinic'
loop_
_space_group_symop_operation_xyz
x,y,z
-x,-y,-z
loop_
_atom_site_type_symbol
_atom_site_label
_atom_site_fract_x
_atom_site_fract_y
_atom_site_fract_z
Si Si1 0.162320 0.976214 0.945578
Si Si2 0.501499 0.891470 0.441742
Si Si3 0.945441 0.716718 0.644783
Si Si4 0.750734 0.579361 0.550095
Si Si5 0.551382 0.412937 0.130856
Si Si6 0.779817 0.500095 0.365374
Si Si7 0.858877 0.459204 0.979096
Si Si8 0.608731 0.240246 0.870035
O O1 0.253043 0.241683 0.790035
O O2 0.155308 0.824289 0.916164
O O3 0.243062 0.812873 0.080122
O O4 0.000000 0.000000 0.000000
O O5 0.649969 0.780953 0.448176
O O6 0.362429 0.694694 0.533963
O O7 0.500000 0.000000 0.500000
O O8 0.504544 0.124316 0.265361
O O9 0.848945 0.655747 0.592698
O O10 0.862030 0.636233 0.800170
O O11 0.085582 0.576320 0.684631
O O12 0.000000 0.000000 0.500000
O O13 0.832497 0.527645 0.457590
O O14 0.651402 0.325807 0.712490
O O15 0.469047 0.537865 0.174658
O O16 0.500000 0.500000 0.000000
O O17 0.726459 0.494428 0.062156
O O18 0.000000 0.500000 0.000000
O O19 0.500000 0.000000 0.000000
#
# Coordination Sequence:
#
# PCOD8037638 Si02
#       8
#     2   2   2   2   2   2   2   2
#     4  12  25  50  73 107 154 195 249 307 374 447
#     4  12  27  47  77 108 152 196 246 309 377 444
#     4  12  28  50  74 108 151 196 251 311 373 441
#     4  12  25  49  72 111 148 196 247 305 377 444
#     4  12  27  50  74 108 150 195 255 308 370 448
#     4  12  28  47  77 109 149 198 248 309 377 449
#     4  12  29  49  78 110 146 203 252 307 376 449
#     4  12  27  45  74 107 149 194 244 310 374 441
#
# _framework density 23.16621
#
# number of rings (size 3 to 8) (size 9 to 14) (size 15 to 20)
#    0.000    0.000    5.000    3.000   10.500    0.000 
#    0.000    0.000    0.000    0.000    0.000    0.000 
#    0.000    0.000    0.000    0.000    0.000    0.000 
#
# Total GULP energy -198341.953077 kJ/mol
# GULP energy per Si atom -12396.372067 kJ/mol
# Density = 2.311348 g / cm^3
# Si number density = 23.166210 Si / 1000 Ang^3
#
#
#
# Elastic Constant Matrix: (Units=GPa)
#
#
# Indices 1 2 3 4 5 6 
#
# 1 123.7738 28.5443 28.4333 -11.8233 0.9432 -9.5131
# 2 28.5443 79.5851 44.7285 -12.7583 2.6913 -6.9333
# 3 28.4333 44.7285 162.6688 -27.8774 0.3197 -1.8211
# 4 -11.8233 -12.7583 -27.8774 48.4150 -0.4018 -2.1176
# 5 0.9432 2.6913 0.3197 -0.4018 35.4826 0.5974
# 6 -9.5131 -6.9333 -1.8211 -2.1176 0.5974 47.3315
#
#
#
# Elastic Compliance Matrix: (Units=1/GPa)
#
#
# Indices 1 2 3 4 5 6 
#
# 1 0.009049 -0.002551 -0.000653 0.001225 -0.000052 0.001475
# 2 -0.002551 0.015978 -0.003660 0.001548 -0.001123 0.001770
# 3 -0.000653 -0.003660 0.007845 0.003386 0.000266 -0.000217
# 4 0.001225 0.001548 0.003386 0.023384 0.000057 0.001649
# 5 -0.000052 -0.001123 0.000266 0.000057 0.028276 -0.000519
# 6 0.001475 0.001770 -0.000217 0.001649 -0.000519 0.021755
#
#
# Mechanical properties :
#
#
# Convention : Reuss Voigt Hill
#
# Bulk Modulus (GPa) = 52.24191 63.27112 57.75651
# Shear Modulus (GPa) = 39.55757 43.86724 41.71240
#
# Velocity S-wave (km/s) = 4.13674 4.35626 4.24792
# Velocity P-wave (km/s) = 6.73919 7.25767 7.00323
#
# Compressibility (1/GPa) = 0.01914172
#
# Stress axis : x y z
#
# Youngs Moduli (GPa) = 110.51442 62.58743 127.46334
#
# Poissons Ratio (x) = 0.15969 0.08330
# Poissons Ratio (y) = 0.28197 0.46652
# Poissons Ratio (z) = 0.07222 0.22907
#
# Static dielectric constant tensor:
#      x y z
#    x 4.346330 0.009870 0.030040 
#    y 0.009870 4.213200 -0.064110 
#    z 0.030040 -0.064110 4.369670 
# 
# 
# High freq. dielectric constant tensor:
#      x y z
#    x 1.923710 -0.007220 -0.000740 
#    y -0.007220 1.916900 -0.006540 
#    z -0.000740 -0.006540 1.940950 
# 
# From -- ./inp_files/190671.got.cif
#   From: 2010.06.25/outbox.cif.g09.slc.cpg/sg2_96_cif.got.tgz:190671.got - 2010.06.27 13:26:56.
