data_PCOD8037714
_publ_section_title
;
Structure prediction by ZEFSAII (Michael W. Deem and Ramdas Pophale) SiO2 
 PCOD8037714
Probable space group: P -1
;
_chemical_formula_sum "Si O2"
_cell_formula_units_Z 16
_cell_length_a 8.877384
_cell_length_b 9.250583
_cell_length_c 17.084231
_cell_angle_alpha 82.880577
_cell_angle_beta 149.061378
_cell_angle_gamma 95.212828
_cell_volume 715.406784
_symmetry_space_group_name_H-M "P -1"
_symmetry_group_IT_number 2
_symmetry_cell_setting 'triclinic'
loop_
_space_group_symop_operation_xyz
x,y,z
-x,-y,-z
loop_
_atom_site_type_symbol
_atom_site_label
_atom_site_fract_x
_atom_site_fract_y
_atom_site_fract_z
Si Si1 0.852101 0.433318 0.864775
Si Si2 0.715526 0.100434 0.858288
Si Si3 0.448779 0.130978 0.906558
Si Si4 0.809350 0.240850 0.587150
Si Si5 0.758407 0.011652 0.456806
Si Si6 0.769713 0.516955 0.463848
Si Si7 0.775031 0.747781 0.575110
Si Si8 0.230917 0.595844 0.904053
O O1 0.815483 0.261699 0.871039
O O2 0.541427 0.517051 0.710225
O O3 0.049866 0.475511 0.876954
O O4 0.000000 0.500000 0.000000
O O5 0.519714 0.088631 0.850843
O O6 0.545724 0.036419 0.712636
O O7 0.000000 0.000000 0.000000
O O8 0.106054 0.173362 0.760758
O O9 0.653810 0.268065 0.004496
O O10 0.500000 0.000000 0.000000
O O11 0.861590 0.409454 0.582181
O O12 0.542129 0.237778 0.527957
O O13 0.724331 0.170923 0.469818
O O14 0.863389 0.911933 0.584369
O O15 0.000000 0.000000 0.500000
O O16 0.749833 0.676507 0.482504
O O17 0.000000 0.500000 0.500000
O O18 0.024281 0.664234 0.740394
O O19 0.500000 0.500000 0.000000
#
# Coordination Sequence:
#
# PCOD8037714 Si02
#       8
#     2   2   2   2   2   2   2   2
#     4  12  27  51  73 108 150 193 249 304 373 446
#     4  12  29  48  75 107 150 198 244 306 376 443
#     4  12  28  50  73 111 153 197 246 307 374 440
#     4  12  26  47  75 105 149 195 248 304 364 447
#     4  12  26  48  73 108 146 194 252 299 369 441
#     4  12  26  47  77 106 145 191 248 309 368 437
#     4  12  27  48  74 108 146 196 249 304 372 439
#     4  12  29  47  77 111 149 196 245 306 379 443
#
# _framework density 22.364898
#
# number of rings (size 3 to 8) (size 9 to 14) (size 15 to 20)
#    0.000    0.000    5.000    3.750   10.500    0.000 
#    0.000    0.000    0.000    0.000    0.000    0.000 
#    0.000    0.000    0.000    0.000    0.000    0.000 
#
# Total GULP energy -198402.594261 kJ/mol
# GULP energy per Si atom -12400.162141 kJ/mol
# Density = 2.231399 g / cm^3
# Si number density = 22.364898 Si / 1000 Ang^3
#
#
#
# Elastic Constant Matrix: (Units=GPa)
#
#
# Indices 1 2 3 4 5 6 
#
# 1 146.7192 24.2548 39.7764 -16.0487 28.1476 3.3306
# 2 24.2548 86.5177 35.5221 -9.4952 9.4421 11.4776
# 3 39.7764 35.5221 159.7071 -19.1874 13.9786 -2.7196
# 4 -16.0487 -9.4952 -19.1874 50.9213 -6.4098 -7.8431
# 5 28.1476 9.4421 13.9786 -6.4098 43.6625 -2.5949
# 6 3.3306 11.4776 -2.7196 -7.8431 -2.5949 51.4379
#
#
#
# Elastic Compliance Matrix: (Units=1/GPa)
#
#
# Indices 1 2 3 4 5 6 
#
# 1 0.008381 -0.001127 -0.001285 0.001311 -0.004579 -0.000390
# 2 -0.001127 0.013570 -0.002596 0.000535 -0.001482 -0.003085
# 3 -0.001285 -0.002596 0.007484 0.002059 -0.000624 0.001341
# 4 0.001311 0.000535 0.002059 0.021655 0.001755 0.003295
# 5 -0.004579 -0.001482 -0.000624 0.001755 0.026764 0.002212
# 6 -0.000390 -0.003085 0.001341 0.003295 0.002212 0.020840
#
#
# Mechanical properties :
#
#
# Convention : Reuss Voigt Hill
#
# Bulk Modulus (GPa) = 51.49664 65.78338 58.64001
# Shear Modulus (GPa) = 43.40948 48.76371 46.08659
#
# Velocity S-wave (km/s) = 4.41042 4.67451 4.54438
# Velocity P-wave (km/s) = 7.00081 7.65586 7.33565
#
# Compressibility (1/GPa) = 0.01941874
#
# Stress axis : x y z
#
# Youngs Moduli (GPa) = 119.31707 73.69280 133.62217
#
# Poissons Ratio (x) = 0.08302 0.17174
# Poissons Ratio (y) = 0.13442 0.34690
# Poissons Ratio (z) = 0.15335 0.19132
#
# Static dielectric constant tensor:
#      x y z
#    x 3.899240 -0.154320 -0.232850 
#    y -0.154320 4.219420 -0.018950 
#    z -0.232850 -0.018950 4.260530 
# 
# 
# High freq. dielectric constant tensor:
#      x y z
#    x 1.891940 0.003730 0.000510 
#    y 0.003730 1.899070 -0.001160 
#    z 0.000510 -0.001160 1.898630 
# 
# From -- ./inp_files/184397.got.cif
#   From: 2010.06.25/outbox.cif.g09.slc.cpg/sg2_93_cif.got.tgz:184397.got - 2010.06.27 13:26:56.
