data_PCOD8037720
_publ_section_title
;
Structure prediction by ZEFSAII (Michael W. Deem and Ramdas Pophale) SiO2 
 PCOD8037720
Probable space group: P -1
;
_chemical_formula_sum "Si O2"
_cell_formula_units_Z 10
_cell_length_a 5.063840
_cell_length_b 7.720183
_cell_length_c 14.879473
_cell_angle_alpha 112.516381
_cell_angle_beta 122.356646
_cell_angle_gamma 57.888950
_cell_volume 412.246000
_symmetry_space_group_name_H-M "P -1"
_symmetry_group_IT_number 2
_symmetry_cell_setting 'triclinic'
loop_
_space_group_symop_operation_xyz
x,y,z
-x,-y,-z
loop_
_atom_site_type_symbol
_atom_site_label
_atom_site_fract_x
_atom_site_fract_y
_atom_site_fract_z
Si Si1 0.444809 0.893566 0.378934
Si Si2 0.778834 0.470977 0.874643
Si Si3 0.368936 0.503888 0.574165
Si Si4 0.703302 0.156308 0.241424
Si Si5 0.669451 0.767557 0.214515
O O1 0.388200 0.692602 0.360535
O O2 0.753352 0.812407 0.343551
O O3 0.500000 0.000000 0.500000
O O4 0.117490 0.041327 0.290397
O O5 0.454487 0.691139 0.841283
O O6 0.009523 0.405126 0.813035
O O7 0.358426 0.696404 0.151011
O O8 0.000000 0.500000 0.000000
O O9 0.500000 0.500000 0.500000
O O10 0.375140 0.709774 0.655857
O O11 0.000000 0.500000 0.500000
O O12 0.546810 0.985526 0.182282
#
# Coordination Sequence:
#
# PCOD8037720 Si02
#       5
#     2   2   2   2   2
#     4  12  26  47  75 116 155 199 251 298 375 457
#     4  12  30  53  80 110 150 199 258 321 385 442
#     4  12  27  43  71 107 154 203 247 299 371 445
#     4  12  27  46  80 104 160 194 254 313 377 437
#     4  12  27  51  76 116 151 196 261 309 378 459
#
# _framework density 24.257362000000001
#
# number of rings (size 3 to 8) (size 9 to 14) (size 15 to 20)
#    0.000    0.000    6.000    1.800    8.400    3.200 
#    0.000    0.000    0.000    0.000    0.000    0.000 
#    0.000    0.000    0.000    0.000    0.000    0.000 
#
# Total GULP energy -123910.566552 kJ/mol
# GULP energy per Si atom -12391.056655 kJ/mol
# Density = 2.420215 g / cm^3
# Si number density = 24.257362 Si / 1000 Ang^3
#
#
#
# Elastic Constant Matrix: (Units=GPa)
#
#
# Indices 1 2 3 4 5 6 
#
# 1 132.1978 39.9013 53.7570 5.0950 -4.2170 5.0808
# 2 39.9013 157.9758 49.3994 -11.6731 1.7492 6.2598
# 3 53.7570 49.3994 126.3369 -5.1462 4.9526 -16.2458
# 4 5.0950 -11.6731 -5.1462 37.8391 -3.8014 4.4635
# 5 -4.2170 1.7492 4.9526 -3.8014 42.5893 6.7028
# 6 5.0808 6.2598 -16.2458 4.4635 6.7028 42.0375
#
#
#
# Elastic Compliance Matrix: (Units=1/GPa)
#
#
# Indices 1 2 3 4 5 6 
#
# 1 0.009880 -0.001217 -0.004223 -0.001777 0.001792 -0.002742
# 2 -0.001217 0.007774 -0.002749 0.002522 0.000486 -0.002418
# 3 -0.004223 -0.002749 0.011646 0.000367 -0.002537 0.005786
# 4 -0.001777 0.002522 0.000367 0.028176 0.002735 -0.003447
# 5 0.001792 0.000486 -0.002537 0.002735 0.025051 -0.005554
# 6 -0.002742 -0.002418 0.005786 -0.003447 -0.005554 0.027967
#
#
# Mechanical properties :
#
#
# Convention : Reuss Voigt Hill
#
# Bulk Modulus (GPa) = 77.39574 78.06956 77.73265
# Shear Modulus (GPa) = 38.11526 42.72339 40.41932
#
# Velocity S-wave (km/s) = 3.96825 4.20128 4.08643
# Velocity P-wave (km/s) = 7.27814 7.46914 7.37426
#
# Compressibility (1/GPa) = 0.01292061
#
# Stress axis : x y z
#
# Youngs Moduli (GPa) = 101.21143 128.63397 85.86824
#
# Poissons Ratio (x) = 0.15660 0.36265
# Poissons Ratio (y) = 0.12321 0.23605
# Poissons Ratio (z) = 0.42745 0.35361
#
# Static dielectric constant tensor:
#      x y z
#    x 3.993310 -0.103390 0.058500 
#    y -0.103390 5.032030 0.217670 
#    z 0.058500 0.217670 4.313040 
# 
# 
# High freq. dielectric constant tensor:
#      x y z
#    x 1.964400 0.004020 -0.006070 
#    y 0.004020 1.982950 0.015220 
#    z -0.006070 0.015220 1.955650 
# 
# From -- ./inp_files/1599.got.cif
#   From: 2010.06.25/outbox.cif.g09.slc.cpg/sg2_1_cif.got.tgz:1599.got - 2010.06.27 13:26:56.
