data_PCOD8037914
_publ_section_title
;
Structure prediction by ZEFSAII (Michael W. Deem and Ramdas Pophale) SiO2 
 PCOD8037914
Probable space group: P -1
;
_chemical_formula_sum "Si O2"
_cell_formula_units_Z 16
_cell_length_a 15.122865
_cell_length_b 15.078071
_cell_length_c 9.387276
_cell_angle_alpha 86.600700
_cell_angle_beta 115.517667
_cell_angle_gamma 37.949034
_cell_volume 825.686547
_symmetry_space_group_name_H-M "P -1"
_symmetry_group_IT_number 2
_symmetry_cell_setting 'triclinic'
loop_
_space_group_symop_operation_xyz
x,y,z
-x,-y,-z
loop_
_atom_site_type_symbol
_atom_site_label
_atom_site_fract_x
_atom_site_fract_y
_atom_site_fract_z
Si Si1 0.994495 0.277168 0.370992
Si Si2 0.198245 0.942523 0.441547
Si Si3 0.482397 0.728729 0.934270
Si Si4 0.557138 0.355649 0.610518
Si Si5 0.833289 0.108784 0.100456
Si Si6 0.789243 0.734522 0.363747
Si Si7 0.927694 0.265339 0.650149
Si Si8 0.646542 0.990401 0.023665
O O1 0.965646 0.256822 0.509996
O O2 0.139901 0.249267 0.474423
O O3 0.749088 0.498762 0.112774
O O4 0.131827 0.100820 0.375663
O O5 0.346007 0.804321 0.697200
O O6 0.352185 0.786301 0.431384
O O7 0.953084 0.093645 0.262252
O O8 0.401007 0.730364 0.003926
O O9 0.430405 0.873918 0.923016
O O10 0.500000 0.500000 0.500000
O O11 0.326160 0.500348 0.499779
O O12 0.760413 0.195579 0.882191
O O13 0.030041 0.872215 0.269886
O O14 0.568276 0.855117 0.245637
O O15 0.000000 0.500000 0.500000
O O16 0.721411 0.836533 0.159481
O O17 0.127370 0.156070 0.885451
#
# Coordination Sequence:
#
# PCOD8037914 Si02
#       8
#     2   2   2   2   2   2   2   2
#     4  11  22  36  60  93 117 153 197 249 299 342
#     4  12  25  37  57  89 124 149 200 255 293 336
#     4  11  21  37  60  91 118 153 198 247 298 342
#     4  12  26  41  58  85 118 166 205 236 291 356
#     4  11  23  40  61  79 118 165 201 239 288 359
#     4  10  17  32  58  90 122 149 186 248 299 348
#     4  10  21  40  60  85 118 156 207 234 289 360
#     4   9  19  33  58  91 117 148 196 245 287 356
#
# _framework density 19.377814000000001
#
# number of rings (size 3 to 8) (size 9 to 14) (size 15 to 20)
#    0.000    1.250    7.500    0.750    1.750    0.500 
#    0.000    0.000    0.000    0.750    0.000    7.875 
#    0.000    0.000    0.000    0.000    0.000    0.000 
#
# Total GULP energy -198265.030446 kJ/mol
# GULP energy per Si atom -12391.564403 kJ/mol
# Density = 1.933371 g / cm^3
# Si number density = 19.377814 Si / 1000 Ang^3
#
#
#
# Elastic Constant Matrix: (Units=GPa)
#
#
# Indices 1 2 3 4 5 6 
#
# 1 72.5291 47.8570 46.5420 3.3875 30.0962 16.2234
# 2 47.8570 120.2233 52.8070 -7.1019 17.4152 12.4769
# 3 46.5420 52.8070 117.5578 -4.3173 21.1336 7.5576
# 4 3.3875 -7.1019 -4.3173 28.8999 -2.7929 3.9528
# 5 30.0962 17.4152 21.1336 -2.7929 43.7470 -2.8982
# 6 16.2234 12.4769 7.5576 3.9528 -2.8982 28.6414
#
#
#
# Elastic Compliance Matrix: (Units=1/GPa)
#
#
# Indices 1 2 3 4 5 6 
#
# 1 0.033981 -0.006774 -0.006189 -0.006269 -0.019133 -0.015735
# 2 -0.006774 0.012461 -0.002931 0.003705 0.001273 -0.001201
# 3 -0.006189 -0.002931 0.012312 0.001638 -0.000334 0.001274
# 4 -0.006269 0.003705 0.001638 0.037341 0.004217 -0.003222
# 5 -0.019133 0.001273 -0.000334 0.004217 0.036841 0.013517
# 6 -0.015735 -0.001201 0.001274 -0.003222 0.013517 0.045826
#
#
# Mechanical properties :
#
#
# Convention : Reuss Voigt Hill
#
# Bulk Modulus (GPa) = 37.08561 67.19135 52.13848
# Shear Modulus (GPa) = 22.77508 31.13128 26.95318
#
# Velocity S-wave (km/s) = 3.43201 4.01252 3.73356
# Velocity P-wave (km/s) = 5.90632 7.49778 6.74912
#
# Compressibility (1/GPa) = 0.02696464
#
# Stress axis : x y z
#
# Youngs Moduli (GPa) = 29.42853 80.25097 81.22274
#
# Poissons Ratio (x) = 0.54360 0.50273
# Poissons Ratio (y) = 0.19934 0.23808
# Poissons Ratio (z) = 0.18215 0.23523
#
# Static dielectric constant tensor:
#      x y z
#    x 3.733500 0.158980 0.440640 
#    y 0.158980 3.389010 -0.227360 
#    z 0.440640 -0.227360 3.869150 
# 
# 
# High freq. dielectric constant tensor:
#      x y z
#    x 1.744040 0.020160 0.027380 
#    y 0.020160 1.730550 -0.030660 
#    z 0.027380 -0.030660 1.769340 
# 
# From -- ./inp_files/308949.got.cif
#   From: 2010.06.25/outbox.cif.g09.slc.cpg/sg2_155_cif.got.tgz:308949.got - 2010.06.27 13:26:56.
