data_PCOD8037253
_publ_section_title
;
Structure prediction by ZEFSAII (Michael W. Deem and Ramdas Pophale) SiO2 
 PCOD8037253
Probable space group: P -1
;
_chemical_formula_sum "Si O2"
_cell_formula_units_Z 16
_cell_length_a 14.519515
_cell_length_b 9.356015
_cell_length_c 8.926443
_cell_angle_alpha 105.323029
_cell_angle_beta 38.542038
_cell_angle_gamma 101.766831
_cell_volume 728.697056
_symmetry_space_group_name_H-M "P -1"
_symmetry_group_IT_number 2
_symmetry_cell_setting 'triclinic'
loop_
_space_group_symop_operation_xyz
x,y,z
-x,-y,-z
loop_
_atom_site_type_symbol
_atom_site_label
_atom_site_fract_x
_atom_site_fract_y
_atom_site_fract_z
Si Si1 0.091501 0.864074 0.902437
Si Si2 0.101094 0.598134 0.288842
Si Si3 0.403461 0.600849 0.759315
Si Si4 0.934865 0.632541 0.214994
Si Si5 0.363998 0.400703 0.292083
Si Si6 0.460835 0.112350 0.950416
Si Si7 0.622504 0.075199 0.261447
Si Si8 0.742396 0.290655 0.606132
O O1 0.227811 0.927021 0.837943
O O2 0.136541 0.744138 0.684730
O O3 0.975743 0.787365 0.136123
O O4 0.000000 0.000000 0.000000
O O5 0.177678 0.719285 0.334974
O O6 0.000000 0.500000 0.500000
O O7 0.982174 0.649574 0.333271
O O8 0.238117 0.538042 0.991393
O O9 0.500000 0.500000 0.500000
O O10 0.477887 0.603357 0.829038
O O11 0.406214 0.758444 0.714763
O O12 0.759487 0.610278 0.425519
O O13 0.000000 0.500000 0.000000
O O14 0.335872 0.548159 0.270034
O O15 0.358541 0.253014 0.158609
O O16 0.619582 0.166259 0.703721
O O17 0.363590 0.029099 0.928687
O O18 0.500000 0.000000 0.000000
O O19 0.500000 0.000000 0.500000
#
# Coordination Sequence:
#
# PCOD8037253 Si02
#       8
#     2   2   2   2   2   2   2   2
#     4  12  28  49  73 106 153 192 244 305 375 443
#     4  12  24  46  73 109 152 189 244 314 374 433
#     4  12  26  45  77 109 145 193 254 303 364 446
#     4  12  25  49  73 105 148 194 245 305 371 445
#     4  12  25  44  76 104 141 193 241 299 365 430
#     4  12  26  46  71 104 148 187 241 300 362 433
#     4  12  26  49  73 106 147 195 246 303 369 442
#     4  12  25  48  73 108 148 187 245 309 357 442
#
# _framework density 21.956997999999999
#
# number of rings (size 3 to 8) (size 9 to 14) (size 15 to 20)
#    0.000    0.000    7.500    1.875    3.500    1.000 
#    2.250    1.250    0.000    0.000    0.000    0.000 
#    0.000    0.000    0.000    0.000    0.000    0.000 
#
# Total GULP energy -198272.850949 kJ/mol
# GULP energy per Si atom -12392.053184 kJ/mol
# Density = 2.190702 g / cm^3
# Si number density = 21.956998 Si / 1000 Ang^3
#
#
#
# Elastic Constant Matrix: (Units=GPa)
#
#
# Indices 1 2 3 4 5 6 
#
# 1 122.6232 45.8275 15.5598 14.6481 10.4618 -7.5475
# 2 45.8275 148.3536 51.2141 -4.6240 0.7983 -20.7886
# 3 15.5598 51.2141 101.6860 -8.4922 3.1175 -7.9170
# 4 14.6481 -4.6240 -8.4922 54.5150 7.4461 1.3016
# 5 10.4618 0.7983 3.1175 7.4461 37.4804 -1.9781
# 6 -7.5475 -20.7886 -7.9170 1.3016 -1.9781 40.5642
#
#
#
# Elastic Compliance Matrix: (Units=1/GPa)
#
#
# Indices 1 2 3 4 5 6 
#
# 1 0.009811 -0.003030 -0.000111 -0.002625 -0.002131 0.000231
# 2 -0.003030 0.009599 -0.004058 0.000772 0.001015 0.003588
# 3 -0.000111 -0.004058 0.012088 0.001733 -0.001225 0.000144
# 4 -0.002625 0.000772 0.001733 0.019862 -0.003403 -0.000558
# 5 -0.002131 0.001015 -0.001225 -0.003403 0.028104 0.001364
# 6 0.000231 0.003588 0.000144 -0.000558 0.001364 0.026647
#
#
# Mechanical properties :
#
#
# Convention : Reuss Voigt Hill
#
# Bulk Modulus (GPa) = 58.47997 66.42952 62.45475
# Shear Modulus (GPa) = 39.61620 43.84935 41.73277
#
# Velocity S-wave (km/s) = 4.25227 4.47369 4.36438
# Velocity P-wave (km/s) = 7.12746 7.55018 7.34187
#
# Compressibility (1/GPa) = 0.01709987
#
# Stress axis : x y z
#
# Youngs Moduli (GPa) = 101.92298 104.17589 82.72339
#
# Poissons Ratio (x) = 0.31570 0.00918
# Poissons Ratio (y) = 0.30887 0.33570
# Poissons Ratio (z) = 0.01130 0.42276
#
# Static dielectric constant tensor:
#      x y z
#    x 3.628340 -0.009000 -0.339280 
#    y -0.009000 4.207460 -0.504720 
#    z -0.339280 -0.504720 4.083580 
# 
# 
# High freq. dielectric constant tensor:
#      x y z
#    x 1.878760 0.005550 0.006720 
#    y 0.005550 1.861830 -0.021230 
#    z 0.006720 -0.021230 1.879970 
# 
# From -- ./inp_files/205593.got.cif
#   From: 2010.06.25/outbox.cif.g09.slc.cpg/sg2_103_cif.got.tgz:205593.got - 2010.06.27 13:26:56.
