data_PCOD8037438
_publ_section_title
;
Structure prediction by ZEFSAII (Michael W. Deem and Ramdas Pophale) SiO2 
 PCOD8037438
Probable space group: P -1
;
_chemical_formula_sum "Si O2"
_cell_formula_units_Z 16
_cell_length_a 21.707445
_cell_length_b 8.452829
_cell_length_c 12.586335
_cell_angle_alpha 104.451699
_cell_angle_beta 18.614551
_cell_angle_gamma 104.563507
_cell_volume 713.018626
_symmetry_space_group_name_H-M "P -1"
_symmetry_group_IT_number 2
_symmetry_cell_setting 'triclinic'
loop_
_space_group_symop_operation_xyz
x,y,z
-x,-y,-z
loop_
_atom_site_type_symbol
_atom_site_label
_atom_site_fract_x
_atom_site_fract_y
_atom_site_fract_z
Si Si1 0.009398 0.702719 0.655521
Si Si2 0.660389 0.296409 0.418464
Si Si3 0.516480 0.013386 0.290661
Si Si4 0.373537 0.445872 0.297647
Si Si5 0.414669 0.867187 0.036232
Si Si6 0.883833 0.832688 0.667292
Si Si7 0.423381 0.318187 0.621233
Si Si8 0.963393 0.617924 0.312392
O O1 0.183204 0.833200 0.426200
O O2 0.068547 0.530752 0.577131
O O3 0.976902 0.710750 0.581912
O O4 0.799279 0.729598 0.055092
O O5 0.679424 0.103981 0.388990
O O6 0.653827 0.406740 0.552000
O O7 0.457778 0.310655 0.689590
O O8 0.820944 0.355178 0.079766
O O9 0.540876 0.178804 0.346849
O O10 0.670858 0.883863 0.053117
O O11 0.540060 0.058660 0.138705
O O12 0.162223 0.395219 0.591318
O O13 0.500000 0.500000 0.000000
O O14 0.471688 0.298641 0.171581
O O15 0.500000 0.000000 0.000000
O O16 0.892952 0.766254 0.521702
O O17 0.000000 0.000000 0.500000
O O18 0.500000 0.500000 0.500000
#
# Coordination Sequence:
#
# PCOD8037438 Si02
#       8
#     2   2   2   2   2   2   2   2
#     4  12  27  44  78 106 150 189 253 299 382 429
#     4  12  26  46  73 108 150 193 243 308 376 444
#     4  12  27  45  74 107 153 194 245 307 377 439
#     4  12  26  48  75 102 146 201 255 300 366 443
#     4  12  27  49  72 108 147 197 255 304 365 448
#     4  12  25  43  72 111 148 191 246 303 370 443
#     4  12  26  47  73 112 154 192 243 311 378 444
#     4  12  27  47  74 108 152 195 251 306 372 442
#
# _framework density 22.439803999999999
#
# number of rings (size 3 to 8) (size 9 to 14) (size 15 to 20)
#    0.000    0.000    5.000    4.875    1.750    2.000 
#    0.000    1.250    0.000    0.000    0.000    0.000 
#    0.000    0.000    0.000    0.000    0.000    0.000 
#
# Total GULP energy -198238.471524 kJ/mol
# GULP energy per Si atom -12389.904470 kJ/mol
# Density = 2.238873 g / cm^3
# Si number density = 22.439804 Si / 1000 Ang^3
#
#
#
# Elastic Constant Matrix: (Units=GPa)
#
#
# Indices 1 2 3 4 5 6 
#
# 1 125.7124 76.8660 57.0455 -12.0547 -9.9921 13.5630
# 2 76.8660 165.5452 59.0910 -13.1360 13.5081 11.2244
# 3 57.0455 59.0910 95.2816 -9.9750 -0.4572 4.4163
# 4 -12.0547 -13.1360 -9.9750 41.8163 -2.9805 14.1917
# 5 -9.9921 13.5081 -0.4572 -2.9805 39.3246 3.0327
# 6 13.5630 11.2244 4.4163 14.1917 3.0327 51.7056
#
#
#
# Elastic Compliance Matrix: (Units=1/GPa)
#
#
# Indices 1 2 3 4 5 6 
#
# 1 0.014330 -0.004840 -0.005080 0.002970 0.005734 -0.003426
# 2 -0.004840 0.009885 -0.003142 0.000829 -0.004555 -0.000568
# 3 -0.005080 -0.003142 0.015588 0.001144 0.000028 0.000368
# 4 0.002970 0.000829 0.001144 0.028636 0.003356 -0.009113
# 5 0.005734 -0.004555 0.000028 0.003356 0.028948 -0.003137
# 6 -0.003426 -0.000568 0.000368 -0.009113 -0.003137 0.023016
#
#
# Mechanical properties :
#
#
# Convention : Reuss Voigt Hill
#
# Bulk Modulus (GPa) = 73.10456 85.83824 79.47140
# Shear Modulus (GPa) = 33.09372 39.47173 36.28273
#
# Velocity S-wave (km/s) = 3.84445 4.19860 4.02542
# Velocity P-wave (km/s) = 7.23569 7.86384 7.55630
#
# Compressibility (1/GPa) = 0.01367904
#
# Stress axis : x y z
#
# Youngs Moduli (GPa) = 69.78610 101.15950 64.15173
#
# Poissons Ratio (x) = 0.48961 0.32591
# Poissons Ratio (y) = 0.33777 0.20154
# Poissons Ratio (z) = 0.35453 0.31781
#
# Static dielectric constant tensor:
#      x y z
#    x 4.343260 -0.237560 -0.252330 
#    y -0.237560 4.120200 -0.235490 
#    z -0.252330 -0.235490 4.154860 
# 
# 
# High freq. dielectric constant tensor:
#      x y z
#    x 1.893780 -0.012440 0.000870 
#    y -0.012440 1.902650 -0.024250 
#    z 0.000870 -0.024250 1.887100 
# 
# From -- ./inp_files/470046.got.cif
#   From: 2010.06.25/outbox.cif.g09.slc.cpg/sg2_236_cif.got.tgz:470046.got - 2010.06.27 13:26:56.
