data_PCOD8037585
_publ_section_title
;
Structure prediction by ZEFSAII (Michael W. Deem and Ramdas Pophale) SiO2 
 PCOD8037585
Probable space group: P -1
;
_chemical_formula_sum "Si O2"
_cell_formula_units_Z 16
_cell_length_a 9.343589
_cell_length_b 19.852786
_cell_length_c 12.173348
_cell_angle_alpha 32.357804
_cell_angle_beta 35.618538
_cell_angle_gamma 33.912751
_cell_volume 625.163166
_symmetry_space_group_name_H-M "P -1"
_symmetry_group_IT_number 2
_symmetry_cell_setting 'triclinic'
loop_
_space_group_symop_operation_xyz
x,y,z
-x,-y,-z
loop_
_atom_site_type_symbol
_atom_site_label
_atom_site_fract_x
_atom_site_fract_y
_atom_site_fract_z
Si Si1 0.645987 0.228125 0.431067
Si Si2 0.559529 0.298249 0.030804
Si Si3 0.527421 0.840408 0.920320
Si Si4 0.016831 0.357078 0.641164
Si Si5 0.335770 0.926426 0.563296
Si Si6 0.903002 0.413568 0.036708
Si Si7 0.164121 0.834468 0.351468
Si Si8 0.816081 0.411799 0.454389
O O1 0.335726 0.249385 0.577979
O O2 0.808221 0.099916 0.420296
O O3 0.704030 0.358518 0.176216
O O4 0.711343 0.205546 0.549474
O O5 0.638383 0.204900 0.999973
O O6 0.469218 0.222655 0.290203
O O7 0.305958 0.452999 0.942078
O O8 0.832816 0.304938 0.901824
O O9 0.854757 0.726634 0.864410
O O10 0.492171 0.992909 0.695175
O O11 0.393197 0.848259 0.112733
O O12 0.000000 0.500000 0.500000
O O13 0.850864 0.365550 0.621455
O O14 0.107279 0.016076 0.673848
O O15 0.043996 0.483300 0.775563
O O16 0.069920 0.720281 0.520036
O O17 0.500000 0.500000 0.500000
#
# Coordination Sequence:
#
# PCOD8037585 Si02
#       8
#     2   2   2   2   2   2   2   2
#     4  12  29  50  76 119 160 215 265 333 406 477
#     4  12  27  50  81 120 160 207 266 338 411 473
#     4  12  27  50  85 116 155 215 269 336 396 487
#     4  12  26  47  76 121 164 201 264 334 408 474
#     4  12  30  52  77 115 167 214 267 329 412 486
#     4  12  26  47  83 112 163 202 267 331 402 472
#     4  12  27  52  82 115 159 212 276 324 401 483
#     4  12  25  47  80 121 153 209 267 336 396 474
#
# _framework density 25.593318
#
# number of rings (size 3 to 8) (size 9 to 14) (size 15 to 20)
#    0.000    0.000    5.000    3.375    5.250    3.000 
#    0.000    0.000    0.000    0.000    0.000    0.000 
#    0.000    0.000    0.000    0.000    0.000    0.000 
#
# Total GULP energy -198234.712537 kJ/mol
# GULP energy per Si atom -12389.669534 kJ/mol
# Density = 2.553507 g / cm^3
# Si number density = 25.593318 Si / 1000 Ang^3
#
#
#
# Elastic Constant Matrix: (Units=GPa)
#
#
# Indices 1 2 3 4 5 6 
#
# 1 111.1775 30.0551 41.6827 -3.8011 -3.3627 24.1780
# 2 30.0551 82.8681 46.2433 -7.9683 -6.7362 31.7604
# 3 41.6827 46.2433 165.5375 -4.3997 -28.4105 10.7077
# 4 -3.8011 -7.9683 -4.3997 40.0454 3.6878 -5.0402
# 5 -3.3627 -6.7362 -28.4105 3.6878 38.5502 2.0938
# 6 24.1780 31.7604 10.7077 -5.0402 2.0938 53.0836
#
#
#
# Elastic Compliance Matrix: (Units=1/GPa)
#
#
# Indices 1 2 3 4 5 6 
#
# 1 0.011001 -0.001347 -0.002283 0.000130 -0.000770 -0.003701
# 2 -0.001347 0.018784 -0.004160 0.001901 0.000440 -0.009623
# 3 -0.002283 -0.004160 0.008586 -0.000400 0.005356 0.001547
# 4 0.000130 0.001901 -0.000400 0.025727 -0.002489 0.001425
# 5 -0.000770 0.000440 0.005356 -0.002489 0.030267 -0.002423
# 6 -0.003701 -0.009623 0.001547 0.001425 -0.002423 0.026200
#
#
# Mechanical properties :
#
#
# Convention : Reuss Voigt Hill
#
# Bulk Modulus (GPa) = 43.87651 66.17172 55.02411
# Shear Modulus (GPa) = 34.78461 42.44264 38.61362
#
# Velocity S-wave (km/s) = 3.69064 4.07670 3.88846
# Velocity P-wave (km/s) = 5.94491 6.93329 6.45804
#
# Compressibility (1/GPa) = 0.02279124
#
# Stress axis : x y z
#
# Youngs Moduli (GPa) = 90.90210 53.23732 116.46498
#
# Poissons Ratio (x) = 0.07173 0.26587
# Poissons Ratio (y) = 0.12249 0.48444
# Poissons Ratio (z) = 0.20752 0.22144
#
# Static dielectric constant tensor:
#      x y z
#    x 4.467190 0.086520 -0.245190 
#    y 0.086520 4.833780 -0.174410 
#    z -0.245190 -0.174410 5.142680 
# 
# 
# High freq. dielectric constant tensor:
#      x y z
#    x 2.014010 0.011120 -0.015880 
#    y 0.011120 2.027310 -0.003240 
#    z -0.015880 -0.003240 2.043220 
# 
# From -- ./inp_files/402795.got.cif
#   From: 2010.06.25/outbox.cif.g09.slc.cpg/sg2_202_cif.got.tgz:402795.got - 2010.06.27 13:26:56.
