data_PCOD8037507
_publ_section_title
;
Structure prediction by ZEFSAII (Michael W. Deem and Ramdas Pophale) SiO2 
 PCOD8037507
Probable space group: P -1
;
_chemical_formula_sum "Si O2"
_cell_formula_units_Z 16
_cell_length_a 17.241129
_cell_length_b 9.035773
_cell_length_c 6.692759
_cell_angle_alpha 129.456381
_cell_angle_beta 109.697543
_cell_angle_gamma 63.462057
_cell_volume 718.082111
_symmetry_space_group_name_H-M "P -1"
_symmetry_group_IT_number 2
_symmetry_cell_setting 'triclinic'
loop_
_space_group_symop_operation_xyz
x,y,z
-x,-y,-z
loop_
_atom_site_type_symbol
_atom_site_label
_atom_site_fract_x
_atom_site_fract_y
_atom_site_fract_z
Si Si1 0.179719 0.560286 0.023229
Si Si2 0.352463 0.234835 0.008490
Si Si3 0.510524 0.791943 0.230952
Si Si4 0.836555 0.088149 0.990470
Si Si5 0.431897 0.448893 0.541023
Si Si6 0.944176 0.205454 0.539112
Si Si7 0.926484 0.673867 0.482013
Si Si8 0.335721 0.865802 0.895754
O O1 0.267288 0.425862 0.085449
O O2 0.192391 0.744914 0.065720
O O3 0.150740 0.408088 0.723205
O O4 0.115618 0.648489 0.225335
O O5 0.406033 0.243404 0.866061
O O6 0.333174 0.023843 0.849317
O O7 0.406651 0.259728 0.271867
O O8 0.528344 0.611867 0.255788
O O9 0.500000 0.000000 0.500000
O O10 0.423547 0.809947 0.052549
O O11 0.890582 0.167740 0.269161
O O12 0.751415 0.051832 0.979670
O O13 0.892650 0.872487 0.762880
O O14 0.500000 0.500000 0.500000
O O15 0.343904 0.644730 0.625959
O O16 0.022138 0.290683 0.633256
O O17 0.000000 0.000000 0.500000
O O18 0.000000 0.500000 0.500000
#
# Coordination Sequence:
#
# PCOD8037507 Si02
#       8
#     2   2   2   2   2   2   2   2
#     4  12  28  47  73 109 147 188 239 298 357 428
#     4  12  28  47  71 107 144 187 244 292 351 425
#     4  12  25  48  74 100 145 193 236 293 353 421
#     4  12  28  48  70 112 149 183 239 303 355 429
#     4  12  25  46  73 101 139 191 241 289 353 418
#     4  12  25  50  77 104 145 189 240 293 363 432
#     4  12  26  48  79 102 144 191 235 292 364 431
#     4  12  27  46  73 106 145 187 239 295 356 420
#
# _framework density 22.281573999999999
#
# number of rings (size 3 to 8) (size 9 to 14) (size 15 to 20)
#    0.000    0.000    5.000    4.500    7.000    2.000 
#    0.000    0.000    0.000    0.000    0.000    0.000 
#    0.000    0.000    0.000    0.000    0.000    0.000 
#
# Total GULP energy -198342.757291 kJ/mol
# GULP energy per Si atom -12396.422331 kJ/mol
# Density = 2.223086 g / cm^3
# Si number density = 22.281574 Si / 1000 Ang^3
#
#
#
# Elastic Constant Matrix: (Units=GPa)
#
#
# Indices 1 2 3 4 5 6 
#
# 1 131.2388 42.6921 14.4516 -4.1258 -24.1351 9.8396
# 2 42.6921 154.1555 21.6049 -4.1987 -15.0736 8.8514
# 3 14.4516 21.6049 85.5349 10.1065 -12.2366 2.8814
# 4 -4.1258 -4.1987 10.1065 35.8107 3.3798 -5.3358
# 5 -24.1351 -15.0736 -12.2366 3.3798 35.5525 1.3242
# 6 9.8396 8.8514 2.8814 -5.3358 1.3242 42.7648
#
#
#
# Elastic Compliance Matrix: (Units=1/GPa)
#
#
# Indices 1 2 3 4 5 6 
#
# 1 0.009445 -0.001921 -0.000265 0.000127 0.005565 -0.001914
# 2 -0.001921 0.007422 -0.001424 0.000787 0.001313 -0.000941
# 3 -0.000265 -0.001424 0.013283 -0.004533 0.004265 -0.001237
# 4 0.000127 0.000787 -0.004533 0.030304 -0.004171 0.004024
# 5 0.005565 0.001313 0.004265 -0.004171 0.034454 -0.003427
# 6 -0.001914 -0.000941 -0.001237 0.004024 -0.003427 0.024710
#
#
# Mechanical properties :
#
#
# Convention : Reuss Voigt Hill
#
# Bulk Modulus (GPa) = 43.60910 58.71407 51.16159
# Shear Modulus (GPa) = 37.17990 42.30432 39.74211
#
# Velocity S-wave (km/s) = 4.08933 4.36205 4.22789
# Velocity P-wave (km/s) = 6.47388 7.19570 6.84431
#
# Compressibility (1/GPa) = 0.02293099
#
# Stress axis : x y z
#
# Youngs Moduli (GPa) = 105.87922 134.72878 75.28449
#
# Poissons Ratio (x) = 0.25881 0.01995
# Poissons Ratio (y) = 0.20339 0.10717
# Poissons Ratio (z) = 0.02805 0.19180
#
# Static dielectric constant tensor:
#      x y z
#    x 4.070630 0.028900 -0.075320 
#    y 0.028900 4.232480 -0.039880 
#    z -0.075320 -0.039880 4.107310 
# 
# 
# High freq. dielectric constant tensor:
#      x y z
#    x 1.888130 0.003320 -0.004240 
#    y 0.003320 1.903400 0.008420 
#    z -0.004240 0.008420 1.886560 
# 
# From -- ./inp_files/48742.got.cif
#   From: 2010.06.25/outbox.cif.g09.slc.cpg/sg2_25_cif.got.tgz:48742.got - 2010.06.27 13:26:56.
