data_PCOD8037396
_publ_section_title
;
Structure prediction by ZEFSAII (Michael W. Deem and Ramdas Pophale) SiO2 
 PCOD8037396
Probable space group: P -1
;
_chemical_formula_sum "Si O2"
_cell_formula_units_Z 14
_cell_length_a 6.437033
_cell_length_b 16.819212
_cell_length_c 8.375602
_cell_angle_alpha 41.827727
_cell_angle_beta 84.739966
_cell_angle_gamma 78.751946
_cell_volume 591.117080
_symmetry_space_group_name_H-M "P -1"
_symmetry_group_IT_number 2
_symmetry_cell_setting 'triclinic'
loop_
_space_group_symop_operation_xyz
x,y,z
-x,-y,-z
loop_
_atom_site_type_symbol
_atom_site_label
_atom_site_fract_x
_atom_site_fract_y
_atom_site_fract_z
Si Si1 0.184072 0.742989 0.355136
Si Si2 0.734831 0.688393 0.053211
Si Si3 0.592740 0.114671 0.374157
Si Si4 0.591145 0.579658 0.510385
Si Si5 0.315813 0.959625 0.183332
Si Si6 0.973670 0.154873 0.099896
Si Si7 0.982135 0.535150 0.765667
O O1 0.403405 0.653883 0.520359
O O2 0.175139 0.878694 0.218507
O O3 0.997220 0.677569 0.533648
O O4 0.171931 0.753544 0.148226
O O5 0.689813 0.681184 0.255829
O O6 0.811413 0.550390 0.196798
O O7 0.527796 0.754558 0.873734
O O8 0.915720 0.768006 0.898210
O O9 0.578877 0.123011 0.553763
O O10 0.829954 0.086512 0.324371
O O11 0.500000 0.000000 0.500000
O O12 0.500000 0.500000 0.500000
O O13 0.770173 0.510179 0.725335
O O14 0.153548 0.071207 0.105190
O O15 0.500000 0.000000 0.000000
O O16 0.000000 0.500000 0.000000
#
# Coordination Sequence:
#
# PCOD8037396 Si02
#       7
#     2   2   2   2   2   2   2
#     4  12  26  46  75 104 150 194 244 311 379 450
#     4  12  25  46  76 104 143 192 255 301 370 454
#     4  12  27  47  76 110 144 194 258 311 363 453
#     4  12  24  49  75 105 144 198 257 299 368 452
#     4  12  28  48  74 111 154 197 246 313 390 446
#     4  12  25  49  76 107 143 200 252 305 371 449
#     4  12  30  44  72 114 151 196 244 314 387 447
#
# _framework density 23.683971
#
# number of rings (size 3 to 8) (size 9 to 14) (size 15 to 20)
#    0.000    0.000    5.714    3.857    4.000    0.571 
#    0.000    0.000    0.000    0.000    0.000    0.000 
#    0.000    0.000    0.000    0.000    0.000    0.000 
#
# Total GULP energy -173536.102312 kJ/mol
# GULP energy per Si atom -12395.435879 kJ/mol
# Density = 2.363007 g / cm^3
# Si number density = 23.683971 Si / 1000 Ang^3
#
#
#
# Elastic Constant Matrix: (Units=GPa)
#
#
# Indices 1 2 3 4 5 6 
#
# 1 110.9771 40.3524 53.9631 9.2111 -2.8444 3.4059
# 2 40.3524 83.2087 40.3442 2.5341 -8.5157 7.1663
# 3 53.9631 40.3442 123.1619 23.5229 -4.5395 7.0538
# 4 9.2111 2.5341 23.5229 50.8907 4.4326 1.2580
# 5 -2.8444 -8.5157 -4.5395 4.4326 63.0437 -5.4016
# 6 3.4059 7.1663 7.0538 1.2580 -5.4016 44.1761
#
#
#
# Elastic Compliance Matrix: (Units=1/GPa)
#
#
# Indices 1 2 3 4 5 6 
#
# 1 0.012513 -0.004112 -0.004138 -0.000134 -0.000251 0.000336
# 2 -0.004112 0.015988 -0.003580 0.001513 0.001476 -0.001568
# 3 -0.004138 -0.003580 0.012061 -0.004667 0.000455 -0.000838
# 4 -0.000134 0.001513 -0.004667 0.021912 -0.001706 -0.000323
# 5 -0.000251 0.001476 0.000455 -0.001706 0.016353 0.001756
# 6 0.000336 -0.001568 -0.000838 -0.000323 0.001756 0.023223
#
#
# Mechanical properties :
#
#
# Convention : Reuss Voigt Hill
#
# Bulk Modulus (GPa) = 59.16994 65.18526 62.17760
# Shear Modulus (GPa) = 38.06751 43.80129 40.93440
#
# Velocity S-wave (km/s) = 4.01348 4.30514 4.16186
# Velocity P-wave (km/s) = 6.82017 7.23153 7.02886
#
# Compressibility (1/GPa) = 0.01690047
#
# Stress axis : x y z
#
# Youngs Moduli (GPa) = 79.91860 62.54674 82.90869
#
# Poissons Ratio (x) = 0.25720 0.34311
# Poissons Ratio (y) = 0.32863 0.29684
# Poissons Ratio (z) = 0.33073 0.22394
#
# Static dielectric constant tensor:
#      x y z
#    x 4.692020 0.098010 0.092370 
#    y 0.098010 4.300780 0.249240 
#    z 0.092370 0.249240 4.609720 
# 
# 
# High freq. dielectric constant tensor:
#      x y z
#    x 1.950620 0.004000 0.000270 
#    y 0.004000 1.924650 -0.005240 
#    z 0.000270 -0.005240 1.950790 
# 
# From -- ./inp_files/24134.got.cif
#   From: 2010.06.25/outbox.cif.g09.slc.cpg/sg2_13_cif.got.tgz:24134.got - 2010.06.27 13:26:56.
