data_PCOD8037127
_publ_section_title
;
Structure prediction by ZEFSAII (Michael W. Deem and Ramdas Pophale) SiO2 
 PCOD8037127
Probable space group: P -1
;
_chemical_formula_sum "Si O2"
_cell_formula_units_Z 14
_cell_length_a 13.511149
_cell_length_b 23.596151
_cell_length_c 23.356585
_cell_angle_alpha 11.930870
_cell_angle_beta 24.016768
_cell_angle_gamma 23.099654
_cell_volume 595.561322
_symmetry_space_group_name_H-M "P -1"
_symmetry_group_IT_number 2
_symmetry_cell_setting 'triclinic'
loop_
_space_group_symop_operation_xyz
x,y,z
-x,-y,-z
loop_
_atom_site_type_symbol
_atom_site_label
_atom_site_fract_x
_atom_site_fract_y
_atom_site_fract_z
Si Si1 0.706353 0.340250 0.094134
Si Si2 0.432740 0.451821 0.244457
Si Si3 0.334836 0.923333 0.267474
Si Si4 0.332977 0.676416 0.298978
Si Si5 0.088517 0.071131 0.821346
Si Si6 0.934843 0.261048 0.234504
Si Si7 0.045016 0.729014 0.512013
O O1 0.920386 0.501067 0.831079
O O2 0.500000 0.500000 0.000000
O O3 0.572867 0.302279 0.261284
O O4 0.829316 0.021926 0.319155
O O5 0.208346 0.330631 0.503700
O O6 0.637690 0.391738 0.246492
O O7 0.309349 0.788991 0.961855
O O8 0.479266 0.636219 0.512393
O O9 0.238452 0.800065 0.384024
O O10 0.102260 0.151305 0.197866
O O11 0.522552 0.103617 0.972559
O O12 0.182663 0.599038 0.508709
O O13 0.153426 0.835071 0.185330
O O14 0.000000 0.000000 0.000000
O O15 0.000000 0.000000 0.500000
O O16 0.000000 0.500000 0.000000
#
# Coordination Sequence:
#
# PCOD8037127 Si02
#       7
#     2   2   2   2   2   2   2
#     4  12  24  43  74 104 146 186 234 292 353 426
#     4  12  26  49  72 103 142 181 242 294 352 420
#     4  12  26  46  74 106 145 188 238 295 358 425
#     4  12  26  46  73 105 150 188 237 290 355 430
#     4  12  28  47  72 102 141 191 238 292 352 421
#     4  12  28  46  75 105 140 189 242 296 358 415
#     4  12  24  45  70 110 143 186 238 287 363 422
#
# _framework density 23.507234
#
# number of rings (size 3 to 8) (size 9 to 14) (size 15 to 20)
#    0.000    0.000    1.429    8.571    8.000    0.000 
#    0.000    0.000    0.000    0.000    0.000    0.000 
#    0.000    0.000    0.000    0.000    0.000    0.000 
#
# Total GULP energy -173672.051088 kJ/mol
# GULP energy per Si atom -12405.146506 kJ/mol
# Density = 2.345373 g / cm^3
# Si number density = 23.507234 Si / 1000 Ang^3
#
#
#
# Elastic Constant Matrix: (Units=GPa)
#
#
# Indices 1 2 3 4 5 6 
#
# 1 106.4120 31.1129 14.0627 16.0720 4.9623 -2.0710
# 2 31.1129 93.4756 21.1608 -6.7934 1.5682 -9.6628
# 3 14.0627 21.1608 112.1707 6.2264 1.0477 6.1063
# 4 16.0720 -6.7934 6.2264 56.2985 -2.1105 6.5605
# 5 4.9623 1.5682 1.0477 -2.1105 39.1011 -3.7382
# 6 -2.0710 -9.6628 6.1063 6.5605 -3.7382 37.5114
#
#
#
# Elastic Compliance Matrix: (Units=1/GPa)
#
#
# Indices 1 2 3 4 5 6 
#
# 1 0.011214 -0.003848 -0.000473 -0.003691 -0.001436 0.000207
# 2 -0.003848 0.012996 -0.002286 0.002575 0.000464 0.003103
# 3 -0.000473 -0.002286 0.009574 -0.000975 -0.000352 -0.002038
# 4 -0.003691 0.002575 -0.000975 0.019593 0.001192 -0.002690
# 5 -0.001436 0.000464 -0.000352 0.001192 0.026050 0.002485
# 6 0.000207 0.003103 -0.002038 -0.002690 0.002485 0.028519
#
#
# Mechanical properties :
#
#
# Convention : Reuss Voigt Hill
#
# Bulk Modulus (GPa) = 48.61277 49.41454 49.01365
# Shear Modulus (GPa) = 39.05783 42.96365 41.01074
#
# Velocity S-wave (km/s) = 4.08060 4.27977 4.18137
# Velocity P-wave (km/s) = 6.55184 6.74452 6.64888
#
# Compressibility (1/GPa) = 0.02057073
#
# Stress axis : x y z
#
# Youngs Moduli (GPa) = 89.17811 76.94469 104.45174
#
# Poissons Ratio (x) = 0.29609 0.04939
# Poissons Ratio (y) = 0.34316 0.23873
# Poissons Ratio (z) = 0.04217 0.17586
#
# Static dielectric constant tensor:
#      x y z
#    x 3.710760 -0.113880 -0.001520 
#    y -0.113880 4.668100 -0.187060 
#    z -0.001520 -0.187060 4.379870 
# 
# 
# High freq. dielectric constant tensor:
#      x y z
#    x 1.934720 -0.010850 0.004350 
#    y -0.010850 1.948440 -0.008140 
#    z 0.004350 -0.008140 1.946660 
# 
# From -- ./inp_files/619965.got.cif
#   From: 2010.06.25/outbox.cif.g09.slc.cpg/sg2_310_cif.got.tgz:619965.got - 2010.06.27 13:26:56.
