data_PCOD8037898
_publ_section_title
;
Structure prediction by ZEFSAII (Michael W. Deem and Ramdas Pophale) SiO2 
 PCOD8037898
Probable space group: P -1
;
_chemical_formula_sum "Si O2"
_cell_formula_units_Z 16
_cell_length_a 12.000000
_cell_length_b 12.000000
_cell_length_c 21.000000
_cell_angle_alpha 140.000000
_cell_angle_beta 30.000000
_cell_angle_gamma 120.000000
_cell_volume 836.888158
_symmetry_space_group_name_H-M "P -1"
_symmetry_group_IT_number 2
_symmetry_cell_setting 'triclinic'
loop_
_space_group_symop_operation_xyz
x,y,z
-x,-y,-z
loop_
_atom_site_type_symbol
_atom_site_label
_atom_site_fract_x
_atom_site_fract_y
_atom_site_fract_z
Si Si1 0.828235 0.193294 0.282873
Si Si2 0.459507 0.604229 0.687863
Si Si3 0.379387 0.102968 0.769918
Si Si4 0.274546 0.074826 0.591687
Si Si5 0.901207 0.951304 0.784000
Si Si6 0.338455 0.013946 0.888981
Si Si7 0.387812 0.175501 0.210370
Si Si8 0.943886 0.480535 0.092872
O O1 0.579869 0.415429 0.498226
O O2 0.925982 0.178656 0.300173
O O3 0.038561 0.180733 0.122960
O O4 0.762105 0.019988 0.230389
O O5 0.669177 0.616193 0.636435
O O6 0.248118 0.605899 0.840960
O O7 0.338097 0.802379 0.789075
O O8 0.628097 0.035898 0.572890
O O9 0.445229 0.072039 0.799270
O O10 0.199106 0.336264 0.943684
O O11 0.179898 0.302435 0.719751
O O12 0.500000 0.000000 0.500000
O O13 0.038207 0.054991 0.725383
O O14 0.866375 0.804731 0.687461
O O15 0.615280 0.119590 0.021724
O O16 0.508814 0.995655 0.859105
O O17 0.000000 0.500000 0.000000
#
# Coordination Sequence:
#
# PCOD8037898 Si02
#       8
#     2   2   2   2   2   2   2   2
#     4  11  19  33  57  84 113 144 183 237 278 330
#     4  10  20  35  56  86 111 146 187 233 276 333
#     4  12  22  36  55  82 118 152 178 232 282 337
#     4  12  22  36  55  86 116 144 184 227 287 339
#     4  10  18  38  60  81 114 149 187 234 281 319
#     4   9  22  38  53  81 113 150 191 226 279 325
#     4   8  19  38  60  80 109 153 190 234 269 325
#     4  12  21  33  55  83 120 145 179 229 288 343
#
# _framework density 19.118445000000001
#
# number of rings (size 3 to 8) (size 9 to 14) (size 15 to 20)
#    0.750    0.750    5.000    1.125    0.000    2.000 
#    0.000    0.625    0.000    0.750    0.000    0.000 
#    0.000    0.000    0.000    0.000    0.000    0.000 
#
# Total GULP energy -198220.083755 kJ/mol
# GULP energy per Si atom -12388.755235 kJ/mol
# Density = 1.907493 g / cm^3
# Si number density = 19.118445 Si / 1000 Ang^3
#
#
#
# Elastic Constant Matrix: (Units=GPa)
#
#
# Indices 1 2 3 4 5 6 
#
# 1 64.8933 23.7969 13.6704 -12.8637 3.1623 -11.8880
# 2 23.7969 79.0237 17.3198 -6.2622 0.0634 -19.8887
# 3 13.6704 17.3198 58.4214 5.6758 8.1244 -11.7748
# 4 -12.8637 -6.2622 5.6758 32.1108 -3.9209 6.0317
# 5 3.1623 0.0634 8.1244 -3.9209 16.9067 -7.7823
# 6 -11.8880 -19.8887 -11.7748 6.0317 -7.7823 35.8824
#
#
#
# Elastic Compliance Matrix: (Units=1/GPa)
#
#
# Indices 1 2 3 4 5 6 
#
# 1 0.019451 -0.003943 -0.003832 0.007439 0.000832 0.001931
# 2 -0.003943 0.016721 -0.003474 0.001582 0.006364 0.007936
# 3 -0.003832 -0.003474 0.021850 -0.007899 -0.010177 0.003096
# 4 0.007439 0.001582 -0.007899 0.037649 0.009511 -0.003516
# 5 0.000832 0.006364 -0.010177 0.009511 0.072811 0.014656
# 6 0.001931 0.007936 0.003096 -0.003516 0.014656 0.037693
#
#
# Mechanical properties :
#
#
# Convention : Reuss Voigt Hill
#
# Bulk Modulus (GPa) = 28.14882 34.65696 31.40289
# Shear Modulus (GPa) = 20.78891 26.81673 23.80282
#
# Velocity S-wave (km/s) = 3.30111 3.74928 3.53231
# Velocity P-wave (km/s) = 5.41158 6.07533 5.75303
#
# Compressibility (1/GPa) = 0.03552547
#
# Stress axis : x y z
#
# Youngs Moduli (GPa) = 51.41165 59.80644 45.76636
#
# Poissons Ratio (x) = 0.23579 0.17537
# Poissons Ratio (y) = 0.20269 0.15898
# Poissons Ratio (z) = 0.19700 0.20775
#
# Static dielectric constant tensor:
#      x y z
#    x 3.385310 -0.107180 0.154250 
#    y -0.107180 3.417090 -0.049250 
#    z 0.154250 -0.049250 3.483840 
# 
# 
# High freq. dielectric constant tensor:
#      x y z
#    x 1.718790 -0.019800 0.013580 
#    y -0.019800 1.729440 -0.003750 
#    z 0.013580 -0.003750 1.737970 
# 
# From -- ./inp_files/594976.got.cif
#   From: 2010.06.25/outbox.ucp.g09.slc.cvg/sg2_298_cif.got.tgz:594976.got - 2010.06.28 11:54:26.
