data_PCOD8037530
_publ_section_title
;
Structure prediction by ZEFSAII (Michael W. Deem and Ramdas Pophale) SiO2 
 PCOD8037530
Probable space group: P -1
;
_chemical_formula_sum "Si O2"
_cell_formula_units_Z 16
_cell_length_a 26.139068
_cell_length_b 14.163414
_cell_length_c 16.853197
_cell_angle_alpha 23.161429
_cell_angle_beta 159.041935
_cell_angle_gamma 159.869728
_cell_volume 720.594573
_symmetry_space_group_name_H-M "P -1"
_symmetry_group_IT_number 2
_symmetry_cell_setting 'triclinic'
loop_
_space_group_symop_operation_xyz
x,y,z
-x,-y,-z
loop_
_atom_site_type_symbol
_atom_site_label
_atom_site_fract_x
_atom_site_fract_y
_atom_site_fract_z
Si Si1 0.670140 0.820160 0.485496
Si Si2 0.145492 0.650123 0.397982
Si Si3 0.325197 0.204865 0.803606
Si Si4 0.687759 0.276522 0.573006
Si Si5 0.143774 0.975096 0.558382
Si Si6 0.309690 0.688054 0.769609
Si Si7 0.109620 0.829042 0.931909
Si Si8 0.027301 0.043577 0.912973
O O1 0.500000 0.500000 0.500000
O O2 0.696165 0.835931 0.416048
O O3 0.637845 0.056981 0.288681
O O4 0.840452 0.872280 0.732924
O O5 0.232339 0.578879 0.508570
O O6 0.259537 0.762027 0.556362
O O7 0.957532 0.351745 0.371301
O O8 0.128225 0.900713 0.144322
O O9 0.311145 0.479178 0.562661
O O10 0.217045 0.988603 0.741343
O O11 0.242425 0.033450 0.897456
O O12 0.526810 0.327575 0.995720
O O13 0.500000 0.000000 0.500000
O O14 0.785066 0.153262 0.852580
O O15 0.015413 0.078142 0.293598
O O16 0.143235 0.383814 0.795664
O O17 0.000000 0.500000 0.000000
O O18 0.000000 0.000000 0.000000
#
# Coordination Sequence:
#
# PCOD8037530 Si02
#       8
#     2   2   2   2   2   2   2   2
#     4  12  29  48  76 111 147 191 247 302 362 433
#     4  12  25  46  77 104 143 193 240 295 367 433
#     4  12  28  46  72 110 151 186 244 306 359 430
#     4  12  26  43  72 108 143 189 242 294 364 432
#     4  12  26  48  74 106 147 194 244 299 367 432
#     4  12  28  50  73 110 149 190 245 303 359 439
#     4  12  25  48  75 103 148 192 238 300 368 430
#     4  12  25  49  78 101 145 195 241 299 367 425
#
# _framework density 22.203886000000001
#
# number of rings (size 3 to 8) (size 9 to 14) (size 15 to 20)
#    0.000    0.000    5.000    4.500    7.000    2.500 
#    0.000    0.000    0.000    0.000    0.000    0.000 
#    0.000    0.000    0.000    0.000    0.000    0.000 
#
# Total GULP energy -198479.060318 kJ/mol
# GULP energy per Si atom -12404.941270 kJ/mol
# Density = 2.215335 g / cm^3
# Si number density = 22.203886 Si / 1000 Ang^3
#
#
#
# Elastic Constant Matrix: (Units=GPa)
#
#
# Indices 1 2 3 4 5 6 
#
# 1 140.2039 40.4603 37.2420 -0.4541 -1.6407 11.8949
# 2 40.4603 141.0086 42.0477 -1.7881 1.3378 7.3341
# 3 37.2420 42.0477 109.6791 -2.7508 1.3279 4.5576
# 4 -0.4541 -1.7881 -2.7508 32.6471 -1.7335 4.0920
# 5 -1.6407 1.3378 1.3279 -1.7335 34.5989 -1.6457
# 6 11.8949 7.3341 4.5576 4.0920 -1.6457 38.8607
#
#
#
# Elastic Compliance Matrix: (Units=1/GPa)
#
#
# Indices 1 2 3 4 5 6 
#
# 1 0.008349 -0.001664 -0.002117 0.000120 0.000453 -0.001987
# 2 -0.001664 0.008396 -0.002609 0.000302 -0.000327 -0.000815
# 3 -0.002117 -0.002609 0.010870 0.000752 -0.000390 -0.000230
# 4 0.000120 0.000302 0.000752 0.031212 0.001367 -0.003410
# 5 0.000453 -0.000327 -0.000390 0.001367 0.029070 0.001056
# 6 -0.001987 -0.000815 -0.000230 -0.003410 0.001056 0.026926
#
#
# Mechanical properties :
#
#
# Convention : Reuss Voigt Hill
#
# Bulk Modulus (GPa) = 67.40273 70.04352 68.72312
# Shear Modulus (GPa) = 37.72227 39.29746 38.50987
#
# Velocity S-wave (km/s) = 4.12625 4.21152 4.16910
# Velocity P-wave (km/s) = 7.28858 7.43393 7.36161
#
# Compressibility (1/GPa) = 0.01483619
#
# Stress axis : x y z
#
# Youngs Moduli (GPa) = 119.77173 119.09939 92.00015
#
# Poissons Ratio (x) = 0.19816 0.19477
# Poissons Ratio (y) = 0.19928 0.23999
# Poissons Ratio (z) = 0.25357 0.31068
#
# Static dielectric constant tensor:
#      x y z
#    x 4.279700 -0.091770 0.382170 
#    y -0.091770 4.091930 -0.179600 
#    z 0.382170 -0.179600 4.402750 
# 
# 
# High freq. dielectric constant tensor:
#      x y z
#    x 1.893020 -0.001190 0.001790 
#    y -0.001190 1.882840 -0.001100 
#    z 0.001790 -0.001100 1.882810 
# 
# From -- ./inp_files/135642.got.cif
#   From: 2010.06.25/outbox.cif.g09.slc.cpg/sg2_68_cif.got.tgz:135642.got - 2010.06.27 13:26:56.
