data_PCOD8037815
_publ_section_title
;
Structure prediction by ZEFSAII (Michael W. Deem and Ramdas Pophale) SiO2 
 PCOD8037815
Probable space group: P -1
;
_chemical_formula_sum "Si O2"
_cell_formula_units_Z 10
_cell_length_a 8.876718
_cell_length_b 9.423233
_cell_length_c 9.030454
_cell_angle_alpha 44.985396
_cell_angle_beta 53.919939
_cell_angle_gamma 44.905449
_cell_volume 371.064942
_symmetry_space_group_name_H-M "P -1"
_symmetry_group_IT_number 2
_symmetry_cell_setting 'triclinic'
loop_
_space_group_symop_operation_xyz
x,y,z
-x,-y,-z
loop_
_atom_site_type_symbol
_atom_site_label
_atom_site_fract_x
_atom_site_fract_y
_atom_site_fract_z
Si Si1 0.630983 0.123463 0.381800
Si Si2 0.881237 0.300342 0.923064
Si Si3 0.273198 0.577213 0.399564
Si Si4 0.913146 0.695956 0.719601
Si Si5 0.733273 0.969491 0.903781
O O1 0.490777 0.340423 0.410495
O O2 0.500000 0.000000 0.500000
O O3 0.829669 0.937097 0.502077
O O4 0.722420 0.206190 0.132567
O O5 0.881290 0.324944 0.728218
O O6 0.784254 0.559338 0.861102
O O7 0.134237 0.119493 0.952654
O O8 0.154763 0.523534 0.642413
O O9 0.319830 0.771653 0.292796
O O10 0.901452 0.761440 0.849976
O O11 0.500000 0.000000 0.000000
#
# Coordination Sequence:
#
# PCOD8037815 Si02
#       5
#     2   2   2   2   2
#     4  12  28  48  84 117 154 202 265 320 388 461
#     4  12  27  53  79 113 160 203 263 319 380 469
#     4  12  27  50  84 113 157 209 257 322 388 460
#     4  12  28  50  79 118 158 200 262 319 388 461
#     4  12  29  50  80 114 162 208 255 322 396 454
#
# _framework density 26.949460999999999
#
# number of rings (size 3 to 8) (size 9 to 14) (size 15 to 20)
#    0.000    0.000    4.000    4.200    5.600    0.800 
#    0.000    0.000    0.000    0.000    0.000    0.000 
#    0.000    0.000    0.000    0.000    0.000    0.000 
#
# Total GULP energy -123992.877663 kJ/mol
# GULP energy per Si atom -12399.287766 kJ/mol
# Density = 2.688812 g / cm^3
# Si number density = 26.949461 Si / 1000 Ang^3
#
#
#
# Elastic Constant Matrix: (Units=GPa)
#
#
# Indices 1 2 3 4 5 6 
#
# 1 89.5824 26.8405 29.3845 10.8121 -27.2555 2.7897
# 2 26.8405 156.2888 21.2697 -3.1582 -23.5088 17.9870
# 3 29.3845 21.2697 87.7808 4.4017 -27.9626 3.7575
# 4 10.8121 -3.1582 4.4017 51.6488 11.7246 -8.8419
# 5 -27.2555 -23.5088 -27.9626 11.7246 39.9223 -8.3163
# 6 2.7897 17.9870 3.7575 -8.8419 -8.3163 55.4488
#
#
#
# Elastic Compliance Matrix: (Units=1/GPa)
#
#
# Indices 1 2 3 4 5 6 
#
# 1 0.015978 -0.001051 -0.001258 -0.005776 0.011184 0.000379
# 2 -0.001051 0.007293 -0.000354 -0.000314 0.003029 -0.001885
# 3 -0.001258 -0.000354 0.015536 -0.003520 0.010889 0.000197
# 4 -0.005776 -0.000314 -0.003520 0.024280 -0.013199 0.002523
# 5 0.011184 0.003029 0.010889 -0.013199 0.046510 0.002588
# 6 0.000379 -0.001885 0.000197 0.002523 0.002588 0.019404
#
#
# Mechanical properties :
#
#
# Convention : Reuss Voigt Hill
#
# Bulk Modulus (GPa) = 29.86745 54.29351 42.08048
# Shear Modulus (GPa) = 34.36709 46.48114 40.42411
#
# Velocity S-wave (km/s) = 3.57493 4.15752 3.87718
# Velocity P-wave (km/s) = 5.30537 6.57547 5.97427
#
# Compressibility (1/GPa) = 0.03348126
#
# Stress axis : x y z
#
# Youngs Moduli (GPa) = 62.58425 137.11307 64.36743
#
# Poissons Ratio (x) = 0.14409 0.08098
# Poissons Ratio (y) = 0.06577 0.02279
# Poissons Ratio (z) = 0.07874 0.04856
#
# Static dielectric constant tensor:
#      x y z
#    x 4.681850 0.231890 -0.058640 
#    y 0.231890 5.229060 -0.383730 
#    z -0.058640 -0.383730 5.029260 
# 
# 
# High freq. dielectric constant tensor:
#      x y z
#    x 2.077810 0.014770 -0.007470 
#    y 0.014770 2.105880 -0.020840 
#    z -0.007470 -0.020840 2.090590 
# 
# From -- ./inp_files/143971.got.cif
#   From: 2010.06.25/outbox.cif.g09.slc.cpg/sg2_72_cif.got.tgz:143971.got - 2010.06.27 13:26:56.
