data_PCOD8037704
_publ_section_title
;
Structure prediction by ZEFSAII (Michael W. Deem and Ramdas Pophale) SiO2 
 PCOD8037704
Probable space group: P -1
;
_chemical_formula_sum "Si O2"
_cell_formula_units_Z 16
_cell_length_a 11.720732
_cell_length_b 9.047072
_cell_length_c 17.444457
_cell_angle_alpha 50.302907
_cell_angle_beta 150.869940
_cell_angle_gamma 126.476981
_cell_volume 689.535626
_symmetry_space_group_name_H-M "P -1"
_symmetry_group_IT_number 2
_symmetry_cell_setting 'triclinic'
loop_
_space_group_symop_operation_xyz
x,y,z
-x,-y,-z
loop_
_atom_site_type_symbol
_atom_site_label
_atom_site_fract_x
_atom_site_fract_y
_atom_site_fract_z
Si Si1 0.977059 0.869921 0.605262
Si Si2 0.350544 0.850530 0.637709
Si Si3 0.937778 0.282144 0.049837
Si Si4 0.303039 0.476744 0.828259
Si Si5 0.539804 0.785957 0.611518
Si Si6 0.791269 0.126570 0.854740
Si Si7 0.612140 0.201213 0.026267
Si Si8 0.819385 0.433694 0.636514
O O1 0.818383 0.664254 0.571243
O O2 0.234019 0.820742 0.799504
O O3 0.853818 0.008008 0.547679
O O4 0.000000 0.000000 0.500000
O O5 0.256452 0.682751 0.697051
O O6 0.440010 0.739400 0.653445
O O7 0.553962 0.990962 0.749301
O O8 0.780738 0.286163 0.031052
O O9 0.180913 0.196402 0.236535
O O10 0.798162 0.181123 0.930076
O O11 0.000000 0.500000 0.000000
O O12 0.056172 0.382919 0.748855
O O13 0.500000 0.500000 0.000000
O O14 0.399585 0.334223 0.869591
O O15 0.409878 0.634466 0.526157
O O16 0.500000 0.000000 0.500000
O O17 0.805163 0.319583 0.746637
O O18 0.000000 0.000000 0.000000
O O19 0.500000 0.000000 0.000000
#
# Coordination Sequence:
#
# PCOD8037704 Si02
#       8
#     2   2   2   2   2   2   2   2
#     4  12  27  49  71 115 152 198 251 310 379 453
#     4  12  26  46  77 108 152 193 257 309 381 454
#     4  12  28  49  71 109 153 190 251 308 376 442
#     4  12  26  50  78 109 150 199 253 309 381 457
#     4  12  26  48  73 111 148 198 248 316 374 452
#     4  12  26  46  80 108 144 202 255 307 377 454
#     4  12  30  48  78 112 154 198 252 319 378 446
#     4  12  27  48  81 110 152 202 254 311 387 448
#
# _framework density 23.204021999999998
#
# number of rings (size 3 to 8) (size 9 to 14) (size 15 to 20)
#    0.000    0.000    5.000    3.000   10.500    2.000 
#    0.000    0.000    0.000    0.000    0.000    0.000 
#    0.000    0.000    0.000    0.000    0.000    0.000 
#
# Total GULP energy -198407.365666 kJ/mol
# GULP energy per Si atom -12400.460354 kJ/mol
# Density = 2.315121 g / cm^3
# Si number density = 23.204022 Si / 1000 Ang^3
#
#
#
# Elastic Constant Matrix: (Units=GPa)
#
#
# Indices 1 2 3 4 5 6 
#
# 1 101.6917 10.0939 25.2382 -5.1901 2.7923 0.1273
# 2 10.0939 133.6515 33.7855 -9.4108 -11.5598 0.5165
# 3 25.2382 33.7855 90.3480 -2.3696 -3.5470 -3.5760
# 4 -5.1901 -9.4108 -2.3696 45.3122 -6.8677 4.3891
# 5 2.7923 -11.5598 -3.5470 -6.8677 47.3970 -5.0854
# 6 0.1273 0.5165 -3.5760 4.3891 -5.0854 42.9986
#
#
#
# Elastic Compliance Matrix: (Units=1/GPa)
#
#
# Indices 1 2 3 4 5 6 
#
# 1 0.010650 -0.000046 -0.002981 0.000983 -0.000770 -0.000470
# 2 -0.000046 0.008586 -0.003075 0.001968 0.002119 -0.000309
# 3 -0.002981 -0.003075 0.013110 -0.000339 0.000489 0.001229
# 4 0.000983 0.001968 -0.000339 0.023307 0.003558 -0.002013
# 5 -0.000770 0.002119 0.000489 0.003558 0.022461 0.002311
# 6 -0.000470 -0.000309 0.001229 -0.002013 0.002311 0.023843
#
#
# Mechanical properties :
#
#
# Convention : Reuss Voigt Hill
#
# Bulk Modulus (GPa) = 49.64936 51.54738 50.59837
# Shear Modulus (GPa) = 41.36528 44.24646 42.80587
#
# Velocity S-wave (km/s) = 4.22676 4.37148 4.29973
# Velocity P-wave (km/s) = 6.72785 6.90962 6.81934
#
# Compressibility (1/GPa) = 0.02014125
#
# Stress axis : x y z
#
# Youngs Moduli (GPa) = 93.89744 116.46790 76.27842
#
# Poissons Ratio (x) = 0.00540 0.22736
# Poissons Ratio (y) = 0.00435 0.23457
# Poissons Ratio (z) = 0.27988 0.35817
#
# Static dielectric constant tensor:
#      x y z
#    x 3.953210 -0.065400 -0.892330 
#    y -0.065400 4.255140 -0.201120 
#    z -0.892330 -0.201120 2.988060 
# 
# 
# High freq. dielectric constant tensor:
#      x y z
#    x 1.934890 -0.000500 0.006530 
#    y -0.000500 1.931610 -0.009840 
#    z 0.006530 -0.009840 1.924090 
# 
# From -- ./inp_files/566596.got.cif
#   From: 2010.06.25/outbox.cif.g09.slc.cpg/sg2_284_cif.got.tgz:566596.got - 2010.06.27 13:26:56.
