data_PCOD8037039
_publ_section_title
;
Structure prediction by ZEFSAII (Michael W. Deem and Ramdas Pophale) SiO2 
 PCOD8037039
Probable space group: P -1
;
_chemical_formula_sum "Si O2"
_cell_formula_units_Z 16
_cell_length_a 13.756324
_cell_length_b 10.626519
_cell_length_c 9.339407
_cell_angle_alpha 79.513927
_cell_angle_beta 113.779022
_cell_angle_gamma 144.480238
_cell_volume 697.876925
_symmetry_space_group_name_H-M "P -1"
_symmetry_group_IT_number 2
_symmetry_cell_setting 'triclinic'
loop_
_space_group_symop_operation_xyz
x,y,z
-x,-y,-z
loop_
_atom_site_type_symbol
_atom_site_label
_atom_site_fract_x
_atom_site_fract_y
_atom_site_fract_z
Si Si1 0.935901 0.485006 0.117052
Si Si2 0.387985 0.675511 0.640514
Si Si3 0.605973 0.475898 0.061544
Si Si4 0.973707 0.033193 0.820243
Si Si5 0.383050 0.675254 0.156475
Si Si6 0.237352 0.921708 0.367628
Si Si7 0.321749 0.422351 0.417624
Si Si8 0.283568 0.828772 0.689597
O O1 0.829291 0.283209 0.204544
O O2 0.125110 0.703120 0.264032
O O3 0.809425 0.482409 0.007931
O O4 0.000000 0.500000 0.000000
O O5 0.471360 0.697392 0.829425
O O6 0.285498 0.454069 0.544278
O O7 0.265213 0.675942 0.622221
O O8 0.548693 0.887035 0.588532
O O9 0.826975 0.720103 0.167531
O O10 0.500000 0.500000 0.000000
O O11 0.533987 0.348875 0.894544
O O12 0.828142 0.004987 0.738167
O O13 0.874663 0.833131 0.696811
O O14 0.000000 0.000000 0.000000
O O15 0.362264 0.587637 0.313464
O O16 0.503385 0.924466 0.192272
O O17 0.210900 0.870858 0.533284
O O18 0.500000 0.500000 0.500000
#
# Coordination Sequence:
#
# PCOD8037039 Si02
#       8
#     2   2   2   2   2   2   2   2
#     4  12  27  45  71 106 142 188 245 298 363 436
#     4  12  25  44  74 106 147 193 239 297 371 438
#     4  12  26  45  73 106 146 192 247 304 365 428
#     4  12  23  48  74 103 147 191 248 307 354 431
#     4  12  24  48  71 103 142 189 246 295 362 439
#     4  12  24  45  73 105 147 190 235 303 368 426
#     4  12  24  45  75 107 142 192 244 297 365 437
#     4  12  26  48  70 105 150 189 240 301 372 438
#
# _framework density 22.926679
#
# number of rings (size 3 to 8) (size 9 to 14) (size 15 to 20)
#    0.000    0.000    6.250    3.375    3.500    0.500 
#    0.000    0.000    0.000    0.000    0.000    0.000 
#    0.000    0.000    0.000    0.000    0.000    0.000 
#
# Total GULP energy -198271.337197 kJ/mol
# GULP energy per Si atom -12391.958575 kJ/mol
# Density = 2.287450 g / cm^3
# Si number density = 22.926679 Si / 1000 Ang^3
#
#
#
# Elastic Constant Matrix: (Units=GPa)
#
#
# Indices 1 2 3 4 5 6 
#
# 1 87.3003 25.2919 29.9497 -3.9967 -14.5347 -5.0879
# 2 25.2919 103.9652 42.2173 -4.4264 -12.1035 -5.4191
# 3 29.9497 42.2173 114.0129 -12.0043 -0.0494 4.6057
# 4 -3.9967 -4.4264 -12.0043 58.9644 -11.2391 -6.1302
# 5 -14.5347 -12.1035 -0.0494 -11.2391 39.9597 -5.1393
# 6 -5.0879 -5.4191 4.6057 -6.1302 -5.1393 26.2670
#
#
#
# Elastic Compliance Matrix: (Units=1/GPa)
#
#
# Indices 1 2 3 4 5 6 
#
# 1 0.014272 -0.001096 -0.003338 0.001836 0.005979 0.004722
# 2 -0.001096 0.012419 -0.004351 0.001221 0.004244 0.004228
# 3 -0.003338 -0.004351 0.011505 0.000853 -0.002780 -0.003906
# 4 0.001836 0.001221 0.000853 0.019413 0.007325 0.006422
# 5 0.005979 0.004244 -0.002780 0.007325 0.031889 0.010470
# 6 0.004722 0.004228 -0.003906 0.006422 0.010470 0.044090
#
#
# Mechanical properties :
#
#
# Convention : Reuss Voigt Hill
#
# Bulk Modulus (GPa) = 48.48302 55.57734 52.03018
# Shear Modulus (GPa) = 31.63899 38.89286 35.26592
#
# Velocity S-wave (km/s) = 3.71888 4.12321 3.92625
# Velocity P-wave (km/s) = 6.29547 6.85286 6.58007
#
# Compressibility (1/GPa) = 0.02062578
#
# Stress axis : x y z
#
# Youngs Moduli (GPa) = 70.06663 80.52482 86.91641
#
# Poissons Ratio (x) = 0.08827 0.29013
# Poissons Ratio (y) = 0.07681 0.37816
# Poissons Ratio (z) = 0.23389 0.35035
#
# Static dielectric constant tensor:
#      x y z
#    x 4.226690 -0.109630 0.135620 
#    y -0.109630 4.157180 0.032910 
#    z 0.135620 0.032910 4.590340 
# 
# 
# High freq. dielectric constant tensor:
#      x y z
#    x 1.892570 -0.015340 -0.004710 
#    y -0.015340 1.908460 -0.003420 
#    z -0.004710 -0.003420 1.931380 
# 
# From -- ./inp_files/307395.got.cif
#   From: 2010.06.25/outbox.cif.g09.slc.cpg/sg2_154_cif.got.tgz:307395.got - 2010.06.27 13:26:56.
