data_PCOD8037734
_publ_section_title
;
Structure prediction by ZEFSAII (Michael W. Deem and Ramdas Pophale) SiO2 
 PCOD8037734
Probable space group: P -1
;
_chemical_formula_sum "Si O2"
_cell_formula_units_Z 12
_cell_length_a 4.933264
_cell_length_b 10.287612
_cell_length_c 19.707724
_cell_angle_alpha 32.158731
_cell_angle_beta 62.854568
_cell_angle_gamma 72.060217
_cell_volume 467.224151
_symmetry_space_group_name_H-M "P -1"
_symmetry_group_IT_number 2
_symmetry_cell_setting 'triclinic'
loop_
_space_group_symop_operation_xyz
x,y,z
-x,-y,-z
loop_
_atom_site_type_symbol
_atom_site_label
_atom_site_fract_x
_atom_site_fract_y
_atom_site_fract_z
Si Si1 0.303117 0.852065 0.927200
Si Si2 0.595681 0.691786 0.464199
Si Si3 0.112094 0.237136 0.336629
Si Si4 0.192021 0.011954 0.298949
Si Si5 0.296128 0.369650 0.752187
Si Si6 0.366933 0.372427 0.892313
O O1 0.444953 0.782128 0.012141
O O2 0.991714 0.663689 0.027799
O O3 0.548537 0.838284 0.845261
O O4 0.209133 0.126171 0.822752
O O5 0.500000 0.500000 0.500000
O O6 0.359124 0.881818 0.397669
O O7 0.563863 0.556419 0.600501
O O8 0.952328 0.828419 0.360571
O O9 0.981917 0.478169 0.271785
O O10 0.018581 0.187152 0.289468
O O11 0.483728 0.333951 0.253521
O O12 0.000000 0.000000 0.500000
O O13 0.402797 0.278202 0.852789
#
# Coordination Sequence:
#
# PCOD8037734 Si02
#       6
#     2   2   2   2   2   2
#     4  12  28  49  79 109 155 202 255 309 372 450
#     4  12  26  47  79 115 147 197 255 318 373 434
#     4  12  28  50  78 114 154 199 250 315 381 450
#     4  12  28  48  76 113 154 196 253 308 381 450
#     4  12  27  47  81 112 152 195 257 315 374 442
#     4  12  28  50  77 113 153 202 254 309 376 451
#
# _framework density 25.683606000000001
#
# number of rings (size 3 to 8) (size 9 to 14) (size 15 to 20)
#    0.000    0.000    5.000    3.500    4.667    2.667 
#    0.000    0.000    0.000    0.000    0.000    0.000 
#    0.000    0.000    0.000    0.000    0.000    0.000 
#
# Total GULP energy -148735.019744 kJ/mol
# GULP energy per Si atom -12394.584979 kJ/mol
# Density = 2.562515 g / cm^3
# Si number density = 25.683606 Si / 1000 Ang^3
#
#
#
# Elastic Constant Matrix: (Units=GPa)
#
#
# Indices 1 2 3 4 5 6 
#
# 1 136.7411 23.8014 73.3180 -4.5026 -23.8350 7.8635
# 2 23.8014 101.8961 49.1706 17.0742 -21.5807 5.4200
# 3 73.3180 49.1706 170.2888 19.3112 -33.9418 7.8703
# 4 -4.5026 17.0742 19.3112 31.4314 4.4610 -5.0653
# 5 -23.8350 -21.5807 -33.9418 4.4610 55.6060 -8.8991
# 6 7.8635 5.4200 7.8703 -5.0653 -8.8991 25.0126
#
#
#
# Elastic Compliance Matrix: (Units=1/GPa)
#
#
# Indices 1 2 3 4 5 6 
#
# 1 0.010162 -0.000742 -0.004455 0.004398 0.000930 -0.000411
# 2 -0.000742 0.012922 -0.001766 -0.006916 0.003847 -0.002043
# 3 -0.004455 -0.001766 0.009834 -0.006457 0.003718 -0.001296
# 4 0.004398 -0.006916 -0.006457 0.042478 -0.006816 0.008325
# 5 0.000930 0.003847 0.003718 -0.006816 0.023437 0.004663
# 6 -0.000411 -0.002043 -0.001296 0.008325 0.004663 0.044304
#
#
# Mechanical properties :
#
#
# Convention : Reuss Voigt Hill
#
# Bulk Modulus (GPa) = 52.65898 77.94511 65.30204
# Shear Modulus (GPa) = 30.60091 39.91908 35.25999
#
# Velocity S-wave (km/s) = 3.45549 3.94669 3.70923
# Velocity P-wave (km/s) = 6.03888 7.15420 6.62007
#
# Compressibility (1/GPa) = 0.01899011
#
# Stress axis : x y z
#
# Youngs Moduli (GPa) = 98.41022 77.38911 101.68979
#
# Poissons Ratio (x) = 0.05741 0.45306
# Poissons Ratio (y) = 0.07300 0.17962
# Poissons Ratio (z) = 0.43845 0.13670
#
# Static dielectric constant tensor:
#      x y z
#    x 4.582270 -0.066730 0.004720 
#    y -0.066730 4.688660 -0.003780 
#    z 0.004720 -0.003780 5.202440 
# 
# 
# High freq. dielectric constant tensor:
#      x y z
#    x 2.016850 0.002090 -0.003510 
#    y 0.002090 2.026040 0.004840 
#    z -0.003510 0.004840 2.051420 
# 
# From -- ./inp_files/547652.got.cif
#   From: 2010.06.25/outbox.cif.g09.slc.cpg/sg2_274_cif.got.tgz:547652.got - 2010.06.27 13:26:56.
