data_PCOD8037102
_publ_section_title
;
Structure prediction by ZEFSAII (Michael W. Deem and Ramdas Pophale) SiO2 
 PCOD8037102
Probable space group: P -1
;
_chemical_formula_sum "Si O2"
_cell_formula_units_Z 14
_cell_length_a 11.551040
_cell_length_b 9.748780
_cell_length_c 9.073305
_cell_angle_alpha 137.115788
_cell_angle_beta 62.923165
_cell_angle_gamma 103.742191
_cell_volume 611.284679
_symmetry_space_group_name_H-M "P -1"
_symmetry_group_IT_number 2
_symmetry_cell_setting 'triclinic'
loop_
_space_group_symop_operation_xyz
x,y,z
-x,-y,-z
loop_
_atom_site_type_symbol
_atom_site_label
_atom_site_fract_x
_atom_site_fract_y
_atom_site_fract_z
Si Si1 0.896267 0.399945 0.073447
Si Si2 0.989171 0.022967 0.196132
Si Si3 0.536876 0.351804 0.506147
Si Si4 0.174592 0.339902 0.392163
Si Si5 0.658099 0.383608 0.992205
Si Si6 0.453621 0.092000 0.947959
Si Si7 0.234282 0.643102 0.405572
O O1 0.827995 0.549961 0.359348
O O2 0.787514 0.324655 0.971128
O O3 0.000000 0.500000 0.000000
O O4 0.983838 0.199108 0.927216
O O5 0.087531 0.162924 0.317125
O O6 0.839540 0.127913 0.402721
O O7 0.000000 0.000000 0.000000
O O8 0.500000 0.500000 0.500000
O O9 0.419990 0.406585 0.733497
O O10 0.673462 0.387073 0.526532
O O11 0.559552 0.107983 0.294410
O O12 0.127165 0.501531 0.412449
O O13 0.319470 0.241647 0.173149
O O14 0.565953 0.208874 0.907172
O O15 0.691151 0.437963 0.849191
O O16 0.500000 0.000000 0.000000
#
# Coordination Sequence:
#
# PCOD8037102 Si02
#       7
#     2   2   2   2   2   2   2
#     4  12  29  51  77 112 151 199 252 314 372 445
#     4  12  27  47  80 109 151 200 255 303 377 448
#     4  12  25  48  73 106 148 194 244 307 373 442
#     4  12  26  47  76 107 152 198 250 303 375 446
#     4  12  27  46  74 109 153 188 254 310 373 438
#     4  12  24  42  76 106 143 197 246 302 374 444
#     4  12  26  48  74 111 153 197 251 311 372 447
#
# _framework density 22.902584999999998
#
# number of rings (size 3 to 8) (size 9 to 14) (size 15 to 20)
#    0.000    0.000    4.286    5.143    2.000    5.143 
#    0.000    0.000    0.000    0.000    0.000    0.000 
#    0.000    0.000    0.000    0.000    0.000    0.000 
#
# Total GULP energy -173483.804894 kJ/mol
# GULP energy per Si atom -12391.700350 kJ/mol
# Density = 2.285046 g / cm^3
# Si number density = 22.902585 Si / 1000 Ang^3
#
#
#
# Elastic Constant Matrix: (Units=GPa)
#
#
# Indices 1 2 3 4 5 6 
#
# 1 109.2343 51.9101 55.8677 0.4189 -5.2188 -12.7695
# 2 51.9101 146.5189 82.7814 -4.5168 3.5792 -3.7184
# 3 55.8677 82.7814 171.4277 3.2114 3.4060 12.7110
# 4 0.4189 -4.5168 3.2114 48.6490 -3.8786 -8.3494
# 5 -5.2188 3.5792 3.4060 -3.8786 39.4620 -6.7586
# 6 -12.7695 -3.7184 12.7110 -8.3494 -6.7586 12.4110
#
#
#
# Elastic Compliance Matrix: (Units=1/GPa)
#
#
# Indices 1 2 3 4 5 6 
#
# 1 0.019885 -0.000432 -0.009823 0.008674 0.011661 0.042576
# 2 -0.000432 0.010844 -0.006153 0.003769 0.002045 0.012755
# 3 -0.009823 -0.006153 0.015237 -0.008907 -0.009570 -0.038759
# 4 0.008674 0.003769 -0.008907 0.030385 0.012513 0.046432
# 5 0.011661 0.002045 -0.009570 0.012513 0.037534 0.051270
# 6 0.042576 0.012755 -0.038759 0.046432 0.051270 0.227054
#
#
# Mechanical properties :
#
#
# Convention : Reuss Voigt Hill
#
# Bulk Modulus (GPa) = 76.04442 89.81105 82.92774
# Shear Modulus (GPa) = 13.22267 35.87917 24.55092
#
# Velocity S-wave (km/s) = 2.40540 3.96232 3.27765
# Velocity P-wave (km/s) = 6.40235 7.76098 7.11418
#
# Compressibility (1/GPa) = 0.01315021
#
# Stress axis : x y z
#
# Youngs Moduli (GPa) = 50.28948 92.21329 65.63117
#
# Poissons Ratio (x) = 0.03985 0.64468
# Poissons Ratio (y) = 0.02173 0.40382
# Poissons Ratio (z) = 0.49398 0.56738
#
# Static dielectric constant tensor:
#      x y z
#    x 4.223980 0.041060 0.009450 
#    y 0.041060 3.998860 -0.044640 
#    z 0.009450 -0.044640 4.308970 
# 
# 
# High freq. dielectric constant tensor:
#      x y z
#    x 1.914660 -0.000570 -0.004720 
#    y -0.000570 1.909170 0.007050 
#    z -0.004720 0.007050 1.924820 
# 
# From -- ./inp_files/245760.got.cif
#   From: 2010.06.25/outbox.cif.g09.slc.cpg/sg2_123_cif.got.tgz:245760.got - 2010.06.27 13:26:56.
