data_PCOD8037589
_publ_section_title
;
Structure prediction by ZEFSAII (Michael W. Deem and Ramdas Pophale) SiO2 
 PCOD8037589
Probable space group: P -1
;
_chemical_formula_sum "Si O2"
_cell_formula_units_Z 16
_cell_length_a 18.372980
_cell_length_b 12.197879
_cell_length_c 8.938430
_cell_angle_alpha 51.652597
_cell_angle_beta 132.350900
_cell_angle_gamma 152.107455
_cell_volume 690.752674
_symmetry_space_group_name_H-M "P -1"
_symmetry_group_IT_number 2
_symmetry_cell_setting 'triclinic'
loop_
_space_group_symop_operation_xyz
x,y,z
-x,-y,-z
loop_
_atom_site_type_symbol
_atom_site_label
_atom_site_fract_x
_atom_site_fract_y
_atom_site_fract_z
Si Si1 0.902546 0.617842 0.875765
Si Si2 0.983761 0.489869 0.663380
Si Si3 0.623096 0.531728 0.063140
Si Si4 0.990520 0.988862 0.173546
Si Si5 0.527719 0.657691 0.297591
Si Si6 0.112551 0.888215 0.636803
Si Si7 0.470947 0.871681 0.205120
Si Si8 0.364847 0.782822 0.600434
O O1 0.720535 0.347986 0.816194
O O2 0.002993 0.754916 0.746741
O O3 0.886043 0.751515 0.813758
O O4 0.003929 0.641854 0.118467
O O5 0.816875 0.382569 0.567491
O O6 0.000000 0.500000 0.500000
O O7 0.130721 0.753696 0.707477
O O8 0.801220 0.801051 0.117691
O O9 0.610481 0.356825 0.249572
O O10 0.500000 0.500000 0.000000
O O11 0.605660 0.500093 0.886074
O O12 0.038637 0.898154 0.393109
O O13 0.000000 0.000000 0.000000
O O14 0.500000 0.500000 0.500000
O O15 0.519654 0.773427 0.306370
O O16 0.703273 0.850892 0.290322
O O17 0.602309 0.095079 0.306228
O O18 0.500000 0.000000 0.000000
O O19 0.500000 0.000000 0.500000
#
# Coordination Sequence:
#
# PCOD8037589 Si02
#       8
#     2   2   2   2   2   2   2   2
#     4  12  27  45  76 107 144 193 239 300 367 432
#     4  12  26  46  74 108 142 190 243 295 367 433
#     4  12  28  49  73 106 148 192 241 300 368 434
#     4  12  26  48  75 103 146 191 245 299 359 436
#     4  12  27  46  75 107 146 193 245 299 367 435
#     4  12  25  48  70 107 146 186 244 299 358 435
#     4  12  25  48  75 107 147 190 241 303 367 432
#     4  12  28  47  74 108 149 188 242 304 365 436
#
# _framework density 23.163139000000001
#
# number of rings (size 3 to 8) (size 9 to 14) (size 15 to 20)
#    0.000    0.000    2.500    7.500    5.250    0.000 
#    0.000    0.000    0.000    0.000    0.000    0.000 
#    0.000    0.000    0.000    0.000    0.000    0.000 
#
# Total GULP energy -198310.316873 kJ/mol
# GULP energy per Si atom -12394.394805 kJ/mol
# Density = 2.311042 g / cm^3
# Si number density = 23.163139 Si / 1000 Ang^3
#
#
#
# Elastic Constant Matrix: (Units=GPa)
#
#
# Indices 1 2 3 4 5 6 
#
# 1 95.9620 11.1706 24.1533 -18.5018 7.0181 -6.1800
# 2 11.1706 107.8677 14.0302 -14.9297 9.7137 4.4577
# 3 24.1533 14.0302 129.8679 -30.2902 -3.6517 9.2143
# 4 -18.5018 -14.9297 -30.2902 44.2882 0.4755 0.4571
# 5 7.0181 9.7137 -3.6517 0.4755 43.8314 -0.1782
# 6 -6.1800 4.4577 9.2143 0.4571 -0.1782 48.2625
#
#
#
# Elastic Compliance Matrix: (Units=1/GPa)
#
#
# Indices 1 2 3 4 5 6 
#
# 1 0.011826 -0.000406 -0.001447 0.003817 -0.001958 0.001785
# 2 -0.000406 0.010010 -0.000291 0.003039 -0.002215 -0.000958
# 3 -0.001447 -0.000291 0.009532 0.005827 0.001019 -0.002030
# 4 0.003817 0.003039 0.005827 0.029208 -0.001121 -0.001185
# 5 -0.001958 -0.002215 0.001019 -0.001121 0.023716 -0.000143
# 6 0.001785 -0.000958 -0.002030 -0.001185 -0.000143 0.021435
#
#
# Mechanical properties :
#
#
# Convention : Reuss Voigt Hill
#
# Bulk Modulus (GPa) = 36.92691 48.04507 42.48599
# Shear Modulus (GPa) = 42.00169 46.23266 44.11717
#
# Velocity S-wave (km/s) = 4.26290 4.47246 4.36894
# Velocity P-wave (km/s) = 6.34086 6.88895 6.62058
#
# Compressibility (1/GPa) = 0.02708052
#
# Stress axis : x y z
#
# Youngs Moduli (GPa) = 84.55737 99.89799 104.90460
#
# Poissons Ratio (x) = 0.04052 0.15182
# Poissons Ratio (y) = 0.03430 0.03057
# Poissons Ratio (z) = 0.12237 0.02911
#
# Static dielectric constant tensor:
#      x y z
#    x 4.059700 0.025780 0.056720 
#    y 0.025780 4.617820 -0.059060 
#    z 0.056720 -0.059060 4.205390 
# 
# 
# High freq. dielectric constant tensor:
#      x y z
#    x 1.922510 -0.000170 -0.003460 
#    y -0.000170 1.941240 -0.006480 
#    z -0.003460 -0.006480 1.927460 
# 
# From -- ./inp_files/297938.got.cif
#   From: 2010.06.25/outbox.cif.g09.slc.cpg/sg2_149_cif.got.tgz:297938.got - 2010.06.27 13:26:56.
