data_PCOD8037509
_publ_section_title
;
Structure prediction by ZEFSAII (Michael W. Deem and Ramdas Pophale) SiO2 
 PCOD8037509
Probable space group: P -1
;
_chemical_formula_sum "Si O2"
_cell_formula_units_Z 16
_cell_length_a 9.310011
_cell_length_b 14.476932
_cell_length_c 9.498606
_cell_angle_alpha 65.312120
_cell_angle_beta 66.717623
_cell_angle_gamma 38.515115
_cell_volume 719.033427
_symmetry_space_group_name_H-M "P -1"
_symmetry_group_IT_number 2
_symmetry_cell_setting 'triclinic'
loop_
_space_group_symop_operation_xyz
x,y,z
-x,-y,-z
loop_
_atom_site_type_symbol
_atom_site_label
_atom_site_fract_x
_atom_site_fract_y
_atom_site_fract_z
Si Si1 0.922884 0.293579 0.207519
Si Si2 0.942010 0.714111 0.325923
Si Si3 0.307327 0.953777 0.765243
Si Si4 0.981523 0.981210 0.682357
Si Si5 0.569051 0.443480 0.850368
Si Si6 0.845802 0.688739 0.672985
Si Si7 0.402338 0.795395 0.101167
Si Si8 0.109213 0.368993 0.874502
O O1 0.018166 0.139513 0.220769
O O2 0.644642 0.422772 0.253131
O O3 0.035904 0.270439 0.326160
O O4 0.984834 0.344627 0.031511
O O5 0.930011 0.645289 0.507537
O O6 0.809131 0.722348 0.244279
O O7 0.210308 0.596694 0.254256
O O8 0.818773 0.878275 0.308979
O O9 0.192114 0.928075 0.721930
O O10 0.572004 0.834809 0.692067
O O11 0.289918 0.930033 0.950715
O O12 0.000000 0.000000 0.500000
O O13 0.738208 0.137804 0.740551
O O14 0.626362 0.297956 0.904592
O O15 0.500000 0.500000 0.000000
O O16 0.923407 0.548007 0.809061
O O17 0.669667 0.692085 0.092253
#
# Coordination Sequence:
#
# PCOD8037509 Si02
#       8
#     2   2   2   2   2   2   2   2
#     4  12  25  46  75 102 142 194 242 293 364 429
#     4  12  28  45  73 107 146 193 241 297 371 429
#     4  12  26  48  74 104 150 191 244 295 362 439
#     4  12  29  47  73 111 151 191 240 303 369 430
#     4  12  25  46  74 105 142 193 247 298 355 430
#     4  12  27  48  72 108 149 188 240 307 362 427
#     4  12  26  48  76 104 149 192 247 302 356 436
#     4  12  26  48  72 108 141 193 245 298 358 432
#
# _framework density 22.252094
#
# number of rings (size 3 to 8) (size 9 to 14) (size 15 to 20)
#    0.000    0.000    5.000    4.500    5.250    2.500 
#    0.000    0.000    0.000    0.000    0.000    0.000 
#    0.000    0.000    0.000    0.000    0.000    0.000 
#
# Total GULP energy -198528.531407 kJ/mol
# GULP energy per Si atom -12408.033213 kJ/mol
# Density = 2.220145 g / cm^3
# Si number density = 22.252094 Si / 1000 Ang^3
#
#
#
# Elastic Constant Matrix: (Units=GPa)
#
#
# Indices 1 2 3 4 5 6 
#
# 1 101.4594 32.2673 38.5347 7.9709 9.7964 1.5169
# 2 32.2673 114.1939 48.7966 12.8774 -10.6672 -1.3037
# 3 38.5347 48.7966 126.9443 16.6675 8.6253 -6.3949
# 4 7.9709 12.8774 16.6675 32.4435 1.9537 -1.5510
# 5 9.7964 -10.6672 8.6253 1.9537 32.5391 2.5788
# 6 1.5169 -1.3037 -6.3949 -1.5510 2.5788 49.2105
#
#
#
# Elastic Compliance Matrix: (Units=1/GPa)
#
#
# Indices 1 2 3 4 5 6 
#
# 1 0.012012 -0.002717 -0.002306 -0.000484 -0.003823 -0.000557
# 2 -0.002717 0.012026 -0.003903 -0.002485 0.005984 -0.000497
# 3 -0.002306 -0.003903 0.010795 -0.003157 -0.003372 0.001448
# 4 -0.000484 -0.002485 -0.003157 0.033699 -0.001911 0.000701
# 5 -0.003823 0.005984 -0.003372 -0.001911 0.035016 -0.002057
# 6 -0.000557 -0.000497 0.001448 0.000701 -0.002057 0.020643
#
#
# Mechanical properties :
#
#
# Convention : Reuss Voigt Hill
#
# Bulk Modulus (GPa) = 58.89862 64.64389 61.77126
# Shear Modulus (GPa) = 33.85138 37.70522 35.77830
#
# Velocity S-wave (km/s) = 3.90457 4.12084 4.01417
# Velocity P-wave (km/s) = 6.84499 7.19413 7.02173
#
# Compressibility (1/GPa) = 0.01697833
#
# Stress axis : x y z
#
# Youngs Moduli (GPa) = 83.25124 83.15095 92.63871
#
# Poissons Ratio (x) = 0.22595 0.21367
# Poissons Ratio (y) = 0.22623 0.36160
# Poissons Ratio (z) = 0.19202 0.32457
#
# Static dielectric constant tensor:
#      x y z
#    x 4.429490 -0.031930 0.094720 
#    y -0.031930 4.049800 0.037150 
#    z 0.094720 0.037150 4.062020 
# 
# 
# High freq. dielectric constant tensor:
#      x y z
#    x 1.897890 0.002820 0.007070 
#    y 0.002820 1.884230 0.004550 
#    z 0.007070 0.004550 1.879110 
# 
# From -- ./inp_files/205428.got.cif
#   From: 2010.06.25/outbox.cif.g09.slc.cpg/sg2_103_cif.got.tgz:205428.got - 2010.06.27 13:26:56.
