data_PCOD8037494
_publ_section_title
;
Structure prediction by ZEFSAII (Michael W. Deem and Ramdas Pophale) SiO2 
 PCOD8037494
Probable space group: P -1
;
_chemical_formula_sum "Si O2"
_cell_formula_units_Z 16
_cell_length_a 6.476583
_cell_length_b 12.681867
_cell_length_c 10.462449
_cell_angle_alpha 101.338650
_cell_angle_beta 121.463872
_cell_angle_gamma 94.093983
_cell_volume 702.951019
_symmetry_space_group_name_H-M "P -1"
_symmetry_group_IT_number 2
_symmetry_cell_setting 'triclinic'
loop_
_space_group_symop_operation_xyz
x,y,z
-x,-y,-z
loop_
_atom_site_type_symbol
_atom_site_label
_atom_site_fract_x
_atom_site_fract_y
_atom_site_fract_z
Si Si1 0.604076 0.216847 0.496620
Si Si2 0.599390 0.114135 0.125136
Si Si3 0.107684 0.257063 0.273186
Si Si4 0.619800 0.617760 0.121494
Si Si5 0.361298 0.783489 0.211531
Si Si6 0.273693 0.984785 0.601873
Si Si7 0.176996 0.253104 0.020741
Si Si8 0.977079 0.618743 0.475609
O O1 0.317908 0.187841 0.353881
O O2 0.636866 0.271185 0.660666
O O3 0.670601 0.095714 0.512116
O O4 0.768634 0.301769 0.469836
O O5 0.698126 0.096250 0.292379
O O6 0.375406 0.176811 0.068906
O O7 0.837355 0.181266 0.143362
O O8 0.500000 0.000000 0.000000
O O9 0.185082 0.317403 0.175422
O O10 0.116899 0.338013 0.413392
O O11 0.424856 0.694636 0.109250
O O12 0.778554 0.609485 0.296753
O O13 0.500000 0.500000 0.000000
O O14 0.789190 0.666863 0.069364
O O15 0.562668 0.895887 0.297486
O O16 0.102194 0.816565 0.102460
O O17 0.000000 0.000000 0.500000
O O18 0.000000 0.500000 0.500000
#
# Coordination Sequence:
#
# PCOD8037494 Si02
#       8
#     2   2   2   2   2   2   2   2
#     4  12  25  49  75 113 150 199 256 307 374 459
#     4  12  27  45  72 111 155 199 246 309 369 446
#     4  12  25  49  76 106 151 195 256 304 372 442
#     4  12  29  51  76 110 154 196 253 319 381 446
#     4  12  27  47  75 113 151 204 247 308 382 454
#     4  12  25  45  77 109 156 199 249 310 374 448
#     4  12  27  48  75 106 155 196 253 301 379 451
#     4  12  28  50  80 109 151 195 253 320 376 443
#
# _framework density 22.761185999999999
#
# number of rings (size 3 to 8) (size 9 to 14) (size 15 to 20)
#    0.000    0.000    5.000    4.125    8.750    3.000 
#    0.000    0.000    0.000    0.000    0.000    0.000 
#    0.000    0.000    0.000    0.000    0.000    0.000 
#
# Total GULP energy -198279.975572 kJ/mol
# GULP energy per Si atom -12392.498473 kJ/mol
# Density = 2.270938 g / cm^3
# Si number density = 22.761186 Si / 1000 Ang^3
#
#
#
# Elastic Constant Matrix: (Units=GPa)
#
#
# Indices 1 2 3 4 5 6 
#
# 1 156.5570 77.6147 85.9741 1.2673 11.4012 -12.8846
# 2 77.6147 147.4872 60.1283 11.7625 6.7544 -6.8065
# 3 85.9741 60.1283 150.9872 -2.1066 5.0182 -4.3305
# 4 1.2673 11.7625 -2.1066 49.9180 -2.0199 -4.6154
# 5 11.4012 6.7544 5.0182 -2.0199 67.3302 -12.1862
# 6 -12.8846 -6.8065 -4.3305 -4.6154 -12.1862 22.0983
#
#
#
# Elastic Compliance Matrix: (Units=1/GPa)
#
#
# Indices 1 2 3 4 5 6 
#
# 1 0.011284 -0.003849 -0.004742 0.000818 -0.000342 0.004447
# 2 -0.003849 0.009681 -0.001692 -0.002290 -0.000306 -0.000241
# 3 -0.004742 -0.001692 0.009975 0.000838 0.000050 -0.001129
# 4 0.000818 -0.002290 0.000838 0.021137 0.001611 0.005239
# 5 -0.000342 -0.000306 0.000050 0.001611 0.016657 0.009239
# 6 0.004447 -0.000241 -0.001129 0.005239 0.009239 0.053738
#
#
# Mechanical properties :
#
#
# Convention : Reuss Voigt Hill
#
# Bulk Modulus (GPa) = 96.40461 100.27395 98.33928
# Shear Modulus (GPa) = 34.13018 43.29026 38.71022
#
# Velocity S-wave (km/s) = 3.87653 4.36585 4.12844
# Velocity P-wave (km/s) = 7.90464 8.34054 8.12552
#
# Compressibility (1/GPa) = 0.01037295
#
# Stress axis : x y z
#
# Youngs Moduli (GPa) = 88.61947 103.29137 100.25185
#
# Poissons Ratio (x) = 0.39760 0.47541
# Poissons Ratio (y) = 0.34113 0.16965
# Poissons Ratio (z) = 0.42024 0.17480
#
# Static dielectric constant tensor:
#      x y z
#    x 4.429590 -0.093560 -0.351620 
#    y -0.093560 3.902780 -0.195610 
#    z -0.351620 -0.195610 4.455820 
# 
# 
# High freq. dielectric constant tensor:
#      x y z
#    x 1.920000 -0.002850 -0.009130 
#    y -0.002850 1.879930 -0.011330 
#    z -0.009130 -0.011330 1.927680 
# 
# From -- ./inp_files/364873.got.cif
#   From: 2010.06.25/outbox.cif.g09.slc.cpg/sg2_183_cif.got.tgz:364873.got - 2010.06.27 13:26:56.
