data_PCOD8037239
_publ_section_title
;
Structure prediction by ZEFSAII (Michael W. Deem and Ramdas Pophale) SiO2 
 PCOD8037239
Probable space group: P -1
;
_chemical_formula_sum "Si O2"
_cell_formula_units_Z 16
_cell_length_a 19.039473
_cell_length_b 8.975301
_cell_length_c 12.073722
_cell_angle_alpha 31.924032
_cell_angle_beta 139.855464
_cell_angle_gamma 132.158689
_cell_volume 701.881188
_symmetry_space_group_name_H-M "P -1"
_symmetry_group_IT_number 2
_symmetry_cell_setting 'triclinic'
loop_
_space_group_symop_operation_xyz
x,y,z
-x,-y,-z
loop_
_atom_site_type_symbol
_atom_site_label
_atom_site_fract_x
_atom_site_fract_y
_atom_site_fract_z
Si Si1 0.621121 0.939081 0.202659
Si Si2 0.738062 0.508416 0.510722
Si Si3 0.895625 0.670483 0.789124
Si Si4 0.608406 0.897839 0.470715
Si Si5 0.099066 0.667014 0.576673
Si Si6 0.413293 0.984606 0.305968
Si Si7 0.705125 0.481220 0.246468
Si Si8 0.225506 0.534555 0.013141
O O1 0.709717 0.166398 0.115830
O O2 0.629317 0.660530 0.315454
O O3 0.642486 0.883856 0.392402
O O4 0.500000 0.000000 0.000000
O O5 0.834449 0.652981 0.609397
O O6 0.768829 0.567675 0.382230
O O7 0.702590 0.182863 0.699227
O O8 0.922493 0.999047 0.649143
O O9 0.822176 0.502242 0.898206
O O10 0.000000 0.500000 0.000000
O O11 0.477924 0.834250 0.376842
O O12 0.624995 0.208956 0.346666
O O13 0.686831 0.697811 0.758910
O O14 0.209457 0.622508 0.672777
O O15 0.120105 0.519200 0.813798
O O16 0.000000 0.500000 0.500000
O O17 0.500000 0.000000 0.500000
O O18 0.373318 0.288894 0.036284
#
# Coordination Sequence:
#
# PCOD8037239 Si02
#       8
#     2   2   2   2   2   2   2   2
#     4  12  26  43  74 108 150 198 243 297 372 444
#     4  12  27  46  69 112 150 190 251 306 367 440
#     4  12  30  52  77 110 145 195 255 314 378 438
#     4  12  24  46  71 106 152 194 245 297 365 451
#     4  12  29  51  79 109 141 198 249 312 381 441
#     4  12  27  41  72 111 148 201 241 296 373 435
#     4  12  26  46  71 107 153 188 250 305 361 449
#     4  12  24  50  77 102 152 186 244 305 368 437
#
# _framework density 22.795881000000001
#
# number of rings (size 3 to 8) (size 9 to 14) (size 15 to 20)
#    0.000    0.000    6.250    2.625    8.750    2.000 
#    0.000    0.000    0.000    0.000    0.000    0.000 
#    0.000    0.000    0.000    0.000    0.000    0.000 
#
# Total GULP energy -198317.185728 kJ/mol
# GULP energy per Si atom -12394.824108 kJ/mol
# Density = 2.274400 g / cm^3
# Si number density = 22.795881 Si / 1000 Ang^3
#
#
#
# Elastic Constant Matrix: (Units=GPa)
#
#
# Indices 1 2 3 4 5 6 
#
# 1 92.2706 11.9862 47.8068 -3.6221 9.1502 -13.5708
# 2 11.9862 95.6285 35.0033 7.6649 -9.7597 -3.9104
# 3 47.8068 35.0033 145.6085 -2.4792 11.0038 -6.8442
# 4 -3.6221 7.6649 -2.4792 36.6216 -5.7875 1.2640
# 5 9.1502 -9.7597 11.0038 -5.7875 45.3645 3.4162
# 6 -13.5708 -3.9104 -6.8442 1.2640 3.4162 39.5086
#
#
#
# Elastic Compliance Matrix: (Units=1/GPa)
#
#
# Indices 1 2 3 4 5 6 
#
# 1 0.013856 -0.000334 -0.004102 0.000687 -0.002098 0.004175
# 2 -0.000334 0.012136 -0.003065 -0.002303 0.003101 0.000361
# 3 -0.004102 -0.003065 0.009111 0.000540 -0.001974 0.000019
# 4 0.000687 -0.002303 0.000540 0.028394 0.002937 -0.001061
# 5 -0.002098 0.003101 -0.001974 0.002937 0.024209 -0.002943
# 6 0.004175 0.000361 0.000019 -0.001061 -0.002943 0.027073
#
#
# Mechanical properties :
#
#
# Convention : Reuss Voigt Hill
#
# Bulk Modulus (GPa) = 49.74705 58.12224 53.93464
# Shear Modulus (GPa) = 36.63544 40.21303 38.42424
#
# Velocity S-wave (km/s) = 4.01322 4.20461 4.11003
# Velocity P-wave (km/s) = 6.58368 7.00884 6.79958
#
# Compressibility (1/GPa) = 0.02010170
#
# Stress axis : x y z
#
# Youngs Moduli (GPa) = 72.17281 82.39610 109.76139
#
# Poissons Ratio (x) = 0.02748 0.45029
# Poissons Ratio (y) = 0.02407 0.33637
# Poissons Ratio (z) = 0.29609 0.25251
#
# Static dielectric constant tensor:
#      x y z
#    x 4.262570 -0.046900 -0.040270 
#    y -0.046900 3.935610 0.073190 
#    z -0.040270 0.073190 4.455620 
# 
# 
# High freq. dielectric constant tensor:
#      x y z
#    x 1.908700 -0.010370 -0.000780 
#    y -0.010370 1.896030 -0.003770 
#    z -0.000780 -0.003770 1.917390 
# 
# From -- ./inp_files/85118.got.cif
#   From: 2010.06.25/outbox.cif.g09.slc.cpg/sg2_43_cif.got.tgz:85118.got - 2010.06.27 13:26:56.
