data_PCOD8037409
_publ_section_title
;
Structure prediction by ZEFSAII (Michael W. Deem and Ramdas Pophale) SiO2 
 PCOD8037409
Probable space group: P -1
;
_chemical_formula_sum "Si O2"
_cell_formula_units_Z 16
_cell_length_a 20.046931
_cell_length_b 10.818616
_cell_length_c 7.911378
_cell_angle_alpha 55.049743
_cell_angle_beta 144.240152
_cell_angle_gamma 138.621797
_cell_volume 659.925571
_symmetry_space_group_name_H-M "P -1"
_symmetry_group_IT_number 2
_symmetry_cell_setting 'triclinic'
loop_
_space_group_symop_operation_xyz
x,y,z
-x,-y,-z
loop_
_atom_site_type_symbol
_atom_site_label
_atom_site_fract_x
_atom_site_fract_y
_atom_site_fract_z
Si Si1 0.049336 0.354765 0.909684
Si Si2 0.357424 0.082504 0.414195
Si Si3 0.067819 0.957234 0.825133
Si Si4 0.632318 0.438541 0.557107
Si Si5 0.924785 0.103427 0.538251
Si Si6 0.044722 0.439910 0.298902
Si Si7 0.642082 0.276811 0.348327
Si Si8 0.633337 0.792946 0.298987
O O1 0.947952 0.218588 0.660979
O O2 0.012227 0.501816 0.711373
O O3 0.011683 0.258054 0.099161
O O4 0.213811 0.457716 0.122474
O O5 0.513796 0.269899 0.561525
O O6 0.311552 0.102709 0.489567
O O7 0.354249 0.901800 0.510545
O O8 0.236191 0.062850 0.062336
O O9 0.000000 0.000000 0.500000
O O10 0.029131 0.043201 0.830371
O O11 0.628689 0.340786 0.454182
O O12 0.596606 0.587791 0.358801
O O13 0.963040 0.216829 0.344020
O O14 0.758943 0.928736 0.318078
O O15 0.213427 0.546021 0.575568
O O16 0.000000 0.500000 0.000000
O O17 0.508034 0.223440 0.008711
#
# Coordination Sequence:
#
# PCOD8037409 Si02
#       8
#     2   2   2   2   2   2   2   2
#     4  12  24  50  72 111 149 193 258 311 370 451
#     4  12  28  50  74 109 156 200 250 309 378 449
#     4  12  26  45  77 105 147 199 250 311 374 439
#     4  12  28  45  77 109 156 192 249 314 373 447
#     4  12  27  45  80 106 150 199 249 315 377 440
#     4  12  26  47  73 109 149 195 253 307 374 446
#     4  12  28  48  75 109 156 195 250 311 379 449
#     4  12  27  50  75 112 153 197 253 307 379 452
#
# _framework density 24.245158
#
# number of rings (size 3 to 8) (size 9 to 14) (size 15 to 20)
#    0.000    0.000    5.000    3.750    7.000    0.000 
#    0.000    0.000    0.000    0.000    0.000    0.000 
#    0.000    0.000    0.000    0.000    0.000    0.000 
#
# Total GULP energy -198273.966285 kJ/mol
# GULP energy per Si atom -12392.122893 kJ/mol
# Density = 2.418997 g / cm^3
# Si number density = 24.245158 Si / 1000 Ang^3
#
#
#
# Elastic Constant Matrix: (Units=GPa)
#
#
# Indices 1 2 3 4 5 6 
#
# 1 94.4302 56.7724 45.9050 -14.1506 15.1032 -6.3927
# 2 56.7724 153.4535 35.9000 -6.1520 10.7940 4.7416
# 3 45.9050 35.9000 117.3404 9.2266 27.7397 6.3095
# 4 -14.1506 -6.1520 9.2266 40.1732 -1.6314 18.3053
# 5 15.1032 10.7940 27.7397 -1.6314 45.7485 0.3925
# 6 -6.3927 4.7416 6.3095 18.3053 0.3925 61.1882
#
#
#
# Elastic Compliance Matrix: (Units=1/GPa)
#
#
# Indices 1 2 3 4 5 6 
#
# 1 0.017375 -0.004821 -0.005631 0.006219 -0.000970 0.000915
# 2 -0.004821 0.008507 -0.000681 0.000300 0.000018 -0.001183
# 3 -0.005631 -0.000681 0.012743 -0.005127 -0.005888 -0.000278
# 4 0.006219 0.000300 -0.005127 0.032276 0.002209 -0.008515
# 5 -0.000970 0.000018 -0.005888 0.002209 0.025826 -0.000322
# 6 0.000915 -0.001183 -0.000278 -0.008515 -0.000322 0.019108
#
#
# Mechanical properties :
#
#
# Convention : Reuss Voigt Hill
#
# Bulk Modulus (GPa) = 61.12935 71.37543 66.25239
# Shear Modulus (GPa) = 34.82980 44.53177 39.68079
#
# Velocity S-wave (km/s) = 3.79432 4.29036 4.04994
# Velocity P-wave (km/s) = 6.66810 7.35159 7.01817
#
# Compressibility (1/GPa) = 0.01635875
#
# Stress axis : x y z
#
# Youngs Moduli (GPa) = 57.55414 117.55035 78.47192
#
# Poissons Ratio (x) = 0.56677 0.44187
# Poissons Ratio (y) = 0.27750 0.05342
# Poissons Ratio (z) = 0.32409 0.08003
#
# Static dielectric constant tensor:
#      x y z
#    x 5.100730 -0.394070 0.409000 
#    y -0.394070 4.752880 -0.098170 
#    z 0.409000 -0.098170 4.345560 
# 
# 
# High freq. dielectric constant tensor:
#      x y z
#    x 1.997820 -0.024020 0.018110 
#    y -0.024020 1.980040 -0.001720 
#    z 0.018110 -0.001720 1.963120 
# 
# From -- ./inp_files/346008.got.cif
#   From: 2010.06.25/outbox.cif.g09.slc.cpg/sg2_174_cif.got.tgz:346008.got - 2010.06.27 13:26:56.
