data_PCOD8037136
_publ_section_title
;
Structure prediction by ZEFSAII (Michael W. Deem and Ramdas Pophale) SiO2 
 PCOD8037136
Probable space group: P -1
;
_chemical_formula_sum "Si O2"
_cell_formula_units_Z 16
_cell_length_a 15.824115
_cell_length_b 15.777096
_cell_length_c 9.254471
_cell_angle_alpha 92.633309
_cell_angle_beta 111.563713
_cell_angle_gamma 26.912438
_cell_volume 722.525372
_symmetry_space_group_name_H-M "P -1"
_symmetry_group_IT_number 2
_symmetry_cell_setting 'triclinic'
loop_
_space_group_symop_operation_xyz
x,y,z
-x,-y,-z
loop_
_atom_site_type_symbol
_atom_site_label
_atom_site_fract_x
_atom_site_fract_y
_atom_site_fract_z
Si Si1 0.762079 0.751438 0.454068
Si Si2 0.291942 0.032787 0.207994
Si Si3 0.741011 0.055202 0.565132
Si Si4 0.216944 0.981770 0.903552
Si Si5 0.612596 0.482062 0.491477
Si Si6 0.964538 0.463326 0.096562
Si Si7 0.373560 0.527868 0.850641
Si Si8 0.621976 0.047652 0.238350
O O1 0.000000 0.500000 0.500000
O O2 0.818776 0.709375 0.656246
O O3 0.509080 0.912528 0.288259
O O4 0.743787 0.860717 0.382637
O O5 0.009920 0.331004 0.043789
O O6 0.321450 0.973959 0.384287
O O7 0.286215 0.953393 0.103956
O O8 0.572484 0.279389 0.546819
O O9 0.619704 0.135087 0.340795
O O10 0.062646 0.792039 0.729182
O O11 0.916577 0.211638 0.720576
O O12 0.213707 0.068578 0.807781
O O13 0.445360 0.709769 0.994113
O O14 0.500000 0.500000 0.500000
O O15 0.608694 0.481760 0.313912
O O16 0.664667 0.727663 0.989384
O O17 0.000000 0.500000 0.000000
O O18 0.500000 0.500000 0.000000
#
# Coordination Sequence:
#
# PCOD8037136 Si02
#       8
#     2   2   2   2   2   2   2   2
#     4  12  28  43  68 103 150 195 248 307 353 425
#     4  12  25  46  72 105 148 196 247 301 362 428
#     4  12  26  49  79 107 155 194 244 309 363 442
#     4  12  28  47  78 111 148 193 249 301 370 446
#     4  12  29  51  79 114 148 190 243 305 380 450
#     4  12  24  44  67  99 140 197 249 296 362 417
#     4  12  29  52  78 113 150 189 242 307 378 450
#     4  12  26  46  71 105 148 196 246 300 363 425
#
# _framework density 22.144552000000001
#
# number of rings (size 3 to 8) (size 9 to 14) (size 15 to 20)
#    0.000    0.000    5.000    4.125    8.750    3.000 
#    0.000    0.000    0.000    0.000    0.000    0.000 
#    0.000    0.000    0.000    0.000    0.000    0.000 
#
# Total GULP energy -198288.208442 kJ/mol
# GULP energy per Si atom -12393.013028 kJ/mol
# Density = 2.209415 g / cm^3
# Si number density = 22.144552 Si / 1000 Ang^3
#
#
#
# Elastic Constant Matrix: (Units=GPa)
#
#
# Indices 1 2 3 4 5 6 
#
# 1 118.7589 20.9318 33.2719 -9.6277 -9.4744 -6.7006
# 2 20.9318 114.1201 33.0704 -14.1066 -0.4630 9.4336
# 3 33.2719 33.0704 109.7806 -8.5633 6.6148 0.0724
# 4 -9.6277 -14.1066 -8.5633 34.6095 1.8675 -0.3489
# 5 -9.4744 -0.4630 6.6148 1.8675 42.8741 -1.8911
# 6 -6.7006 9.4336 0.0724 -0.3489 -1.8911 43.6809
#
#
#
# Elastic Compliance Matrix: (Units=1/GPa)
#
#
# Indices 1 2 3 4 5 6 
#
# 1 0.009784 -0.000960 -0.002713 0.001538 0.002584 0.001837
# 2 -0.000960 0.010274 -0.002551 0.003264 0.000047 -0.002334
# 3 -0.002713 -0.002551 0.010923 0.001035 -0.002356 0.000023
# 4 0.001538 0.003264 0.001035 0.030967 -0.001145 -0.000273
# 5 0.002584 0.000047 -0.002356 -0.001145 0.024373 0.001436
# 6 0.001837 -0.002334 0.000023 -0.000273 0.001436 0.023739
#
#
# Mechanical properties :
#
#
# Convention : Reuss Voigt Hill
#
# Bulk Modulus (GPa) = 53.95576 57.46752 55.71164
# Shear Modulus (GPa) = 38.85437 41.25859 40.05648
#
# Velocity S-wave (km/s) = 4.19331 4.32110 4.25769
# Velocity P-wave (km/s) = 6.91833 7.13466 7.02733
#
# Compressibility (1/GPa) = 0.01853370
#
# Stress axis : x y z
#
# Youngs Moduli (GPa) = 102.20521 97.32849 91.55325
#
# Poissons Ratio (x) = 0.09339 0.24841
# Poissons Ratio (y) = 0.09807 0.23355
# Poissons Ratio (z) = 0.27731 0.24829
#
# Static dielectric constant tensor:
#      x y z
#    x 4.416360 -0.024940 0.328570 
#    y -0.024940 4.610660 -0.294320 
#    z 0.328570 -0.294320 4.607950 
# 
# 
# High freq. dielectric constant tensor:
#      x y z
#    x 1.889580 -0.001510 -0.002930 
#    y -0.001510 1.888010 -0.000480 
#    z -0.002930 -0.000480 1.880470 
# 
# From -- ./inp_files/52159.got.cif
#   From: 2010.06.25/outbox.cif.g09.slc.cpg/sg2_27_cif.got.tgz:52159.got - 2010.06.27 13:26:56.
