data_PCOD8037891
_publ_section_title
;
Structure prediction by ZEFSAII (Michael W. Deem and Ramdas Pophale) SiO2 
 PCOD8037891
Probable space group: P -1
;
_chemical_formula_sum "Si O2"
_cell_formula_units_Z 16
_cell_length_a 12.392957
_cell_length_b 11.284232
_cell_length_c 8.204248
_cell_angle_alpha 113.615943
_cell_angle_beta 56.994916
_cell_angle_gamma 114.822072
_cell_volume 850.710271
_symmetry_space_group_name_H-M "P -1"
_symmetry_group_IT_number 2
_symmetry_cell_setting 'triclinic'
loop_
_space_group_symop_operation_xyz
x,y,z
-x,-y,-z
loop_
_atom_site_type_symbol
_atom_site_label
_atom_site_fract_x
_atom_site_fract_y
_atom_site_fract_z
Si Si1 0.159798 0.762452 0.467021
Si Si2 0.853137 0.751349 0.235417
Si Si3 0.373726 0.356830 0.889554
Si Si4 0.846076 0.983814 0.562966
Si Si5 0.332971 0.572257 0.280112
Si Si6 0.238198 0.135465 0.117232
Si Si7 0.886524 0.657484 0.518625
Si Si8 0.917359 0.103631 0.079134
O O1 0.286189 0.702133 0.337502
O O2 0.143898 0.829021 0.689181
O O3 0.031880 0.644614 0.446273
O O4 0.183667 0.874938 0.368821
O O5 0.725824 0.669112 0.194939
O O6 0.825746 0.896520 0.367030
O O7 0.874101 0.684916 0.352749
O O8 0.988528 0.772729 0.031395
O O9 0.525629 0.380434 0.715407
O O10 0.354153 0.492253 0.058267
O O11 0.353217 0.236038 0.973838
O O12 0.734685 0.903662 0.740871
O O13 0.000000 0.000000 0.500000
O O14 0.223755 0.480487 0.437564
O O15 0.127230 0.219866 0.282997
O O16 0.198779 0.990237 0.985128
O O17 0.000000 0.000000 0.000000
#
# Coordination Sequence:
#
# PCOD8037891 Si02
#       8
#     2   2   2   2   2   2   2   2
#     4  12  20  34  57  86 114 138 177 231 281 324
#     4  11  19  32  61  85 107 145 179 224 274 332
#     4  10  21  41  58  74 105 155 197 216 260 328
#     4  11  17  32  57  91 115 134 168 226 289 333
#     4  10  24  40  55  74 109 156 191 223 262 317
#     4  10  17  32  57  83 110 142 177 222 271 332
#     4  10  19  35  56  83 111 138 184 230 276 314
#     4  12  16  29  55  88 108 134 173 221 282 331
#
# _framework density 18.807815000000002
#
# number of rings (size 3 to 8) (size 9 to 14) (size 15 to 20)
#    0.000    1.250    7.500    1.125    0.000    0.500 
#    0.000    6.875    0.000    0.000    0.000    0.000 
#    0.000    0.000    0.000    0.000    0.000    0.000 
#
# Total GULP energy -198214.939071 kJ/mol
# GULP energy per Si atom -12388.433692 kJ/mol
# Density = 1.876501 g / cm^3
# Si number density = 18.807815 Si / 1000 Ang^3
#
#
#
# Elastic Constant Matrix: (Units=GPa)
#
#
# Indices 1 2 3 4 5 6 
#
# 1 70.0755 30.6655 45.1030 18.0726 0.1384 2.8001
# 2 30.6655 63.3867 29.5630 9.8562 -4.2555 -5.3098
# 3 45.1030 29.5630 65.4720 3.8681 1.4199 -3.3099
# 4 18.0726 9.8562 3.8681 20.3658 -3.1679 4.9559
# 5 0.1384 -4.2555 1.4199 -3.1679 25.0883 4.3212
# 6 2.8001 -5.3098 -3.3099 4.9559 4.3212 33.5342
#
#
#
# Elastic Compliance Matrix: (Units=1/GPa)
#
#
# Indices 1 2 3 4 5 6 
#
# 1 0.037530 -0.003692 -0.022596 -0.027269 -0.002728 -0.001567
# 2 -0.003692 0.022391 -0.007036 -0.006727 0.002712 0.003804
# 3 -0.022596 -0.007036 0.033152 0.016555 -0.001155 0.001747
# 4 -0.027269 -0.006727 0.016555 0.077277 0.009519 -0.009801
# 5 -0.002728 0.002712 -0.001155 0.009519 0.042698 -0.006366
# 6 -0.001567 0.003804 0.001747 -0.009801 -0.006366 0.032995
#
#
# Mechanical properties :
#
#
# Convention : Reuss Voigt Hill
#
# Bulk Modulus (GPa) = 37.84307 45.51079 41.67693
# Shear Modulus (GPa) = 15.55213 22.03784 18.79498
#
# Velocity S-wave (km/s) = 2.87870 3.42678 3.16463
# Velocity P-wave (km/s) = 5.58693 6.31723 5.96327
#
# Compressibility (1/GPa) = 0.02642492
#
# Stress axis : x y z
#
# Youngs Moduli (GPa) = 26.64504 44.66176 30.16401
#
# Poissons Ratio (x) = 0.16490 0.68159
# Poissons Ratio (y) = 0.09838 0.21222
# Poissons Ratio (z) = 0.60208 0.31422
#
# Static dielectric constant tensor:
#      x y z
#    x 3.001090 -0.303770 -0.050030 
#    y -0.303770 3.119660 -0.523540 
#    z -0.050030 -0.523540 3.130870 
# 
# 
# High freq. dielectric constant tensor:
#      x y z
#    x 1.700000 0.002990 0.025400 
#    y 0.002990 1.738890 -0.006090 
#    z 0.025400 -0.006090 1.715640 
# 
# From -- ./inp_files/259863.got.cif
#   From: 2010.06.25/outbox.cif.g09.slc.cpg/sg2_130_cif.got.tgz:259863.got - 2010.06.27 13:26:56.
