data_PCOD8037540
_publ_section_title
;
Structure prediction by ZEFSAII (Michael W. Deem and Ramdas Pophale) SiO2 
 PCOD8037540
Probable space group: P -1
;
_chemical_formula_sum "Si O2"
_cell_formula_units_Z 14
_cell_length_a 13.416446
_cell_length_b 8.842980
_cell_length_c 5.179989
_cell_angle_alpha 82.457010
_cell_angle_beta 77.909980
_cell_angle_gamma 79.430167
_cell_volume 587.970870
_symmetry_space_group_name_H-M "P -1"
_symmetry_group_IT_number 2
_symmetry_cell_setting 'triclinic'
loop_
_space_group_symop_operation_xyz
x,y,z
-x,-y,-z
loop_
_atom_site_type_symbol
_atom_site_label
_atom_site_fract_x
_atom_site_fract_y
_atom_site_fract_z
Si Si1 0.716807 0.113377 0.283546
Si Si2 0.668723 0.818331 0.242699
Si Si3 0.452626 0.896406 0.259360
Si Si4 0.394346 0.619237 0.053376
Si Si5 0.955199 0.092216 0.258334
Si Si6 0.036788 0.405273 0.246430
Si Si7 0.270711 0.359211 0.246873
O O1 0.651687 0.029290 0.552175
O O2 0.652779 0.279454 0.194851
O O3 0.830831 0.125321 0.312994
O O4 0.718748 0.973510 0.104734
O O5 0.550113 0.851263 0.409809
O O6 0.732861 0.714665 0.450386
O O7 0.657920 0.734888 0.990840
O O8 0.415804 0.740611 0.222420
O O9 0.500000 0.000000 0.000000
O O10 0.500000 0.500000 0.000000
O O11 0.305226 0.526780 0.222644
O O12 0.989777 0.253088 0.255707
O O13 0.000000 0.000000 0.500000
O O14 0.000000 0.000000 0.000000
O O15 0.158784 0.370085 0.184939
O O16 0.000000 0.500000 0.500000
O O17 0.000000 0.500000 0.000000
#
# Coordination Sequence:
#
# PCOD8037540 Si02
#       7
#     2   2   2   2   2   2   2
#     4  12  28  45  79 106 152 201 252 310 380 441
#     4  12  25  47  71 105 146 198 244 302 366 450
#     4  12  26  46  73 107 153 195 253 301 375 449
#     4  12  27  45  72 110 152 195 247 306 370 459
#     4  12  28  51  80 116 151 198 266 324 376 450
#     4  12  26  48  75 107 152 196 249 319 390 450
#     4  12  27  46  74 106 148 194 250 303 379 445
#
# _framework density 23.810703
#
# number of rings (size 3 to 8) (size 9 to 14) (size 15 to 20)
#    0.000    0.000    2.857    6.429    6.000    1.143 
#    0.000    0.000    0.000    0.000    0.000    0.000 
#    0.000    0.000    0.000    0.000    0.000    0.000 
#
# Total GULP energy -173442.727629 kJ/mol
# GULP energy per Si atom -12388.766259 kJ/mol
# Density = 2.375651 g / cm^3
# Si number density = 23.810703 Si / 1000 Ang^3
#
#
#
# Elastic Constant Matrix: (Units=GPa)
#
#
# Indices 1 2 3 4 5 6 
#
# 1 206.6481 63.9155 43.6231 -14.7723 3.2406 18.0614
# 2 63.9155 172.9463 55.1573 -15.6530 3.3734 34.5571
# 3 43.6231 55.1573 127.9132 -10.8229 16.4468 -6.3710
# 4 -14.7723 -15.6530 -10.8229 38.5953 -1.2874 5.3105
# 5 3.2406 3.3734 16.4468 -1.2874 41.5132 -7.7462
# 6 18.0614 34.5571 -6.3710 5.3105 -7.7462 54.3523
#
#
#
# Elastic Compliance Matrix: (Units=1/GPa)
#
#
# Indices 1 2 3 4 5 6 
#
# 1 0.005750 -0.001277 -0.001350 0.001497 -0.000026 -0.001407
# 2 -0.001277 0.008766 -0.003352 0.002924 -0.000289 -0.005869
# 3 -0.001350 -0.003352 0.010324 0.000461 -0.003081 0.003306
# 4 0.001497 0.002924 0.000461 0.028489 -0.000619 -0.005174
# 5 -0.000026 -0.000289 -0.003081 -0.000619 0.025987 0.003595
# 6 -0.001407 -0.005869 0.003306 -0.005174 0.003595 0.024003
#
#
# Mechanical properties :
#
#
# Convention : Reuss Voigt Hill
#
# Bulk Modulus (GPa) = 77.63808 92.54438 85.09123
# Shear Modulus (GPa) = 41.81617 49.87961 45.84789
#
# Velocity S-wave (km/s) = 4.19524 4.58191 4.39283
# Velocity P-wave (km/s) = 7.49292 8.18187 7.84496
#
# Compressibility (1/GPa) = 0.01288028
#
# Stress axis : x y z
#
# Youngs Moduli (GPa) = 173.92688 114.07305 96.86553
#
# Poissons Ratio (x) = 0.14569 0.13078
# Poissons Ratio (y) = 0.22214 0.32472
# Poissons Ratio (z) = 0.23482 0.38240
#
# Static dielectric constant tensor:
#      x y z
#    x 4.744800 -0.104030 -0.039220 
#    y -0.104030 5.643180 0.480530 
#    z -0.039220 0.480530 4.407200 
# 
# 
# High freq. dielectric constant tensor:
#      x y z
#    x 1.967530 0.012290 0.012190 
#    y 0.012290 1.971340 0.001900 
#    z 0.012190 0.001900 1.938030 
# 
# From -- ./inp_files/60338.got.cif
#   From: 2010.06.25/outbox.cif.g09.slc.cpg/sg2_31_cif.got.tgz:60338.got - 2010.06.27 13:26:56.
