data_PCOD8037202
_publ_section_title
;
Structure prediction by ZEFSAII (Michael W. Deem and Ramdas Pophale) SiO2 
 PCOD8037202
Probable space group: P -1
;
_chemical_formula_sum "Si O2"
_cell_formula_units_Z 14
_cell_length_a 8.924533
_cell_length_b 8.694902
_cell_length_c 11.599296
_cell_angle_alpha 121.461651
_cell_angle_beta 121.118015
_cell_angle_gamma 48.540479
_cell_volume 554.349811
_symmetry_space_group_name_H-M "P -1"
_symmetry_group_IT_number 2
_symmetry_cell_setting 'triclinic'
loop_
_space_group_symop_operation_xyz
x,y,z
-x,-y,-z
loop_
_atom_site_type_symbol
_atom_site_label
_atom_site_fract_x
_atom_site_fract_y
_atom_site_fract_z
Si Si1 0.998706 0.127552 0.163145
Si Si2 0.911535 0.521355 0.711279
Si Si3 0.653262 0.228549 0.697218
Si Si4 0.610452 0.774720 0.222431
Si Si5 0.532525 0.355392 0.082985
Si Si6 0.221867 0.781562 0.511561
Si Si7 0.535797 0.807624 0.804917
O O1 0.763397 0.301607 0.168293
O O2 0.103308 0.267498 0.258712
O O3 0.117308 0.961162 0.247460
O O4 0.000000 0.000000 0.000000
O O5 0.807750 0.417181 0.554589
O O6 0.773051 0.603131 0.804226
O O7 0.148450 0.324875 0.742243
O O8 0.470415 0.198129 0.666786
O O9 0.624265 0.439904 0.823974
O O10 0.648727 0.240897 0.562492
O O11 0.478765 0.995338 0.188916
O O12 0.541113 0.625728 0.072592
O O13 0.514023 0.168608 0.068175
O O14 0.362690 0.770545 0.666894
O O15 0.000000 0.000000 0.500000
#
# Coordination Sequence:
#
# PCOD8037202 Si02
#       7
#     2   2   2   2   2   2   2
#     4  12  24  45  73 107 147 184 236 294 362 431
#     4  12  25  46  72 105 143 190 242 292 355 428
#     4  12  25  46  73 105 146 187 236 302 356 420
#     4  12  25  46  72 111 144 182 242 294 364 430
#     4  12  25  45  75 106 148 188 231 302 364 424
#     4  12  27  52  73 101 149 192 246 297 351 428
#     4  12  26  49  71 103 146 193 239 294 356 424
#
# _framework density 25.254811
#
# number of rings (size 3 to 8) (size 9 to 14) (size 15 to 20)
#    0.000    0.000    7.143    3.000    0.000    1.143 
#    0.000    3.571    0.000    0.000    0.000    0.000 
#    0.000    0.000    0.000    0.000    0.000    0.000 
#
# Total GULP energy -173444.865619 kJ/mol
# GULP energy per Si atom -12388.918973 kJ/mol
# Density = 2.519733 g / cm^3
# Si number density = 25.254811 Si / 1000 Ang^3
#
#
#
# Elastic Constant Matrix: (Units=GPa)
#
#
# Indices 1 2 3 4 5 6 
#
# 1 134.5661 33.5437 26.9251 -3.0218 -0.1181 -14.0728
# 2 33.5437 89.8235 1.0967 4.1845 1.7463 -16.5726
# 3 26.9251 1.0967 56.8569 3.7949 -4.8034 2.0567
# 4 -3.0218 4.1845 3.7949 36.1614 3.2215 14.7926
# 5 -0.1181 1.7463 -4.8034 3.2215 35.7600 2.7674
# 6 -14.0728 -16.5726 2.0567 14.7926 2.7674 58.2547
#
#
#
# Elastic Compliance Matrix: (Units=1/GPa)
#
#
# Indices 1 2 3 4 5 6 
#
# 1 0.009294 -0.003235 -0.004514 0.001183 -0.000618 0.001213
# 2 -0.003235 0.013201 0.001331 -0.003463 -0.000461 0.003828
# 3 -0.004514 0.001331 0.020149 -0.002530 0.002926 -0.000920
# 4 0.001183 -0.003463 -0.002530 0.032178 -0.002395 -0.008667
# 5 -0.000618 -0.000461 0.002926 -0.002395 0.028681 -0.001138
# 6 0.001213 0.003828 -0.000920 -0.008667 -0.001138 0.020835
#
#
# Mechanical properties :
#
#
# Convention : Reuss Voigt Hill
#
# Bulk Modulus (GPa) = 33.54715 44.93083 39.23899
# Shear Modulus (GPa) = 33.98805 40.68060 37.33432
#
# Velocity S-wave (km/s) = 3.67250 4.01784 3.84904
# Velocity P-wave (km/s) = 5.59422 6.27325 5.94344
#
# Compressibility (1/GPa) = 0.02980879
#
# Stress axis : x y z
#
# Youngs Moduli (GPa) = 107.59967 75.75008 49.62975
#
# Poissons Ratio (x) = 0.24504 0.22402
# Poissons Ratio (y) = 0.34807 -0.06605
# Poissons Ratio (z) = 0.48569 -0.10082
#
# Static dielectric constant tensor:
#      x y z
#    x 4.894410 0.065350 -0.005340 
#    y 0.065350 4.904570 0.282600 
#    z -0.005340 0.282600 4.309580 
# 
# 
# High freq. dielectric constant tensor:
#      x y z
#    x 2.031570 0.004380 0.004090 
#    y 0.004380 2.034800 0.017330 
#    z 0.004090 0.017330 1.980910 
# 
# From -- ./inp_files/158534.got.cif
#   From: 2010.06.25/outbox.cif.g09.slc.cpg/sg2_80_cif.got.tgz:158534.got - 2010.06.27 13:26:56.
