data_PCOD8037619
_publ_section_title
;
Structure prediction by ZEFSAII (Michael W. Deem and Ramdas Pophale) SiO2 
 PCOD8037619
Probable space group: P -1
;
_chemical_formula_sum "Si O2"
_cell_formula_units_Z 16
_cell_length_a 8.265409
_cell_length_b 5.598913
_cell_length_c 15.537636
_cell_angle_alpha 63.840751
_cell_angle_beta 92.243186
_cell_angle_gamma 96.372597
_cell_volume 641.363786
_symmetry_space_group_name_H-M "P -1"
_symmetry_group_IT_number 2
_symmetry_cell_setting 'triclinic'
loop_
_space_group_symop_operation_xyz
x,y,z
-x,-y,-z
loop_
_atom_site_type_symbol
_atom_site_label
_atom_site_fract_x
_atom_site_fract_y
_atom_site_fract_z
Si Si1 0.752738 0.147150 0.119560
Si Si2 0.583734 0.774369 0.861103
Si Si3 0.754508 0.232842 0.914144
Si Si4 0.680617 0.587864 0.283579
Si Si5 0.862079 0.846607 0.579513
Si Si6 0.974367 0.407986 0.218678
Si Si7 0.550845 0.899644 0.654098
Si Si8 0.664885 0.669784 0.456945
O O1 0.604010 0.333974 0.099574
O O2 0.920949 0.233517 0.160493
O O3 0.661752 0.873219 0.197751
O O4 0.802924 0.122813 0.025435
O O5 0.668819 0.504389 0.887364
O O6 0.596037 0.954571 0.745872
O O7 0.657985 0.979298 0.904439
O O8 0.919172 0.319491 0.850050
O O9 0.502196 0.420392 0.305128
O O10 0.749694 0.601039 0.380452
O O11 0.806316 0.452279 0.250528
O O12 0.924944 0.744568 0.686424
O O13 0.706172 0.001069 0.580435
O O14 0.787226 0.624186 0.544883
O O15 0.000000 0.000000 0.500000
O O16 0.389049 0.030535 0.601090
O O17 0.500000 0.500000 0.500000
#
# Coordination Sequence:
#
# PCOD8037619 Si02
#       8
#     2   2   2   2   2   2   2   2
#     4  12  27  50  80 111 157 208 264 313 397 474
#     4  12  26  50  84 115 156 204 267 325 384 467
#     4  12  30  50  81 122 156 206 263 334 390 459
#     4  12  25  48  77 109 150 214 260 314 393 469
#     4  12  27  48  74 112 150 195 262 320 397 465
#     4  12  29  48  74 112 163 202 252 330 395 467
#     4  12  25  49  79 106 157 200 261 327 390 465
#     4  12  27  46  79 107 145 206 262 322 391 466
#
# _framework density 24.946840999999999
#
# number of rings (size 3 to 8) (size 9 to 14) (size 15 to 20)
#    0.000    0.000    5.000    3.750    7.000    2.000 
#    0.000    0.000    0.000    0.000    0.000    0.000 
#    0.000    0.000    0.000    0.000    0.000    0.000 
#
# Total GULP energy -198253.462350 kJ/mol
# GULP energy per Si atom -12390.841397 kJ/mol
# Density = 2.489006 g / cm^3
# Si number density = 24.946841 Si / 1000 Ang^3
#
#
#
# Elastic Constant Matrix: (Units=GPa)
#
#
# Indices 1 2 3 4 5 6 
#
# 1 91.7390 29.5735 36.9466 17.3052 -3.6280 28.2871
# 2 29.5735 112.3303 39.7378 19.3940 16.9183 19.2864
# 3 36.9466 39.7378 162.8059 41.5387 4.8058 28.0372
# 4 17.3052 19.3940 41.5387 43.9011 11.3747 -0.3057
# 5 -3.6280 16.9183 4.8058 11.3747 50.7466 7.1165
# 6 28.2871 19.2864 28.0372 -0.3057 7.1165 38.9062
#
#
#
# Elastic Compliance Matrix: (Units=1/GPa)
#
#
# Indices 1 2 3 4 5 6 
#
# 1 0.016940 -0.001928 0.000741 -0.008015 0.005396 -0.012945
# 2 -0.001928 0.011121 -0.001091 -0.002414 -0.002804 -0.002831
# 3 0.000741 -0.001091 0.010107 -0.010165 0.002843 -0.007882
# 4 -0.008015 -0.002414 -0.010165 0.039310 -0.009927 0.016475
# 5 0.005396 -0.002804 0.002843 -0.009927 0.024258 -0.009097
# 6 -0.012945 -0.002831 -0.007882 0.016475 -0.009097 0.043991
#
#
# Mechanical properties :
#
#
# Convention : Reuss Voigt Hill
#
# Bulk Modulus (GPa) = 29.75000 64.37677 47.06339
# Shear Modulus (GPa) = 30.96212 44.08527 37.52370
#
# Velocity S-wave (km/s) = 3.52678 4.20833 3.88254
# Velocity P-wave (km/s) = 5.34186 7.03385 6.24542
#
# Compressibility (1/GPa) = 0.03361344
#
# Stress axis : x y z
#
# Youngs Moduli (GPa) = 59.03031 89.92013 98.93804
#
# Poissons Ratio (x) = 0.17341 -0.07335
# Poissons Ratio (y) = 0.11384 0.10790
# Poissons Ratio (z) = -0.04376 0.09807
#
# Static dielectric constant tensor:
#      x y z
#    x 3.983320 0.640770 -0.513900 
#    y 0.640770 3.821420 0.556030 
#    z -0.513900 0.556030 4.598770 
# 
# 
# High freq. dielectric constant tensor:
#      x y z
#    x 1.993120 0.006950 -0.009580 
#    y 0.006950 1.982310 0.016480 
#    z -0.009580 0.016480 2.022340 
# 
# From -- ./inp_files/488185.got.cif
#   From: 2010.06.25/outbox.cif.g09.slc.cpg/sg2_245_cif.got.tgz:488185.got - 2010.06.27 13:26:56.
