data_PCOD8037120
_publ_section_title
;
Structure prediction by ZEFSAII (Michael W. Deem and Ramdas Pophale) SiO2 
 PCOD8037120
Probable space group: P -1
;
_chemical_formula_sum "Si O2"
_cell_formula_units_Z 16
_cell_length_a 9.384364
_cell_length_b 8.451177
_cell_length_c 13.113138
_cell_angle_alpha 132.950560
_cell_angle_beta 106.910360
_cell_angle_gamma 71.704228
_cell_volume 718.283491
_symmetry_space_group_name_H-M "P -1"
_symmetry_group_IT_number 2
_symmetry_cell_setting 'triclinic'
loop_
_space_group_symop_operation_xyz
x,y,z
-x,-y,-z
loop_
_atom_site_type_symbol
_atom_site_label
_atom_site_fract_x
_atom_site_fract_y
_atom_site_fract_z
Si Si1 0.882647 0.577574 0.784791
Si Si2 0.655942 0.862093 0.514287
Si Si3 0.348260 0.663067 0.030438
Si Si4 0.145663 0.062162 0.895915
Si Si5 0.854015 0.191329 0.759243
Si Si6 0.808432 0.429324 0.239632
Si Si7 0.457023 0.033372 0.890639
Si Si8 0.409027 0.321054 0.366551
O O1 0.899868 0.376661 0.778097
O O2 0.732470 0.584106 0.691321
O O3 0.017142 0.539912 0.713386
O O4 0.889515 0.803588 0.947096
O O5 0.705220 0.632040 0.364406
O O6 0.639805 0.816858 0.610300
O O7 0.500000 0.000000 0.500000
O O8 0.787938 0.010770 0.598134
O O9 0.239843 0.568392 0.887435
O O10 0.500000 0.500000 0.000000
O O11 0.272096 0.698974 0.139949
O O12 0.403975 0.877481 0.093955
O O13 0.000576 0.079663 0.802256
O O14 0.205695 0.804621 0.816011
O O15 0.282162 0.157942 0.906819
O O16 0.460599 0.808848 0.733897
O O17 0.500000 0.000000 0.000000
O O18 0.500000 0.500000 0.500000
#
# Coordination Sequence:
#
# PCOD8037120 Si02
#       8
#     2   2   2   2   2   2   2   2
#     4  12  26  47  75 111 151 190 252 307 367 438
#     4  12  28  51  72 108 152 195 249 305 367 446
#     4  12  25  43  72 107 141 190 248 301 364 429
#     4  12  25  45  76 111 152 181 252 308 367 437
#     4  12  27  47  75 108 150 199 241 309 371 432
#     4  12  27  45  76 105 148 200 241 306 377 436
#     4  12  24  43  72 106 140 190 239 300 364 429
#     4  12  26  45  73 103 147 194 241 300 365 438
#
# _framework density 22.275327000000001
#
# number of rings (size 3 to 8) (size 9 to 14) (size 15 to 20)
#    0.000    0.000    5.000    4.500    1.750    3.500 
#    0.000    0.000    0.000    0.000    0.000    0.000 
#    0.000    0.000    0.000    0.000    0.000    0.000 
#
# Total GULP energy -198358.413286 kJ/mol
# GULP energy per Si atom -12397.400830 kJ/mol
# Density = 2.222463 g / cm^3
# Si number density = 22.275327 Si / 1000 Ang^3
#
#
#
# Elastic Constant Matrix: (Units=GPa)
#
#
# Indices 1 2 3 4 5 6 
#
# 1 116.2964 16.6794 33.5190 3.2210 1.8891 -12.1727
# 2 16.6794 98.1286 42.9659 7.0132 -0.5501 -8.2113
# 3 33.5190 42.9659 131.3700 14.1857 4.8480 -9.6360
# 4 3.2210 7.0132 14.1857 35.8545 -4.9299 1.2008
# 5 1.8891 -0.5501 4.8480 -4.9299 49.6256 -6.1249
# 6 -12.1727 -8.2113 -9.6360 1.2008 -6.1249 45.7547
#
#
#
# Elastic Compliance Matrix: (Units=1/GPa)
#
#
# Indices 1 2 3 4 5 6 
#
# 1 0.009489 -0.000524 -0.002110 0.000030 0.000089 0.001997
# 2 -0.000524 0.012050 -0.003640 -0.000834 0.000594 0.001358
# 3 -0.002110 -0.003640 0.009780 -0.003150 -0.001133 0.000776
# 4 0.000030 -0.000834 -0.003150 0.029764 0.003110 -0.001170
# 5 0.000089 0.000594 -0.001133 0.003110 0.020895 0.002607
# 6 0.001997 0.001358 0.000776 -0.001170 0.002607 0.023174
#
#
# Mechanical properties :
#
#
# Convention : Reuss Voigt Hill
#
# Bulk Modulus (GPa) = 53.27086 59.12485 56.19785
# Shear Modulus (GPa) = 40.33727 43.08902 41.71315
#
# Velocity S-wave (km/s) = 4.26002 4.40293 4.33207
# Velocity P-wave (km/s) = 6.94001 7.24211 7.09267
#
# Compressibility (1/GPa) = 0.01877199
#
# Stress axis : x y z
#
# Youngs Moduli (GPa) = 105.38887 82.98799 102.25330
#
# Poissons Ratio (x) = 0.04345 0.21574
# Poissons Ratio (y) = 0.05518 0.37218
# Poissons Ratio (z) = 0.22235 0.30205
#
# Static dielectric constant tensor:
#      x y z
#    x 5.268480 0.486690 -0.118850 
#    y 0.486690 4.188550 0.014110 
#    z -0.118850 0.014110 4.126040 
# 
# 
# High freq. dielectric constant tensor:
#      x y z
#    x 1.899600 -0.001180 0.005180 
#    y -0.001180 1.879830 0.002400 
#    z 0.005180 0.002400 1.884640 
# 
# From -- ./inp_files/383589.got.cif
#   From: 2010.06.25/outbox.cif.g09.slc.cpg/sg2_192_cif.got.tgz:383589.got - 2010.06.27 13:26:56.
