data_PCOD8037326
_publ_section_title
;
Structure prediction by ZEFSAII (Michael W. Deem and Ramdas Pophale) SiO2 
 PCOD8037326
Probable space group: P -1
;
_chemical_formula_sum "Si O2"
_cell_formula_units_Z 16
_cell_length_a 14.291510
_cell_length_b 7.898945
_cell_length_c 24.185782
_cell_angle_alpha 53.740486
_cell_angle_beta 28.935621
_cell_angle_gamma 36.230194
_cell_volume 715.413529
_symmetry_space_group_name_H-M "P -1"
_symmetry_group_IT_number 2
_symmetry_cell_setting 'triclinic'
loop_
_space_group_symop_operation_xyz
x,y,z
-x,-y,-z
loop_
_atom_site_type_symbol
_atom_site_label
_atom_site_fract_x
_atom_site_fract_y
_atom_site_fract_z
Si Si1 0.711180 0.714668 0.073175
Si Si2 0.946405 0.804914 0.084967
Si Si3 0.267119 0.727163 0.324549
Si Si4 0.374009 0.419638 0.117440
Si Si5 0.656472 0.659196 0.734368
Si Si6 0.749610 0.409687 0.421502
Si Si7 0.758790 0.550139 0.512599
Si Si8 0.179969 0.211867 0.725668
O O1 0.511809 0.704520 0.208536
O O2 0.539583 0.069199 0.085874
O O3 0.000000 0.500000 0.000000
O O4 0.800422 0.551538 0.998471
O O5 0.939048 0.803668 0.155097
O O6 0.637892 0.966641 0.189553
O O7 0.000000 0.000000 0.000000
O O8 0.348877 0.462834 0.296154
O O9 0.205891 0.694652 0.424390
O O10 0.992411 0.043554 0.375670
O O11 0.393314 0.456458 0.165437
O O12 0.033060 0.684772 0.232787
O O13 0.500000 0.500000 0.000000
O O14 0.935573 0.577250 0.615859
O O15 0.500000 0.500000 0.500000
O O16 0.669475 0.573204 0.491234
O O17 0.846651 0.515233 0.309186
O O18 0.507542 0.890183 0.603952
#
# Coordination Sequence:
#
# PCOD8037326 Si02
#       8
#     2   2   2   2   2   2   2   2
#     4  12  26  47  74 106 147 192 247 301 359 436
#     4  12  25  46  76 107 143 193 249 297 359 440
#     4  12  26  47  76 108 145 195 247 300 362 441
#     4  12  28  47  74 106 147 193 242 305 374 427
#     4  12  24  47  76 108 145 192 248 297 361 448
#     4  12  28  46  69 109 149 185 241 305 367 431
#     4  12  26  48  74 104 148 196 241 295 373 441
#     4  12  26  48  70 105 145 189 240 301 370 427
#
# _framework density 22.364688000000001
#
# number of rings (size 3 to 8) (size 9 to 14) (size 15 to 20)
#    0.000    0.000    6.250    2.625    5.250    2.500 
#    0.000    0.000    0.000    0.000    0.000    0.000 
#    0.000    0.000    0.000    0.000    0.000    0.000 
#
# Total GULP energy -198357.339243 kJ/mol
# GULP energy per Si atom -12397.333703 kJ/mol
# Density = 2.231379 g / cm^3
# Si number density = 22.364688 Si / 1000 Ang^3
#
#
#
# Elastic Constant Matrix: (Units=GPa)
#
#
# Indices 1 2 3 4 5 6 
#
# 1 98.5299 28.3551 33.7971 -15.5810 -8.3434 -10.0720
# 2 28.3551 121.1491 56.5300 -10.3369 -1.8030 -8.8018
# 3 33.7971 56.5300 110.1143 -10.4315 -7.1608 -2.1234
# 4 -15.5810 -10.3369 -10.4315 46.5021 -7.4133 -4.3800
# 5 -8.3434 -1.8030 -7.1608 -7.4133 48.0545 2.1661
# 6 -10.0720 -8.8018 -2.1234 -4.3800 2.1661 34.0794
#
#
#
# Elastic Compliance Matrix: (Units=1/GPa)
#
#
# Indices 1 2 3 4 5 6 
#
# 1 0.012588 -0.001021 -0.002740 0.004073 0.002202 0.003670
# 2 -0.001021 0.011251 -0.005342 0.001113 -0.000490 0.002445
# 3 -0.002740 -0.005342 0.012814 0.000868 0.001429 -0.001370
# 4 0.004073 0.001113 0.000868 0.024435 0.004449 0.004403
# 5 0.002202 -0.000490 0.001429 0.004449 0.022083 -0.000218
# 6 0.003670 0.002445 -0.001370 0.004403 -0.000218 0.031554
#
#
# Mechanical properties :
#
#
# Convention : Reuss Voigt Hill
#
# Bulk Modulus (GPa) = 54.20741 63.01750 58.61246
# Shear Modulus (GPa) = 35.95061 39.80128 37.87595
#
# Velocity S-wave (km/s) = 4.01368 4.22316 4.11975
# Velocity P-wave (km/s) = 6.76536 7.21239 6.99245
#
# Compressibility (1/GPa) = 0.01844766
#
# Stress axis : x y z
#
# Youngs Moduli (GPa) = 79.43770 88.87896 78.04249
#
# Poissons Ratio (x) = 0.09075 0.21382
# Poissons Ratio (y) = 0.08111 0.41690
# Poissons Ratio (z) = 0.21764 0.47479
#
# Static dielectric constant tensor:
#      x y z
#    x 3.975560 -0.186190 0.097960 
#    y -0.186190 4.210910 0.058960 
#    z 0.097960 0.058960 4.264400 
# 
# 
# High freq. dielectric constant tensor:
#      x y z
#    x 1.884650 -0.013410 -0.002800 
#    y -0.013410 1.888830 0.004080 
#    z -0.002800 0.004080 1.899270 
# 
# From -- ./inp_files/611746.got.cif
#   From: 2010.06.25/outbox.cif.g09.slc.cpg/sg2_306_cif.got.tgz:611746.got - 2010.06.27 13:26:56.
