data_PCOD8037040
_publ_section_title
;
Structure prediction by ZEFSAII (Michael W. Deem and Ramdas Pophale) SiO2 
 PCOD8037040
Probable space group: P -1
;
_chemical_formula_sum "Si O2"
_cell_formula_units_Z 16
_cell_length_a 17.477091
_cell_length_b 9.549635
_cell_length_c 10.912998
_cell_angle_alpha 64.442553
_cell_angle_beta 35.235576
_cell_angle_gamma 46.933050
_cell_volume 732.393418
_symmetry_space_group_name_H-M "P -1"
_symmetry_group_IT_number 2
_symmetry_cell_setting 'triclinic'
loop_
_space_group_symop_operation_xyz
x,y,z
-x,-y,-z
loop_
_atom_site_type_symbol
_atom_site_label
_atom_site_fract_x
_atom_site_fract_y
_atom_site_fract_z
Si Si1 0.651711 0.096906 0.110754
Si Si2 0.158500 0.779017 0.835741
Si Si3 0.921814 0.718346 0.063065
Si Si4 0.101085 0.551582 0.424012
Si Si5 0.864889 0.971895 0.649410
Si Si6 0.322237 0.172733 0.437729
Si Si7 0.349027 0.846359 0.378723
Si Si8 0.676793 0.417777 0.055549
O O1 0.480050 0.121590 0.329616
O O2 0.620566 0.283395 0.149381
O O3 0.800115 0.886538 0.058616
O O4 0.701830 0.094290 0.905938
O O5 0.300463 0.773103 0.582736
O O6 0.247215 0.631486 0.889893
O O7 0.089748 0.698627 0.865626
O O8 0.000000 0.000000 0.000000
O O9 0.822352 0.781836 0.298137
O O10 0.000000 0.500000 0.000000
O O11 0.250583 0.367251 0.378494
O O12 0.000000 0.500000 0.500000
O O13 0.961157 0.735716 0.625301
O O14 0.178406 0.629905 0.208484
O O15 0.802371 0.040551 0.565780
O O16 0.000000 0.000000 0.500000
O O17 0.382608 0.992912 0.333675
O O18 0.518708 0.654017 0.165084
#
# Coordination Sequence:
#
# PCOD8037040 Si02
#       8
#     2   2   2   2   2   2   2   2
#     4  12  27  46  69 101 142 180 223 283 342 404
#     4  12  23  48  74  94 137 180 228 282 332 404
#     4  12  27  46  72 104 135 178 230 281 340 402
#     4  12  25  45  71  99 135 179 230 281 335 400
#     4  12  25  45  71  99 135 179 230 281 335 400
#     4  12  27  46  69 101 142 180 223 283 342 404
#     4  12  27  45  70 103 137 182 228 276 344 407
#     4  12  27  45  70 103 137 182 228 276 344 407
#
# _framework density 21.846184000000001
#
# number of rings (size 3 to 8) (size 9 to 14) (size 15 to 20)
#    0.000    0.000    5.000    4.500    7.000    2.000 
#    0.000    0.000    0.000    0.000    0.000    0.000 
#    0.000    0.000    0.000    0.000    0.000    0.000 
#
# Total GULP energy -198522.917360 kJ/mol
# GULP energy per Si atom -12407.682335 kJ/mol
# Density = 2.179646 g / cm^3
# Si number density = 21.846184 Si / 1000 Ang^3
#
#
#
# Elastic Constant Matrix: (Units=GPa)
#
#
# Indices 1 2 3 4 5 6 
#
# 1 122.3267 50.5793 12.6365 -3.4363 -21.0699 -2.1843
# 2 50.5793 141.8662 9.2439 13.2855 -9.6602 11.5864
# 3 12.6365 9.2439 64.4998 0.5170 -4.0233 -4.7110
# 4 -3.4363 13.2855 0.5170 37.6246 1.8908 8.1877
# 5 -21.0699 -9.6602 -4.0233 1.8908 43.8917 -7.8426
# 6 -2.1843 11.5864 -4.7110 8.1877 -7.8426 43.6423
#
#
#
# Elastic Compliance Matrix: (Units=1/GPa)
#
#
# Indices 1 2 3 4 5 6 
#
# 1 0.010693 -0.003745 -0.001155 0.001678 0.004469 0.001893
# 2 -0.003745 0.008869 -0.000674 -0.003005 -0.000149 -0.002078
# 3 -0.001155 -0.000674 0.016066 -0.000623 0.001187 0.002186
# 4 0.001678 -0.003005 -0.000623 0.028991 -0.002054 -0.004994
# 5 0.004469 -0.000149 0.001187 -0.002054 0.026069 0.005462
# 6 0.001893 -0.002078 0.002186 -0.004994 0.005462 0.025714
#
#
# Mechanical properties :
#
#
# Convention : Reuss Voigt Hill
#
# Bulk Modulus (GPa) = 40.84968 52.62358 46.73663
# Shear Modulus (GPa) = 36.84346 42.11392 39.47869
#
# Velocity S-wave (km/s) = 4.11115 4.39538 4.25564
# Velocity P-wave (km/s) = 6.42454 7.06397 6.75183
#
# Compressibility (1/GPa) = 0.02448000
#
# Stress axis : x y z
#
# Youngs Moduli (GPa) = 93.51797 112.75463 62.24516
#
# Poissons Ratio (x) = 0.42222 0.07187
# Poissons Ratio (y) = 0.35019 0.04198
# Poissons Ratio (z) = 0.10799 0.07604
#
# Static dielectric constant tensor:
#      x y z
#    x 3.850910 0.054750 -0.079820 
#    y 0.054750 3.916500 0.437570 
#    z -0.079820 0.437570 2.976710 
# 
# 
# High freq. dielectric constant tensor:
#      x y z
#    x 1.872870 0.002410 -0.001490 
#    y 0.002410 1.874820 -0.000830 
#    z -0.001490 -0.000830 1.862020 
# 
# From -- ./inp_files/274120.got.cif
#   From: 2010.06.25/outbox.cif.g09.slc.cpg/sg2_138_cif.got.tgz:274120.got - 2010.06.27 13:26:56.
