data_PCOD8037119
_publ_section_title
;
Structure prediction by ZEFSAII (Michael W. Deem and Ramdas Pophale) SiO2 
 PCOD8037119
Probable space group: P -1
;
_chemical_formula_sum "Si O2"
_cell_formula_units_Z 16
_cell_length_a 15.359942
_cell_length_b 14.352726
_cell_length_c 6.753916
_cell_angle_alpha 135.957798
_cell_angle_beta 131.251194
_cell_angle_gamma 46.118398
_cell_volume 706.464849
_symmetry_space_group_name_H-M "P -1"
_symmetry_group_IT_number 2
_symmetry_cell_setting 'triclinic'
loop_
_space_group_symop_operation_xyz
x,y,z
-x,-y,-z
loop_
_atom_site_type_symbol
_atom_site_label
_atom_site_fract_x
_atom_site_fract_y
_atom_site_fract_z
Si Si1 0.703864 0.165270 0.432118
Si Si2 0.864659 0.299904 0.687918
Si Si3 0.218935 0.180105 0.561821
Si Si4 0.950660 0.925481 0.649438
Si Si5 0.764006 0.607712 0.784116
Si Si6 0.923712 0.643457 0.728769
Si Si7 0.502530 0.657057 0.278784
Si Si8 0.409545 0.914285 0.243187
O O1 0.743660 0.291346 0.599538
O O2 0.596727 0.246920 0.557990
O O3 0.830321 0.035986 0.512655
O O4 0.647938 0.093195 0.069699
O O5 0.819072 0.453791 0.743632
O O6 0.923012 0.159143 0.418022
O O7 0.979174 0.280723 0.979446
O O8 0.087741 0.196284 0.491614
O O9 0.196736 0.251792 0.420525
O O10 0.304950 0.006743 0.392434
O O11 0.282002 0.260145 0.921782
O O12 0.000000 0.000000 0.000000
O O13 0.874969 0.611422 0.815801
O O14 0.644417 0.625253 0.502972
O O15 0.000000 0.500000 0.500000
O O16 0.476742 0.747880 0.173269
O O17 0.500000 0.500000 0.000000
O O18 0.500000 0.000000 0.500000
#
# Coordination Sequence:
#
# PCOD8037119 Si02
#       8
#     2   2   2   2   2   2   2   2
#     4  12  28  50  74 110 150 194 252 307 373 449
#     4  12  25  46  75 108 154 194 243 306 379 448
#     4  12  24  44  73 106 145 186 245 301 374 439
#     4  12  25  45  75 106 148 193 243 304 375 445
#     4  12  27  46  73 110 148 193 252 308 369 452
#     4  12  24  43  71 111 148 193 242 308 378 443
#     4  12  30  50  76 107 151 202 253 313 374 443
#     4  12  27  48  78 107 146 200 255 307 372 440
#
# _framework density 22.647974999999999
#
# number of rings (size 3 to 8) (size 9 to 14) (size 15 to 20)
#    0.000    0.000    3.750    6.000    5.250    4.000 
#    0.000    0.000    0.000    0.000    0.000    0.000 
#    0.000    0.000    0.000    0.000    0.000    0.000 
#
# Total GULP energy -198433.899236 kJ/mol
# GULP energy per Si atom -12402.118702 kJ/mol
# Density = 2.259643 g / cm^3
# Si number density = 22.647975 Si / 1000 Ang^3
#
#
#
# Elastic Constant Matrix: (Units=GPa)
#
#
# Indices 1 2 3 4 5 6 
#
# 1 96.5214 16.3080 31.7316 1.8442 6.7266 9.0502
# 2 16.3080 105.4355 52.1686 4.9474 -4.5327 11.5908
# 3 31.7316 52.1686 186.1039 0.4179 5.1856 2.6199
# 4 1.8442 4.9474 0.4179 39.6625 -4.5709 -3.5997
# 5 6.7266 -4.5327 5.1856 -4.5709 40.6995 5.3733
# 6 9.0502 11.5908 2.6199 -3.5997 5.3733 41.3963
#
#
#
# Elastic Compliance Matrix: (Units=1/GPa)
#
#
# Indices 1 2 3 4 5 6 
#
# 1 0.011344 -0.000745 -0.001651 -0.000782 -0.001567 -0.002032
# 2 -0.000745 0.011683 -0.003157 -0.001448 0.002101 -0.003307
# 3 -0.001651 -0.003157 0.006553 0.000376 -0.001002 0.000993
# 4 -0.000782 -0.001448 0.000376 0.025940 0.002506 0.002483
# 5 -0.001567 0.002101 -0.001002 0.002506 0.025912 -0.003328
# 6 -0.002032 -0.003307 0.000993 0.002483 -0.003328 0.026112
#
#
# Mechanical properties :
#
#
# Convention : Reuss Voigt Hill
#
# Bulk Modulus (GPa) = 54.12976 65.38637 59.75807
# Shear Modulus (GPa) = 40.06167 43.54185 41.80176
#
# Velocity S-wave (km/s) = 4.21037 4.38945 4.30084
# Velocity P-wave (km/s) = 6.89846 7.39074 7.14884
#
# Compressibility (1/GPa) = 0.01847413
#
# Stress axis : x y z
#
# Youngs Moduli (GPa) = 88.15418 85.59123 152.60341
#
# Poissons Ratio (x) = 0.06375 0.25200
# Poissons Ratio (y) = 0.06566 0.48174
# Poissons Ratio (z) = 0.14557 0.27020
#
# Static dielectric constant tensor:
#      x y z
#    x 4.272980 0.141820 -0.013210 
#    y 0.141820 3.815170 0.140670 
#    z -0.013210 0.140670 4.229390 
# 
# 
# High freq. dielectric constant tensor:
#      x y z
#    x 1.903880 0.003490 0.000030 
#    y 0.003490 1.901570 0.001230 
#    z 0.000030 0.001230 1.912530 
# 
# From -- ./inp_files/98716.got.cif
#   From: 2010.06.25/outbox.cif.g09.slc.cpg/sg2_50_cif.got.tgz:98716.got - 2010.06.27 13:26:56.
