data_PCOD8037602
_publ_section_title
;
Structure prediction by ZEFSAII (Michael W. Deem and Ramdas Pophale) SiO2 
 PCOD8037602
Probable space group: P -1
;
_chemical_formula_sum "Si O2"
_cell_formula_units_Z 16
_cell_length_a 14.098080
_cell_length_b 6.789021
_cell_length_c 8.587343
_cell_angle_alpha 104.370366
_cell_angle_beta 104.479350
_cell_angle_gamma 103.675873
_cell_volume 730.830508
_symmetry_space_group_name_H-M "P -1"
_symmetry_group_IT_number 2
_symmetry_cell_setting 'triclinic'
loop_
_space_group_symop_operation_xyz
x,y,z
-x,-y,-z
loop_
_atom_site_type_symbol
_atom_site_label
_atom_site_fract_x
_atom_site_fract_y
_atom_site_fract_z
Si Si1 0.943870 0.968481 0.807641
Si Si2 0.445743 0.366303 0.304866
Si Si3 0.589463 0.199769 0.132357
Si Si4 0.100593 0.444323 0.487529
Si Si5 0.695479 0.442120 0.921036
Si Si6 0.246646 0.900274 0.613493
Si Si7 0.272612 0.965556 0.290695
Si Si8 0.861739 0.780391 0.238892
O O1 0.838199 0.018694 0.797211
O O2 0.018151 0.128395 0.744232
O O3 0.920262 0.725974 0.693038
O O4 0.000000 0.000000 0.000000
O O5 0.500000 0.500000 0.500000
O O6 0.543317 0.344110 0.248859
O O7 0.388191 0.494461 0.202487
O O8 0.364874 0.137238 0.271783
O O9 0.661941 0.092429 0.232286
O O10 0.647559 0.347099 0.045899
O O11 0.500000 0.000000 0.000000
O O12 0.183639 0.656440 0.498131
O O13 0.147832 0.368720 0.644349
O O14 0.000000 0.500000 0.500000
O O15 0.730753 0.271881 0.803483
O O16 0.794341 0.648525 0.041870
O O17 0.292448 0.012272 0.491674
O O18 0.175270 0.018931 0.691823
#
# Coordination Sequence:
#
# PCOD8037602 Si02
#       8
#     2   2   2   2   2   2   2   2
#     4  12  28  46  75 107 150 193 241 301 360 440
#     4  12  29  49  75 107 148 193 249 304 370 438
#     4  12  26  49  77 107 145 194 244 307 368 429
#     4  12  25  48  74 106 147 197 243 297 368 431
#     4  12  28  48  77 107 149 191 245 308 369 436
#     4  12  27  47  77 107 150 191 246 302 363 443
#     4  12  29  49  70 111 150 191 248 299 368 438
#     4  12  26  49  74 110 146 194 245 298 365 440
#
# _framework density 21.892900000000001
#
# number of rings (size 3 to 8) (size 9 to 14) (size 15 to 20)
#    0.000    0.000    5.000    3.750   12.250    1.500 
#    0.000    0.000    0.000    0.000    0.000    0.000 
#    0.000    0.000    0.000    0.000    0.000    0.000 
#
# Total GULP energy -198512.073226 kJ/mol
# GULP energy per Si atom -12407.004577 kJ/mol
# Density = 2.184307 g / cm^3
# Si number density = 21.892900 Si / 1000 Ang^3
#
#
#
# Elastic Constant Matrix: (Units=GPa)
#
#
# Indices 1 2 3 4 5 6 
#
# 1 93.9136 21.2318 14.7085 -6.7047 3.2679 -7.1551
# 2 21.2318 75.4471 23.8217 -3.0220 10.1111 -13.1667
# 3 14.7085 23.8217 120.7059 -7.4225 12.4460 -11.3616
# 4 -6.7047 -3.0220 -7.4225 45.6451 -7.1618 4.5265
# 5 3.2679 10.1111 12.4460 -7.1618 40.1527 1.0090
# 6 -7.1551 -13.1667 -11.3616 4.5265 1.0090 39.4909
#
#
#
# Elastic Compliance Matrix: (Units=1/GPa)
#
#
# Indices 1 2 3 4 5 6 
#
# 1 0.011555 -0.002869 -0.000709 0.001350 0.000223 0.000773
# 2 -0.002869 0.015898 -0.002074 -0.000663 -0.003355 0.004346
# 3 -0.000709 -0.002074 0.009221 0.000735 -0.002193 0.001805
# 4 0.001350 -0.000663 0.000735 0.023060 0.004005 -0.002510
# 5 0.000223 -0.003355 -0.002193 0.004005 0.027198 -0.002863
# 6 0.000773 0.004346 0.001805 -0.002510 -0.002863 0.027791
#
#
# Mechanical properties :
#
#
# Convention : Reuss Voigt Hill
#
# Bulk Modulus (GPa) = 39.41511 45.51007 42.46259
# Shear Modulus (GPa) = 37.17930 40.41140 38.79535
#
# Velocity S-wave (km/s) = 4.12544 4.30102 4.21414
# Velocity P-wave (km/s) = 6.38240 6.74520 6.56630
#
# Compressibility (1/GPa) = 0.02537098
#
# Stress axis : x y z
#
# Youngs Moduli (GPa) = 86.54081 62.90169 108.44290
#
# Poissons Ratio (x) = 0.18046 0.07690
# Poissons Ratio (y) = 0.24828 0.22488
# Poissons Ratio (z) = 0.06137 0.13044
#
# Static dielectric constant tensor:
#      x y z
#    x 3.788660 0.001330 0.069910 
#    y 0.001330 4.331680 0.154660 
#    z 0.069910 0.154660 4.209480 
# 
# 
# High freq. dielectric constant tensor:
#      x y z
#    x 1.877100 -0.001790 0.000750 
#    y -0.001790 1.873110 0.001710 
#    z 0.000750 0.001710 1.879640 
# 
# From -- ./inp_files/38088.got.cif
#   From: 2010.06.25/outbox.cif.g09.slc.cpg/sg2_20_cif.got.tgz:38088.got - 2010.06.27 13:26:56.
