data_PCOD8037406
_publ_section_title
;
Structure prediction by ZEFSAII (Michael W. Deem and Ramdas Pophale) SiO2 
 PCOD8037406
Probable space group: P -1
;
_chemical_formula_sum "Si O2"
_cell_formula_units_Z 16
_cell_length_a 9.577411
_cell_length_b 18.716991
_cell_length_c 19.222418
_cell_angle_alpha 154.230989
_cell_angle_beta 153.601820
_cell_angle_gamma 37.580260
_cell_volume 664.255382
_symmetry_space_group_name_H-M "P -1"
_symmetry_group_IT_number 2
_symmetry_cell_setting 'triclinic'
loop_
_space_group_symop_operation_xyz
x,y,z
-x,-y,-z
loop_
_atom_site_type_symbol
_atom_site_label
_atom_site_fract_x
_atom_site_fract_y
_atom_site_fract_z
Si Si1 0.834772 0.121062 0.314467
Si Si2 0.259273 0.992126 0.169204
Si Si3 0.404612 0.340637 0.771647
Si Si4 0.637848 0.446981 0.307727
Si Si5 0.400750 0.714805 0.346038
Si Si6 0.735235 0.874808 0.180427
Si Si7 0.430417 0.371006 0.296944
Si Si8 0.125819 0.849714 0.122617
O O1 0.528332 0.184749 0.195909
O O2 0.029550 0.297441 0.571010
O O3 0.751290 0.016688 0.254173
O O4 0.027162 0.021174 0.258211
O O5 0.321711 0.157438 0.388303
O O6 0.606268 0.954816 0.263103
O O7 0.124944 0.851216 0.039355
O O8 0.000000 0.000000 0.000000
O O9 0.519138 0.354860 0.755206
O O10 0.526432 0.175910 0.716809
O O11 0.500000 0.500000 0.000000
O O12 0.395696 0.559117 0.258945
O O13 0.586940 0.460137 0.378572
O O14 0.000000 0.500000 0.500000
O O15 0.547938 0.258666 0.082617
O O16 0.065649 0.794894 0.267109
O O17 0.500000 0.500000 0.500000
O O18 0.060185 0.318058 0.077075
#
# Coordination Sequence:
#
# PCOD8037406 Si02
#       8
#     2   2   2   2   2   2   2   2
#     4  12  24  49  79 105 152 197 260 322 375 456
#     4  12  28  47  77 113 151 200 257 319 394 465
#     4  12  26  48  79 113 151 203 258 320 390 461
#     4  12  28  47  74 108 160 204 252 316 394 465
#     4  12  26  51  74 113 160 200 258 321 392 472
#     4  12  27  48  76 112 148 206 256 323 391 455
#     4  12  28  46  73 112 149 203 259 315 386 460
#     4  12  25  49  76 106 149 198 264 316 379 458
#
# _framework density 24.087121
#
# number of rings (size 3 to 8) (size 9 to 14) (size 15 to 20)
#    0.000    0.000    3.750    5.250    8.750    0.000 
#    0.000    0.000    0.000    0.000    0.000    0.000 
#    0.000    0.000    0.000    0.000    0.000    0.000 
#
# Total GULP energy -198372.203919 kJ/mol
# GULP energy per Si atom -12398.262745 kJ/mol
# Density = 2.403230 g / cm^3
# Si number density = 24.087121 Si / 1000 Ang^3
#
#
#
# Elastic Constant Matrix: (Units=GPa)
#
#
# Indices 1 2 3 4 5 6 
#
# 1 195.0572 62.6174 52.6972 5.5811 -2.1171 27.2534
# 2 62.6174 117.3503 12.4993 1.4177 -6.7077 21.6050
# 3 52.6972 12.4993 124.1470 6.6957 -5.0321 5.8196
# 4 5.5811 1.4177 6.6957 31.7271 -0.7677 -0.3601
# 5 -2.1171 -6.7077 -5.0321 -0.7677 48.1508 3.4696
# 6 27.2534 21.6050 5.8196 -0.3601 3.4696 40.2760
#
#
#
# Elastic Compliance Matrix: (Units=1/GPa)
#
#
# Indices 1 2 3 4 5 6 
#
# 1 0.007225 -0.003054 -0.002599 -0.000623 -0.000183 -0.002865
# 2 -0.003054 0.010942 0.000456 -0.000052 0.001726 -0.004018
# 3 -0.002599 0.000456 0.009224 -0.001487 0.000883 0.000092
# 4 -0.000623 -0.000052 -0.001487 0.031961 0.000253 0.000928
# 5 -0.000183 0.001726 0.000883 0.000253 0.021296 -0.002762
# 6 -0.002865 -0.004018 0.000092 0.000928 -0.002762 0.029156
#
#
# Mechanical properties :
#
#
# Convention : Reuss Voigt Hill
#
# Bulk Modulus (GPa) = 58.83548 76.90915 67.87231
# Shear Modulus (GPa) = 39.72551 44.61349 42.16950
#
# Velocity S-wave (km/s) = 4.06549 4.30836 4.18868
# Velocity P-wave (km/s) = 6.82032 7.53314 7.18557
#
# Compressibility (1/GPa) = 0.01699655
#
# Stress axis : x y z
#
# Youngs Moduli (GPa) = 138.39994 91.39464 108.41308
#
# Poissons Ratio (x) = 0.27912 0.28177
# Poissons Ratio (y) = 0.42268 -0.04942
# Poissons Ratio (z) = 0.35970 -0.04166
#
# Static dielectric constant tensor:
#      x y z
#    x 6.038030 1.130720 0.951670 
#    y 1.130720 5.417960 0.316860 
#    z 0.951670 0.316860 5.138970 
# 
# 
# High freq. dielectric constant tensor:
#      x y z
#    x 1.963990 0.001670 0.003070 
#    y 0.001670 1.966210 -0.006450 
#    z 0.003070 -0.006450 1.972080 
# 
# From -- ./inp_files/562109.got.cif
#   From: 2010.06.25/outbox.cif.g09.slc.cpg/sg2_282_cif.got.tgz:562109.got - 2010.06.27 13:26:56.
