data_PCOD8037499
_publ_section_title
;
Structure prediction by ZEFSAII (Michael W. Deem and Ramdas Pophale) SiO2 
 PCOD8037499
Probable space group: P -1
;
_chemical_formula_sum "Si O2"
_cell_formula_units_Z 16
_cell_length_a 12.416999
_cell_length_b 5.509333
_cell_length_c 11.556972
_cell_angle_alpha 86.180119
_cell_angle_beta 69.120428
_cell_angle_gamma 66.272331
_cell_volume 673.514132
_symmetry_space_group_name_H-M "P -1"
_symmetry_group_IT_number 2
_symmetry_cell_setting 'triclinic'
loop_
_space_group_symop_operation_xyz
x,y,z
-x,-y,-z
loop_
_atom_site_type_symbol
_atom_site_label
_atom_site_fract_x
_atom_site_fract_y
_atom_site_fract_z
Si Si1 0.743390 0.980618 0.828451
Si Si2 0.864310 0.185775 0.589583
Si Si3 0.911044 0.021679 0.139890
Si Si4 0.457608 0.273561 0.576790
Si Si5 0.478161 0.155858 0.830958
Si Si6 0.044157 0.544793 0.261316
Si Si7 0.670121 0.225382 0.078364
Si Si8 0.823970 0.415536 0.365736
O O1 0.790561 0.034572 0.685134
O O2 0.603477 0.996404 0.862542
O O3 0.847593 0.698689 0.838500
O O4 0.739226 0.179794 0.928445
O O5 0.877819 0.380526 0.674270
O O6 0.782342 0.309158 0.501772
O O7 0.000000 0.000000 0.500000
O O8 0.970272 0.730360 0.178462
O O9 0.767592 0.123266 0.149744
O O10 0.908257 0.209755 0.242583
O O11 0.000000 0.000000 0.000000
O O12 0.500000 0.500000 0.500000
O O13 0.514978 0.190445 0.684476
O O14 0.306047 0.379226 0.644838
O O15 0.500000 0.000000 0.500000
O O16 0.409248 0.457719 0.895616
O O17 0.404390 0.965832 0.877502
O O18 0.926911 0.516579 0.372920
#
# Coordination Sequence:
#
# PCOD8037499 Si02
#       8
#     2   2   2   2   2   2   2   2
#     4  12  29  47  77 111 151 203 256 316 386 468
#     4  12  25  46  69 109 153 191 252 310 386 455
#     4  12  27  48  78 109 153 197 257 321 388 458
#     4  12  28  48  77 112 152 205 259 314 385 456
#     4  12  28  52  79 114 156 206 259 319 383 461
#     4  12  26  44  75 109 149 196 255 311 395 449
#     4  12  28  52  79 113 154 203 264 316 387 456
#     4  12  26  47  73 109 151 199 251 322 380 462
#
# _framework density 23.755997000000001
#
# number of rings (size 3 to 8) (size 9 to 14) (size 15 to 20)
#    0.000    0.000    3.750    4.875    8.750    1.000 
#    0.000    0.000    0.000    0.000    0.000    0.000 
#    0.000    0.000    0.000    0.000    0.000    0.000 
#
# Total GULP energy -198254.555395 kJ/mol
# GULP energy per Si atom -12390.909712 kJ/mol
# Density = 2.370193 g / cm^3
# Si number density = 23.755997 Si / 1000 Ang^3
#
#
#
# Elastic Constant Matrix: (Units=GPa)
#
#
# Indices 1 2 3 4 5 6 
#
# 1 108.5677 41.1805 0.6528 7.7570 -5.6027 -18.1331
# 2 41.1805 136.6738 28.5828 11.2309 -19.5942 -7.3019
# 3 0.6528 28.5828 114.3031 6.4128 -1.2941 -1.4989
# 4 7.7570 11.2309 6.4128 36.5405 -6.6245 1.7804
# 5 -5.6027 -19.5942 -1.2941 -6.6245 34.7789 -4.0788
# 6 -18.1331 -7.3019 -1.4989 1.7804 -4.0788 44.2597
#
#
#
# Elastic Compliance Matrix: (Units=1/GPa)
#
#
# Indices 1 2 3 4 5 6 
#
# 1 0.011247 -0.003176 0.000885 -0.001732 0.000219 0.004204
# 2 -0.003176 0.009532 -0.002245 -0.001050 0.004653 0.000667
# 3 0.000885 -0.002245 0.009372 -0.001336 -0.000996 0.000271
# 4 -0.001732 -0.001050 -0.001336 0.029179 0.004439 -0.001693
# 5 0.000219 0.004653 -0.000996 0.004439 0.032647 0.003654
# 6 0.004204 0.000667 0.000271 -0.001693 0.003654 0.024840
#
#
# Mechanical properties :
#
#
# Convention : Reuss Voigt Hill
#
# Bulk Modulus (GPa) = 47.43950 55.59744 51.51847
# Shear Modulus (GPa) = 37.61764 42.39105 40.00435
#
# Velocity S-wave (km/s) = 3.98364 4.22884 4.10807
# Velocity P-wave (km/s) = 6.41654 6.87739 6.65096
#
# Compressibility (1/GPa) = 0.02107948
#
# Stress axis : x y z
#
# Youngs Moduli (GPa) = 88.91098 104.90892 106.69751
#
# Poissons Ratio (x) = 0.33314 -0.09439
# Poissons Ratio (y) = 0.28234 0.23955
# Poissons Ratio (z) = -0.07865 0.23553
#
# Static dielectric constant tensor:
#      x y z
#    x 4.013430 0.322100 -0.124200 
#    y 0.322100 4.306900 0.429850 
#    z -0.124200 0.429850 3.600110 
# 
# 
# High freq. dielectric constant tensor:
#      x y z
#    x 1.955530 -0.011500 0.006490 
#    y -0.011500 1.941940 0.000050 
#    z 0.006490 0.000050 1.962720 
# 
# From -- ./inp_files/410452.got.cif
#   From: 2010.06.25/outbox.cif.g09.slc.cpg/sg2_206_cif.got.tgz:410452.got - 2010.06.27 13:26:56.
