data_PCOD8037657
_publ_section_title
;
Structure prediction by ZEFSAII (Michael W. Deem and Ramdas Pophale) SiO2 
 PCOD8037657
Probable space group: P -1
;
_chemical_formula_sum "Si O2"
_cell_formula_units_Z 16
_cell_length_a 21.530677
_cell_length_b 18.546185
_cell_length_c 8.486579
_cell_angle_alpha 135.116178
_cell_angle_beta 31.559038
_cell_angle_gamma 155.257038
_cell_volume 708.557242
_symmetry_space_group_name_H-M "P -1"
_symmetry_group_IT_number 2
_symmetry_cell_setting 'triclinic'
loop_
_space_group_symop_operation_xyz
x,y,z
-x,-y,-z
loop_
_atom_site_type_symbol
_atom_site_label
_atom_site_fract_x
_atom_site_fract_y
_atom_site_fract_z
Si Si1 0.528612 0.498758 0.754634
Si Si2 0.877375 0.600488 0.055066
Si Si3 0.656472 0.311958 0.833013
Si Si4 0.146522 0.667707 0.833665
Si Si5 0.123386 0.105243 0.048051
Si Si6 0.512158 0.013057 0.181298
Si Si7 0.716318 0.834527 0.713139
Si Si8 0.229055 0.997301 0.840308
O O1 0.664464 0.492708 0.425335
O O2 0.633138 0.664572 0.686061
O O3 0.500000 0.500000 0.000000
O O4 0.283555 0.305668 0.948497
O O5 0.831852 0.491771 0.839656
O O6 0.017619 0.646843 0.958577
O O7 0.001061 0.783954 0.998458
O O8 0.728852 0.332053 0.531802
O O9 0.614953 0.176170 0.794565
O O10 0.452735 0.241286 0.162412
O O11 0.275480 0.832650 0.932701
O O12 0.000000 0.500000 0.000000
O O13 0.955424 0.007976 0.399876
O O14 0.251941 0.095847 0.804169
O O15 0.000000 0.000000 0.000000
O O16 0.406350 0.040852 0.506516
O O17 0.500000 0.000000 0.000000
O O18 0.724232 0.916797 0.964959
#
# Coordination Sequence:
#
# PCOD8037657 Si02
#       8
#     2   2   2   2   2   2   2   2
#     4  12  27  48  77 109 149 197 256 304 374 448
#     4  12  27  47  76 107 152 198 245 313 371 444
#     4  12  27  49  74 108 153 193 248 306 374 443
#     4  12  27  48  74 109 147 195 250 303 374 444
#     4  12  28  47  75 112 147 195 250 309 376 442
#     4  12  28  49  75 108 147 197 249 307 369 447
#     4  12  26  51  76 108 150 203 246 311 373 443
#     4  12  25  50  73 102 152 194 250 306 376 439
#
# _framework density 22.581098000000001
#
# number of rings (size 3 to 8) (size 9 to 14) (size 15 to 20)
#    0.000    0.000    5.000    4.125   10.500    1.000 
#    0.000    0.000    0.000    0.000    0.000    0.000 
#    0.000    0.000    0.000    0.000    0.000    0.000 
#
# Total GULP energy -198232.059402 kJ/mol
# GULP energy per Si atom -12389.503713 kJ/mol
# Density = 2.252970 g / cm^3
# Si number density = 22.581098 Si / 1000 Ang^3
#
#
#
# Elastic Constant Matrix: (Units=GPa)
#
#
# Indices 1 2 3 4 5 6 
#
# 1 404.2643 227.0468 -92.4922 -198.5135 -101.0662 -143.5332
# 2 227.0468 267.1271 -23.9855 -123.8661 -46.4962 -74.3828
# 3 -92.4922 -23.9855 156.9205 84.4269 36.8593 56.2690
# 4 -198.5135 -123.8661 84.4269 182.6211 67.1101 115.0246
# 5 -101.0662 -46.4962 36.8593 67.1101 69.6236 51.9215
# 6 -143.5332 -74.3828 56.2690 115.0246 51.9215 131.9865
#
#
#
# Elastic Compliance Matrix: (Units=1/GPa)
#
#
# Indices 1 2 3 4 5 6 
#
# 1 0.008360 -0.004421 0.001019 0.002637 0.004554 0.002076
# 2 -0.004421 0.008106 -0.002179 0.003335 -0.001998 -0.001431
# 3 0.001019 -0.002179 0.009132 -0.004414 -0.000611 0.000074
# 4 0.002637 0.003335 -0.004414 0.019818 -0.003926 -0.009098
# 5 0.004554 -0.001998 -0.000611 -0.003926 0.025681 -0.002595
# 6 0.002076 -0.001431 0.000074 -0.009098 -0.002595 0.017945
#
#
# Mechanical properties :
#
#
# Convention : Reuss Voigt Hill
#
# Bulk Modulus (GPa) = 69.26635 116.60558 92.93596
# Shear Modulus (GPa) = 47.61223 124.69576 86.15399
#
# Velocity S-wave (km/s) = 4.59682 7.43917 6.18352
# Velocity P-wave (km/s) = 7.67564 11.20442 9.60350
#
# Compressibility (1/GPa) = 0.01443703
#
# Stress axis : x y z
#
# Youngs Moduli (GPa) = 119.61803 123.37271 109.50497
#
# Poissons Ratio (x) = 0.54539 -0.11159
# Poissons Ratio (y) = 0.52879 0.23857
# Poissons Ratio (z) = -0.12189 0.26878
#
# Static dielectric constant tensor:
#      x y z
#    x 3.955960 -0.047520 -0.296480 
#    y -0.047520 4.213590 0.024290 
#    z -0.296480 0.024290 3.841530 
# 
# 
# High freq. dielectric constant tensor:
#      x y z
#    x 1.901470 0.006020 0.000590 
#    y 0.006020 1.912460 0.000660 
#    z 0.000590 0.000660 1.897910 
# 
# From -- ./inp_files/307405.got.cif
#   From: 2010.06.25/outbox.cif.g09.slc.cpg/sg2_154_cif.got.tgz:307405.got - 2010.06.27 13:26:56.
