data_PCOD8037668
_publ_section_title
;
Structure prediction by ZEFSAII (Michael W. Deem and Ramdas Pophale) SiO2 
 PCOD8037668
Probable space group: P -1
;
_chemical_formula_sum "Si O2"
_cell_formula_units_Z 14
_cell_length_a 12.079229
_cell_length_b 10.893530
_cell_length_c 5.382428
_cell_angle_alpha 105.369080
_cell_angle_beta 94.005973
_cell_angle_gamma 58.885404
_cell_volume 582.738596
_symmetry_space_group_name_H-M "P -1"
_symmetry_group_IT_number 2
_symmetry_cell_setting 'triclinic'
loop_
_space_group_symop_operation_xyz
x,y,z
-x,-y,-z
loop_
_atom_site_type_symbol
_atom_site_label
_atom_site_fract_x
_atom_site_fract_y
_atom_site_fract_z
Si Si1 0.811920 0.911708 0.904589
Si Si2 0.991435 0.354009 0.921351
Si Si3 0.712445 0.438591 0.016691
Si Si4 0.427001 0.082564 0.284395
Si Si5 0.704571 0.227516 0.217977
Si Si6 0.032729 0.852314 0.569870
Si Si7 0.581803 0.614987 0.587262
O O1 0.710609 0.907406 0.699906
O O2 0.872991 0.763687 0.995929
O O3 0.932071 0.918553 0.815173
O O4 0.730940 0.061565 0.134556
O O5 0.860129 0.395352 0.066843
O O6 0.989994 0.272844 0.624121
O O7 0.000000 0.500000 0.000000
O O8 0.704698 0.288325 0.969122
O O9 0.629582 0.536009 0.289617
O O10 0.659431 0.516537 0.786504
O O11 0.399356 0.246549 0.346396
O O12 0.500000 0.000000 0.500000
O O13 0.500000 0.000000 0.000000
O O14 0.815923 0.236633 0.388984
O O15 0.568610 0.335648 0.389922
O O16 0.000000 0.000000 0.500000
#
# Coordination Sequence:
#
# PCOD8037668 Si02
#       7
#     2   2   2   2   2   2   2
#     4  12  27  48  80 113 151 206 265 330 394 469
#     4  12  28  50  78 112 160 209 264 327 395 475
#     4  12  27  50  76 115 157 206 263 321 399 470
#     4  12  28  51  78 115 156 204 266 329 394 477
#     4  12  25  50  78 118 154 205 268 327 400 472
#     4  12  26  46  80 115 156 205 262 329 397 472
#     4  12  28  50  78 113 159 209 260 328 394 470
#
# _framework density 24.024494000000001
#
# number of rings (size 3 to 8) (size 9 to 14) (size 15 to 20)
#    0.000    0.000    4.286    4.714    6.000    1.714 
#    0.000    0.000    0.000    0.000    0.000    0.000 
#    0.000    0.000    0.000    0.000    0.000    0.000 
#
# Total GULP energy -173505.859554 kJ/mol
# GULP energy per Si atom -12393.275682 kJ/mol
# Density = 2.396981 g / cm^3
# Si number density = 24.024494 Si / 1000 Ang^3
#
#
#
# Elastic Constant Matrix: (Units=GPa)
#
#
# Indices 1 2 3 4 5 6 
#
# 1 115.8542 32.3606 11.3591 -0.2253 9.0519 -24.9920
# 2 32.3606 165.6579 44.3068 -5.4227 7.6917 1.9141
# 3 11.3591 44.3068 89.0449 -8.2766 2.7593 -8.9229
# 4 -0.2253 -5.4227 -8.2766 39.6967 -6.2082 5.2419
# 5 9.0519 7.6917 2.7593 -6.2082 44.4357 1.7634
# 6 -24.9920 1.9141 -8.9229 5.2419 1.7634 57.4326
#
#
#
# Elastic Compliance Matrix: (Units=1/GPa)
#
#
# Indices 1 2 3 4 5 6 
#
# 1 0.010388 -0.002061 0.000137 -0.001157 -0.002119 0.004781
# 2 -0.002061 0.007449 -0.003562 0.000409 -0.000523 -0.001720
# 3 0.000137 -0.003562 0.013382 0.002024 -0.000042 0.002074
# 4 -0.001157 0.000409 0.002024 0.026631 0.003869 -0.002752
# 5 -0.002119 -0.000523 -0.000042 0.003869 0.023649 -0.001991
# 6 0.004781 -0.001720 0.002074 -0.002752 -0.001991 0.020184
#
#
# Mechanical properties :
#
#
# Convention : Reuss Voigt Hill
#
# Bulk Modulus (GPa) = 49.38347 60.73442 55.05894
# Shear Modulus (GPa) = 41.87461 47.14836 44.51149
#
# Velocity S-wave (km/s) = 4.17945 4.43483 4.30903
# Velocity P-wave (km/s) = 6.62499 7.18044 6.90830
#
# Compressibility (1/GPa) = 0.02024969
#
# Stress axis : x y z
#
# Youngs Moduli (GPa) = 96.26079 134.24095 74.72543
#
# Poissons Ratio (x) = 0.27665 -0.01027
# Poissons Ratio (y) = 0.19838 0.26616
# Poissons Ratio (z) = -0.01323 0.47815
#
# Static dielectric constant tensor:
#      x y z
#    x 4.470920 -0.114510 0.216760 
#    y -0.114510 4.937700 0.115190 
#    z 0.216760 0.115190 3.955060 
# 
# 
# High freq. dielectric constant tensor:
#      x y z
#    x 1.975140 -0.004840 -0.000960 
#    y -0.004840 1.984340 0.008810 
#    z -0.000960 0.008810 1.943320 
# 
# From -- ./inp_files/71879.got.cif
#   From: 2010.06.25/outbox.cif.g09.slc.cpg/sg2_36_cif.got.tgz:71879.got - 2010.06.27 13:26:56.
