data_PCOD8037291
_publ_section_title
;
Structure prediction by ZEFSAII (Michael W. Deem and Ramdas Pophale) SiO2 
 PCOD8037291
Probable space group: P -1
;
_chemical_formula_sum "Si O2"
_cell_formula_units_Z 16
_cell_length_a 8.498625
_cell_length_b 9.063418
_cell_length_c 12.476803
_cell_angle_alpha 50.843969
_cell_angle_beta 94.702637
_cell_angle_gamma 82.811404
_cell_volume 722.993894
_symmetry_space_group_name_H-M "P -1"
_symmetry_group_IT_number 2
_symmetry_cell_setting 'triclinic'
loop_
_space_group_symop_operation_xyz
x,y,z
-x,-y,-z
loop_
_atom_site_type_symbol
_atom_site_label
_atom_site_fract_x
_atom_site_fract_y
_atom_site_fract_z
Si Si1 0.418743 0.133135 0.232568
Si Si2 0.451092 0.311215 0.534601
Si Si3 0.105957 0.292103 0.588968
Si Si4 0.947850 0.705986 0.850341
Si Si5 0.459828 0.820920 0.013586
Si Si6 0.562799 0.375426 0.294284
Si Si7 0.933340 0.223627 0.401172
Si Si8 0.916635 0.031229 0.098234
O O1 0.241451 0.242524 0.209906
O O2 0.544228 0.228087 0.264640
O O3 0.427323 0.901814 0.349852
O O4 0.450735 0.181907 0.091453
O O5 0.500000 0.500000 0.500000
O O6 0.294423 0.285769 0.600274
O O7 0.432460 0.351612 0.388379
O O8 0.076380 0.171114 0.747318
O O9 0.000000 0.500000 0.500000
O O10 0.054329 0.244754 0.491458
O O11 0.044305 0.682724 0.754983
O O12 0.987192 0.858812 0.867207
O O13 0.000000 0.500000 0.000000
O O14 0.533077 0.605761 0.163127
O O15 0.500000 0.000000 0.000000
O O16 0.267193 0.847639 0.980708
O O17 0.744622 0.301040 0.386161
O O18 0.000000 0.000000 0.500000
O O19 0.000000 0.000000 0.000000
#
# Coordination Sequence:
#
# PCOD8037291 Si02
#       8
#     2   2   2   2   2   2   2   2
#     4  12  24  47  70 104 144 186 242 293 355 426
#     4  12  26  46  71 105 142 184 239 291 361 424
#     4  12  28  46  75 105 145 190 238 299 360 429
#     4  12  26  45  75 106 143 190 241 297 356 425
#     4  12  26  47  72 103 145 188 241 295 355 428
#     4  12  26  44  75 105 142 191 236 296 358 427
#     4  12  24  47  73 107 146 185 240 295 360 425
#     4  12  28  49  73 104 146 190 241 296 360 427
#
# _framework density 22.130199999999999
#
# number of rings (size 3 to 8) (size 9 to 14) (size 15 to 20)
#    0.000    0.000    2.500    7.500    7.000    0.000 
#    0.000    0.000    0.000    0.000    0.000    0.000 
#    0.000    0.000    0.000    0.000    0.000    0.000 
#
# Total GULP energy -198276.330589 kJ/mol
# GULP energy per Si atom -12392.270662 kJ/mol
# Density = 2.207983 g / cm^3
# Si number density = 22.130200 Si / 1000 Ang^3
#
#
#
# Elastic Constant Matrix: (Units=GPa)
#
#
# Indices 1 2 3 4 5 6 
#
# 1 99.2022 30.3733 36.3736 -6.4965 1.2885 0.8738
# 2 30.3733 111.8507 60.2685 -14.0679 -7.7266 -3.3671
# 3 36.3736 60.2685 181.4783 -15.3727 -20.0941 -8.2460
# 4 -6.4965 -14.0679 -15.3727 60.0151 -12.1130 1.4702
# 5 1.2885 -7.7266 -20.0941 -12.1130 44.3092 0.6337
# 6 0.8738 -3.3671 -8.2460 1.4702 0.6337 33.6718
#
#
#
# Elastic Compliance Matrix: (Units=1/GPa)
#
#
# Indices 1 2 3 4 5 6 
#
# 1 0.011452 -0.002308 -0.001742 -0.000032 -0.001521 -0.000925
# 2 -0.002308 0.011551 -0.003062 0.001909 0.001210 0.000359
# 3 -0.001742 -0.003062 0.007447 0.001637 0.003321 0.001429
# 4 -0.000032 0.001909 0.001637 0.018789 0.006217 -0.000345
# 5 -0.001521 0.001210 0.003321 0.006217 0.026027 0.000212
# 6 -0.000925 0.000359 0.001429 -0.000345 0.000212 0.030119
#
#
# Mechanical properties :
#
#
# Convention : Reuss Voigt Hill
#
# Bulk Modulus (GPa) = 61.62400 71.84022 66.73211
# Shear Modulus (GPa) = 39.99429 45.30025 42.64727
#
# Velocity S-wave (km/s) = 4.25576 4.52927 4.39465
# Velocity P-wave (km/s) = 7.21493 7.73857 7.48133
#
# Compressibility (1/GPa) = 0.01622744
#
# Stress axis : x y z
#
# Youngs Moduli (GPa) = 87.32425 86.56935 134.27342
#
# Poissons Ratio (x) = 0.19981 0.23388
# Poissons Ratio (y) = 0.20155 0.41110
# Poissons Ratio (z) = 0.15211 0.26504
#
# Static dielectric constant tensor:
#      x y z
#    x 3.979470 0.074910 -0.074510 
#    y 0.074910 4.178720 -0.083470 
#    z -0.074510 -0.083470 4.338230 
# 
# 
# High freq. dielectric constant tensor:
#      x y z
#    x 1.878460 -0.004130 -0.003400 
#    y -0.004130 1.894590 -0.000850 
#    z -0.003400 -0.000850 1.894910 
# 
# From -- ./inp_files/244366.got.cif
#   From: 2010.06.25/outbox.cif.g09.slc.cpg/sg2_123_cif.got.tgz:244366.got - 2010.06.27 13:26:56.
