data_PCOD8037261
_publ_section_title
;
Structure prediction by ZEFSAII (Michael W. Deem and Ramdas Pophale) SiO2 
 PCOD8037261
Probable space group: P -1
;
_chemical_formula_sum "Si O2"
_cell_formula_units_Z 16
_cell_length_a 18.034265
_cell_length_b 14.519108
_cell_length_c 10.965506
_cell_angle_alpha 32.812323
_cell_angle_beta 127.866437
_cell_angle_gamma 150.634860
_cell_volume 682.699578
_symmetry_space_group_name_H-M "P -1"
_symmetry_group_IT_number 2
_symmetry_cell_setting 'triclinic'
loop_
_space_group_symop_operation_xyz
x,y,z
-x,-y,-z
loop_
_atom_site_type_symbol
_atom_site_label
_atom_site_fract_x
_atom_site_fract_y
_atom_site_fract_z
Si Si1 0.104029 0.607393 0.867874
Si Si2 0.382501 0.779711 0.507024
Si Si3 0.053262 0.936810 0.835423
Si Si4 0.840829 0.947372 0.595952
Si Si5 0.995058 0.689050 0.307333
Si Si6 0.671787 0.661098 0.972792
Si Si7 0.334367 0.359732 0.473202
Si Si8 0.419332 0.861443 0.940772
O O1 0.290683 0.824475 0.848318
O O2 0.103710 0.783096 0.593575
O O3 0.000000 0.500000 0.000000
O O4 0.032445 0.343629 0.012514
O O5 0.195847 0.577909 0.541597
O O6 0.500000 0.000000 0.500000
O O7 0.462634 0.950555 0.268741
O O8 0.346864 0.527121 0.750255
O O9 0.986339 0.025795 0.642611
O O10 0.248440 0.237833 0.655521
O O11 0.028499 0.860479 0.035667
O O12 0.689332 0.642897 0.866520
O O13 0.780883 0.910294 0.441181
O O14 0.000000 0.500000 0.500000
O O15 0.150042 0.973306 0.234470
O O16 0.500000 0.500000 0.000000
O O17 0.500000 0.500000 0.500000
O O18 0.345776 0.561501 0.197741
O O19 0.500000 0.000000 0.000000
#
# Coordination Sequence:
#
# PCOD8037261 Si02
#       8
#     2   2   2   2   2   2   2   2
#     4  12  24  46  74 110 148 199 249 312 388 458
#     4  12  26  51  76 108 158 203 257 317 386 468
#     4  12  26  49  76 110 152 195 257 314 384 468
#     4  12  24  48  77 106 151 198 250 310 390 459
#     4  12  28  48  78 114 151 205 261 319 386 467
#     4  12  27  48  78 111 152 201 256 321 390 464
#     4  12  27  45  72 109 149 199 247 314 388 457
#     4  12  28  45  72 113 151 194 256 316 383 460
#
# _framework density 23.436368000000002
#
# number of rings (size 3 to 8) (size 9 to 14) (size 15 to 20)
#    0.000    0.000    3.750    6.000    5.250    1.000 
#    0.000    0.000    0.000    0.000    0.000    0.000 
#    0.000    0.000    0.000    0.000    0.000    0.000 
#
# Total GULP energy -198216.991243 kJ/mol
# GULP energy per Si atom -12388.561953 kJ/mol
# Density = 2.338303 g / cm^3
# Si number density = 23.436368 Si / 1000 Ang^3
#
#
#
# Elastic Constant Matrix: (Units=GPa)
#
#
# Indices 1 2 3 4 5 6 
#
# 1 162.9325 65.4649 65.9405 2.8738 -13.2349 38.2192
# 2 65.4649 118.2097 36.1649 -4.8278 -6.2378 24.4181
# 3 65.9405 36.1649 149.7445 8.0302 1.8894 13.1702
# 4 2.8738 -4.8278 8.0302 35.8147 1.7641 -2.3860
# 5 -13.2349 -6.2378 1.8894 1.7641 74.3086 6.4967
# 6 38.2192 24.4181 13.1702 -2.3860 6.4967 54.9248
#
#
#
# Elastic Compliance Matrix: (Units=1/GPa)
#
#
# Indices 1 2 3 4 5 6 
#
# 1 0.010232 -0.003587 -0.003165 -0.001033 0.002068 -0.005056
# 2 -0.003587 0.011344 -0.001068 0.001881 0.000494 -0.002268
# 3 -0.003165 -0.001068 0.008369 -0.001676 -0.000888 0.000703
# 4 -0.001033 0.001881 -0.001676 0.028782 -0.000809 0.001631
# 5 0.002068 0.000494 -0.000888 -0.000809 0.014185 -0.003159
# 6 -0.005056 -0.002268 0.000703 0.001631 -0.003159 0.023009
#
#
# Mechanical properties :
#
#
# Convention : Reuss Voigt Hill
#
# Bulk Modulus (GPa) = 69.90611 85.11414 77.51013
# Shear Modulus (GPa) = 42.98117 50.56404 46.77261
#
# Velocity S-wave (km/s) = 4.28711 4.64993 4.47220
# Velocity P-wave (km/s) = 7.37554 8.07621 7.73381
#
# Compressibility (1/GPa) = 0.01430490
#
# Stress axis : x y z
#
# Youngs Moduli (GPa) = 97.73371 88.15226 119.48691
#
# Poissons Ratio (x) = 0.31618 0.37823
# Poissons Ratio (y) = 0.35055 0.12760
# Poissons Ratio (z) = 0.30937 0.09414
#
# Static dielectric constant tensor:
#      x y z
#    x 5.001310 -0.206350 0.200440 
#    y -0.206350 6.277290 2.821310 
#    z 0.200440 2.821310 8.764710 
# 
# 
# High freq. dielectric constant tensor:
#      x y z
#    x 1.950340 0.001330 -0.000010 
#    y 0.001330 1.923030 0.008640 
#    z -0.000010 0.008640 1.955830 
# 
# From -- ./inp_files/466031.got.cif
#   From: 2010.06.25/outbox.cif.g09.slc.cpg/sg2_234_cif.got.tgz:466031.got - 2010.06.27 13:26:56.
