data_PCOD8037633
_publ_section_title
;
Structure prediction by ZEFSAII (Michael W. Deem and Ramdas Pophale) SiO2 
 PCOD8037633
Probable space group: P -1
;
_chemical_formula_sum "Si O2"
_cell_formula_units_Z 16
_cell_length_a 8.809186
_cell_length_b 9.025214
_cell_length_c 12.047530
_cell_angle_alpha 84.543301
_cell_angle_beta 84.604164
_cell_angle_gamma 48.780106
_cell_volume 716.576447
_symmetry_space_group_name_H-M "P -1"
_symmetry_group_IT_number 2
_symmetry_cell_setting 'triclinic'
loop_
_space_group_symop_operation_xyz
x,y,z
-x,-y,-z
loop_
_atom_site_type_symbol
_atom_site_label
_atom_site_fract_x
_atom_site_fract_y
_atom_site_fract_z
Si Si1 0.787356 0.711296 0.010707
Si Si2 0.209082 0.871241 0.764850
Si Si3 0.817334 0.780446 0.252525
Si Si4 0.807588 0.986872 0.849347
Si Si5 0.605500 0.041099 0.641761
Si Si6 0.437971 0.707896 0.979998
Si Si7 0.526814 0.331565 0.444290
Si Si8 0.141789 0.413729 0.390148
O O1 0.758668 0.801481 0.126774
O O2 0.765133 0.850909 0.909525
O O3 0.618414 0.697529 0.004904
O O4 0.000000 0.500000 0.000000
O O5 0.379998 0.780377 0.852904
O O6 0.307072 0.744626 0.655691
O O7 0.042671 0.858710 0.815122
O O8 0.112299 0.095979 0.735742
O O9 0.621457 0.873978 0.334990
O O10 0.002803 0.552621 0.285933
O O11 0.674203 0.091265 0.740486
O O12 0.747618 0.148590 0.932916
O O13 0.608370 0.147466 0.529172
O O14 0.763058 0.807347 0.626783
O O15 0.500000 0.500000 0.000000
O O16 0.500000 0.500000 0.500000
O O17 0.315947 0.423137 0.395681
O O18 0.000000 0.500000 0.500000
#
# Coordination Sequence:
#
# PCOD8037633 Si02
#       8
#     2   2   2   2   2   2   2   2
#     4  12  26  46  74 113 146 196 247 300 375 454
#     4  12  28  47  73 109 153 198 249 312 372 442
#     4  12  25  48  80 108 150 194 250 310 375 445
#     4  12  27  48  74 106 152 195 246 304 376 447
#     4  12  26  52  76 109 147 198 252 311 370 449
#     4  12  27  46  76 109 151 195 249 311 373 441
#     4  12  30  49  74 110 152 193 253 313 373 439
#     4  12  26  47  80 107 144 197 252 306 374 444
#
# _framework density 22.328389999999999
#
# number of rings (size 3 to 8) (size 9 to 14) (size 15 to 20)
#    0.000    0.000    5.000    4.125    8.750    1.500 
#    0.000    0.000    0.000    0.000    0.000    0.000 
#    0.000    0.000    0.000    0.000    0.000    0.000 
#
# Total GULP energy -198542.922824 kJ/mol
# GULP energy per Si atom -12408.932677 kJ/mol
# Density = 2.227757 g / cm^3
# Si number density = 22.328390 Si / 1000 Ang^3
#
#
#
# Elastic Constant Matrix: (Units=GPa)
#
#
# Indices 1 2 3 4 5 6 
#
# 1 118.8025 43.4066 50.9675 4.3327 -8.4437 2.8107
# 2 43.4066 148.2300 50.1639 8.6556 -6.2243 2.0538
# 3 50.9675 50.1639 138.0156 11.6553 -3.3783 -5.6618
# 4 4.3327 8.6556 11.6553 39.6764 -8.9502 6.5235
# 5 -8.4437 -6.2243 -3.3783 -8.9502 38.8827 2.0947
# 6 2.8107 2.0538 -5.6618 6.5235 2.0947 38.3299
#
#
#
# Elastic Compliance Matrix: (Units=1/GPa)
#
#
# Indices 1 2 3 4 5 6 
#
# 1 0.010704 -0.001957 -0.003330 0.000927 0.002013 -0.001440
# 2 -0.001957 0.008129 -0.002180 -0.000709 0.000552 -0.000524
# 3 -0.003330 -0.002180 0.009552 -0.002553 -0.000951 0.002258
# 4 0.000927 -0.000709 -0.002553 0.028446 0.006716 -0.005615
# 5 0.002013 0.000552 -0.000951 0.006716 0.027868 -0.002984
# 6 -0.001440 -0.000524 0.002258 -0.005615 -0.002984 0.027675
#
#
# Mechanical properties :
#
#
# Convention : Reuss Voigt Hill
#
# Bulk Modulus (GPa) = 74.33897 77.12490 75.73194
# Shear Modulus (GPa) = 37.93856 40.74514 39.34185
#
# Velocity S-wave (km/s) = 4.12651 4.27642 4.20213
# Velocity P-wave (km/s) = 7.48798 7.68113 7.58517
#
# Compressibility (1/GPa) = 0.01345190
#
# Stress axis : x y z
#
# Youngs Moduli (GPa) = 93.42089 123.01647 104.68588
#
# Poissons Ratio (x) = 0.24080 0.34856
# Poissons Ratio (y) = 0.18286 0.22820
# Poissons Ratio (z) = 0.31105 0.26816
#
# Static dielectric constant tensor:
#      x y z
#    x 3.968980 -0.015830 0.035230 
#    y -0.015830 4.192550 -0.030800 
#    z 0.035230 -0.030800 4.322390 
# 
# 
# High freq. dielectric constant tensor:
#      x y z
#    x 1.884080 -0.002730 0.000980 
#    y -0.002730 1.890800 0.003890 
#    z 0.000980 0.003890 1.899060 
# 
# From -- ./inp_files/245970.got.cif
#   From: 2010.06.25/outbox.cif.g09.slc.cpg/sg2_123_cif.got.tgz:245970.got - 2010.06.27 13:26:56.
