data_PCOD8037443
_publ_section_title
;
Structure prediction by ZEFSAII (Michael W. Deem and Ramdas Pophale) SiO2 
 PCOD8037443
Probable space group: P -1
;
_chemical_formula_sum "Si O2"
_cell_formula_units_Z 12
_cell_length_a 9.149862
_cell_length_b 14.743060
_cell_length_c 9.927731
_cell_angle_alpha 126.627840
_cell_angle_beta 150.626612
_cell_angle_gamma 62.047839
_cell_volume 522.694668
_symmetry_space_group_name_H-M "P -1"
_symmetry_group_IT_number 2
_symmetry_cell_setting 'triclinic'
loop_
_space_group_symop_operation_xyz
x,y,z
-x,-y,-z
loop_
_atom_site_type_symbol
_atom_site_label
_atom_site_fract_x
_atom_site_fract_y
_atom_site_fract_z
Si Si1 0.267990 0.582113 0.841398
Si Si2 0.121683 0.627306 0.258105
Si Si3 0.222705 0.762066 0.183919
Si Si4 0.523945 0.700404 0.894336
Si Si5 0.349867 0.034326 0.780716
Si Si6 0.772736 0.911731 0.825116
O O1 0.346369 0.665282 0.854392
O O2 0.000000 0.500000 0.500000
O O3 0.500000 0.500000 0.000000
O O4 0.159971 0.654558 0.941178
O O5 0.207263 0.714324 0.281208
O O6 0.392987 0.638142 0.595066
O O7 0.851896 0.669239 0.159036
O O8 0.000000 0.500000 0.000000
O O9 0.567635 0.820661 0.484838
O O10 0.971035 0.847639 0.032880
O O11 0.545182 0.833945 0.030635
O O12 0.499682 0.971065 0.723485
O O13 0.000000 0.000000 0.500000
O O14 0.500000 0.000000 0.000000
O O15 0.000000 0.000000 0.000000
#
# Coordination Sequence:
#
# PCOD8037443 Si02
#       6
#     2   2   2   2   2   2
#     4  12  26  46  69 100 138 181 228 284 345 412
#     4  12  25  44  69 100 134 176 227 282 340 406
#     4  12  25  45  71 103 140 182 230 287 347 412
#     4  12  25  44  69  99 134 178 226 279 341 408
#     4  12  25  44  69 100 138 181 229 283 343 410
#     4  12  26  45  70 104 141 184 232 287 347 414
#
# _framework density 22.957954000000001
#
# number of rings (size 3 to 8) (size 9 to 14) (size 15 to 20)
#    0.000    0.000    0.000   12.000    0.000    2.667 
#    0.000    0.000    0.000    0.000    0.000    0.000 
#    0.000    0.000    0.000    0.000    0.000    0.000 
#
# Total GULP energy -148701.538991 kJ/mol
# GULP energy per Si atom -12391.794916 kJ/mol
# Density = 2.290570 g / cm^3
# Si number density = 22.957954 Si / 1000 Ang^3
#
#
#
# Elastic Constant Matrix: (Units=GPa)
#
#
# Indices 1 2 3 4 5 6 
#
# 1 93.4637 18.5599 24.0607 -3.5114 14.5859 -7.2825
# 2 18.5599 132.5912 38.2182 0.5048 12.4786 3.6079
# 3 24.0607 38.2182 149.8096 -0.6358 17.1702 3.8646
# 4 -3.5114 0.5048 -0.6358 43.0129 1.3662 1.8728
# 5 14.5859 12.4786 17.1702 1.3662 44.7286 1.5171
# 6 -7.2825 3.6079 3.8646 1.8728 1.5171 37.6967
#
#
#
# Elastic Compliance Matrix: (Units=1/GPa)
#
#
# Indices 1 2 3 4 5 6 
#
# 1 0.012002 -0.001063 -0.001352 0.000960 -0.003217 0.002641
# 2 -0.001063 0.008348 -0.001795 -0.000138 -0.001263 -0.000763
# 3 -0.001352 -0.001795 0.007595 0.000120 -0.001950 -0.000795
# 4 0.000960 -0.000138 0.000120 0.023403 -0.001003 -0.000936
# 5 -0.003217 -0.001263 -0.001950 -0.001003 0.024580 -0.001240
# 6 0.002641 -0.000763 -0.000795 -0.000936 -0.001240 0.027289
#
#
# Mechanical properties :
#
#
# Convention : Reuss Voigt Hill
#
# Bulk Modulus (GPa) = 51.21538 59.72691 55.47115
# Shear Modulus (GPa) = 42.32049 44.75601 43.53825
#
# Velocity S-wave (km/s) = 4.29813 4.42008 4.35953
# Velocity P-wave (km/s) = 6.85483 7.21954 7.03955
#
# Compressibility (1/GPa) = 0.01952538
#
# Stress axis : x y z
#
# Youngs Moduli (GPa) = 83.31695 119.78345 131.66920
#
# Poissons Ratio (x) = 0.12735 0.17799
# Poissons Ratio (y) = 0.08858 0.23637
# Poissons Ratio (z) = 0.11262 0.21503
#
# Static dielectric constant tensor:
#      x y z
#    x 4.090760 0.103680 0.035220 
#    y 0.103680 4.234480 0.008130 
#    z 0.035220 0.008130 4.484190 
# 
# 
# High freq. dielectric constant tensor:
#      x y z
#    x 1.909850 0.004090 0.006010 
#    y 0.004090 1.932110 0.003450 
#    z 0.006010 0.003450 1.932210 
# 
# From -- ./inp_files/177114.got.cif
#   From: 2010.06.25/outbox.cif.g09.slc.cpg/sg2_89_cif.got.tgz:177114.got - 2010.06.27 13:26:56.
