data_PCOD8037962
_publ_section_title
;
Structure prediction by ZEFSAII (Michael W. Deem and Ramdas Pophale) SiO2 
 PCOD8037962
Probable space group: P -1
;
_chemical_formula_sum "Si O2"
_cell_formula_units_Z 16
_cell_length_a 18.060357
_cell_length_b 12.648321
_cell_length_c 20.830991
_cell_angle_alpha 33.429340
_cell_angle_beta 158.905273
_cell_angle_gamma 157.638698
_cell_volume 637.532731
_symmetry_space_group_name_H-M "P -1"
_symmetry_group_IT_number 2
_symmetry_cell_setting 'triclinic'
loop_
_space_group_symop_operation_xyz
x,y,z
-x,-y,-z
loop_
_atom_site_type_symbol
_atom_site_label
_atom_site_fract_x
_atom_site_fract_y
_atom_site_fract_z
Si Si1 0.212938 0.397776 0.920718
Si Si2 0.350874 0.193675 0.593960
Si Si3 0.119474 0.813373 0.053410
Si Si4 0.066519 0.351092 0.246073
Si Si5 0.439433 0.005383 0.078705
Si Si6 0.957845 0.603549 0.509206
Si Si7 0.684763 0.781103 0.779684
Si Si8 0.646909 0.419791 0.215136
O O1 0.262043 0.654820 0.847025
O O2 0.296138 0.325077 0.085867
O O3 0.479843 0.515375 0.024970
O O4 0.872712 0.109973 0.769025
O O5 0.137120 0.231982 0.416190
O O6 0.669178 0.485951 0.675253
O O7 0.430183 0.123039 0.757314
O O8 0.194310 0.935132 0.548679
O O9 0.047424 0.552458 0.156756
O O10 0.221755 0.868667 0.034402
O O11 0.372019 0.076094 0.172579
O O12 0.818375 0.740830 0.850469
O O13 0.748091 0.073462 0.096298
O O14 0.669359 0.407313 0.423454
O O15 0.857616 0.565648 0.374237
O O16 0.135182 0.513394 0.701219
#
# Coordination Sequence:
#
# PCOD8037962 Si02
#       8
#     2   2   2   2   2   2   2   2
#     4   9  19  36  56  85 116 160 194 242 294 363
#     4  10  20  36  59  89 116 151 203 248 292 351
#     4  10  19  36  58  91 116 156 204 246 289 364
#     4  10  20  36  62  88 115 157 203 255 291 338
#     4  11  21  38  64  87 118 156 208 250 291 344
#     4  10  17  33  54  85 122 149 184 251 290 349
#     4   9  19  34  59  85 123 156 194 235 312 362
#     4   9  17  30  57  85 114 149 198 235 286 352
#
# _framework density 25.09675
#
# number of rings (size 3 to 8) (size 9 to 14) (size 15 to 20)
#    0.000    2.250    2.500    3.750    0.000    2.000 
#    0.000    3.125    0.000    5.250    0.000    0.000 
#    0.000    0.000    0.000    0.000    0.000    0.000 
#
# Total GULP energy -198225.302571 kJ/mol
# GULP energy per Si atom -12389.081411 kJ/mol
# Density = 2.503963 g / cm^3
# Si number density = 25.096750 Si / 1000 Ang^3
#
#
#
# Elastic Constant Matrix: (Units=GPa)
#
#
# Indices 1 2 3 4 5 6 
#
# 1 33.4913 7.4996 6.7541 6.8194 12.9866 4.1292
# 2 7.4996 108.4081 44.8707 -17.0603 15.1201 -13.2022
# 3 6.7541 44.8707 129.7587 -6.2778 31.6971 -5.5248
# 4 6.8194 -17.0603 -6.2778 43.1889 -8.8445 4.5060
# 5 12.9866 15.1201 31.6971 -8.8445 34.3884 1.6743
# 6 4.1292 -13.2022 -5.5248 4.5060 1.6743 29.2035
#
#
#
# Elastic Compliance Matrix: (Units=1/GPa)
#
#
# Indices 1 2 3 4 5 6 
#
# 1 0.040084 -0.003584 0.003106 -0.010773 -0.019002 -0.003949
# 2 -0.003584 0.012225 -0.003704 0.004437 0.000309 0.004630
# 3 0.003106 -0.003704 0.011370 -0.002612 -0.010747 0.001056
# 4 -0.010773 0.004437 -0.002612 0.028920 0.012067 -0.002119
# 5 -0.019002 0.000309 -0.010747 0.012067 0.049319 -0.003896
# 6 -0.003949 0.004630 0.001056 -0.002119 -0.003896 0.037644
#
#
# Mechanical properties :
#
#
# Convention : Reuss Voigt Hill
#
# Bulk Modulus (GPa) = 18.07924 43.32298 30.70111
# Shear Modulus (GPa) = 24.22887 35.52507 29.87697
#
# Velocity S-wave (km/s) = 3.11049 3.76643 3.45406
# Velocity P-wave (km/s) = 4.48549 6.01785 5.30727
#
# Compressibility (1/GPa) = 0.05531205
#
# Stress axis : x y z
#
# Youngs Moduli (GPa) = 24.94786 81.80209 87.95176
#
# Poissons Ratio (x) = 0.29320 -0.27314
# Poissons Ratio (y) = 0.08942 0.32580
# Poissons Ratio (z) = -0.07748 0.30302
#
# Static dielectric constant tensor:
#      x y z
#    x 4.357900 -0.077310 0.489120 
#    y -0.077310 4.636710 -0.146440 
#    z 0.489120 -0.146440 5.200140 
# 
# 
# High freq. dielectric constant tensor:
#      x y z
#    x 1.965490 -0.011360 0.011480 
#    y -0.011360 2.002450 -0.003020 
#    z 0.011480 -0.003020 2.017440 
# 
# From -- ./inp_files/613798.got.cif
#   From: 2010.06.25/outbox.cif.g09.slc.cpg/sg2_307_cif.got.tgz:613798.got - 2010.06.27 13:26:56.
