data_PCOD8037622
_publ_section_title
;
Structure prediction by ZEFSAII (Michael W. Deem and Ramdas Pophale) SiO2 
 PCOD8037622
Probable space group: P -1
;
_chemical_formula_sum "Si O2"
_cell_formula_units_Z 10
_cell_length_a 12.969603
_cell_length_b 13.452405
_cell_length_c 11.104085
_cell_angle_alpha 20.593966
_cell_angle_beta 33.561962
_cell_angle_gamma 34.957284
_cell_volume 368.861936
_symmetry_space_group_name_H-M "P -1"
_symmetry_group_IT_number 2
_symmetry_cell_setting 'triclinic'
loop_
_space_group_symop_operation_xyz
x,y,z
-x,-y,-z
loop_
_atom_site_type_symbol
_atom_site_label
_atom_site_fract_x
_atom_site_fract_y
_atom_site_fract_z
Si Si1 0.475123 0.890028 0.780798
Si Si2 0.879344 0.491793 0.245499
Si Si3 0.040504 0.998596 0.102976
Si Si4 0.703442 0.262774 0.274054
Si Si5 0.308403 0.896446 0.273385
O O1 0.500000 0.000000 0.500000
O O2 0.609571 0.998839 0.622658
O O3 0.259658 0.010585 0.896195
O O4 0.537344 0.544955 0.105047
O O5 0.994298 0.294067 0.463696
O O6 0.693067 0.355251 0.539501
O O7 0.000000 0.500000 0.000000
O O8 0.823626 0.816517 0.980194
O O9 0.889850 0.266722 0.004508
O O10 0.000000 0.000000 0.000000
O O11 0.776816 0.205279 0.404417
O O12 0.500000 0.000000 0.000000
#
# Coordination Sequence:
#
# PCOD8037622 Si02
#       5
#     2   2   2   2   2
#     4  12  27  49  72 114 154 195 258 309 372 466
#     4  12  26  48  73 111 148 193 256 308 370 460
#     4  12  28  49  79 111 155 205 249 313 385 446
#     4  12  27  49  78 110 151 199 253 314 381 447
#     4  12  25  48  78 106 151 195 251 318 380 445
#
# _framework density 27.110415
#
# number of rings (size 3 to 8) (size 9 to 14) (size 15 to 20)
#    0.000    0.000    4.000    5.400    0.000    2.400 
#    0.000    0.000    0.000    0.000    0.000    0.000 
#    0.000    0.000    0.000    0.000    0.000    0.000 
#
# Total GULP energy -123977.426765 kJ/mol
# GULP energy per Si atom -12397.742676 kJ/mol
# Density = 2.704871 g / cm^3
# Si number density = 27.110415 Si / 1000 Ang^3
#
#
#
# Elastic Constant Matrix: (Units=GPa)
#
#
# Indices 1 2 3 4 5 6 
#
# 1 116.4838 25.1445 32.7532 2.2295 29.4287 2.3324
# 2 25.1445 139.0165 28.2077 19.2417 -7.9872 -12.7533
# 3 32.7532 28.2077 103.4239 -6.7875 27.8371 3.2779
# 4 2.2295 19.2417 -6.7875 50.9576 -2.5363 -3.5138
# 5 29.4287 -7.9872 27.8371 -2.5363 57.0402 12.4922
# 6 2.3324 -12.7533 3.2779 -3.5138 12.4922 45.5669
#
#
#
# Elastic Compliance Matrix: (Units=1/GPa)
#
#
# Indices 1 2 3 4 5 6 
#
# 1 0.010710 -0.001855 -0.001528 -0.000197 -0.005144 0.000438
# 2 -0.001855 0.008941 -0.002974 -0.003418 0.003139 0.001687
# 3 -0.001528 -0.002974 0.012670 0.002600 -0.005718 0.000103
# 4 -0.000197 -0.003418 0.002600 0.021278 -0.000862 0.000744
# 5 -0.005144 0.003139 -0.005718 -0.000862 0.024524 -0.005237
# 6 0.000438 0.001687 0.000103 0.000744 -0.005237 0.023881
#
#
# Mechanical properties :
#
#
# Convention : Reuss Voigt Hill
#
# Bulk Modulus (GPa) = 51.00146 59.01502 55.00824
# Shear Modulus (GPa) = 41.23609 48.90087 45.06848
#
# Velocity S-wave (km/s) = 3.90429 4.25169 4.08168
# Velocity P-wave (km/s) = 6.25923 6.77629 6.52288
#
# Compressibility (1/GPa) = 0.01960728
#
# Stress axis : x y z
#
# Youngs Moduli (GPa) = 93.37419 111.84999 78.92459
#
# Poissons Ratio (x) = 0.20750 0.12059
# Poissons Ratio (y) = 0.17322 0.23469
# Poissons Ratio (z) = 0.14267 0.33259
#
# Static dielectric constant tensor:
#      x y z
#    x 8.806480 3.551320 -1.390080 
#    y 3.551320 8.995360 -1.816700 
#    z -1.390080 -1.816700 6.619130 
# 
# 
# High freq. dielectric constant tensor:
#      x y z
#    x 2.107840 -0.000550 0.007670 
#    y -0.000550 2.095300 0.008680 
#    z 0.007670 0.008680 2.098650 
# 
# From -- ./inp_files/88096.got.cif
#   From: 2010.06.25/outbox.cif.g09.slc.cpg/sg2_45_cif.got.tgz:88096.got - 2010.06.27 13:26:56.
