data_PCOD8037417
_publ_section_title
;
Structure prediction by ZEFSAII (Michael W. Deem and Ramdas Pophale) SiO2 
 PCOD8037417
Probable space group: P -1
;
_chemical_formula_sum "Si O2"
_cell_formula_units_Z 14
_cell_length_a 5.359756
_cell_length_b 23.988080
_cell_length_c 5.359646
_cell_angle_alpha 63.605338
_cell_angle_beta 89.998316
_cell_angle_gamma 116.614531
_cell_volume 534.510276
_symmetry_space_group_name_H-M "P -1"
_symmetry_group_IT_number 2
_symmetry_cell_setting 'triclinic'
loop_
_space_group_symop_operation_xyz
x,y,z
-x,-y,-z
loop_
_atom_site_type_symbol
_atom_site_label
_atom_site_fract_x
_atom_site_fract_y
_atom_site_fract_z
Si Si1 0.546920 0.344388 0.557047
Si Si2 0.558637 0.155096 0.833523
Si Si3 0.168667 0.655134 0.941619
Si Si4 0.659334 0.499831 0.249004
Si Si5 0.751700 0.000186 0.659301
Si Si6 0.062057 0.155652 0.548939
Si Si7 0.001576 0.250000 0.001612
O O1 0.650813 0.322868 0.848208
O O2 0.689930 0.429904 0.380917
O O3 0.199824 0.301327 0.671980
O O4 0.632633 0.318424 0.357274
O O5 0.851727 0.177146 0.644481
O O6 0.671753 0.197349 0.011958
O O7 0.360872 0.181574 0.643205
O O8 0.380719 0.069479 0.029644
O O9 0.990855 0.697572 0.878982
O O10 0.971326 0.569554 0.102577
O O11 0.500000 0.500000 0.500000
O O12 0.500000 0.500000 0.000000
O O13 0.899727 0.070172 0.690606
O O14 0.500000 0.000000 0.500000
O O15 0.000000 0.000000 0.500000
O O16 0.126055 0.198889 0.201706
#
# Coordination Sequence:
#
# PCOD8037417 Si02
#       7
#     2   2   2   2   2   2   2
#     4  12  29  51  83 116 163 218 279 345 426 500
#     4  12  29  51  83 116 163 218 279 345 426 500
#     4  12  29  51  83 116 163 218 279 345 426 500
#     4  12  24  50  82 115 157 212 281 352 414 494
#     4  12  24  50  82 115 157 212 281 352 414 494
#     4  12  29  51  83 116 163 218 279 345 426 500
#     4  12  32  50  76 120 172 206 280 344 424 522
#
# _framework density 26.192204
#
# number of rings (size 3 to 8) (size 9 to 14) (size 15 to 20)
#    0.000    0.000    2.857    5.143    8.000    0.000 
#    0.000    0.000    0.000    0.000    0.000    0.000 
#    0.000    0.000    0.000    0.000    0.000    0.000 
#
# Total GULP energy -173632.460688 kJ/mol
# GULP energy per Si atom -12402.318621 kJ/mol
# Density = 2.613259 g / cm^3
# Si number density = 26.192204 Si / 1000 Ang^3
#
#
#
# Elastic Constant Matrix: (Units=GPa)
#
#
# Indices 1 2 3 4 5 6 
#
# 1 169.3055 40.3829 63.1583 9.2098 1.5644 -7.5246
# 2 40.3829 119.1127 88.3788 -30.1096 -4.4868 2.1433
# 3 63.1583 88.3788 133.0591 19.5825 5.3390 0.1459
# 4 9.2098 -30.1096 19.5825 56.5678 3.0189 -5.0636
# 5 1.5644 -4.4868 5.3390 3.0189 45.8868 26.7309
# 6 -7.5246 2.1433 0.1459 -5.0636 26.7309 24.6365
#
#
#
# Elastic Compliance Matrix: (Units=1/GPa)
#
#
# Indices 1 2 3 4 5 6 
#
# 1 0.007502 0.000110 -0.003622 0.000854 -0.003598 0.006382
# 2 0.000110 0.040655 -0.032091 0.031459 0.010326 -0.008051
# 3 -0.003622 -0.032091 0.034944 -0.027832 -0.007551 0.003951
# 4 0.000854 0.031459 -0.027832 0.044815 -0.001855 0.008913
# 5 -0.003598 0.010326 -0.007551 -0.001855 0.068722 -0.076898
# 6 0.006382 -0.008051 0.003951 0.008913 -0.076898 0.128483
#
#
# Mechanical properties :
#
#
# Convention : Reuss Voigt Hill
#
# Bulk Modulus (GPa) = 84.06978 89.47969 86.77474
# Shear Modulus (GPa) = 12.49087 40.72205 26.60646
#
# Velocity S-wave (km/s) = 2.18616 3.94730 3.19064
# Velocity P-wave (km/s) = 6.20800 7.41699 6.83926
#
# Compressibility (1/GPa) = 0.01189488
#
# Stress axis : x y z
#
# Youngs Moduli (GPa) = 133.29842 24.59732 28.61706
#
# Poissons Ratio (x) = -0.00270 0.10365
# Poissons Ratio (y) = -0.01462 0.91834
# Poissons Ratio (z) = 0.48282 0.78934
#
# Static dielectric constant tensor:
#      x y z
#    x 4.776530 -0.021950 0.015080 
#    y -0.021950 4.303440 0.298980 
#    z 0.015080 0.298980 4.586190 
# 
# 
# High freq. dielectric constant tensor:
#      x y z
#    x 2.051940 0.001780 -0.001110 
#    y 0.001780 2.074530 -0.014310 
#    z -0.001110 -0.014310 2.060840 
# 
# From -- ./inp_files/14329.got.cif
#   From: 2010.06.25/outbox.cif.g09.slc.cpg/sg2_8_cif.got.tgz:14329.got - 2010.06.27 13:26:56.
