data_PCOD8037725
_publ_section_title
;
Structure prediction by ZEFSAII (Michael W. Deem and Ramdas Pophale) SiO2 
 PCOD8037725
Probable space group: P -1
;
_chemical_formula_sum "Si O2"
_cell_formula_units_Z 14
_cell_length_a 5.080984
_cell_length_b 9.829451
_cell_length_c 11.313906
_cell_angle_alpha 74.541704
_cell_angle_beta 94.289073
_cell_angle_gamma 82.095565
_cell_volume 535.750091
_symmetry_space_group_name_H-M "P -1"
_symmetry_group_IT_number 2
_symmetry_cell_setting 'triclinic'
loop_
_space_group_symop_operation_xyz
x,y,z
-x,-y,-z
loop_
_atom_site_type_symbol
_atom_site_label
_atom_site_fract_x
_atom_site_fract_y
_atom_site_fract_z
Si Si1 0.366226 0.134106 0.390351
Si Si2 0.003543 0.675639 0.943341
Si Si3 0.759219 0.840775 0.223598
Si Si4 0.295717 0.668168 0.722662
Si Si5 0.566558 0.616646 0.098322
Si Si6 0.036295 0.335424 0.504320
Si Si7 0.186261 0.026667 0.192581
O O1 0.557144 0.194441 0.284459
O O2 0.277193 0.271806 0.439284
O O3 0.133390 0.078536 0.317145
O O4 0.500000 0.000000 0.500000
O O5 0.046291 0.665956 0.804822
O O6 0.830929 0.834196 0.924414
O O7 0.287215 0.679041 0.015834
O O8 0.800992 0.568453 0.013704
O O9 0.701088 0.727680 0.151797
O O10 0.928054 0.759634 0.355791
O O11 0.479419 0.933063 0.228002
O O12 0.961173 0.939906 0.157195
O O13 0.483907 0.516221 0.791660
O O14 0.224085 0.678636 0.578511
O O15 0.000000 0.500000 0.500000
#
# Coordination Sequence:
#
# PCOD8037725 Si02
#       7
#     2   2   2   2   2   2   2
#     4  12  26  47  81 115 159 208 259 327 400 480
#     4  12  27  48  79 111 154 210 270 321 384 468
#     4  12  27  48  77 115 160 202 260 323 401 474
#     4  12  27  48  79 113 155 202 267 324 393 471
#     4  12  28  49  76 112 158 210 258 329 387 464
#     4  12  27  47  78 117 156 201 255 328 406 470
#     4  12  26  47  76 114 153 205 264 320 388 469
#
# _framework density 26.131587
#
# number of rings (size 3 to 8) (size 9 to 14) (size 15 to 20)
#    0.000    0.000    4.286    5.143    2.000    6.286 
#    0.000    0.000    0.000    0.000    0.000    0.000 
#    0.000    0.000    0.000    0.000    0.000    0.000 
#
# Total GULP energy -173473.441847 kJ/mol
# GULP energy per Si atom -12390.960132 kJ/mol
# Density = 2.607211 g / cm^3
# Si number density = 26.131587 Si / 1000 Ang^3
#
#
#
# Elastic Constant Matrix: (Units=GPa)
#
#
# Indices 1 2 3 4 5 6 
#
# 1 100.1594 46.5904 35.1207 -18.6871 14.0955 2.2968
# 2 46.5904 129.7522 41.8010 -4.2348 2.0176 6.9332
# 3 35.1207 41.8010 114.7527 -2.7699 19.5254 6.5329
# 4 -18.6871 -4.2348 -2.7699 42.2045 5.9394 2.3616
# 5 14.0955 2.0176 19.5254 5.9394 44.7043 -6.1000
# 6 2.2968 6.9332 6.5329 2.3616 -6.1000 48.8048
#
#
#
# Elastic Compliance Matrix: (Units=1/GPa)
#
#
# Indices 1 2 3 4 5 6 
#
# 1 0.014518 -0.004273 -0.001921 0.006547 -0.004511 -0.000700
# 2 -0.004273 0.010073 -0.002738 -0.001340 0.002195 -0.000524
# 3 -0.001921 -0.002738 0.011145 0.000313 -0.004395 -0.001577
# 4 0.006547 -0.001340 0.000313 0.027463 -0.006096 -0.002250
# 5 -0.004511 0.002195 -0.004395 -0.006096 0.026989 0.004157
# 6 -0.000700 -0.000524 -0.001577 -0.002250 0.004157 0.021437
#
#
# Mechanical properties :
#
#
# Convention : Reuss Voigt Hill
#
# Bulk Modulus (GPa) = 55.95255 65.74316 60.84786
# Shear Modulus (GPa) = 36.91508 41.88619 39.40064
#
# Velocity S-wave (km/s) = 3.76262 4.00796 3.88722
# Velocity P-wave (km/s) = 6.35096 6.82872 6.59417
#
# Compressibility (1/GPa) = 0.01787229
#
# Stress axis : x y z
#
# Youngs Moduli (GPa) = 68.88131 99.27212 89.72749
#
# Poissons Ratio (x) = 0.42416 0.17240
# Poissons Ratio (y) = 0.29431 0.24565
# Poissons Ratio (z) = 0.13235 0.27178
#
# Static dielectric constant tensor:
#      x y z
#    x 4.712200 0.014080 0.213840 
#    y 0.014080 5.512200 -0.101960 
#    z 0.213840 -0.101960 5.003170 
# 
# 
# High freq. dielectric constant tensor:
#      x y z
#    x 2.038360 -0.003500 0.022390 
#    y -0.003500 2.076250 -0.016050 
#    z 0.022390 -0.016050 2.062380 
# 
# From -- ./inp_files/360684.got.cif
#   From: 2010.06.25/outbox.cif.g09.slc.cpg/sg2_181_cif.got.tgz:360684.got - 2010.06.27 13:26:56.
