data_PCOD8037695
_publ_section_title
;
Structure prediction by ZEFSAII (Michael W. Deem and Ramdas Pophale) SiO2 
 PCOD8037695
Probable space group: P -1
;
_chemical_formula_sum "Si O2"
_cell_formula_units_Z 14
_cell_length_a 14.588468
_cell_length_b 9.399719
_cell_length_c 13.763078
_cell_angle_alpha 108.590509
_cell_angle_beta 33.095693
_cell_angle_gamma 131.899686
_cell_volume 618.088042
_symmetry_space_group_name_H-M "P -1"
_symmetry_group_IT_number 2
_symmetry_cell_setting 'triclinic'
loop_
_space_group_symop_operation_xyz
x,y,z
-x,-y,-z
loop_
_atom_site_type_symbol
_atom_site_label
_atom_site_fract_x
_atom_site_fract_y
_atom_site_fract_z
Si Si1 0.266455 0.552531 0.018414
Si Si2 0.422068 0.171599 0.754013
Si Si3 0.140738 0.991062 0.446241
Si Si4 0.434956 0.298669 0.571182
Si Si5 0.990471 0.420607 0.595668
Si Si6 0.835063 0.313924 0.190442
Si Si7 0.080111 0.127779 0.172531
O O1 0.269456 0.396329 0.036415
O O2 0.221694 0.647721 0.160386
O O3 0.033208 0.392292 0.112732
O O4 0.547427 0.763416 0.760346
O O5 0.368975 0.265760 0.738522
O O6 0.723646 0.377829 0.564295
O O7 0.347665 0.952272 0.737441
O O8 0.233276 0.082066 0.993949
O O9 0.000000 0.000000 0.500000
O O10 0.116945 0.816902 0.378314
O O11 0.977272 0.902786 0.669972
O O12 0.500000 0.500000 0.500000
O O13 0.668390 0.339349 0.381488
O O14 0.198174 0.053349 0.674023
O O15 0.000000 0.500000 0.500000
O O16 0.000000 0.500000 0.000000
#
# Coordination Sequence:
#
# PCOD8037695 Si02
#       7
#     2   2   2   2   2   2   2
#     4  12  26  51  79 107 149 196 254 310 373 442
#     4  12  27  48  78 111 152 199 246 309 387 442
#     4  12  30  49  76 109 149 201 255 304 370 446
#     4  12  26  46  75 113 153 193 250 311 383 446
#     4  12  27  49  76 107 147 198 252 304 366 446
#     4  12  26  46  76 112 146 193 250 312 376 446
#     4  12  27  47  76 110 154 194 248 313 372 445
#
# _framework density 22.650494999999999
#
# number of rings (size 3 to 8) (size 9 to 14) (size 15 to 20)
#    0.000    0.000    4.286    4.714   10.000    2.286 
#    0.000    0.000    0.000    0.000    0.000    0.000 
#    0.000    0.000    0.000    0.000    0.000    0.000 
#
# Total GULP energy -173572.589917 kJ/mol
# GULP energy per Si atom -12398.042137 kJ/mol
# Density = 2.259894 g / cm^3
# Si number density = 22.650495 Si / 1000 Ang^3
#
#
#
# Elastic Constant Matrix: (Units=GPa)
#
#
# Indices 1 2 3 4 5 6 
#
# 1 109.5677 49.1612 20.4749 -4.8958 7.2719 -6.8051
# 2 49.1612 129.8374 43.9258 -7.6549 5.9573 -6.9447
# 3 20.4749 43.9258 95.5560 1.9443 5.9740 -2.0109
# 4 -4.8958 -7.6549 1.9443 44.7469 4.8735 2.5131
# 5 7.2719 5.9573 5.9740 4.8735 46.2230 -1.0517
# 6 -6.8051 -6.9447 -2.0109 2.5131 -1.0517 39.9029
#
#
#
# Elastic Compliance Matrix: (Units=1/GPa)
#
#
# Indices 1 2 3 4 5 6 
#
# 1 0.011150 -0.003894 -0.000512 0.000647 -0.001229 0.001125
# 2 -0.003894 0.010715 -0.004080 0.001577 -0.000387 0.000886
# 3 -0.000512 -0.004080 0.012528 -0.001195 -0.000889 -0.000114
# 4 0.000647 0.001577 -0.001195 0.023092 -0.002612 -0.001199
# 5 -0.001229 -0.000387 -0.000889 -0.002612 0.022278 0.000430
# 6 0.001125 0.000886 -0.000114 -0.001199 0.000430 0.025488
#
#
# Mechanical properties :
#
#
# Convention : Reuss Voigt Hill
#
# Bulk Modulus (GPa) = 57.40360 62.45388 59.92874
# Shear Modulus (GPa) = 39.05356 40.93451 39.99404
#
# Velocity S-wave (km/s) = 4.15683 4.25576 4.20658
# Velocity P-wave (km/s) = 6.95968 7.19593 7.07879
#
# Compressibility (1/GPa) = 0.01742051
#
# Stress axis : x y z
#
# Youngs Moduli (GPa) = 89.68720 93.32839 79.82175
#
# Poissons Ratio (x) = 0.36342 0.04085
# Poissons Ratio (y) = 0.34924 0.32570
# Poissons Ratio (z) = 0.04590 0.38081
#
# Static dielectric constant tensor:
#      x y z
#    x 4.531520 0.092760 0.602570 
#    y 0.092760 4.144200 0.079020 
#    z 0.602570 0.079020 4.869640 
# 
# 
# High freq. dielectric constant tensor:
#      x y z
#    x 1.905560 0.002590 0.006570 
#    y 0.002590 1.905690 0.004010 
#    z 0.006570 0.004010 1.912360 
# 
# From -- ./inp_files/356516.got.cif
#   From: 2010.06.25/outbox.cif.g09.slc.cpg/sg2_179_cif.got.tgz:356516.got - 2010.06.27 13:26:56.
