data_PCOD8037077
_publ_section_title
;
Structure prediction by ZEFSAII (Michael W. Deem and Ramdas Pophale) SiO2 
 PCOD8037077
Probable space group: P -1
;
_chemical_formula_sum "Si O2"
_cell_formula_units_Z 12
_cell_length_a 16.036917
_cell_length_b 16.048408
_cell_length_c 6.792611
_cell_angle_alpha 92.934270
_cell_angle_beta 90.093156
_cell_angle_gamma 162.092600
_cell_volume 529.567618
_symmetry_space_group_name_H-M "P -1"
_symmetry_group_IT_number 2
_symmetry_cell_setting 'triclinic'
loop_
_space_group_symop_operation_xyz
x,y,z
-x,-y,-z
loop_
_atom_site_type_symbol
_atom_site_label
_atom_site_fract_x
_atom_site_fract_y
_atom_site_fract_z
Si Si1 0.883900 0.215730 0.633848
Si Si2 0.112316 0.935746 0.130625
Si Si3 0.568199 0.396283 0.874793
Si Si4 0.344232 0.674535 0.373705
Si Si5 0.719328 0.220064 0.858031
Si Si6 0.282128 0.222121 0.506839
O O1 0.972428 0.235807 0.805656
O O2 0.733583 0.153484 0.711637
O O3 0.146196 0.491318 0.539238
O O4 0.656228 0.952436 0.470488
O O5 0.240834 0.118152 0.317387
O O6 0.820388 0.690680 0.008703
O O7 0.353915 0.155137 0.000834
O O8 0.733569 0.477974 0.781255
O O9 0.386214 0.276928 0.711169
O O10 0.345706 0.762444 0.270793
O O11 0.000000 0.500000 0.000000
O O12 0.500000 0.000000 0.000000
O O13 0.500000 0.500000 0.500000
O O14 0.000000 0.000000 0.500000
#
# Coordination Sequence:
#
# PCOD8037077 Si02
#       6
#     2   2   2   2   2   2
#     4  12  24  43  70 100 141 189 237 286 347 413
#     4  12  26  46  74 105 142 187 237 288 357 423
#     4  12  26  46  74 105 142 187 237 288 357 423
#     4  12  24  43  70 100 141 189 237 286 347 413
#     4  12  24  42  64 102 144 184 240 287 339 412
#     4  12  28  48  74 105 144 179 234 298 358 428
#
# _framework density 22.659997000000001
#
# number of rings (size 3 to 8) (size 9 to 14) (size 15 to 20)
#    0.000    0.000    1.667    9.000    2.333    4.000 
#    0.000    0.000    0.000    0.000    0.000    0.000 
#    0.000    0.000    0.000    0.000    0.000    0.000 
#
# Total GULP energy -148823.569960 kJ/mol
# GULP energy per Si atom -12401.964163 kJ/mol
# Density = 2.260842 g / cm^3
# Si number density = 22.659997 Si / 1000 Ang^3
#
#
#
# Elastic Constant Matrix: (Units=GPa)
#
#
# Indices 1 2 3 4 5 6 
#
# 1 130.4454 40.3988 58.5643 -16.1924 14.1803 -1.2858
# 2 40.3988 159.8978 60.3783 -8.9988 14.1007 8.0481
# 3 58.5643 60.3783 128.8971 -11.8248 20.3271 1.1403
# 4 -16.1924 -8.9988 -11.8248 61.9407 5.2761 3.3984
# 5 14.1803 14.1007 20.3271 5.2761 16.5968 -0.9162
# 6 -1.2858 8.0481 1.1403 3.3984 -0.9162 38.9216
#
#
#
# Elastic Compliance Matrix: (Units=1/GPa)
#
#
# Indices 1 2 3 4 5 6 
#
# 1 0.010199 -0.000797 -0.003311 0.002303 -0.004698 0.000287
# 2 -0.000797 0.007896 -0.002788 0.000752 -0.002947 -0.001712
# 3 -0.003311 -0.002788 0.012448 0.002036 -0.010713 -0.000328
# 4 0.002303 0.000752 0.002036 0.018293 -0.011025 -0.001996
# 5 -0.004698 -0.002947 -0.010713 -0.011025 0.083600 0.003699
# 6 0.000287 -0.001712 -0.000328 -0.001996 0.003699 0.026327
#
#
# Mechanical properties :
#
#
# Convention : Reuss Voigt Hill
#
# Bulk Modulus (GPa) = 59.69840 81.99146 70.84493
# Shear Modulus (GPa) = 28.06809 40.81841 34.44325
#
# Velocity S-wave (km/s) = 3.52328 4.24883 3.90295
# Velocity P-wave (km/s) = 6.55392 7.76736 7.18630
#
# Compressibility (1/GPa) = 0.01675087
#
# Stress axis : x y z
#
# Youngs Moduli (GPa) = 98.05198 126.63880 80.33739
#
# Poissons Ratio (x) = 0.10095 0.26598
# Poissons Ratio (y) = 0.07816 0.22397
# Poissons Ratio (z) = 0.32463 0.35306
#
# Static dielectric constant tensor:
#      x y z
#    x 4.016820 -0.035690 0.056200 
#    y -0.035690 4.250540 0.145430 
#    z 0.056200 0.145430 4.471380 
# 
# 
# High freq. dielectric constant tensor:
#      x y z
#    x 1.898140 0.002040 0.004380 
#    y 0.002040 1.916960 0.006360 
#    z 0.004380 0.006360 1.914070 
# 
# From -- ./inp_files/4582.got.cif
#   From: 2010.06.25/outbox.cif.g09.slc.cpg/sg2_3_cif.got.tgz:4582.got - 2010.06.27 13:26:56.
