data_PCOD8037882
_publ_section_title
;
Structure prediction by ZEFSAII (Michael W. Deem and Ramdas Pophale) SiO2 
 PCOD8037882
Probable space group: P -1
;
_chemical_formula_sum "Si O2"
_cell_formula_units_Z 12
_cell_length_a 9.431230
_cell_length_b 8.618616
_cell_length_c 12.007832
_cell_angle_alpha 79.906884
_cell_angle_beta 94.455989
_cell_angle_gamma 147.596926
_cell_volume 510.353724
_symmetry_space_group_name_H-M "P -1"
_symmetry_group_IT_number 2
_symmetry_cell_setting 'triclinic'
loop_
_space_group_symop_operation_xyz
x,y,z
-x,-y,-z
loop_
_atom_site_type_symbol
_atom_site_label
_atom_site_fract_x
_atom_site_fract_y
_atom_site_fract_z
Si Si1 0.582057 0.517394 0.231273
Si Si2 0.259814 0.326753 0.429689
Si Si3 0.440651 0.684116 0.959639
Si Si4 0.926629 0.064903 0.072804
Si Si5 0.142391 0.581249 0.386363
Si Si6 0.333132 0.745922 0.732248
O O1 0.324347 0.331497 0.307436
O O2 0.497698 0.407028 0.110183
O O3 0.808028 0.868798 0.201646
O O4 0.697442 0.460766 0.294851
O O5 0.500000 0.500000 0.500000
O O6 0.226512 0.480894 0.410178
O O7 0.000000 0.000000 0.500000
O O8 0.370221 0.768769 0.866004
O O9 0.696978 0.959715 0.016221
O O10 0.191230 0.418155 0.062232
O O11 0.000000 0.000000 0.000000
O O12 0.000000 0.500000 0.500000
O O13 0.936286 0.412375 0.292640
O O14 0.408181 0.932344 0.345550
#
# Coordination Sequence:
#
# PCOD8037882 Si02
#       6
#     2   2   2   2   2   2
#     4   9  21  36  62  88 119 151 199 240 290 331
#     4  12  26  42  61  86 119 152 197 246 292 345
#     4   9  20  32  60  89 118 146 199 239 284 339
#     4  10  17  32  56  95 113 150 192 249 275 338
#     4  12  23  40  60  82 116 155 198 237 294 349
#     4  10  22  36  60  85 116 150 194 238 291 344
#
# _framework density 23.513103999999998
#
# number of rings (size 3 to 8) (size 9 to 14) (size 15 to 20)
#    1.000    0.667    0.000    6.500    0.000    4.000 
#    0.000    0.000    0.000    6.000    0.000    0.000 
#    0.000    0.000    0.000    0.000    0.000    0.000 
#
# Total GULP energy -148713.277131 kJ/mol
# GULP energy per Si atom -12392.773094 kJ/mol
# Density = 2.345959 g / cm^3
# Si number density = 23.513104 Si / 1000 Ang^3
#
#
#
# Elastic Constant Matrix: (Units=GPa)
#
#
# Indices 1 2 3 4 5 6 
#
# 1 142.4354 46.0558 55.2572 -5.6296 26.1879 18.1277
# 2 46.0558 110.1029 49.0522 -22.4776 14.6548 29.0339
# 3 55.2572 49.0522 111.9232 -46.4941 9.6009 -2.5202
# 4 -5.6296 -22.4776 -46.4941 36.5121 4.2231 6.9876
# 5 26.1879 14.6548 9.6009 4.2231 37.3667 0.1881
# 6 18.1277 29.0339 -2.5202 6.9876 0.1881 34.6677
#
#
#
# Elastic Compliance Matrix: (Units=1/GPa)
#
#
# Indices 1 2 3 4 5 6 
#
# 1 0.011698 -0.001154 -0.008419 -0.008315 -0.004623 -0.004061
# 2 -0.001154 0.018890 -0.001959 0.013269 -0.007506 -0.017993
# 3 -0.008419 -0.001959 0.028541 0.034121 -0.004528 0.001264
# 4 -0.008315 0.013269 0.034121 0.083783 -0.017506 -0.021076
# 5 -0.004623 -0.007506 -0.004528 -0.017506 0.036028 0.011707
# 6 -0.004061 -0.017993 0.001264 -0.021076 0.011707 0.050315
#
#
# Mechanical properties :
#
#
# Convention : Reuss Voigt Hill
#
# Bulk Modulus (GPa) = 27.72653 73.91021 50.81837
# Shear Modulus (GPa) = 18.91508 35.98238 27.44873
#
# Velocity S-wave (km/s) = 2.83936 3.91616 3.42040
# Velocity P-wave (km/s) = 4.75045 7.20766 6.10398
#
# Compressibility (1/GPa) = 0.03606654
#
# Stress axis : x y z
#
# Youngs Moduli (GPa) = 85.48461 52.93725 35.03763
#
# Poissons Ratio (x) = 0.06108 0.29498
# Poissons Ratio (y) = 0.09864 0.06862
# Poissons Ratio (z) = 0.71968 0.10368
#
# Static dielectric constant tensor:
#      x y z
#    x 4.186370 0.151270 0.318010 
#    y 0.151270 4.311570 -0.522580 
#    z 0.318010 -0.522580 4.600140 
# 
# 
# High freq. dielectric constant tensor:
#      x y z
#    x 1.918360 0.022110 0.025250 
#    y 0.022110 1.919970 -0.029070 
#    z 0.025250 -0.029070 1.932960 
# 
# From -- ./inp_files/20226.got.cif
#   From: 2010.06.25/outbox.cif.g09.slc.cpg/sg2_11_cif.got.tgz:20226.got - 2010.06.27 13:26:56.
