data_PCOD8037070
_publ_section_title
;
Structure prediction by ZEFSAII (Michael W. Deem and Ramdas Pophale) SiO2 
 PCOD8037070
Probable space group: P -1
;
_chemical_formula_sum "Si O2"
_cell_formula_units_Z 16
_cell_length_a 15.990952
_cell_length_b 9.749854
_cell_length_c 6.958294
_cell_angle_alpha 45.128299
_cell_angle_beta 109.307789
_cell_angle_gamma 99.545681
_cell_volume 721.890034
_symmetry_space_group_name_H-M "P -1"
_symmetry_group_IT_number 2
_symmetry_cell_setting 'triclinic'
loop_
_space_group_symop_operation_xyz
x,y,z
-x,-y,-z
loop_
_atom_site_type_symbol
_atom_site_label
_atom_site_fract_x
_atom_site_fract_y
_atom_site_fract_z
Si Si1 0.683761 0.567441 0.677397
Si Si2 0.088637 0.038372 0.641301
Si Si3 0.797557 0.316247 0.730065
Si Si4 0.322764 0.906075 0.395899
Si Si5 0.421719 0.117371 0.941949
Si Si6 0.914155 0.636788 0.359936
Si Si7 0.455548 0.626869 0.006349
Si Si8 0.197297 0.208929 0.223155
O O1 0.719682 0.387769 0.748142
O O2 0.659124 0.777101 0.349449
O O3 0.592765 0.511354 0.753770
O O4 0.761484 0.597756 0.860660
O O5 0.065739 0.206118 0.618083
O O6 0.160862 0.097011 0.486529
O O7 0.128175 0.839975 0.969210
O O8 0.000000 0.000000 0.500000
O O9 0.752874 0.225404 0.602178
O O10 0.840219 0.508875 0.510209
O O11 0.277552 0.089563 0.292359
O O12 0.386129 0.796583 0.707650
O O13 0.379632 0.968975 0.197733
O O14 0.462365 0.289806 0.911600
O O15 0.500000 0.000000 0.000000
O O16 0.000000 0.500000 0.500000
O O17 0.882102 0.742493 0.034838
O O18 0.500000 0.500000 0.000000
#
# Coordination Sequence:
#
# PCOD8037070 Si02
#       8
#     2   2   2   2   2   2   2   2
#     4  12  24  43  69 100 137 187 234 288 348 411
#     4  12  28  48  73 107 144 184 230 288 353 417
#     4  12  25  47  72 104 143 185 238 286 348 418
#     4  12  24  43  69 100 137 187 234 288 348 411
#     4  12  24  43  66  99 143 182 233 292 349 409
#     4  12  28  48  73 107 144 183 232 288 347 424
#     4  12  24  41  64  99 135 184 235 284 351 411
#     4  12  25  47  72 104 143 185 238 286 348 418
#
# _framework density 22.164041000000001
#
# number of rings (size 3 to 8) (size 9 to 14) (size 15 to 20)
#    0.000    0.000    2.500    8.250    3.500    2.000 
#    0.000    0.000    0.000    0.000    0.000    0.000 
#    0.000    0.000    0.000    0.000    0.000    0.000 
#
# Total GULP energy -198509.164102 kJ/mol
# GULP energy per Si atom -12406.822756 kJ/mol
# Density = 2.211359 g / cm^3
# Si number density = 22.164041 Si / 1000 Ang^3
#
#
#
# Elastic Constant Matrix: (Units=GPa)
#
#
# Indices 1 2 3 4 5 6 
#
# 1 81.1597 28.5345 7.1045 2.6584 8.9667 -4.6060
# 2 28.5345 118.9149 13.9777 6.5425 -1.5039 -0.9904
# 3 7.1045 13.9777 79.9660 4.0436 8.3476 -1.8078
# 4 2.6584 6.5425 4.0436 32.1471 1.1010 4.9753
# 5 8.9667 -1.5039 8.3476 1.1010 31.0475 -5.9251
# 6 -4.6060 -0.9904 -1.8078 4.9753 -5.9251 56.7136
#
#
#
# Elastic Compliance Matrix: (Units=1/GPa)
#
#
# Indices 1 2 3 4 5 6 
#
# 1 0.014017 -0.003362 -0.000202 -0.000419 -0.004010 0.000691
# 2 -0.003362 0.009502 -0.001479 -0.001564 0.001919 0.000183
# 3 -0.000202 -0.001479 0.013213 -0.001243 -0.003498 0.000122
# 4 -0.000419 -0.001564 -0.001243 0.032136 -0.001344 -0.003061
# 5 -0.004010 0.001919 -0.003498 -0.001344 0.035093 0.003381
# 6 0.000691 0.000183 0.000122 -0.003061 0.003381 0.018317
#
#
# Mechanical properties :
#
#
# Convention : Reuss Voigt Hill
#
# Bulk Modulus (GPa) = 37.53065 42.14155 39.83610
# Shear Modulus (GPa) = 35.39922 39.34322 37.37122
#
# Velocity S-wave (km/s) = 4.00077 4.21776 4.11069
# Velocity P-wave (km/s) = 6.18962 6.54019 6.36732
#
# Compressibility (1/GPa) = 0.02664489
#
# Stress axis : x y z
#
# Youngs Moduli (GPa) = 71.34219 105.24387 75.68485
#
# Poissons Ratio (x) = 0.35379 0.01531
# Poissons Ratio (y) = 0.23982 0.11196
# Poissons Ratio (z) = 0.01443 0.15569
#
# Static dielectric constant tensor:
#      x y z
#    x 4.019530 -0.029950 -0.059730 
#    y -0.029950 4.199570 0.086210 
#    z -0.059730 0.086210 4.000640 
# 
# 
# High freq. dielectric constant tensor:
#      x y z
#    x 1.887190 -0.001040 0.001930 
#    y -0.001040 1.892300 0.003600 
#    z 0.001930 0.003600 1.882300 
# 
# From -- ./inp_files/106117.got.cif
#   From: 2010.06.25/outbox.cif.g09.slc.cpg/sg2_54_cif.got.tgz:106117.got - 2010.06.27 13:26:56.
