data_PCOD8037849
_publ_section_title
;
Structure prediction by ZEFSAII (Michael W. Deem and Ramdas Pophale) SiO2 
 PCOD8037849
Probable space group: P -1
;
_chemical_formula_sum "Si O2"
_cell_formula_units_Z 14
_cell_length_a 12.000000
_cell_length_b 18.000000
_cell_length_c 12.000000
_cell_angle_alpha 150.000000
_cell_angle_beta 60.000000
_cell_angle_gamma 140.000000
_cell_volume 717.332707
_symmetry_space_group_name_H-M "P -1"
_symmetry_group_IT_number 2
_symmetry_cell_setting 'triclinic'
loop_
_space_group_symop_operation_xyz
x,y,z
-x,-y,-z
loop_
_atom_site_type_symbol
_atom_site_label
_atom_site_fract_x
_atom_site_fract_y
_atom_site_fract_z
Si Si1 0.236022 0.573057 0.412952
Si Si2 0.822732 0.637935 0.617796
Si Si3 0.278351 0.132197 0.077157
Si Si4 0.240455 0.862407 0.915842
Si Si5 0.802409 0.316128 0.075866
Si Si6 0.737124 0.339949 0.729811
Si Si7 0.524323 0.168010 0.834266
O O1 0.283021 0.488250 0.372244
O O2 0.316947 0.803906 0.716002
O O3 0.322696 0.626494 0.312921
O O4 0.997144 0.362901 0.249732
O O5 0.711009 0.679796 0.671837
O O6 0.805516 0.482832 0.344220
O O7 0.057387 0.881659 0.828967
O O8 0.436643 0.227663 0.026182
O O9 0.326698 0.094797 0.124121
O O10 0.309974 0.892785 0.048527
O O11 0.022310 0.451600 0.109003
O O12 0.679727 0.209895 0.884797
O O13 0.636829 0.329012 0.874831
O O14 0.659529 0.101674 0.457784
#
# Coordination Sequence:
#
# PCOD8037849 Si02
#       7
#     2   2   2   2   2   2   2
#     4   8  13  29  50  70  94 132 160 199 245 286
#     4   9  18  31  54  73 103 130 159 204 254 290
#     4  10  17  32  49  80 100 131 161 199 253 295
#     4   8  14  27  50  72  99 122 160 206 246 284
#     4  10  19  34  52  77  98 129 163 205 248 289
#     4  10  19  35  50  74 102 129 166 207 235 291
#     4  11  21  30  53  76 100 131 166 202 243 287
#
# _framework density 19.516746000000001
#
# number of rings (size 3 to 8) (size 9 to 14) (size 15 to 20)
#    0.000    2.571    2.857    2.143    0.000    1.143 
#    0.000    0.714    0.000    0.000    0.000    5.000 
#    0.000    0.000    0.000    0.000    0.000    0.000 
#
# Total GULP energy -173464.299800 kJ/mol
# GULP energy per Si atom -12390.307129 kJ/mol
# Density = 1.947232 g / cm^3
# Si number density = 19.516746 Si / 1000 Ang^3
#
#
#
# Elastic Constant Matrix: (Units=GPa)
#
#
# Indices 1 2 3 4 5 6 
#
# 1 92.7112 49.0680 19.4739 3.9197 -12.8623 -25.4747
# 2 49.0680 156.2824 12.2634 -11.7117 -8.5241 -28.9036
# 3 19.4739 12.2634 6.7568 0.4319 -8.3910 -5.2679
# 4 3.9197 -11.7117 0.4319 13.3186 -7.5229 -0.6540
# 5 -12.8623 -8.5241 -8.3910 -7.5229 31.3565 0.2255
# 6 -25.4747 -28.9036 -5.2679 -0.6540 0.2255 36.6284
#
#
#
# Elastic Compliance Matrix: (Units=1/GPa)
#
#
# Indices 1 2 3 4 5 6 
#
# 1 0.041271 -0.004744 -0.140836 -0.027770 -0.028742 0.004386
# 2 -0.004744 0.009676 0.006306 0.013055 0.005465 0.005442
# 3 -0.140836 0.006306 0.774606 0.125130 0.181107 0.019549
# 4 -0.027770 0.013055 0.125130 0.122210 0.054884 0.010828
# 5 -0.028742 0.005465 0.181107 0.054884 0.083141 0.010837
# 6 0.004386 0.005442 0.019549 0.010828 0.010837 0.037585
#
#
# Mechanical properties :
#
#
# Convention : Reuss Voigt Hill
#
# Bulk Modulus (GPa) = 1.82813 46.37346 24.10080
# Shear Modulus (GPa) = 3.26932 27.92371 15.59651
#
# Velocity S-wave (km/s) = 1.29567 3.78664 2.82996
# Velocity P-wave (km/s) = 1.78244 6.55214 4.80144
#
# Compressibility (1/GPa) = 0.54700583
#
# Stress axis : x y z
#
# Youngs Moduli (GPa) = 24.22983 103.34551 1.29098
#
# Poissons Ratio (x) = 0.49029 0.18182
# Poissons Ratio (y) = 0.11495 -0.00814
# Poissons Ratio (z) = 3.41243 -0.65171
#
# Static dielectric constant tensor:
#      x y z
#    x 3.873280 -0.375930 0.095710 
#    y -0.375930 3.935060 0.135380 
#    z 0.095710 0.135380 3.262450 
# 
# 
# High freq. dielectric constant tensor:
#      x y z
#    x 1.753260 -0.019200 0.025360 
#    y -0.019200 1.773610 0.024020 
#    z 0.025360 0.024020 1.730630 
# 
# From -- ./inp_files/169302.got.cif
#   From: 2010.06.25/outbox.ucp.g09.slc.cvg/sg2_85_cif.got.tgz:169302.got - 2010.06.28 11:54:26.
