data_PCOD8037825
_publ_section_title
;
Structure prediction by ZEFSAII (Michael W. Deem and Ramdas Pophale) SiO2 
 PCOD8037825
Probable space group: P -1
;
_chemical_formula_sum "Si O2"
_cell_formula_units_Z 16
_cell_length_a 16.025771
_cell_length_b 9.186862
_cell_length_c 9.186795
_cell_angle_alpha 86.915662
_cell_angle_beta 120.365700
_cell_angle_gamma 120.360195
_cell_volume 969.299182
_symmetry_space_group_name_H-M "P -1"
_symmetry_group_IT_number 2
_symmetry_cell_setting 'triclinic'
loop_
_space_group_symop_operation_xyz
x,y,z
-x,-y,-z
loop_
_atom_site_type_symbol
_atom_site_label
_atom_site_fract_x
_atom_site_fract_y
_atom_site_fract_z
Si Si1 0.558157 0.811244 0.566392
Si Si2 0.114334 0.964892 0.964814
Si Si3 0.322466 0.224051 0.588673
Si Si4 0.295174 0.119450 0.887197
Si Si5 0.704815 0.112749 0.880565
Si Si6 0.677586 0.411324 0.775976
Si Si7 0.441800 0.433592 0.188746
Si Si8 0.148442 0.229703 0.229655
O O1 0.626375 0.853671 0.471866
O O2 0.420632 0.706159 0.424648
O O3 0.589260 0.691989 0.691978
O O4 0.601184 0.989308 0.681717
O O5 0.978420 0.825941 0.825892
O O6 0.175394 0.071833 0.862959
O O7 0.175435 0.863107 0.071860
O O8 0.138722 0.102651 0.102484
O O9 0.280237 0.103517 0.701957
O O10 0.420680 0.424653 0.706184
O O11 0.213237 0.217247 0.426530
O O12 0.398774 0.318283 0.010670
O O13 0.327015 0.983731 0.983705
O O14 0.719791 0.298015 0.896521
O O15 0.626446 0.471922 0.853685
O O16 0.786824 0.573414 0.782788
#
# Coordination Sequence:
#
# PCOD8037825 Si02
#       8
#     2   2   2   2   2   2   2   2
#     4  10  17  32  50  77  97 123 164 205 239 287
#     4   9  20  35  48  73  97 127 170 201 243 277
#     4  11  17  29  56  74  95 124 166 200 246 283
#     4   9  19  34  47  70 105 130 153 199 246 293
#     4   9  19  34  47  70 105 130 153 199 246 293
#     4  11  17  29  56  74  95 124 166 200 246 283
#     4  10  17  32  50  77  97 123 164 205 239 287
#     4  11  18  32  57  73  88 130 171 211 235 270
#
# _framework density 16.506769999999999
#
# number of rings (size 3 to 8) (size 9 to 14) (size 15 to 20)
#    0.750    1.250    5.000    1.500    0.000    1.000 
#    0.000    2.500    2.750    0.000    0.000    3.500 
#    0.000    0.000    0.000    0.000    0.000    0.000 
#
# Total GULP energy -198322.879228 kJ/mol
# GULP energy per Si atom -12395.179952 kJ/mol
# Density = 1.646920 g / cm^3
# Si number density = 16.506770 Si / 1000 Ang^3
#
#
#
# Elastic Constant Matrix: (Units=GPa)
#
#
# Indices 1 2 3 4 5 6 
#
# 1 55.7070 36.1882 32.0312 -1.7427 9.8778 5.8484
# 2 36.1882 89.4496 50.6991 -7.3024 7.7993 -7.1107
# 3 32.0312 50.6991 82.3576 -8.1519 0.6462 11.4336
# 4 -1.7427 -7.3024 -8.1519 20.8081 11.7481 6.0301
# 5 9.8778 7.7993 0.6462 11.7481 25.7036 2.7422
# 6 5.8484 -7.1107 11.4336 6.0301 2.7422 27.3629
#
#
#
# Elastic Compliance Matrix: (Units=1/GPa)
#
#
# Indices 1 2 3 4 5 6 
#
# 1 0.028504 -0.008135 -0.004577 0.005320 -0.010114 -0.006453
# 2 -0.008135 0.023591 -0.012975 0.002048 -0.006077 0.013448
# 3 -0.004577 -0.012975 0.024593 0.006970 0.003444 -0.014551
# 4 0.005320 0.002048 0.006970 0.077422 -0.036422 -0.016929
# 5 -0.010114 -0.006077 0.003444 -0.036422 0.061084 0.001048
# 6 -0.006453 0.013448 -0.014551 -0.016929 0.001048 0.051125
#
#
# Mechanical properties :
#
#
# Convention : Reuss Voigt Hill
#
# Bulk Modulus (GPa) = 39.50327 51.70570 45.60449
# Shear Modulus (GPa) = 15.33127 22.01463 18.67295
#
# Velocity S-wave (km/s) = 3.05091 3.65591 3.36703
# Velocity P-wave (km/s) = 6.03276 7.01519 6.54244
#
# Compressibility (1/GPa) = 0.02531436
#
# Stress axis : x y z
#
# Youngs Moduli (GPa) = 35.08250 42.38940 40.66255
#
# Poissons Ratio (x) = 0.34482 0.18610
# Poissons Ratio (y) = 0.28538 0.52761
# Poissons Ratio (z) = 0.16057 0.55001
#
# Static dielectric constant tensor:
#      x y z
#    x 2.925550 0.119650 0.156070 
#    y 0.119650 3.020170 0.095250 
#    z 0.156070 0.095250 3.049500 
# 
# 
# High freq. dielectric constant tensor:
#      x y z
#    x 1.616800 0.006490 0.008730 
#    y 0.006490 1.624920 0.004870 
#    z 0.008730 0.004870 1.626330 
# 
# From -- ./inp_files/170575.got.cif
#   From: 2010.06.25/outbox.cif.g09.slc.cpg/sg2_86_cif.got.tgz:170575.got - 2010.06.27 13:26:56.
