data_PCOD8037586
_publ_section_title
;
Structure prediction by ZEFSAII (Michael W. Deem and Ramdas Pophale) SiO2 
 PCOD8037586
Probable space group: P -1
;
_chemical_formula_sum "Si O2"
_cell_formula_units_Z 12
_cell_length_a 5.135604
_cell_length_b 11.275583
_cell_length_c 10.725436
_cell_angle_alpha 61.721458
_cell_angle_beta 78.586486
_cell_angle_gamma 111.375284
_cell_volume 454.368233
_symmetry_space_group_name_H-M "P -1"
_symmetry_group_IT_number 2
_symmetry_cell_setting 'triclinic'
loop_
_space_group_symop_operation_xyz
x,y,z
-x,-y,-z
loop_
_atom_site_type_symbol
_atom_site_label
_atom_site_fract_x
_atom_site_fract_y
_atom_site_fract_z
Si Si1 0.270775 0.414662 0.177892
Si Si2 0.010353 0.105824 0.060195
Si Si3 0.772734 0.742815 0.509992
Si Si4 0.737910 0.318351 0.604165
Si Si5 0.708287 0.290823 0.903356
Si Si6 0.800935 0.043526 0.373035
O O1 0.425303 0.398838 0.299179
O O2 0.123415 0.521489 0.172559
O O3 0.017418 0.233153 0.259850
O O4 0.500000 0.500000 0.000000
O O5 0.358909 0.195745 0.044411
O O6 0.936354 0.236497 0.956630
O O7 0.762283 0.002810 0.246012
O O8 0.000000 0.000000 0.000000
O O9 0.557114 0.698881 0.431844
O O10 0.108924 0.766366 0.438817
O O11 0.889179 0.915413 0.476330
O O12 0.632114 0.247430 0.786811
O O13 0.000000 0.500000 0.500000
O O14 0.500000 0.000000 0.500000
#
# Coordination Sequence:
#
# PCOD8037586 Si02
#       6
#     2   2   2   2   2   2
#     4  12  28  51  80 117 165 216 270 329 405 488
#     4  12  28  52  81 116 163 212 270 336 407 480
#     4  12  28  51  80 117 161 210 269 334 402 482
#     4  12  25  47  81 116 158 205 268 335 405 474
#     4  12  27  48  82 117 156 209 271 333 403 479
#     4  12  29  51  83 119 167 218 271 334 408 488
#
# _framework density 26.410295999999999
#
# number of rings (size 3 to 8) (size 9 to 14) (size 15 to 20)
#    0.000    0.000    3.333    5.500    4.667    3.333 
#    0.000    0.000    0.000    0.000    0.000    0.000 
#    0.000    0.000    0.000    0.000    0.000    0.000 
#
# Total GULP energy -148709.200671 kJ/mol
# GULP energy per Si atom -12392.433389 kJ/mol
# Density = 2.635018 g / cm^3
# Si number density = 26.410296 Si / 1000 Ang^3
#
#
#
# Elastic Constant Matrix: (Units=GPa)
#
#
# Indices 1 2 3 4 5 6 
#
# 1 89.3635 35.9377 31.2558 -2.7233 -3.5763 -32.1455
# 2 35.9377 167.5519 51.9637 -14.1696 -8.2503 -49.5073
# 3 31.2558 51.9637 186.7454 4.6322 -17.2040 -30.9559
# 4 -2.7233 -14.1696 4.6322 51.3677 -12.5195 2.4920
# 5 -3.5763 -8.2503 -17.2040 -12.5195 31.2663 -10.6721
# 6 -32.1455 -49.5073 -30.9559 2.4920 -10.6721 48.2746
#
#
#
# Elastic Compliance Matrix: (Units=1/GPa)
#
#
# Indices 1 2 3 4 5 6 
#
# 1 0.015895 0.001074 -0.000162 0.002325 0.007415 0.013101
# 2 0.001074 0.010520 -0.000202 0.004557 0.009101 0.013151
# 3 -0.000162 -0.000202 0.006827 0.000445 0.005670 0.005294
# 4 0.002325 0.004557 0.000445 0.023844 0.014128 0.008400
# 5 0.007415 0.009101 0.005670 0.014128 0.053944 0.029103
# 6 0.013101 0.013151 0.005294 0.008400 0.029103 0.052320
#
#
# Mechanical properties :
#
#
# Convention : Reuss Voigt Hill
#
# Bulk Modulus (GPa) = 28.84990 75.77503 52.31247
# Shear Modulus (GPa) = 28.82120 47.81528 38.31824
#
# Velocity S-wave (km/s) = 3.30705 4.25959 3.81318
# Velocity P-wave (km/s) = 5.05267 7.27639 6.26400
#
# Compressibility (1/GPa) = 0.03466216
#
# Stress axis : x y z
#
# Youngs Moduli (GPa) = 62.91138 95.05839 146.48007
#
# Poissons Ratio (x) = -0.10206 0.02374
# Poissons Ratio (y) = -0.06754 0.02952
# Poissons Ratio (z) = 0.01020 0.01916
#
# Static dielectric constant tensor:
#      x y z
#    x 4.595340 -0.045200 -0.343530 
#    y -0.045200 5.617540 0.199370 
#    z -0.343530 0.199370 5.432070 
# 
# 
# High freq. dielectric constant tensor:
#      x y z
#    x 2.038220 -0.011140 0.005360 
#    y -0.011140 2.099360 0.002450 
#    z 0.005360 0.002450 2.086670 
# 
# From -- ./inp_files/361108.got.cif
#   From: 2010.06.25/outbox.cif.g09.slc.cpg/sg2_181_cif.got.tgz:361108.got - 2010.06.27 13:26:56.
