data_PCOD8037762
_publ_section_title
;
Structure prediction by ZEFSAII (Michael W. Deem and Ramdas Pophale) SiO2 
 PCOD8037762
Probable space group: P -1
;
_chemical_formula_sum "Si O2"
_cell_formula_units_Z 12
_cell_length_a 9.962883
_cell_length_b 5.364024
_cell_length_c 11.225571
_cell_angle_alpha 120.105036
_cell_angle_beta 68.206613
_cell_angle_gamma 110.234401
_cell_volume 472.279239
_symmetry_space_group_name_H-M "P -1"
_symmetry_group_IT_number 2
_symmetry_cell_setting 'triclinic'
loop_
_space_group_symop_operation_xyz
x,y,z
-x,-y,-z
loop_
_atom_site_type_symbol
_atom_site_label
_atom_site_fract_x
_atom_site_fract_y
_atom_site_fract_z
Si Si1 0.132817 0.710107 0.573413
Si Si2 0.623967 0.195590 0.673836
Si Si3 0.768816 0.331774 0.883281
Si Si4 0.539670 0.317706 0.125422
Si Si5 0.613199 0.322763 0.366340
Si Si6 0.941938 0.918764 0.867985
O O1 0.253305 0.861060 0.473972
O O2 0.226730 0.553688 0.598555
O O3 0.000000 0.500000 0.500000
O O4 0.068366 0.943961 0.730784
O O5 0.676372 0.096816 0.762872
O O6 0.603653 0.534963 0.774786
O O7 0.461762 0.011957 0.650661
O O8 0.865857 0.574623 0.823198
O O9 0.846386 0.149458 0.908329
O O10 0.660370 0.496458 0.035324
O O11 0.628352 0.327950 0.221534
O O12 0.500000 0.000000 0.000000
O O13 0.500000 0.500000 0.500000
O O14 0.000000 0.000000 0.000000
#
# Coordination Sequence:
#
# PCOD8037762 Si02
#       6
#     2   2   2   2   2   2
#     4  12  28  51  79 115 165 211 265 338 411 487
#     4  12  27  49  79 121 157 210 276 336 406 485
#     4  12  27  48  83 115 159 215 271 334 404 483
#     4  12  26  48  82 115 162 209 278 339 404 478
#     4  12  28  49  81 118 158 210 277 334 408 484
#     4  12  29  52  79 118 164 213 273 330 414 490
#
# _framework density 25.408695999999999
#
# number of rings (size 3 to 8) (size 9 to 14) (size 15 to 20)
#    0.000    0.000    5.000    3.500    7.000    2.000 
#    0.000    0.000    0.000    0.000    0.000    0.000 
#    0.000    0.000    0.000    0.000    0.000    0.000 
#
# Total GULP energy -148663.300879 kJ/mol
# GULP energy per Si atom -12388.608407 kJ/mol
# Density = 2.535086 g / cm^3
# Si number density = 25.408696 Si / 1000 Ang^3
#
#
#
# Elastic Constant Matrix: (Units=GPa)
#
#
# Indices 1 2 3 4 5 6 
#
# 1 172.7043 30.1008 64.4986 -3.6076 26.6320 -2.2597
# 2 30.1008 83.6694 29.1420 -5.0472 -2.5687 -8.9751
# 3 64.4986 29.1420 202.7720 -27.7920 1.3800 2.0970
# 4 -3.6076 -5.0472 -27.7920 47.3347 -0.5072 -0.0331
# 5 26.6320 -2.5687 1.3800 -0.5072 61.3163 -7.2423
# 6 -2.2597 -8.9751 2.0970 -0.0331 -7.2423 33.5801
#
#
#
# Elastic Compliance Matrix: (Units=1/GPa)
#
#
# Indices 1 2 3 4 5 6 
#
# 1 0.007468 -0.002166 -0.002167 -0.000971 -0.003373 -0.000669
# 2 -0.002166 0.013698 -0.001255 0.000583 0.002024 0.004031
# 3 -0.002167 -0.001255 0.006269 0.003388 0.000691 -0.000721
# 4 -0.000971 0.000583 0.003388 0.023110 0.000564 0.000023
# 5 -0.003373 0.002024 0.000691 0.000564 0.018347 0.004228
# 6 -0.000669 0.004031 -0.000721 0.000023 0.004228 0.031769
#
#
# Mechanical properties :
#
#
# Convention : Reuss Voigt Hill
#
# Bulk Modulus (GPa) = 61.50926 78.51429 70.01177
# Shear Modulus (GPa) = 42.64147 50.80652 46.72399
#
# Velocity S-wave (km/s) = 4.10106 4.47651 4.29289
# Velocity P-wave (km/s) = 6.83267 7.59516 7.22398
#
# Compressibility (1/GPa) = 0.01625771
#
# Stress axis : x y z
#
# Youngs Moduli (GPa) = 133.90021 73.00424 159.52360
#
# Poissons Ratio (x) = 0.15811 0.34576
# Poissons Ratio (y) = 0.28999 0.20025
# Poissons Ratio (z) = 0.29023 0.09164
#
# Static dielectric constant tensor:
#      x y z
#    x 2.518060 10.841270 3.926480 
#    y 10.841270 -39.164880 -16.198820 
#    z 3.926480 -16.198820 -0.666580 
# 
# 
# High freq. dielectric constant tensor:
#      x y z
#    x 2.023760 0.003730 0.011900 
#    y 0.003730 1.991680 -0.018480 
#    z 0.011900 -0.018480 2.050620 
# 
# From -- ./inp_files/83060.got.cif
#   From: 2010.06.25/outbox.cif.g09.slc.cpg/sg2_42_cif.got.tgz:83060.got - 2010.06.27 13:26:56.
