data_PCOD8037747
_publ_section_title
;
Structure prediction by ZEFSAII (Michael W. Deem and Ramdas Pophale) SiO2 
 PCOD8037747
Probable space group: P -1
;
_chemical_formula_sum "Si O2"
_cell_formula_units_Z 12
_cell_length_a 12.637016
_cell_length_b 4.873654
_cell_length_c 16.440045
_cell_angle_alpha 77.586381
_cell_angle_beta 34.039568
_cell_angle_gamma 63.771253
_cell_volume 484.798939
_symmetry_space_group_name_H-M "P -1"
_symmetry_group_IT_number 2
_symmetry_cell_setting 'triclinic'
loop_
_space_group_symop_operation_xyz
x,y,z
-x,-y,-z
loop_
_atom_site_type_symbol
_atom_site_label
_atom_site_fract_x
_atom_site_fract_y
_atom_site_fract_z
Si Si1 0.899128 0.726737 0.939879
Si Si2 0.619507 0.585893 0.349481
Si Si3 0.334795 0.262356 0.414474
Si Si4 0.655292 0.134133 0.918455
Si Si5 0.277819 0.729831 0.868045
Si Si6 0.049023 0.971025 0.564493
O O1 0.140713 0.487327 0.771207
O O2 0.777202 0.001927 0.934433
O O3 0.767989 0.532689 0.044329
O O4 0.904312 0.902469 0.012683
O O5 0.500000 0.500000 0.500000
O O6 0.663017 0.351917 0.259356
O O7 0.479894 0.965501 0.400206
O O8 0.498499 0.281713 0.241166
O O9 0.217452 0.610773 0.511069
O O10 0.147142 0.208715 0.499939
O O11 0.500000 0.500000 0.000000
O O12 0.828806 0.082291 0.743718
O O13 0.500000 0.000000 0.000000
O O14 0.000000 0.000000 0.500000
#
# Coordination Sequence:
#
# PCOD8037747 Si02
#       6
#     2   2   2   2   2   2
#     4  12  28  48  77 110 153 201 251 308 377 453
#     4  12  28  49  80 113 156 196 251 316 378 449
#     4  12  26  48  77 113 150 193 255 305 380 443
#     4  12  29  51  76 111 151 197 256 314 372 441
#     4  12  26  49  76 109 154 199 249 300 384 446
#     4  12  28  50  80 110 151 199 256 308 377 448
#
# _framework density 24.752528999999999
#
# number of rings (size 3 to 8) (size 9 to 14) (size 15 to 20)
#    0.000    0.000    3.333    4.500    9.333    2.000 
#    0.000    0.000    0.000    0.000    0.000    0.000 
#    0.000    0.000    0.000    0.000    0.000    0.000 
#
# Total GULP energy -148743.733209 kJ/mol
# GULP energy per Si atom -12395.311101 kJ/mol
# Density = 2.469619 g / cm^3
# Si number density = 24.752529 Si / 1000 Ang^3
#
#
#
# Elastic Constant Matrix: (Units=GPa)
#
#
# Indices 1 2 3 4 5 6 
#
# 1 61.0807 33.7826 56.3070 -18.1538 -5.4867 0.1762
# 2 33.7826 161.3989 92.8534 4.1809 -8.0355 8.1721
# 3 56.3070 92.8534 251.3725 -16.3861 -11.4114 0.5563
# 4 -18.1538 4.1809 -16.3861 53.5283 9.1267 -9.8125
# 5 -5.4867 -8.0355 -11.4114 9.1267 33.8026 -4.5840
# 6 0.1762 8.1721 0.5563 -9.8125 -4.5840 52.1153
#
#
#
# Elastic Compliance Matrix: (Units=1/GPa)
#
#
# Indices 1 2 3 4 5 6 
#
# 1 0.023716 -0.003140 -0.003664 0.007494 0.000097 0.001871
# 2 -0.003140 0.008584 -0.002608 -0.003071 0.001239 -0.001777
# 3 -0.003664 -0.002608 0.005838 0.000742 0.000631 0.000554
# 4 0.007494 -0.003071 0.000742 0.023345 -0.004969 0.004407
# 5 0.000097 0.001239 0.000631 -0.004969 0.031672 0.001649
# 6 0.001871 -0.001777 0.000554 0.004407 0.001649 0.020429
#
#
# Mechanical properties :
#
#
# Convention : Reuss Voigt Hill
#
# Bulk Modulus (GPa) = 51.77198 93.30422 72.53810
# Shear Modulus (GPa) = 36.01088 47.28319 41.64704
#
# Velocity S-wave (km/s) = 3.81837 4.37537 4.10632
# Velocity P-wave (km/s) = 6.35619 7.95624 7.20080
#
# Compressibility (1/GPa) = 0.01931547
#
# Stress axis : x y z
#
# Youngs Moduli (GPa) = 42.16480 116.48948 171.29712
#
# Poissons Ratio (x) = 0.36582 0.62758
# Poissons Ratio (y) = 0.13241 0.44666
# Poissons Ratio (z) = 0.15448 0.30375
#
# Static dielectric constant tensor:
#      x y z
#    x 4.536480 0.252580 -0.314510 
#    y 0.252580 4.479530 -0.071830 
#    z -0.314510 -0.071830 4.878810 
# 
# 
# High freq. dielectric constant tensor:
#      x y z
#    x 1.977990 0.015140 -0.027320 
#    y 0.015140 2.000700 0.003790 
#    z -0.027320 0.003790 2.017800 
# 
# From -- ./inp_files/571605.got.cif
#   From: 2010.06.25/outbox.cif.g09.slc.cpg/sg2_286_cif.got.tgz:571605.got - 2010.06.27 13:26:56.
