data_PCOD8037311
_publ_section_title
;
Structure prediction by ZEFSAII (Michael W. Deem and Ramdas Pophale) SiO2 
 PCOD8037311
Probable space group: P -1
;
_chemical_formula_sum "Si O2"
_cell_formula_units_Z 14
_cell_length_a 15.082493
_cell_length_b 8.904935
_cell_length_c 12.667263
_cell_angle_alpha 49.068181
_cell_angle_beta 151.204072
_cell_angle_gamma 120.365067
_cell_volume 608.021583
_symmetry_space_group_name_H-M "P -1"
_symmetry_group_IT_number 2
_symmetry_cell_setting 'triclinic'
loop_
_space_group_symop_operation_xyz
x,y,z
-x,-y,-z
loop_
_atom_site_type_symbol
_atom_site_label
_atom_site_fract_x
_atom_site_fract_y
_atom_site_fract_z
Si Si1 0.628782 0.684091 0.838238
Si Si2 0.076185 0.375176 0.242132
Si Si3 0.667074 0.353621 0.295953
Si Si4 0.585574 0.454350 0.496230
Si Si5 0.163899 0.976753 0.094568
Si Si6 0.996424 0.564191 0.627140
Si Si7 0.036750 0.927462 0.371473
O O1 0.427410 0.739322 0.660826
O O2 0.592443 0.546685 0.763588
O O3 0.683468 0.896066 0.762587
O O4 0.797522 0.550528 0.145491
O O5 0.300460 0.365053 0.490472
O O6 0.988060 0.474239 0.213131
O O7 0.026820 0.154840 0.292131
O O8 0.000000 0.500000 0.000000
O O9 0.832227 0.465394 0.453500
O O10 0.748108 0.171255 0.385642
O O11 0.500000 0.500000 0.000000
O O12 0.500000 0.500000 0.500000
O O13 0.739554 0.248928 0.733775
O O14 0.000000 0.000000 0.000000
O O15 0.081465 0.086014 0.851209
O O16 0.961439 0.798525 0.445735
#
# Coordination Sequence:
#
# PCOD8037311 Si02
#       7
#     2   2   2   2   2   2   2
#     4  12  25  46  77 106 149 194 252 314 374 449
#     4  12  26  49  74 104 155 198 244 304 379 455
#     4  12  24  47  74 110 148 195 251 311 377 448
#     4  12  27  46  71 112 150 200 253 313 377 453
#     4  12  26  47  76 110 153 201 254 312 382 453
#     4  12  25  51  74 110 149 195 249 315 381 443
#     4  12  26  45  77 110 147 198 249 310 378 450
#
# _framework density 23.025499
#
# number of rings (size 3 to 8) (size 9 to 14) (size 15 to 20)
#    0.000    0.000    5.714    4.714    4.000    0.000 
#    0.000    1.429    0.000    0.000    0.000    0.000 
#    0.000    0.000    0.000    0.000    0.000    0.000 
#
# Total GULP energy -173530.201097 kJ/mol
# GULP energy per Si atom -12395.014364 kJ/mol
# Density = 2.297309 g / cm^3
# Si number density = 23.025499 Si / 1000 Ang^3
#
#
#
# Elastic Constant Matrix: (Units=GPa)
#
#
# Indices 1 2 3 4 5 6 
#
# 1 117.0900 34.7363 32.1963 6.2986 4.0188 7.9293
# 2 34.7363 126.9123 31.2258 15.6012 9.7674 20.0921
# 3 32.1963 31.2258 108.5449 12.8313 7.6175 1.8211
# 4 6.2986 15.6012 12.8313 45.2849 2.6267 4.0472
# 5 4.0188 9.7674 7.6175 2.6267 43.8302 2.6594
# 6 7.9293 20.0921 1.8211 4.0472 2.6594 45.0015
#
#
#
# Elastic Compliance Matrix: (Units=1/GPa)
#
#
# Indices 1 2 3 4 5 6 
#
# 1 0.009824 -0.002003 -0.002331 0.000051 -0.000007 -0.000747
# 2 -0.002003 0.009831 -0.001820 -0.002186 -0.001336 -0.003687
# 3 -0.002331 -0.001820 0.010744 -0.002118 -0.001185 0.001049
# 4 0.000051 -0.002186 -0.002118 0.023550 -0.000498 -0.001036
# 5 -0.000007 -0.001336 -0.001185 -0.000498 0.023391 -0.000692
# 6 -0.000747 -0.003687 0.001049 -0.001036 -0.000692 0.024091
#
#
# Mechanical properties :
#
#
# Convention : Reuss Voigt Hill
#
# Bulk Modulus (GPa) = 55.27695 60.98488 58.13092
# Shear Modulus (GPa) = 41.74768 43.78256 42.76512
#
# Velocity S-wave (km/s) = 4.26268 4.36533 4.31431
# Velocity P-wave (km/s) = 6.94883 7.20773 7.07946
#
# Compressibility (1/GPa) = 0.01809072
#
# Stress axis : x y z
#
# Youngs Moduli (GPa) = 101.79648 101.72264 93.07883
#
# Poissons Ratio (x) = 0.20373 0.21694
# Poissons Ratio (y) = 0.20388 0.16940
# Poissons Ratio (z) = 0.23726 0.18514
#
# Static dielectric constant tensor:
#      x y z
#    x 4.737950 0.096150 0.192910 
#    y 0.096150 4.307810 0.166230 
#    z 0.192910 0.166230 4.548920 
# 
# 
# High freq. dielectric constant tensor:
#      x y z
#    x 1.922470 0.008140 0.000290 
#    y 0.008140 1.916070 0.013110 
#    z 0.000290 0.013110 1.914950 
# 
# From -- ./inp_files/183785.got.cif
#   From: 2010.06.25/outbox.cif.g09.slc.cpg/sg2_92_cif.got.tgz:183785.got - 2010.06.27 13:26:56.
