data_PCOD8037858
_publ_section_title
;
Structure prediction by ZEFSAII (Michael W. Deem and Ramdas Pophale) SiO2 
 PCOD8037858
Probable space group: P -1
;
_chemical_formula_sum "Si O2"
_cell_formula_units_Z 16
_cell_length_a 21.000000
_cell_length_b 15.000000
_cell_length_c 24.000000
_cell_angle_alpha 160.000000
_cell_angle_beta 160.000000
_cell_angle_gamma 30.000000
_cell_volume 874.967006
_symmetry_space_group_name_H-M "P -1"
_symmetry_group_IT_number 2
_symmetry_cell_setting 'triclinic'
loop_
_space_group_symop_operation_xyz
x,y,z
-x,-y,-z
loop_
_atom_site_type_symbol
_atom_site_label
_atom_site_fract_x
_atom_site_fract_y
_atom_site_fract_z
Si Si1 0.210089 0.902435 0.868665
Si Si2 0.221459 0.874964 0.986068
Si Si3 0.920701 0.566210 0.806504
Si Si4 0.626303 0.095157 0.320588
Si Si5 0.083149 0.232223 0.662997
Si Si6 0.949961 0.643084 0.414094
Si Si7 0.939746 0.324696 0.899812
Si Si8 0.355179 0.007159 0.599292
O O1 0.217727 0.762624 0.853266
O O2 0.130639 0.703717 0.638203
O O3 0.080751 0.118732 0.899438
O O4 0.410293 0.049802 0.098872
O O5 0.103530 0.672700 0.812912
O O6 0.139213 0.149063 0.084352
O O7 0.436866 0.894316 0.193659
O O8 0.732051 0.351670 0.526693
O O9 0.058959 0.505392 0.834077
O O10 0.043279 0.527107 0.939969
O O11 0.643545 0.148135 0.432235
O O12 0.705712 0.824586 0.209440
O O13 0.988993 0.246041 0.532210
O O14 0.000000 0.000000 0.500000
O O15 0.771154 0.761162 0.361210
O O16 0.728827 0.186581 0.633223
O O17 0.000000 0.500000 0.000000
#
# Coordination Sequence:
#
# PCOD8037858 Si02
#       8
#     2   2   2   2   2   2   2   2
#     4   9  20  31  53  81 102 132 167 214 259 298
#     4  10  20  32  53  79 108 134 164 212 257 309
#     4  10  20  33  50  76 106 135 168 209 259 301
#     4   9  17  34  53  75 103 132 169 215 255 298
#     4   9  20  37  54  70  99 141 177 210 250 298
#     4  10  19  36  54  74 104 139 174 204 250 308
#     4  10  18  29  51  78 107 131 160 214 262 299
#     4   9  18  31  52  80 101 134 170 208 258 303
#
# _framework density 18.286404000000001
#
# number of rings (size 3 to 8) (size 9 to 14) (size 15 to 20)
#    0.000    2.500    1.250    0.750    3.500    2.000 
#    0.000    3.750    0.000    1.500    0.000    0.000 
#    0.000    0.000    0.000    0.000    0.000    0.000 
#
# Total GULP energy -198226.989762 kJ/mol
# GULP energy per Si atom -12389.186860 kJ/mol
# Density = 1.824478 g / cm^3
# Si number density = 18.286404 Si / 1000 Ang^3
#
#
#
# Elastic Constant Matrix: (Units=GPa)
#
#
# Indices 1 2 3 4 5 6 
#
# 1 85.7900 19.9505 49.2671 -3.9975 -10.1915 5.2443
# 2 19.9505 41.5552 47.6329 -3.4171 -7.5704 16.2999
# 3 49.2671 47.6329 101.2094 -11.7280 -7.3094 7.7480
# 4 -3.9975 -3.4171 -11.7280 30.1847 6.7810 0.8344
# 5 -10.1915 -7.5704 -7.3094 6.7810 18.8920 9.8294
# 6 5.2443 16.2999 7.7480 0.8344 9.8294 21.3828
#
#
#
# Elastic Compliance Matrix: (Units=1/GPa)
#
#
# Indices 1 2 3 4 5 6 
#
# 1 0.321562 1.597043 -0.700515 -0.356150 1.584320 -1.756841
# 2 1.597043 8.390755 -3.640461 -1.855892 8.266320 -9.196272
# 3 -0.700515 -3.640461 1.594093 0.809451 -3.583978 3.985204
# 4 -0.356150 -1.855892 0.809451 0.448383 -1.844578 2.039208
# 5 1.584320 8.266320 -3.583978 -1.844578 8.232015 -9.103435
# 6 -1.756841 -9.196272 3.985204 2.039208 -9.103435 10.149010
#
#
# Mechanical properties :
#
#
# Convention : Reuss Voigt Hill
#
# Bulk Modulus (GPa) = 0.20753 51.36174 25.78463
# Shear Modulus (GPa) = 0.13801 21.53884 10.83842
#
# Velocity S-wave (km/s) = 0.27502 3.43572 2.43719
# Velocity P-wave (km/s) = 0.46323 6.62475 4.69584
#
# Compressibility (1/GPa) = 4.81854283
#
# Stress axis : x y z
#
# Youngs Moduli (GPa) = 3.10982 0.11918 0.62732
#
# Poissons Ratio (x) = -0.19033 0.43944
# Poissons Ratio (y) = -4.96652 2.28372
# Poissons Ratio (z) = 2.17848 0.43387
#
# Static dielectric constant tensor:
#      x y z
#    x 3.575810 0.063050 -0.230660 
#    y 0.063050 3.445970 -0.087880 
#    z -0.230660 -0.087880 3.383610 
# 
# 
# High freq. dielectric constant tensor:
#      x y z
#    x 1.692780 0.010140 -0.005760 
#    y 0.010140 1.708410 -0.003060 
#    z -0.005760 -0.003060 1.689170 
# 
# From -- ./inp_files/217325.got.cif
#   From: 2010.06.25/outbox.ucp.g09.slc.cvg/sg2_109_cif.got.tgz:217325.got - 2010.06.28 11:54:26.
