data_PCOD8037597
_publ_section_title
;
Structure prediction by ZEFSAII (Michael W. Deem and Ramdas Pophale) SiO2 
 PCOD8037597
Probable space group: P -1
;
_chemical_formula_sum "Si O2"
_cell_formula_units_Z 14
_cell_length_a 25.926146
_cell_length_b 9.527326
_cell_length_c 9.626329
_cell_angle_alpha 137.046055
_cell_angle_beta 27.039000
_cell_angle_gamma 143.587320
_cell_volume 640.629094
_symmetry_space_group_name_H-M "P -1"
_symmetry_group_IT_number 2
_symmetry_cell_setting 'triclinic'
loop_
_space_group_symop_operation_xyz
x,y,z
-x,-y,-z
loop_
_atom_site_type_symbol
_atom_site_label
_atom_site_fract_x
_atom_site_fract_y
_atom_site_fract_z
Si Si1 0.540321 0.983390 0.543794
Si Si2 0.223203 0.583740 0.371097
Si Si3 0.188728 0.561827 0.740762
Si Si4 0.119176 0.065904 0.658958
Si Si5 0.652103 0.963359 0.759199
Si Si6 0.993345 0.364000 0.559054
Si Si7 0.546322 0.520895 0.248998
O O1 0.664781 0.226323 0.464329
O O2 0.500000 0.000000 0.500000
O O3 0.570468 0.768981 0.312509
O O4 0.423066 0.937703 0.894622
O O5 0.139163 0.523171 0.671327
O O6 0.134905 0.466299 0.362124
O O7 0.302467 0.868591 0.364304
O O8 0.318266 0.476377 0.082332
O O9 0.190811 0.336350 0.636498
O O10 0.099343 0.620679 0.093336
O O11 0.221622 0.006364 0.442209
O O12 0.061975 0.909555 0.544176
O O13 0.000000 0.000000 0.000000
O O14 0.563273 0.692167 0.732922
O O15 0.000000 0.500000 0.500000
O O16 0.500000 0.500000 0.500000
#
# Coordination Sequence:
#
# PCOD8037597 Si02
#       7
#     2   2   2   2   2   2   2
#     4  12  27  45  74 108 150 191 242 299 360 441
#     4  12  26  48  74 109 151 190 244 307 363 431
#     4  12  27  48  71 112 147 185 252 303 363 428
#     4  12  27  47  77 107 140 196 247 298 365 438
#     4  12  25  48  73 105 152 190 240 297 365 440
#     4  12  26  50  75 102 146 195 246 300 367 435
#     4  12  26  45  72 107 143 195 239 292 372 428
#
# _framework density 21.853521000000001
#
# number of rings (size 3 to 8) (size 9 to 14) (size 15 to 20)
#    0.000    0.000    5.714    3.429    6.000    1.714 
#    2.571    0.000    0.000    0.000    0.000    0.000 
#    0.000    0.000    0.000    0.000    0.000    0.000 
#
# Total GULP energy -173675.146839 kJ/mol
# GULP energy per Si atom -12405.367631 kJ/mol
# Density = 2.180378 g / cm^3
# Si number density = 21.853521 Si / 1000 Ang^3
#
#
#
# Elastic Constant Matrix: (Units=GPa)
#
#
# Indices 1 2 3 4 5 6 
#
# 1 138.5733 60.0013 57.4685 -0.0745 2.7518 -0.0317
# 2 60.0013 150.1054 60.5976 18.5404 -11.9200 -17.5732
# 3 57.4685 60.5976 139.8856 1.9931 2.8490 0.4534
# 4 -0.0745 18.5404 1.9931 32.2433 2.8480 4.1646
# 5 2.7518 -11.9200 2.8490 2.8480 45.0907 -4.2967
# 6 -0.0317 -17.5732 0.4534 4.1646 -4.2967 45.5987
#
#
#
# Elastic Compliance Matrix: (Units=1/GPa)
#
#
# Indices 1 2 3 4 5 6 
#
# 1 0.009838 -0.003599 -0.002479 0.002625 -0.001729 -0.001758
# 2 -0.003599 0.011430 -0.003475 -0.007475 0.004461 0.005540
# 3 -0.002479 -0.003475 0.009687 0.001767 -0.001658 -0.001755
# 4 0.002625 -0.007475 0.001767 0.036537 -0.005196 -0.006723
# 5 -0.001729 0.004461 -0.001658 -0.005196 0.024324 0.004501
# 6 -0.001758 0.005540 -0.001755 -0.006723 0.004501 0.025120
#
#
# Mechanical properties :
#
#
# Convention : Reuss Voigt Hill
#
# Bulk Modulus (GPa) = 84.40101 87.18876 85.79489
# Shear Modulus (GPa) = 35.71644 41.28631 38.50138
#
# Velocity S-wave (km/s) = 4.04710 4.35124 4.20193
# Velocity P-wave (km/s) = 7.78099 8.07638 7.93006
#
# Compressibility (1/GPa) = 0.01184820
#
# Stress axis : x y z
#
# Youngs Moduli (GPa) = 101.64349 87.49199 103.23319
#
# Poissons Ratio (x) = 0.31490 0.25593
# Poissons Ratio (y) = 0.36583 0.35873
# Poissons Ratio (z) = 0.25199 0.30403
#
# Static dielectric constant tensor:
#      x y z
#    x 4.174210 0.073300 -0.063420 
#    y 0.073300 3.854530 -0.071420 
#    z -0.063420 -0.071420 4.806090 
# 
# 
# High freq. dielectric constant tensor:
#      x y z
#    x 1.873000 0.000580 0.005010 
#    y 0.000580 1.872620 0.001580 
#    z 0.005010 0.001580 1.871710 
# 
# From -- ./inp_files/189683.got.cif
#   From: 2010.06.25/outbox.cif.g09.slc.cpg/sg2_95_cif.got.tgz:189683.got - 2010.06.27 13:26:56.
