data_PCOD8037001
_publ_section_title
;
Structure prediction by ZEFSAII (Michael W. Deem and Ramdas Pophale) SiO2 
 PCOD8037001
Probable space group: P -1
;
_chemical_formula_sum "Si O2"
_cell_formula_units_Z 12
_cell_length_a 10.337043
_cell_length_b 14.697838
_cell_length_c 8.824044
_cell_angle_alpha 77.180037
_cell_angle_beta 76.243943
_cell_angle_gamma 144.883693
_cell_volume 499.478748
_symmetry_space_group_name_H-M "P -1"
_symmetry_group_IT_number 2
_symmetry_cell_setting 'triclinic'
loop_
_space_group_symop_operation_xyz
x,y,z
-x,-y,-z
loop_
_atom_site_type_symbol
_atom_site_label
_atom_site_fract_x
_atom_site_fract_y
_atom_site_fract_z
Si Si1 0.775345 0.387403 0.406534
Si Si2 0.792177 0.960283 0.104701
Si Si3 0.481608 0.125402 0.072680
Si Si4 0.770494 0.172827 0.492084
Si Si5 0.197055 0.355155 0.065693
Si Si6 0.608097 0.781909 0.693423
O O1 0.848523 0.328788 0.458853
O O2 0.497060 0.215271 0.412163
O O3 0.585042 0.313544 0.630576
O O4 0.140552 0.664933 0.158510
O O5 0.951629 0.126684 0.131098
O O6 0.761787 0.009579 0.951626
O O7 0.000000 0.000000 0.000000
O O8 0.480042 0.222014 0.126110
O O9 0.335177 0.947609 0.279971
O O10 0.075954 0.319335 0.271854
O O11 0.500000 0.000000 0.500000
O O12 0.500000 0.500000 0.000000
O O13 0.344050 0.526618 0.845160
O O14 0.000000 0.000000 0.500000
#
# Coordination Sequence:
#
# PCOD8037001 Si02
#       6
#     2   2   2   2   2   2
#     4  12  25  47  75 106 147 193 248 301 360 442
#     4  12  28  49  70 108 154 190 243 308 373 432
#     4  12  25  46  75 108 148 190 241 311 367 427
#     4  12  23  46  77 107 141 189 254 297 358 435
#     4  12  25  47  76 106 143 196 245 299 365 446
#     4  12  24  46  76 107 143 195 250 300 363 438
#
# _framework density 24.025046
#
# number of rings (size 3 to 8) (size 9 to 14) (size 15 to 20)
#    0.000    0.000    5.000    6.000    0.000    0.667 
#    3.000    4.167    0.000    0.000    0.000    0.000 
#    0.000    0.000    0.000    0.000    0.000    0.000 
#
# Total GULP energy -148688.784171 kJ/mol
# GULP energy per Si atom -12390.732014 kJ/mol
# Density = 2.397036 g / cm^3
# Si number density = 24.025046 Si / 1000 Ang^3
#
#
#
# Elastic Constant Matrix: (Units=GPa)
#
#
# Indices 1 2 3 4 5 6 
#
# 1 155.9783 45.2931 92.7444 2.0288 -7.1567 17.8036
# 2 45.2931 59.7427 33.4251 7.8172 6.6545 20.9420
# 3 92.7444 33.4251 194.3759 1.6166 -5.6195 4.6369
# 4 2.0288 7.8172 1.6166 34.7454 0.4360 3.1641
# 5 -7.1567 6.6545 -5.6195 0.4360 55.1729 4.6580
# 6 17.8036 20.9420 4.6369 3.1641 4.6580 53.0937
#
#
#
# Elastic Compliance Matrix: (Units=1/GPa)
#
#
# Indices 1 2 3 4 5 6 
#
# 1 0.010684 -0.005749 -0.004038 0.000942 0.001759 -0.001173
# 2 -0.005749 0.025535 -0.001528 -0.004619 -0.003316 -0.007445
# 3 -0.004038 -0.001528 0.007311 0.000119 0.000296 0.001285
# 4 0.000942 -0.004619 0.000119 0.029783 0.000483 -0.000322
# 5 0.001759 -0.003316 0.000296 0.000483 0.018863 -0.000992
# 6 -0.001173 -0.007445 0.001285 -0.000322 -0.000992 0.022158
#
#
# Mechanical properties :
#
#
# Convention : Reuss Voigt Hill
#
# Bulk Modulus (GPa) = 47.84616 83.66914 65.75765
# Shear Modulus (GPa) = 34.73908 44.51135 39.62521
#
# Velocity S-wave (km/s) = 3.80669 4.30898 4.06560
# Velocity P-wave (km/s) = 6.26734 7.72384 7.03340
#
# Compressibility (1/GPa) = 0.02090032
#
# Stress axis : x y z
#
# Youngs Moduli (GPa) = 93.59895 39.16209 136.77871
#
# Poissons Ratio (x) = 0.22513 0.55233
# Poissons Ratio (y) = 0.53807 0.20899
# Poissons Ratio (z) = 0.37797 0.05984
#
# Static dielectric constant tensor:
#      x y z
#    x 4.640260 0.134640 -0.187400 
#    y 0.134640 4.024930 0.038640 
#    z -0.187400 0.038640 4.510210 
# 
# 
# High freq. dielectric constant tensor:
#      x y z
#    x 1.972150 0.014960 -0.004730 
#    y 0.014960 1.940350 0.003680 
#    z -0.004730 0.003680 1.976390 
# 
# From -- ./inp_files/180993.got.cif
#   From: 2010.06.25/outbox.cif.g09.slc.cpg/sg2_91_cif.got.tgz:180993.got - 2010.06.27 13:26:56.
