data_PCOD8037883
_publ_section_title
;
Structure prediction by ZEFSAII (Michael W. Deem and Ramdas Pophale) SiO2 
 PCOD8037883
Probable space group: P -1
;
_chemical_formula_sum "Si O2"
_cell_formula_units_Z 16
_cell_length_a 14.135407
_cell_length_b 11.764348
_cell_length_c 16.421452
_cell_angle_alpha 21.242334
_cell_angle_beta 114.986030
_cell_angle_gamma 113.032062
_cell_volume 896.778161
_symmetry_space_group_name_H-M "P -1"
_symmetry_group_IT_number 2
_symmetry_cell_setting 'triclinic'
loop_
_space_group_symop_operation_xyz
x,y,z
-x,-y,-z
loop_
_atom_site_type_symbol
_atom_site_label
_atom_site_fract_x
_atom_site_fract_y
_atom_site_fract_z
Si Si1 0.057766 0.918009 0.397874
Si Si2 0.203632 0.314852 0.292079
Si Si3 0.087626 0.906269 0.907659
Si Si4 0.619615 0.618836 0.809575
Si Si5 0.613898 0.339754 0.320754
Si Si6 0.719220 0.322411 0.196944
Si Si7 0.814376 0.611188 0.268684
Si Si8 0.907448 0.650274 0.113099
O O1 0.131380 0.734745 0.480953
O O2 0.031423 0.674125 0.623860
O O3 0.120689 0.208816 0.263900
O O4 0.951836 0.033399 0.239006
O O5 0.304790 0.449291 0.193276
O O6 0.235304 0.032191 0.552813
O O7 0.155130 0.589664 0.145961
O O8 0.157464 0.196515 0.768715
O O9 0.987349 0.886945 0.943187
O O10 0.502866 0.527369 0.800813
O O11 0.621964 0.982817 0.594556
O O12 0.650664 0.394204 0.045434
O O13 0.648096 0.352746 0.230638
O O14 0.689722 0.560287 0.254395
O O15 0.815520 0.564781 0.073443
O O16 0.855457 0.797934 0.077888
#
# Coordination Sequence:
#
# PCOD8037883 Si02
#       8
#     2   2   2   2   2   2   2   2
#     4   9  19  35  48  72 105 126 172 209 232 288
#     4  10  21  33  47  80 105 124 172 204 237 303
#     4  12  20  31  54  70 102 147 157 194 258 290
#     4  10  17  32  57  73  98 131 162 207 259 284
#     4   9  18  33  53  79  96 123 170 214 242 291
#     4   9  17  33  51  75 102 124 165 211 245 288
#     4   9  19  37  47  75 105 122 172 214 232 295
#     4   8  19  31  49  70  98 131 167 199 239 289
#
# _framework density 17.841646000000001
#
# number of rings (size 3 to 8) (size 9 to 14) (size 15 to 20)
#    0.750    1.750    2.500    2.250    0.000    3.000 
#    0.000    0.625    0.000    0.750    0.000    0.000 
#    0.000    0.000    0.000    0.000    0.000    0.000 
#
# Total GULP energy -198309.056680 kJ/mol
# GULP energy per Si atom -12394.316043 kJ/mol
# Density = 1.780104 g / cm^3
# Si number density = 17.841646 Si / 1000 Ang^3
#
#
#
# Elastic Constant Matrix: (Units=GPa)
#
#
# Indices 1 2 3 4 5 6 
#
# 1 63.3902 38.8850 20.0143 -2.4642 -2.9509 22.0449
# 2 38.8850 64.4449 39.4778 -2.0777 7.0615 18.1909
# 3 20.0143 39.4778 56.8145 6.9937 4.9736 8.6214
# 4 -2.4642 -2.0777 6.9937 32.6660 0.4354 2.4964
# 5 -2.9509 7.0615 4.9736 0.4354 20.9513 -2.1338
# 6 22.0449 18.1909 8.6214 2.4964 -2.1338 21.5599
#
#
#
# Elastic Compliance Matrix: (Units=1/GPa)
#
#
# Indices 1 2 3 4 5 6 
#
# 1 0.032141 -0.015280 0.001393 0.002595 0.007244 -0.020113
# 2 -0.015280 0.045260 -0.023537 0.008126 -0.013560 -0.015435
# 3 0.001393 -0.023537 0.033560 -0.009061 0.000978 0.006161
# 4 0.002595 0.008126 -0.009061 0.034057 -0.001951 -0.010022
# 5 0.007244 -0.013560 0.000978 -0.001951 0.054068 0.009220
# 6 -0.020113 -0.015435 0.006161 -0.010022 0.009220 0.079580
#
#
# Mechanical properties :
#
#
# Convention : Reuss Voigt Hill
#
# Bulk Modulus (GPa) = 27.69067 42.37821 35.03444
# Shear Modulus (GPa) = 13.67798 20.78693 17.23246
#
# Velocity S-wave (km/s) = 2.77182 3.41703 3.11119
# Velocity P-wave (km/s) = 5.07916 6.27472 5.70833
#
# Compressibility (1/GPa) = 0.03611324
#
# Stress axis : x y z
#
# Youngs Moduli (GPa) = 31.11311 22.09467 29.79708
#
# Poissons Ratio (x) = 0.33760 -0.04151
# Poissons Ratio (y) = 0.47539 0.70135
# Poissons Ratio (z) = -0.04334 0.52005
#
# Static dielectric constant tensor:
#      x y z
#    x 3.210790 0.202220 -0.017490 
#    y 0.202220 3.026500 0.121870 
#    z -0.017490 0.121870 3.078340 
# 
# 
# High freq. dielectric constant tensor:
#      x y z
#    x 1.677200 0.016620 -0.006490 
#    y 0.016620 1.666740 0.014610 
#    z -0.006490 0.014610 1.676170 
# 
# From -- ./inp_files/575633.got.cif
#   From: 2010.06.25/outbox.cif.g09.slc.cpg/sg2_288_cif.got.tgz:575633.got - 2010.06.27 13:26:56.
