data_PCOD8037693
_publ_section_title
;
Structure prediction by ZEFSAII (Michael W. Deem and Ramdas Pophale) SiO2 
 PCOD8037693
Probable space group: P -1
;
_chemical_formula_sum "Si O2"
_cell_formula_units_Z 16
_cell_length_a 6.407197
_cell_length_b 10.649869
_cell_length_c 25.460338
_cell_angle_alpha 34.243695
_cell_angle_beta 49.596691
_cell_angle_gamma 65.822237
_cell_volume 711.411059
_symmetry_space_group_name_H-M "P -1"
_symmetry_group_IT_number 2
_symmetry_cell_setting 'triclinic'
loop_
_space_group_symop_operation_xyz
x,y,z
-x,-y,-z
loop_
_atom_site_type_symbol
_atom_site_label
_atom_site_fract_x
_atom_site_fract_y
_atom_site_fract_z
Si Si1 0.868259 0.867399 0.766243
Si Si2 0.264053 0.202197 0.871693
Si Si3 0.207381 0.996897 0.153974
Si Si4 0.329892 0.522726 0.928120
Si Si5 0.143558 0.337439 0.500047
Si Si6 0.878734 0.739275 0.592072
Si Si7 0.800898 0.590111 0.299082
Si Si8 0.674938 0.393096 0.214751
O O1 0.536366 0.708067 0.870059
O O2 0.043313 0.683149 0.796364
O O3 0.908245 0.990657 0.773220
O O4 0.999830 0.070471 0.632808
O O5 0.552991 0.136133 0.836962
O O6 0.203991 0.352664 0.781057
O O7 0.268961 0.334226 0.880024
O O8 0.000000 0.000000 0.000000
O O9 0.930370 0.839795 0.221385
O O10 0.350608 0.258421 0.017824
O O11 0.436599 0.651041 0.811250
O O12 0.000000 0.500000 0.000000
O O13 0.077856 0.331426 0.450485
O O14 0.482076 0.442448 0.421242
O O15 0.000000 0.500000 0.500000
O O16 0.549016 0.715381 0.665304
O O17 0.995770 0.573092 0.668233
O O18 0.000000 0.000000 0.500000
#
# Coordination Sequence:
#
# PCOD8037693 Si02
#       8
#     2   2   2   2   2   2   2   2
#     4  12  28  47  76 108 153 198 253 311 379 453
#     4  12  27  44  75 109 150 194 248 304 377 450
#     4  12  27  48  76 112 151 200 247 311 380 458
#     4  12  28  47  77 111 151 196 250 313 381 452
#     4  12  28  49  77 109 152 203 255 317 380 454
#     4  12  27  47  76 112 152 198 258 312 377 451
#     4  12  26  49  75 108 155 194 253 311 376 447
#     4  12  26  46  71 113 143 194 249 300 381 441
#
# _framework density 22.490511999999999
#
# number of rings (size 3 to 8) (size 9 to 14) (size 15 to 20)
#    0.000    0.000    3.750    4.875   10.500    5.000 
#    0.000    0.000    0.000    0.000    0.000    0.000 
#    0.000    0.000    0.000    0.000    0.000    0.000 
#
# Total GULP energy -198265.715444 kJ/mol
# GULP energy per Si atom -12391.607215 kJ/mol
# Density = 2.243932 g / cm^3
# Si number density = 22.490512 Si / 1000 Ang^3
#
#
#
# Elastic Constant Matrix: (Units=GPa)
#
#
# Indices 1 2 3 4 5 6 
#
# 1 93.2749 41.0894 62.9173 7.2315 -29.0476 11.8237
# 2 41.0894 140.1195 37.0458 8.4920 -10.2370 3.2105
# 3 62.9173 37.0458 113.3725 -15.1614 9.3695 -11.1120
# 4 7.2315 8.4920 -15.1614 40.9339 17.2377 -9.8406
# 5 -29.0476 -10.2370 9.3695 17.2377 25.2709 11.3264
# 6 11.8237 3.2105 -11.1120 -9.8406 11.3264 33.6702
#
#
#
# Elastic Compliance Matrix: (Units=1/GPa)
#
#
# Indices 1 2 3 4 5 6 
#
# 1 0.000218 -0.004058 0.005783 0.013710 -0.018464 0.012437
# 2 -0.004058 0.008273 -0.000255 -0.000211 -0.001525 0.001003
# 3 0.005783 -0.000255 0.002120 -0.009458 0.016526 -0.009631
# 4 0.013710 -0.000211 -0.009458 0.007147 0.019921 -0.012528
# 5 -0.018464 -0.001525 0.016526 0.019921 -0.011787 0.021870
# 6 0.012437 0.001003 -0.009631 -0.012528 0.021870 0.011040
#
#
# Mechanical properties :
#
#
# Convention : Reuss Voigt Hill
#
# Bulk Modulus (GPa) = 73.79421 69.87463 71.83442
# Shear Modulus (GPa) = 269.00600 33.68930 151.34765
#
# Velocity S-wave (km/s) = 10.94844 3.87451 8.21219
# Velocity P-wave (km/s) = 13.88189 7.15205 11.04216
#
# Compressibility (1/GPa) = 0.01355120
#
# Stress axis : x y z
#
# Youngs Moduli (GPa) = 4584.25238 120.88217 471.75301
#
# Poissons Ratio (x) = 0.49052 -2.72826
# Poissons Ratio (y) = 18.60201 0.12032
# Poissons Ratio (z) = -26.51186 0.03083
#
# Static dielectric constant tensor:
#      x y z
#    x 5.307420 -1.677480 -2.073410 
#    y -1.677480 6.715600 2.817680 
#    z -2.073410 2.817680 7.865340 
# 
# 
# High freq. dielectric constant tensor:
#      x y z
#    x 1.894080 0.007450 -0.007720 
#    y 0.007450 1.901290 -0.005550 
#    z -0.007720 -0.005550 1.906680 
# 
# From -- ./inp_files/615478.got.cif
#   From: 2010.06.25/outbox.cif.g09.slc.cpg/sg2_308_cif.got.tgz:615478.got - 2010.06.27 13:26:56.
