data_PCOD8037399
_publ_section_title
;
Structure prediction by ZEFSAII (Michael W. Deem and Ramdas Pophale) SiO2 
 PCOD8037399
Probable space group: P -1
;
_chemical_formula_sum "Si O2"
_cell_formula_units_Z 16
_cell_length_a 8.667836
_cell_length_b 12.153968
_cell_length_c 14.338105
_cell_angle_alpha 137.913887
_cell_angle_beta 134.325711
_cell_angle_gamma 52.407407
_cell_volume 710.950172
_symmetry_space_group_name_H-M "P -1"
_symmetry_group_IT_number 2
_symmetry_cell_setting 'triclinic'
loop_
_space_group_symop_operation_xyz
x,y,z
-x,-y,-z
loop_
_atom_site_type_symbol
_atom_site_label
_atom_site_fract_x
_atom_site_fract_y
_atom_site_fract_z
Si Si1 0.448007 0.829248 0.413456
Si Si2 0.759978 0.486826 0.357769
Si Si3 0.843100 0.240916 0.915248
Si Si4 0.394540 0.756891 0.997755
Si Si5 0.321538 0.074640 0.047770
Si Si6 0.836875 0.172425 0.538240
Si Si7 0.578820 0.340969 0.371821
Si Si8 0.106941 0.418880 0.899910
O O1 0.652437 0.675334 0.401818
O O2 0.254266 0.776646 0.238846
O O3 0.371981 0.851931 0.503161
O O4 0.500000 0.000000 0.500000
O O5 0.749874 0.366611 0.188950
O O6 0.646718 0.400661 0.338140
O O7 0.000000 0.500000 0.500000
O O8 0.668671 0.213138 0.902117
O O9 0.874450 0.429433 0.065310
O O10 0.072065 0.109439 0.928109
O O11 0.652858 0.691255 0.049454
O O12 0.330999 0.943154 0.050749
O O13 0.374478 0.248726 0.215473
O O14 0.500000 0.000000 0.000000
O O15 0.770999 0.217699 0.431503
O O16 0.947543 0.315693 0.718318
O O17 0.000000 0.000000 0.500000
O O18 0.500000 0.500000 0.500000
O O19 0.000000 0.500000 0.000000
#
# Coordination Sequence:
#
# PCOD8037399 Si02
#       8
#     2   2   2   2   2   2   2   2
#     4  12  30  49  71 109 153 191 244 305 374 441
#     4  12  29  49  74 106 152 195 242 304 372 445
#     4  12  28  45  77 105 146 196 244 303 369 434
#     4  12  27  47  73 111 146 191 248 302 371 438
#     4  12  27  48  76 107 148 194 251 306 359 437
#     4  12  28  45  77 111 146 193 246 306 366 432
#     4  12  27  49  75 107 148 196 249 299 368 437
#     4  12  24  49  76 102 143 194 250 301 358 435
#
# _framework density 22.505092000000001
#
# number of rings (size 3 to 8) (size 9 to 14) (size 15 to 20)
#    0.000    0.000    5.000    3.000   12.250    0.000 
#    0.000    0.000    0.000    0.000    0.000    0.000 
#    0.000    0.000    0.000    0.000    0.000    0.000 
#
# Total GULP energy -198436.410369 kJ/mol
# GULP energy per Si atom -12402.275648 kJ/mol
# Density = 2.245387 g / cm^3
# Si number density = 22.505092 Si / 1000 Ang^3
#
#
#
# Elastic Constant Matrix: (Units=GPa)
#
#
# Indices 1 2 3 4 5 6 
#
# 1 79.1611 42.3115 27.0459 -1.7541 6.6718 -2.8997
# 2 42.3115 161.8040 14.6866 4.9852 11.1336 2.6660
# 3 27.0459 14.6866 66.4773 7.0633 6.8446 3.4456
# 4 -1.7541 4.9852 7.0633 46.6556 4.0189 8.9797
# 5 6.6718 11.1336 6.8446 4.0189 37.5649 1.6568
# 6 -2.8997 2.6660 3.4456 8.9797 1.6568 49.9604
#
#
#
# Elastic Compliance Matrix: (Units=1/GPa)
#
#
# Indices 1 2 3 4 5 6 
#
# 1 0.017012 -0.003894 -0.006222 0.001827 -0.000988 0.001329
# 2 -0.003894 0.007307 0.000219 -0.000752 -0.001414 -0.000449
# 3 -0.006222 0.000219 0.018058 -0.002617 -0.001922 -0.001084
# 4 0.001827 -0.000752 -0.002617 0.022859 -0.001906 -0.003719
# 5 -0.000988 -0.001414 -0.001922 -0.001906 0.027788 -0.000428
# 6 0.001329 -0.000449 -0.001084 -0.003719 -0.000428 0.020874
#
#
# Mechanical properties :
#
#
# Convention : Reuss Voigt Hill
#
# Bulk Modulus (GPa) = 44.28383 52.83671 48.56027
# Shear Modulus (GPa) = 35.40568 41.72941 38.56754
#
# Velocity S-wave (km/s) = 3.97070 4.31074 4.14421
# Velocity P-wave (km/s) = 6.38294 6.95020 6.67260
#
# Compressibility (1/GPa) = 0.02258161
#
# Stress axis : x y z
#
# Youngs Moduli (GPa) = 58.78156 136.86277 55.37694
#
# Poissons Ratio (x) = 0.53296 0.34457
# Poissons Ratio (y) = 0.22890 -0.01212
# Poissons Ratio (z) = 0.36576 -0.02994
#
# Static dielectric constant tensor:
#      x y z
#    x 4.026520 0.118260 0.347820 
#    y 0.118260 4.334240 0.142970 
#    z 0.347820 0.142970 4.094410 
# 
# 
# High freq. dielectric constant tensor:
#      x y z
#    x 1.890000 0.008850 0.003320 
#    y 0.008850 1.911830 0.005150 
#    z 0.003320 0.005150 1.896980 
# 
# From -- ./inp_files/501040.got.cif
#   From: 2010.06.25/outbox.cif.g09.slc.cpg/sg2_251_cif.got.tgz:501040.got - 2010.06.27 13:26:56.
