data_PCOD8037200
_publ_section_title
;
Structure prediction by ZEFSAII (Michael W. Deem and Ramdas Pophale) SiO2 
 PCOD8037200
Probable space group: P -1
;
_chemical_formula_sum "Si O2"
_cell_formula_units_Z 16
_cell_length_a 8.344356
_cell_length_b 12.597000
_cell_length_c 10.083833
_cell_angle_alpha 123.683629
_cell_angle_beta 123.785570
_cell_angle_gamma 73.659341
_cell_volume 732.488966
_symmetry_space_group_name_H-M "P -1"
_symmetry_group_IT_number 2
_symmetry_cell_setting 'triclinic'
loop_
_space_group_symop_operation_xyz
x,y,z
-x,-y,-z
loop_
_atom_site_type_symbol
_atom_site_label
_atom_site_fract_x
_atom_site_fract_y
_atom_site_fract_z
Si Si1 0.811093 0.236147 0.455821
Si Si2 0.452413 0.575783 0.662918
Si Si3 0.892842 0.363266 0.852941
Si Si4 0.388472 0.024466 0.747259
Si Si5 0.212830 0.062119 0.154658
Si Si6 0.771707 0.779409 0.983139
Si Si7 0.518123 0.590585 0.196133
Si Si8 0.225555 0.161339 0.521530
O O1 0.714018 0.323502 0.361205
O O2 0.863791 0.330534 0.664300
O O3 0.997618 0.173579 0.438405
O O4 0.660346 0.124552 0.353001
O O5 0.500000 0.500000 0.500000
O O6 0.644952 0.649988 0.854214
O O7 0.388855 0.478643 0.682754
O O8 0.691017 0.359315 0.832914
O O9 0.000000 0.500000 0.000000
O O10 0.012379 0.252195 0.898335
O O11 0.298934 0.057942 0.587371
O O12 0.622521 0.040602 0.869701
O O13 0.302017 0.108504 0.881158
O O14 0.231238 0.178998 0.141871
O O15 0.264032 0.115700 0.359892
O O16 0.000000 0.000000 0.000000
O O17 0.662489 0.706410 0.302749
O O18 0.500000 0.500000 0.000000
#
# Coordination Sequence:
#
# PCOD8037200 Si02
#       8
#     2   2   2   2   2   2   2   2
#     4  12  25  46  77 100 137 191 241 282 340 435
#     4  12  24  46  75  99 138 187 236 287 342 416
#     4  12  24  45  73 102 136 187 240 279 344 424
#     4  12  26  49  73 101 142 191 234 282 357 429
#     4  12  28  43  68 109 144 177 229 294 361 412
#     4  12  25  46  73 102 138 188 239 288 341 430
#     4  12  26  45  72 108 143 181 235 298 356 405
#     4  12  27  46  70 107 143 184 231 295 359 412
#
# _framework density 21.843332
#
# number of rings (size 3 to 8) (size 9 to 14) (size 15 to 20)
#    0.000    0.000    5.000    4.875    5.250    1.500 
#    0.000    0.000    0.000    0.000    0.000    0.000 
#    0.000    0.000    0.000    0.000    0.000    0.000 
#
# Total GULP energy -198521.860563 kJ/mol
# GULP energy per Si atom -12407.616285 kJ/mol
# Density = 2.179362 g / cm^3
# Si number density = 21.843332 Si / 1000 Ang^3
#
#
#
# Elastic Constant Matrix: (Units=GPa)
#
#
# Indices 1 2 3 4 5 6 
#
# 1 108.4342 61.3326 22.9801 -21.9825 7.5716 -20.6589
# 2 61.3326 108.4074 36.9841 -10.2763 4.5760 -28.7366
# 3 22.9801 36.9841 109.3322 -1.0949 -9.1459 -3.4849
# 4 -21.9825 -10.2763 -1.0949 39.7836 0.5172 12.9571
# 5 7.5716 4.5760 -9.1459 0.5172 44.3261 -5.3229
# 6 -20.6589 -28.7366 -3.4849 12.9571 -5.3229 37.9090
#
#
#
# Elastic Compliance Matrix: (Units=1/GPa)
#
#
# Indices 1 2 3 4 5 6 
#
# 1 0.015120 -0.007649 -0.000699 0.006419 -0.002024 -0.000101
# 2 -0.007649 0.017115 -0.003919 -0.002991 -0.000099 0.009454
# 3 -0.000699 -0.003919 0.010767 -0.000542 0.002533 -0.001821
# 4 0.006419 -0.002991 -0.000542 0.031118 -0.002439 -0.009798
# 5 -0.002024 -0.000099 0.002533 -0.002439 0.023856 0.003238
# 6 -0.000101 0.009454 -0.001821 -0.009798 0.003238 0.037127
#
#
# Mechanical properties :
#
#
# Convention : Reuss Voigt Hill
#
# Bulk Modulus (GPa) = 54.14203 63.19639 58.66921
# Shear Modulus (GPa) = 30.15804 38.06221 34.11013
#
# Velocity S-wave (km/s) = 3.71974 4.17887 3.95597
# Velocity P-wave (km/s) = 6.57944 7.23038 6.91257
#
# Compressibility (1/GPa) = 0.01846994
#
# Stress axis : x y z
#
# Youngs Moduli (GPa) = 66.13785 58.42670 92.87226
#
# Poissons Ratio (x) = 0.44688 0.06491
# Poissons Ratio (y) = 0.50586 0.36396
# Poissons Ratio (z) = 0.04623 0.22897
#
# Static dielectric constant tensor:
#      x y z
#    x 4.180860 -0.030160 0.048240 
#    y -0.030160 4.129280 -0.184750 
#    z 0.048240 -0.184750 4.159340 
# 
# 
# High freq. dielectric constant tensor:
#      x y z
#    x 1.864920 -0.008610 0.002500 
#    y -0.008610 1.873620 -0.006450 
#    z 0.002500 -0.006450 1.874330 
# 
# From -- ./inp_files/190350.got.cif
#   From: 2010.06.25/outbox.cif.g09.slc.cpg/sg2_96_cif.got.tgz:190350.got - 2010.06.27 13:26:56.
