data_PCOD8037466
_publ_section_title
;
Structure prediction by ZEFSAII (Michael W. Deem and Ramdas Pophale) SiO2 
 PCOD8037466
Probable space group: P -1
;
_chemical_formula_sum "Si O2"
_cell_formula_units_Z 14
_cell_length_a 9.767795
_cell_length_b 9.483539
_cell_length_c 24.456564
_cell_angle_alpha 35.975352
_cell_angle_beta 36.004870
_cell_angle_gamma 29.636848
_cell_volume 613.102219
_symmetry_space_group_name_H-M "P -1"
_symmetry_group_IT_number 2
_symmetry_cell_setting 'triclinic'
loop_
_space_group_symop_operation_xyz
x,y,z
-x,-y,-z
loop_
_atom_site_type_symbol
_atom_site_label
_atom_site_fract_x
_atom_site_fract_y
_atom_site_fract_z
Si Si1 0.728291 0.255155 0.044586
Si Si2 0.020343 0.454291 0.070994
Si Si3 0.906102 0.490938 0.643985
Si Si4 0.736784 0.750101 0.736586
Si Si5 0.465588 0.900569 0.483479
Si Si6 0.609388 0.206667 0.787360
Si Si7 0.608393 0.615753 0.318893
O O1 0.552951 0.173058 0.163382
O O2 0.500000 0.500000 0.000000
O O3 0.847611 0.379800 0.006296
O O4 0.000000 0.000000 0.000000
O O5 0.688228 0.612704 0.141362
O O6 0.192870 0.126035 0.145849
O O7 0.000000 0.500000 0.000000
O O8 0.811786 0.560314 0.716187
O O9 0.751633 0.374987 0.697733
O O10 0.256923 0.227787 0.605922
O O11 0.820389 0.796726 0.547203
O O12 0.040186 0.543890 0.739346
O O13 0.610008 0.103098 0.655909
O O14 0.411607 0.654149 0.582644
O O15 0.500000 0.000000 0.500000
O O16 0.533997 0.210445 0.747190
#
# Coordination Sequence:
#
# PCOD8037466 Si02
#       7
#     2   2   2   2   2   2   2
#     4  12  25  46  71 100 142 186 234 288 351 423
#     4  12  26  44  69 102 139 180 235 294 348 415
#     4  12  27  46  74 105 149 187 233 303 356 421
#     4  12  27  46  69 109 144 186 237 295 366 413
#     4  12  26  47  74 108 140 187 244 291 357 421
#     4  12  25  45  71 102 134 189 237 284 351 417
#     4  12  26  45  75 101 143 186 241 292 347 436
#
# _framework density 22.834689999999998
#
# number of rings (size 3 to 8) (size 9 to 14) (size 15 to 20)
#    0.000    0.000    1.429    9.429    2.000    5.714 
#    0.000    0.000    0.000    0.000    0.000    0.000 
#    0.000    0.000    0.000    0.000    0.000    0.000 
#
# Total GULP energy -173508.022817 kJ/mol
# GULP energy per Si atom -12393.430201 kJ/mol
# Density = 2.278272 g / cm^3
# Si number density = 22.834690 Si / 1000 Ang^3
#
#
#
# Elastic Constant Matrix: (Units=GPa)
#
#
# Indices 1 2 3 4 5 6 
#
# 1 200.0532 57.7549 48.0293 -2.5274 -32.8974 -2.7683
# 2 57.7549 161.5333 43.1416 2.2421 -7.3841 -4.2137
# 3 48.0293 43.1416 97.1055 2.5203 -4.2015 1.2576
# 4 -2.5274 2.2421 2.5203 54.3815 -0.1975 5.3313
# 5 -32.8974 -7.3841 -4.2015 -0.1975 49.8807 3.2211
# 6 -2.7683 -4.2137 1.2576 5.3313 3.2211 45.4592
#
#
#
# Elastic Compliance Matrix: (Units=1/GPa)
#
#
# Indices 1 2 3 4 5 6 
#
# 1 0.006703 -0.001564 -0.002461 0.000506 0.003984 -0.000010
# 2 -0.001564 0.007444 -0.002542 -0.000333 -0.000192 0.000718
# 3 -0.002461 -0.002542 0.012628 -0.000538 -0.000898 -0.000608
# 4 0.000506 -0.000333 -0.000538 0.018669 0.000455 -0.002207
# 5 0.003984 -0.000192 -0.000898 0.000455 0.022664 -0.001410
# 6 -0.000010 0.000718 -0.000608 -0.002207 -0.001410 0.022439
#
#
# Mechanical properties :
#
#
# Convention : Reuss Voigt Hill
#
# Bulk Modulus (GPa) = 73.31866 84.06040 78.68953
# Shear Modulus (GPa) = 46.19932 50.59537 48.39735
#
# Velocity S-wave (km/s) = 4.50289 4.71225 4.60876
# Velocity P-wave (km/s) = 7.69499 8.15473 7.92819
#
# Compressibility (1/GPa) = 0.01363909
#
# Stress axis : x y z
#
# Youngs Moduli (GPa) = 149.19801 134.34467 79.19186
#
# Poissons Ratio (x) = 0.21017 0.19487
# Poissons Ratio (y) = 0.23340 0.20132
# Poissons Ratio (z) = 0.36713 0.34153
#
# Static dielectric constant tensor:
#      x y z
#    x 4.436870 0.050940 -0.128510 
#    y 0.050940 4.617650 -0.016860 
#    z -0.128510 -0.016860 4.138620 
# 
# 
# High freq. dielectric constant tensor:
#      x y z
#    x 1.919160 -0.001450 -0.006630 
#    y -0.001450 1.930280 -0.001100 
#    z -0.006630 -0.001100 1.907330 
# 
# From -- ./inp_files/224165.got.cif
#   From: 2010.06.25/outbox.cif.g09.slc.cpg/sg2_113_cif.got.tgz:224165.got - 2010.06.27 13:26:56.
