data_PCOD8037149
_publ_section_title
;
Structure prediction by ZEFSAII (Michael W. Deem and Ramdas Pophale) SiO2 
 PCOD8037149
Probable space group: P -1
;
_chemical_formula_sum "Si O2"
_cell_formula_units_Z 16
_cell_length_a 9.669128
_cell_length_b 8.098801
_cell_length_c 22.655528
_cell_angle_alpha 119.531378
_cell_angle_beta 42.883323
_cell_angle_gamma 86.691934
_cell_volume 742.438031
_symmetry_space_group_name_H-M "P -1"
_symmetry_group_IT_number 2
_symmetry_cell_setting 'triclinic'
loop_
_space_group_symop_operation_xyz
x,y,z
-x,-y,-z
loop_
_atom_site_type_symbol
_atom_site_label
_atom_site_fract_x
_atom_site_fract_y
_atom_site_fract_z
Si Si1 0.502090 0.028580 0.139051
Si Si2 0.499075 0.055972 0.650935
Si Si3 0.086321 0.577707 0.933077
Si Si4 0.867078 0.004492 0.426563
Si Si5 0.476958 0.416887 0.146909
Si Si6 0.647496 0.216797 0.930404
Si Si7 0.704436 0.183518 0.381307
Si Si8 0.872686 0.788455 0.600452
O O1 0.388144 0.300584 0.195826
O O2 0.278009 0.100146 0.269632
O O3 0.527826 0.850229 0.049471
O O4 0.807799 0.866588 0.045368
O O5 0.211136 0.370964 0.803130
O O6 0.692477 0.000927 0.527672
O O7 0.425581 0.884799 0.634655
O O8 0.653404 0.983212 0.651981
O O9 0.311949 0.585144 0.884382
O O10 0.000000 0.500000 0.000000
O O11 0.192348 0.715508 0.269204
O O12 0.710780 0.086156 0.427100
O O13 0.874494 0.221504 0.480890
O O14 0.637577 0.230329 0.006462
O O15 0.500000 0.500000 0.000000
O O16 0.977423 0.971491 0.765629
O O17 0.500000 0.500000 0.500000
O O18 0.000000 0.500000 0.500000
#
# Coordination Sequence:
#
# PCOD8037149 Si02
#       8
#     2   2   2   2   2   2   2   2
#     4  12  26  45  71 107 139 180 239 290 344 423
#     4  12  26  43  73 101 141 186 227 288 355 416
#     4  12  24  47  71 104 141 180 233 287 354 418
#     4  12  25  48  70 103 141 187 235 285 354 423
#     4  12  26  45  73 105 141 181 238 292 346 425
#     4  12  24  49  76  97 142 195 234 285 358 419
#     4  12  27  47  71 106 144 183 239 292 349 419
#     4  12  24  44  72 100 138 185 229 285 350 419
#
# _framework density 21.550621
#
# number of rings (size 3 to 8) (size 9 to 14) (size 15 to 20)
#    0.000    0.000    5.000    5.250    3.500    1.000 
#    0.000    0.000    0.000    0.000    0.000    0.000 
#    0.000    0.000    0.000    0.000    0.000    0.000 
#
# Total GULP energy -198522.056245 kJ/mol
# GULP energy per Si atom -12407.628515 kJ/mol
# Density = 2.150157 g / cm^3
# Si number density = 21.550621 Si / 1000 Ang^3
#
#
#
# Elastic Constant Matrix: (Units=GPa)
#
#
# Indices 1 2 3 4 5 6 
#
# 1 104.3529 26.0555 28.3702 -6.4802 13.2150 8.2526
# 2 26.0555 97.2326 28.6430 -3.6130 1.9854 -1.6700
# 3 28.3702 28.6430 110.1014 5.8287 3.6952 -1.4423
# 4 -6.4802 -3.6130 5.8287 36.5710 0.0036 1.9577
# 5 13.2150 1.9854 3.6952 0.0036 34.2505 0.9510
# 6 8.2526 -1.6700 -1.4423 1.9577 0.9510 31.7692
#
#
#
# Elastic Compliance Matrix: (Units=1/GPa)
#
#
# Indices 1 2 3 4 5 6 
#
# 1 0.011754 -0.002308 -0.002464 0.002425 -0.004044 -0.003315
# 2 -0.002308 0.011690 -0.002506 0.001091 0.000455 0.001019
# 3 -0.002464 -0.002506 0.010515 -0.002421 -0.000070 0.001137
# 4 0.002425 0.001091 -0.002421 0.028397 -0.000674 -0.002412
# 5 -0.004044 0.000455 -0.000070 -0.000674 0.030733 0.000193
# 6 -0.003315 0.001019 0.001137 -0.002412 0.000193 0.032586
#
#
# Mechanical properties :
#
#
# Convention : Reuss Voigt Hill
#
# Bulk Modulus (GPa) = 51.54113 53.09156 52.31634
# Shear Modulus (GPa) = 34.08342 35.75936 34.92139
#
# Velocity S-wave (km/s) = 3.98119 4.07789 4.02983
# Velocity P-wave (km/s) = 6.71575 6.84555 6.78096
#
# Compressibility (1/GPa) = 0.01940198
#
# Stress axis : x y z
#
# Youngs Moduli (GPa) = 85.07767 85.54244 95.10301
#
# Poissons Ratio (x) = 0.19743 0.23437
# Poissons Ratio (y) = 0.19636 0.23834
# Poissons Ratio (z) = 0.20966 0.21438
#
# Static dielectric constant tensor:
#      x y z
#    x 4.211880 -0.044840 0.025840 
#    y -0.044840 3.948410 0.045240 
#    z 0.025840 0.045240 4.044970 
# 
# 
# High freq. dielectric constant tensor:
#      x y z
#    x 1.863710 0.002050 0.006270 
#    y 0.002050 1.852300 0.001740 
#    z 0.006270 0.001740 1.851210 
# 
# From -- ./inp_files/226150.got.cif
#   From: 2010.06.25/outbox.cif.g09.slc.cpg/sg2_114_cif.got.tgz:226150.got - 2010.06.27 13:26:56.
