data_PCOD8037554
_publ_section_title
;
Structure prediction by ZEFSAII (Michael W. Deem and Ramdas Pophale) SiO2 
 PCOD8037554
Probable space group: P -1
;
_chemical_formula_sum "Si O2"
_cell_formula_units_Z 16
_cell_length_a 12.049972
_cell_length_b 11.935922
_cell_length_c 5.227279
_cell_angle_alpha 98.695300
_cell_angle_beta 92.317614
_cell_angle_gamma 64.767992
_cell_volume 672.034988
_symmetry_space_group_name_H-M "P -1"
_symmetry_group_IT_number 2
_symmetry_cell_setting 'triclinic'
loop_
_space_group_symop_operation_xyz
x,y,z
-x,-y,-z
loop_
_atom_site_type_symbol
_atom_site_label
_atom_site_fract_x
_atom_site_fract_y
_atom_site_fract_z
Si Si1 0.274315 0.477414 0.976488
Si Si2 0.888466 0.043027 0.697659
Si Si3 0.820597 0.719258 0.159429
Si Si4 0.665177 0.179357 0.390530
Si Si5 0.829519 0.257297 0.108338
Si Si6 0.069338 0.224490 0.313102
Si Si7 0.431881 0.412200 0.468254
Si Si8 0.415950 0.030587 0.755656
O O1 0.178894 0.415450 0.939123
O O2 0.207659 0.628236 0.057823
O O3 0.332359 0.456074 0.693884
O O4 0.371083 0.415257 0.189190
O O5 0.762026 0.150216 0.616355
O O6 0.860219 0.926172 0.725865
O O7 0.916456 0.118082 0.956641
O O8 0.000000 0.000000 0.500000
O O9 0.889280 0.713982 0.430034
O O10 0.680463 0.824269 0.200031
O O11 0.896942 0.738504 0.943305
O O12 0.707145 0.250616 0.201976
O O13 0.528111 0.271082 0.494606
O O14 0.663111 0.050250 0.255694
O O15 0.921199 0.272447 0.333713
O O16 0.500000 0.500000 0.500000
O O17 0.500000 0.000000 0.500000
O O18 0.500000 0.000000 0.000000
#
# Coordination Sequence:
#
# PCOD8037554 Si02
#       8
#     2   2   2   2   2   2   2   2
#     4  12  28  50  74 106 153 194 251 296 366 437
#     4  12  25  47  73 111 146 187 238 316 372 433
#     4  12  26  49  72 102 150 199 235 305 356 436
#     4  12  26  43  77 105 145 189 241 301 375 421
#     4  12  28  44  77 110 143 193 244 306 369 439
#     4  12  26  47  74 107 146 187 249 297 369 429
#     4  12  25  47  73 109 146 192 241 308 362 433
#     4  12  26  45  68 102 140 188 242 288 357 434
#
# _framework density 23.808284
#
# number of rings (size 3 to 8) (size 9 to 14) (size 15 to 20)
#    0.000    0.000    3.750    6.000    3.500    1.000 
#    0.000    0.000    0.000    0.000    0.000    0.000 
#    0.000    0.000    0.000    0.000    0.000    0.000 
#
# Total GULP energy -198449.965863 kJ/mol
# GULP energy per Si atom -12403.122866 kJ/mol
# Density = 2.375410 g / cm^3
# Si number density = 23.808284 Si / 1000 Ang^3
#
#
#
# Elastic Constant Matrix: (Units=GPa)
#
#
# Indices 1 2 3 4 5 6 
#
# 1 109.9197 27.6159 37.0839 0.2810 9.4126 16.5928
# 2 27.6159 89.8329 0.3740 2.1072 -3.1391 16.5679
# 3 37.0839 0.3740 105.1468 -4.5311 7.2962 4.0106
# 4 0.2810 2.1072 -4.5311 33.1163 -0.0947 9.4339
# 5 9.4126 -3.1391 7.2962 -0.0947 45.4403 -3.6394
# 6 16.5928 16.5679 4.0106 9.4339 -3.6394 42.5897
#
#
#
# Elastic Compliance Matrix: (Units=1/GPa)
#
#
# Indices 1 2 3 4 5 6 
#
# 1 0.011892 -0.003111 -0.003871 0.000522 -0.002326 -0.003373
# 2 -0.003111 0.012828 0.001150 0.000483 0.001034 -0.003905
# 3 -0.003871 0.001150 0.011019 0.001580 -0.000917 -0.000405
# 4 0.000522 0.000483 0.001580 0.032608 -0.000888 -0.007839
# 5 -0.002326 0.001034 -0.000917 -0.000888 0.022925 0.002746
# 6 -0.003373 -0.003905 -0.000405 -0.007839 0.002746 0.028322
#
#
# Mechanical properties :
#
#
# Convention : Reuss Voigt Hill
#
# Bulk Modulus (GPa) = 41.53692 48.33853 44.93773
# Shear Modulus (GPa) = 35.89793 40.21765 38.05779
#
# Velocity S-wave (km/s) = 3.88724 4.11448 4.00248
# Velocity P-wave (km/s) = 6.13448 6.55128 6.34630
#
# Compressibility (1/GPa) = 0.02407497
#
# Stress axis : x y z
#
# Youngs Moduli (GPa) = 84.09071 77.95177 90.75468
#
# Poissons Ratio (x) = 0.24252 0.35127
# Poissons Ratio (y) = 0.26162 -0.10433
# Poissons Ratio (z) = 0.32548 -0.08961
#
# Static dielectric constant tensor:
#      x y z
#    x 3.886320 -0.012970 0.548080 
#    y -0.012970 4.604230 0.190650 
#    z 0.548080 0.190650 3.892260 
# 
# 
# High freq. dielectric constant tensor:
#      x y z
#    x 1.954970 0.007780 0.010090 
#    y 0.007780 1.957550 -0.004620 
#    z 0.010090 -0.004620 1.943910 
# 
# From -- ./inp_files/71352.got.cif
#   From: 2010.06.25/outbox.cif.g09.slc.cpg/sg2_36_cif.got.tgz:71352.got - 2010.06.27 13:26:56.
