data_PCOD8037153
_publ_section_title
;
Structure prediction by ZEFSAII (Michael W. Deem and Ramdas Pophale) SiO2 
 PCOD8037153
Probable space group: P -1
;
_chemical_formula_sum "Si O2"
_cell_formula_units_Z 16
_cell_length_a 6.859669
_cell_length_b 13.597796
_cell_length_c 9.189888
_cell_angle_alpha 83.994776
_cell_angle_beta 119.150126
_cell_angle_gamma 77.703370
_cell_volume 709.316464
_symmetry_space_group_name_H-M "P -1"
_symmetry_group_IT_number 2
_symmetry_cell_setting 'triclinic'
loop_
_space_group_symop_operation_xyz
x,y,z
-x,-y,-z
loop_
_atom_site_type_symbol
_atom_site_label
_atom_site_fract_x
_atom_site_fract_y
_atom_site_fract_z
Si Si1 0.250557 0.542982 0.327443
Si Si2 0.352402 0.194067 0.232565
Si Si3 0.651385 0.410306 0.966818
Si Si4 0.087091 0.350652 0.327862
Si Si5 0.173406 0.928514 0.463118
Si Si6 0.968849 0.742210 0.366456
Si Si7 0.489922 0.223048 0.965133
Si Si8 0.996688 0.073752 0.119134
O O1 0.500000 0.500000 0.500000
O O2 0.277982 0.544495 0.163090
O O3 0.099588 0.467057 0.324830
O O4 0.112166 0.656259 0.318038
O O5 0.312749 0.275753 0.338836
O O6 0.566716 0.096366 0.374484
O O7 0.123349 0.159969 0.116711
O O8 0.417044 0.245657 0.103163
O O9 0.512425 0.329291 0.888157
O O10 0.500000 0.500000 0.000000
O O11 0.873109 0.346267 0.150119
O O12 0.058308 0.309560 0.482762
O O13 0.110992 0.823220 0.426861
O O14 0.156650 0.998011 0.305881
O O15 0.000000 0.000000 0.500000
O O16 0.713705 0.802850 0.198154
O O17 0.727783 0.127709 0.058815
O O18 0.000000 0.000000 0.000000
#
# Coordination Sequence:
#
# PCOD8037153 Si02
#       8
#     2   2   2   2   2   2   2   2
#     4  12  25  45  71 105 145 185 232 291 359 421
#     4  12  25  48  73 102 142 186 238 293 350 422
#     4  12  24  44  72 104 142 185 235 286 350 425
#     4  12  24  45  71 105 139 183 236 285 355 421
#     4  12  26  47  71 103 139 190 239 292 352 412
#     4  12  27  44  73 105 146 185 235 295 353 421
#     4  12  26  47  70 105 147 183 236 292 354 421
#     4  12  28  45  73 103 141 189 238 292 357 415
#
# _framework density 22.556926000000001
#
# number of rings (size 3 to 8) (size 9 to 14) (size 15 to 20)
#    0.000    0.000    2.500    7.875    5.250    1.000 
#    0.000    0.000    0.000    0.000    0.000    0.000 
#    0.000    0.000    0.000    0.000    0.000    0.000 
#
# Total GULP energy -198495.614413 kJ/mol
# GULP energy per Si atom -12405.975901 kJ/mol
# Density = 2.250559 g / cm^3
# Si number density = 22.556926 Si / 1000 Ang^3
#
#
#
# Elastic Constant Matrix: (Units=GPa)
#
#
# Indices 1 2 3 4 5 6 
#
# 1 102.2641 33.4447 31.5113 0.0288 1.7540 -12.7857
# 2 33.4447 115.7724 -2.0203 11.5947 -0.5079 -9.1918
# 3 31.5113 -2.0203 110.7135 -8.9013 7.2455 -16.3320
# 4 0.0288 11.5947 -8.9013 39.0334 -0.0295 -1.9775
# 5 1.7540 -0.5079 7.2455 -0.0295 45.2289 1.3706
# 6 -12.7857 -9.1918 -16.3320 -1.9775 1.3706 44.5982
#
#
#
# Elastic Compliance Matrix: (Units=1/GPa)
#
#
# Indices 1 2 3 4 5 6 
#
# 1 0.012111 -0.003466 -0.003245 0.000361 -0.000037 0.001587
# 2 -0.003466 0.010033 0.001160 -0.002643 0.000018 0.001381
# 3 -0.003245 0.001160 0.010774 0.002286 -0.001689 0.003408
# 4 0.000361 -0.002643 0.002286 0.027007 -0.000441 0.001607
# 5 -0.000037 0.000018 -0.001689 -0.000441 0.022422 -0.001334
# 6 0.001587 0.001381 0.003408 0.001607 -0.001334 0.024522
#
#
# Mechanical properties :
#
#
# Convention : Reuss Voigt Hill
#
# Bulk Modulus (GPa) = 45.83641 50.51349 48.17495
# Shear Modulus (GPa) = 39.92253 43.49304 41.70778
#
# Velocity S-wave (km/s) = 4.21153 4.39583 4.30467
# Velocity P-wave (km/s) = 6.63429 6.94311 6.79046
#
# Compressibility (1/GPa) = 0.02181672
#
# Stress axis : x y z
#
# Youngs Moduli (GPa) = 82.57165 99.66613 92.81605
#
# Poissons Ratio (x) = 0.34540 0.30116
# Poissons Ratio (y) = 0.28616 -0.10762
# Poissons Ratio (z) = 0.26792 -0.11557
#
# Static dielectric constant tensor:
#      x y z
#    x 4.249730 -0.032000 0.041780 
#    y -0.032000 4.127700 0.036180 
#    z 0.041780 0.036180 4.166870 
# 
# 
# High freq. dielectric constant tensor:
#      x y z
#    x 1.903230 -0.005170 0.000730 
#    y -0.005170 1.898730 -0.000980 
#    z 0.000730 -0.000980 1.905020 
# 
# From -- ./inp_files/135181.got.cif
#   From: 2010.06.25/outbox.cif.g09.slc.cpg/sg2_68_cif.got.tgz:135181.got - 2010.06.27 13:26:56.
