data_PCOD8037584
_publ_section_title
;
Structure prediction by ZEFSAII (Michael W. Deem and Ramdas Pophale) SiO2 
 PCOD8037584
Probable space group: P -1
;
_chemical_formula_sum "Si O2"
_cell_formula_units_Z 16
_cell_length_a 13.668787
_cell_length_b 11.545781
_cell_length_c 7.407439
_cell_angle_alpha 72.426782
_cell_angle_beta 71.423949
_cell_angle_gamma 32.246440
_cell_volume 590.026106
_symmetry_space_group_name_H-M "P -1"
_symmetry_group_IT_number 2
_symmetry_cell_setting 'triclinic'
loop_
_space_group_symop_operation_xyz
x,y,z
-x,-y,-z
loop_
_atom_site_type_symbol
_atom_site_label
_atom_site_fract_x
_atom_site_fract_y
_atom_site_fract_z
Si Si1 0.019415 0.840017 0.107522
Si Si2 0.039117 0.120227 0.455595
Si Si3 0.661614 0.573017 0.495373
Si Si4 0.783639 0.702555 0.509712
Si Si5 0.560168 0.579108 0.958238
Si Si6 0.368354 0.658063 0.337752
Si Si7 0.655943 0.993896 0.741070
Si Si8 0.293242 0.031077 0.873566
O O1 0.963133 0.881718 0.327260
O O2 0.888448 0.878471 0.048188
O O3 0.226726 0.598271 0.051647
O O4 0.000000 0.000000 0.000000
O O5 0.148540 0.134544 0.339518
O O6 0.833371 0.345343 0.388595
O O7 0.151771 0.894510 0.408232
O O8 0.730997 0.614436 0.556888
O O9 0.626357 0.485440 0.694143
O O10 0.499557 0.763606 0.364353
O O11 0.666292 0.860673 0.678569
O O12 0.729912 0.831315 0.304986
O O13 0.000000 0.500000 0.500000
O O14 0.447167 0.697107 0.165194
O O15 0.500000 0.500000 0.000000
O O16 0.457071 0.787223 0.806709
O O17 0.500000 0.500000 0.500000
O O18 0.638349 0.979691 0.969631
#
# Coordination Sequence:
#
# PCOD8037584 Si02
#       8
#     2   2   2   2   2   2   2   2
#     4  12  26  45  79 118 170 222 268 337 432 490
#     4  12  25  49  80 118 165 215 273 342 417 498
#     4  12  27  49  83 113 163 227 268 341 424 490
#     4  12  28  57  83 116 167 224 280 344 415 496
#     4  12  26  45  73 124 166 216 265 339 423 493
#     4  12  25  47  80 118 168 205 271 343 413 502
#     4  12  27  52  80 121 158 218 285 337 413 490
#     4  12  28  52  83 118 169 213 284 350 403 506
#
# _framework density 27.117443999999999
#
# number of rings (size 3 to 8) (size 9 to 14) (size 15 to 20)
#    0.000    0.000    6.250    2.250    3.500    4.000 
#    2.250    0.000    0.000    0.000    0.000    0.000 
#    0.000    0.000    0.000    0.000    0.000    0.000 
#
# Total GULP energy -198337.118388 kJ/mol
# GULP energy per Si atom -12396.069899 kJ/mol
# Density = 2.705572 g / cm^3
# Si number density = 27.117444 Si / 1000 Ang^3
#
#
#
# Elastic Constant Matrix: (Units=GPa)
#
#
# Indices 1 2 3 4 5 6 
#
# 1 119.4079 42.8933 32.1609 -3.1242 -3.0851 15.6794
# 2 42.8933 203.6403 55.7835 -2.2586 -5.6646 -6.0952
# 3 32.1609 55.7835 131.4566 -1.8319 10.3977 5.1007
# 4 -3.1242 -2.2586 -1.8319 39.7740 -1.6329 -3.1400
# 5 -3.0851 -5.6646 10.3977 -1.6329 37.3502 -0.6171
# 6 15.6794 -6.0952 5.1007 -3.1400 -0.6171 60.8447
#
#
#
# Elastic Compliance Matrix: (Units=1/GPa)
#
#
# Indices 1 2 3 4 5 6 
#
# 1 0.009783 -0.001645 -0.001671 0.000441 0.001001 -0.002513
# 2 -0.001645 0.005963 -0.002286 0.000261 0.001437 0.001241
# 3 -0.001671 -0.002286 0.009252 -0.000009 -0.003071 -0.000606
# 4 0.000441 0.000261 -0.000009 0.025338 0.001207 0.001233
# 5 0.001001 0.001437 -0.003071 0.001207 0.027990 0.000489
# 6 -0.002513 0.001241 -0.000606 0.001233 0.000489 0.017327
#
#
# Mechanical properties :
#
#
# Convention : Reuss Voigt Hill
#
# Bulk Modulus (GPa) = 72.49524 79.57558 76.03541
# Shear Modulus (GPa) = 44.86071 49.17159 47.01615
#
# Velocity S-wave (km/s) = 4.07174 4.26289 4.16841
# Velocity P-wave (km/s) = 6.99265 7.32380 7.16014
#
# Compressibility (1/GPa) = 0.01379401
#
# Stress axis : x y z
#
# Youngs Moduli (GPa) = 102.21712 167.68732 108.08188
#
# Poissons Ratio (x) = 0.27592 0.18058
# Poissons Ratio (y) = 0.16819 0.24710
# Poissons Ratio (z) = 0.17078 0.38337
#
# Static dielectric constant tensor:
#      x y z
#    x 5.570380 0.014620 -0.198850 
#    y 0.014620 4.845440 -0.281090 
#    z -0.198850 -0.281090 6.647160 
# 
# 
# High freq. dielectric constant tensor:
#      x y z
#    x 2.112710 0.003460 -0.005310 
#    y 0.003460 2.119790 0.009460 
#    z -0.005310 0.009460 2.108260 
# 
# From -- ./inp_files/306953.got.cif
#   From: 2010.06.25/outbox.cif.g09.slc.cpg/sg2_154_cif.got.tgz:306953.got - 2010.06.27 13:26:56.
