data_PCOD8037012
_publ_section_title
;
Structure prediction by ZEFSAII (Michael W. Deem and Ramdas Pophale) SiO2 
 PCOD8037012
Probable space group: P -1
;
_chemical_formula_sum "Si O2"
_cell_formula_units_Z 16
_cell_length_a 10.598035
_cell_length_b 14.563058
_cell_length_c 11.755985
_cell_angle_alpha 148.935347
_cell_angle_beta 97.402050
_cell_angle_gamma 63.599104
_cell_volume 702.929292
_symmetry_space_group_name_H-M "P -1"
_symmetry_group_IT_number 2
_symmetry_cell_setting 'triclinic'
loop_
_space_group_symop_operation_xyz
x,y,z
-x,-y,-z
loop_
_atom_site_type_symbol
_atom_site_label
_atom_site_fract_x
_atom_site_fract_y
_atom_site_fract_z
Si Si1 0.115817 0.217329 0.530579
Si Si2 0.812293 0.247418 0.264255
Si Si3 0.644517 0.758134 0.823518
Si Si4 0.391930 0.794764 0.981387
Si Si5 0.121822 0.888593 0.619034
Si Si6 0.683988 0.798038 0.261356
Si Si7 0.146058 0.253161 0.995858
Si Si8 0.411616 0.505250 0.106295
O O1 0.179357 0.245828 0.684229
O O2 0.029923 0.104095 0.422595
O O3 0.981983 0.469630 0.729966
O O4 0.258645 0.066616 0.291826
O O5 0.763055 0.501106 0.499796
O O6 0.681940 0.258186 0.183771
O O7 0.786599 0.242612 0.390633
O O8 0.000000 0.000000 0.000000
O O9 0.560189 0.732269 0.891173
O O10 0.759940 0.809269 0.939692
O O11 0.500000 0.000000 0.000000
O O12 0.439530 0.647210 0.945639
O O13 0.268532 0.766824 0.412814
O O14 0.047311 0.156481 0.891923
O O15 0.719517 0.860055 0.211428
O O16 0.500000 0.000000 0.500000
O O17 0.695767 0.575393 0.015440
O O18 0.500000 0.500000 0.000000
#
# Coordination Sequence:
#
# PCOD8037012 Si02
#       8
#     2   2   2   2   2   2   2   2
#     4  12  25  47  71 105 153 195 241 314 372 444
#     4  12  24  48  75 106 155 195 243 315 378 445
#     4  12  25  46  75 111 149 195 251 314 378 447
#     4  12  24  46  75 104 148 196 248 306 376 443
#     4  12  26  47  75 107 150 195 249 303 378 453
#     4  12  23  47  70 101 149 193 247 314 365 438
#     4  12  25  46  72 105 148 193 245 307 377 445
#     4  12  26  47  75 110 146 195 253 306 369 449
#
# _framework density 22.761890000000001
#
# number of rings (size 3 to 8) (size 9 to 14) (size 15 to 20)
#    0.000    0.000    7.500    2.250    1.750    2.500 
#    0.000    2.500    0.000    0.000    0.000    0.000 
#    0.000    0.000    0.000    0.000    0.000    0.000 
#
# Total GULP energy -198306.680299 kJ/mol
# GULP energy per Si atom -12394.167519 kJ/mol
# Density = 2.271008 g / cm^3
# Si number density = 22.761890 Si / 1000 Ang^3
#
#
#
# Elastic Constant Matrix: (Units=GPa)
#
#
# Indices 1 2 3 4 5 6 
#
# 1 111.0693 41.2024 40.4106 2.5816 25.5755 -17.9272
# 2 41.2024 98.9966 18.4209 -8.2637 11.7777 -17.6913
# 3 40.4106 18.4209 128.8491 8.4772 -4.9365 -1.0209
# 4 2.5816 -8.2637 8.4772 40.4578 -3.5040 8.7217
# 5 25.5755 11.7777 -4.9365 -3.5040 49.3621 -5.7019
# 6 -17.9272 -17.6913 -1.0209 8.7217 -5.7019 42.1848
#
#
#
# Elastic Compliance Matrix: (Units=1/GPa)
#
#
# Indices 1 2 3 4 5 6 
#
# 1 0.014007 -0.003835 -0.003914 -0.002244 -0.006449 0.003842
# 2 -0.003835 0.012652 -0.000753 0.002265 -0.000587 0.003110
# 3 -0.003914 -0.000753 0.009289 -0.001366 0.002915 -0.001078
# 4 -0.002244 0.002265 -0.001366 0.026919 0.001777 -0.005362
# 5 -0.006449 -0.000587 0.002915 0.001777 0.024156 -0.000019
# 6 0.003842 0.003110 -0.001078 -0.005362 -0.000019 0.027722
#
#
# Mechanical properties :
#
#
# Convention : Reuss Voigt Hill
#
# Bulk Modulus (GPa) = 52.78388 59.88699 56.33543
# Shear Modulus (GPa) = 36.21499 42.32633 39.27066
#
# Velocity S-wave (km/s) = 3.99311 4.31690 4.15816
# Velocity P-wave (km/s) = 6.67082 7.15645 6.91790
#
# Compressibility (1/GPa) = 0.01894518
#
# Stress axis : x y z
#
# Youngs Moduli (GPa) = 71.39120 79.03628 107.65265
#
# Poissons Ratio (x) = 0.30311 0.42133
# Poissons Ratio (y) = 0.27379 0.08106
# Poissons Ratio (z) = 0.27941 0.05951
#
# Static dielectric constant tensor:
#      x y z
#    x 4.112570 0.014960 0.000150 
#    y 0.014960 3.896970 -0.007720 
#    z 0.000150 -0.007720 4.510460 
# 
# 
# High freq. dielectric constant tensor:
#      x y z
#    x 1.895630 -0.014470 0.002000 
#    y -0.014470 1.895740 -0.008130 
#    z 0.002000 -0.008130 1.924360 
# 
# From -- ./inp_files/434378.got.cif
#   From: 2010.06.25/outbox.cif.g09.slc.cpg/sg2_218_cif.got.tgz:434378.got - 2010.06.27 13:26:56.
