data_PCOD8037256
_publ_section_title
;
Structure prediction by ZEFSAII (Michael W. Deem and Ramdas Pophale) SiO2 
 PCOD8037256
Probable space group: P -1
;
_chemical_formula_sum "Si O2"
_cell_formula_units_Z 16
_cell_length_a 20.895170
_cell_length_b 9.391081
_cell_length_c 12.934398
_cell_angle_alpha 51.120354
_cell_angle_beta 155.579072
_cell_angle_gamma 136.285253
_cell_volume 721.040747
_symmetry_space_group_name_H-M "P -1"
_symmetry_group_IT_number 2
_symmetry_cell_setting 'triclinic'
loop_
_space_group_symop_operation_xyz
x,y,z
-x,-y,-z
loop_
_atom_site_type_symbol
_atom_site_label
_atom_site_fract_x
_atom_site_fract_y
_atom_site_fract_z
Si Si1 0.563876 0.529411 0.200917
Si Si2 0.190097 0.770362 0.910955
Si Si3 0.380609 0.099053 0.747476
Si Si4 0.772981 0.863726 0.076762
Si Si5 0.938794 0.269279 0.476627
Si Si6 0.670220 0.025401 0.674679
Si Si7 0.474974 0.272286 0.577818
Si Si8 0.891143 0.476550 0.745708
O O1 0.561193 0.725499 0.159201
O O2 0.762470 0.579325 0.498389
O O3 0.500000 0.500000 0.000000
O O4 0.426126 0.316259 0.149192
O O5 0.188662 0.754979 0.793632
O O6 0.024707 0.572371 0.804734
O O7 0.200289 0.993641 0.848665
O O8 0.358298 0.752434 0.202844
O O9 0.412309 0.192798 0.636923
O O10 0.177035 0.917831 0.530296
O O11 0.500000 0.000000 0.000000
O O12 0.896927 0.756686 0.310396
O O13 0.810298 0.022299 0.964392
O O14 0.000000 0.500000 0.500000
O O15 0.657068 0.858391 0.646754
O O16 0.500000 0.000000 0.500000
O O17 0.759863 0.236010 0.645750
O O18 0.500000 0.500000 0.500000
O O19 0.000000 0.500000 0.000000
#
# Coordination Sequence:
#
# PCOD8037256 Si02
#       8
#     2   2   2   2   2   2   2   2
#     4  12  26  45  78 105 139 191 249 296 364 442
#     4  12  25  47  71 105 146 188 244 303 363 432
#     4  12  27  48  73 106 150 193 243 302 377 438
#     4  12  24  46  74 102 139 187 245 301 356 433
#     4  12  28  47  71 105 149 191 242 305 368 439
#     4  12  24  46  74 102 141 187 244 293 363 445
#     4  12  28  47  75 107 150 193 239 303 373 443
#     4  12  25  44  75 110 144 184 244 311 364 429
#
# _framework density 22.190147
#
# number of rings (size 3 to 8) (size 9 to 14) (size 15 to 20)
#    0.000    0.000    5.000    4.125    7.000    0.000 
#    0.000    1.250    0.000    0.000    0.000    0.000 
#    0.000    0.000    0.000    0.000    0.000    0.000 
#
# Total GULP energy -198299.491298 kJ/mol
# GULP energy per Si atom -12393.718206 kJ/mol
# Density = 2.213964 g / cm^3
# Si number density = 22.190147 Si / 1000 Ang^3
#
#
#
# Elastic Constant Matrix: (Units=GPa)
#
#
# Indices 1 2 3 4 5 6 
#
# 1 119.4572 71.4874 31.4504 3.3235 -8.3111 -9.5800
# 2 71.4874 169.6723 20.6567 6.7062 5.3180 -16.5740
# 3 31.4504 20.6567 90.0167 -7.8924 -2.5645 -8.3170
# 4 3.3235 6.7062 -7.8924 41.4880 4.8494 2.9215
# 5 -8.3111 5.3180 -2.5645 4.8494 41.4779 7.6089
# 6 -9.5800 -16.5740 -8.3170 2.9215 7.6089 54.8853
#
#
#
# Elastic Compliance Matrix: (Units=1/GPa)
#
#
# Indices 1 2 3 4 5 6 
#
# 1 0.012382 -0.004890 -0.003234 -0.001164 0.003075 -0.000170
# 2 -0.004890 0.008272 -0.000146 -0.000842 -0.002316 0.001988
# 3 -0.003234 -0.000146 0.012605 0.002640 -0.000381 0.001214
# 4 -0.001164 -0.000842 0.002640 0.025225 -0.002724 -0.001023
# 5 0.003075 -0.002316 -0.000381 -0.002724 0.025992 -0.003679
# 6 -0.000170 0.001988 0.001214 -0.001023 -0.003679 0.019539
#
#
# Mechanical properties :
#
#
# Convention : Reuss Voigt Hill
#
# Bulk Modulus (GPa) = 59.81206 69.59281 64.70243
# Shear Modulus (GPa) = 39.64241 44.60703 42.12472
#
# Velocity S-wave (km/s) = 4.23127 4.48841 4.36174
# Velocity P-wave (km/s) = 7.13333 7.63487 7.38836
#
# Compressibility (1/GPa) = 0.01671904
#
# Stress axis : x y z
#
# Youngs Moduli (GPa) = 80.76439 120.89224 79.33262
#
# Poissons Ratio (x) = 0.59116 0.25656
# Poissons Ratio (y) = 0.39494 0.01157
# Poissons Ratio (z) = 0.26119 0.01763
#
# Static dielectric constant tensor:
#      x y z
#    x 5.073950 -0.029140 -0.199670 
#    y -0.029140 4.206050 0.137140 
#    z -0.199670 0.137140 4.166880 
# 
# 
# High freq. dielectric constant tensor:
#      x y z
#    x 1.873240 0.004650 -0.004330 
#    y 0.004650 1.896170 -0.001740 
#    z -0.004330 -0.001740 1.881460 
# 
# From -- ./inp_files/347679.got.cif
#   From: 2010.06.25/outbox.cif.g09.slc.cpg/sg2_174_cif.got.tgz:347679.got - 2010.06.27 13:26:56.
