data_PCOD8037768
_publ_section_title
;
Structure prediction by ZEFSAII (Michael W. Deem and Ramdas Pophale) SiO2 
 PCOD8037768
Probable space group: P -1
;
_chemical_formula_sum "Si O2"
_cell_formula_units_Z 12
_cell_length_a 8.320260
_cell_length_b 14.548085
_cell_length_c 9.525034
_cell_angle_alpha 119.236855
_cell_angle_beta 149.760787
_cell_angle_gamma 68.195468
_cell_volume 503.309355
_symmetry_space_group_name_H-M "P -1"
_symmetry_group_IT_number 2
_symmetry_cell_setting 'triclinic'
loop_
_space_group_symop_operation_xyz
x,y,z
-x,-y,-z
loop_
_atom_site_type_symbol
_atom_site_label
_atom_site_fract_x
_atom_site_fract_y
_atom_site_fract_z
Si Si1 0.073132 0.399859 0.070903
Si Si2 0.674229 0.288094 0.463754
Si Si3 0.206821 0.278139 0.622034
Si Si4 0.446742 0.052514 0.144997
Si Si5 0.243483 0.035521 0.437936
Si Si6 0.111439 0.604867 0.750030
O O1 0.448317 0.381209 0.333734
O O2 0.969466 0.413162 0.162090
O O3 0.000000 0.500000 0.000000
O O4 0.856047 0.301954 0.760689
O O5 0.448876 0.177690 0.219602
O O6 0.926982 0.289523 0.530163
O O7 0.307603 0.160737 0.606952
O O8 0.082616 0.303341 0.391425
O O9 0.508461 0.361751 0.956253
O O10 0.729588 0.025307 0.440305
O O11 0.500000 0.000000 0.000000
O O12 0.108926 0.001215 0.916819
O O13 0.500000 0.000000 0.500000
O O14 0.000000 0.500000 0.500000
#
# Coordination Sequence:
#
# PCOD8037768 Si02
#       6
#     2   2   2   2   2   2
#     4  12  28  51  77 111 146 193 251 310 375 443
#     4  12  27  47  79 109 151 197 248 306 368 443
#     4  12  27  48  77 111 151 197 248 303 376 438
#     4  12  26  49  74 111 152 199 250 298 368 439
#     4  12  28  47  75 111 156 196 248 306 364 442
#     4  12  28  51  76 108 149 193 248 311 377 445
#
# _framework density 23.842196999999999
#
# number of rings (size 3 to 8) (size 9 to 14) (size 15 to 20)
#    0.000    0.000    1.667    7.000    9.333    2.667 
#    0.000    0.000    0.000    0.000    0.000    0.000 
#    0.000    0.000    0.000    0.000    0.000    0.000 
#
# Total GULP energy -148884.794024 kJ/mol
# GULP energy per Si atom -12407.066169 kJ/mol
# Density = 2.378793 g / cm^3
# Si number density = 23.842197 Si / 1000 Ang^3
#
#
#
# Elastic Constant Matrix: (Units=GPa)
#
#
# Indices 1 2 3 4 5 6 
#
# 1 160.2485 77.9444 68.5454 10.3400 -2.8726 -12.7229
# 2 77.9444 140.5661 42.5315 -8.7144 -6.5751 0.1370
# 3 68.5454 42.5315 141.4444 0.2035 2.7355 1.3409
# 4 10.3400 -8.7144 0.2035 50.0082 5.9397 -1.0065
# 5 -2.8726 -6.5751 2.7355 5.9397 50.3992 -5.3593
# 6 -12.7229 0.1370 1.3409 -1.0065 -5.3593 41.1582
#
#
#
# Elastic Compliance Matrix: (Units=1/GPa)
#
#
# Indices 1 2 3 4 5 6 
#
# 1 0.010775 -0.004989 -0.003768 -0.003119 0.000909 0.003512
# 2 -0.004989 0.010285 -0.000678 0.002724 0.000624 -0.001407
# 3 -0.003768 -0.000678 0.009134 0.000717 -0.001051 -0.001579
# 4 -0.003119 0.002724 0.000717 0.021390 -0.002467 -0.000795
# 5 0.000909 0.000624 -0.001051 -0.002467 0.020635 0.002940
# 6 0.003512 -0.001407 -0.001579 -0.000795 0.002940 0.025802
#
#
# Mechanical properties :
#
#
# Convention : Reuss Voigt Hill
#
# Bulk Modulus (GPa) = 88.30067 91.14463 89.72265
# Shear Modulus (GPa) = 41.43698 45.19563 43.31631
#
# Velocity S-wave (km/s) = 4.17342 4.35859 4.26701
# Velocity P-wave (km/s) = 7.76782 7.97753 7.87338
#
# Compressibility (1/GPa) = 0.01132494
#
# Stress axis : x y z
#
# Youngs Moduli (GPa) = 92.80676 97.22941 109.48233
#
# Poissons Ratio (x) = 0.48508 0.41252
# Poissons Ratio (y) = 0.46302 0.07418
# Poissons Ratio (z) = 0.34969 0.06588
#
# Static dielectric constant tensor:
#      x y z
#    x 4.007680 0.318540 -0.870220 
#    y 0.318540 4.588650 0.400240 
#    z -0.870220 0.400240 2.444830 
# 
# 
# High freq. dielectric constant tensor:
#      x y z
#    x 1.949840 -0.000250 -0.000420 
#    y -0.000250 1.959070 -0.003820 
#    z -0.000420 -0.003820 1.970760 
# 
# From -- ./inp_files/208868.got.cif
#   From: 2010.06.25/outbox.cif.g09.slc.cpg/sg2_105_cif.got.tgz:208868.got - 2010.06.27 13:26:56.
