data_PCOD8037259
_publ_section_title
;
Structure prediction by ZEFSAII (Michael W. Deem and Ramdas Pophale) SiO2 
 PCOD8037259
Probable space group: P -1
;
_chemical_formula_sum "Si O2"
_cell_formula_units_Z 16
_cell_length_a 14.140235
_cell_length_b 9.141271
_cell_length_c 12.292357
_cell_angle_alpha 88.615200
_cell_angle_beta 150.031645
_cell_angle_gamma 79.330634
_cell_volume 722.748786
_symmetry_space_group_name_H-M "P -1"
_symmetry_group_IT_number 2
_symmetry_cell_setting 'triclinic'
loop_
_space_group_symop_operation_xyz
x,y,z
-x,-y,-z
loop_
_atom_site_type_symbol
_atom_site_label
_atom_site_fract_x
_atom_site_fract_y
_atom_site_fract_z
Si Si1 0.593296 0.820996 0.433116
Si Si2 0.065115 0.310916 0.046687
Si Si3 0.127963 0.322091 0.497856
Si Si4 0.731821 0.844521 0.967232
Si Si5 0.694074 0.532150 0.971483
Si Si6 0.044335 0.135757 0.600635
Si Si7 0.662564 0.371078 0.740912
Si Si8 0.665879 0.445677 0.259851
O O1 0.730825 0.794507 0.678596
O O2 0.744305 0.753853 0.482035
O O3 0.431384 0.739085 0.288816
O O4 0.462045 0.010535 0.282004
O O5 0.104886 0.258426 0.960921
O O6 0.000000 0.500000 0.000000
O O7 0.873011 0.264130 0.887174
O O8 0.193877 0.457024 0.605260
O O9 0.171523 0.192847 0.639242
O O10 0.879809 0.406885 0.231702
O O11 0.663137 0.714692 0.957235
O O12 0.828552 0.915987 0.157851
O O13 0.743524 0.474388 0.898656
O O14 0.472206 0.524534 0.770222
O O15 0.817058 0.261902 0.403135
O O16 0.000000 0.000000 0.500000
O O17 0.500000 0.500000 0.500000
O O18 0.500000 0.500000 0.000000
#
# Coordination Sequence:
#
# PCOD8037259 Si02
#       8
#     2   2   2   2   2   2   2   2
#     4  12  27  46  75 111 152 189 242 307 378 438
#     4  12  24  49  78 105 144 192 246 305 362 444
#     4  12  25  50  76 107 149 197 252 305 357 446
#     4  12  28  48  72 109 156 192 241 310 378 432
#     4  12  24  46  74 107 143 195 248 300 361 439
#     4  12  30  48  71 112 154 195 248 306 372 434
#     4  12  25  43  77 110 141 190 247 298 366 443
#     4  12  25  45  77 102 140 194 255 298 356 434
#
# _framework density 22.137706000000001
#
# number of rings (size 3 to 8) (size 9 to 14) (size 15 to 20)
#    0.000    0.000    7.500    1.500    7.000    1.000 
#    0.000    0.000    0.000    0.000    0.000    0.000 
#    0.000    0.000    0.000    0.000    0.000    0.000 
#
# Total GULP energy -198383.678476 kJ/mol
# GULP energy per Si atom -12398.979905 kJ/mol
# Density = 2.208732 g / cm^3
# Si number density = 22.137706 Si / 1000 Ang^3
#
#
#
# Elastic Constant Matrix: (Units=GPa)
#
#
# Indices 1 2 3 4 5 6 
#
# 1 130.9802 45.6222 37.9243 6.2856 9.6343 4.7203
# 2 45.6222 108.8676 42.9931 -1.8454 0.9764 -5.0266
# 3 37.9243 42.9931 131.9501 2.0439 -6.9029 0.8393
# 4 6.2856 -1.8454 2.0439 41.8962 -1.5462 -6.8657
# 5 9.6343 0.9764 -6.9029 -1.5462 46.8612 6.6323
# 6 4.7203 -5.0266 0.8393 -6.8657 6.6323 22.4747
#
#
#
# Elastic Compliance Matrix: (Units=1/GPa)
#
#
# Indices 1 2 3 4 5 6 
#
# 1 0.009693 -0.003551 -0.001674 -0.002065 -0.001829 -0.002859
# 2 -0.003551 0.012095 -0.003003 0.001897 -0.000509 0.004293
# 3 -0.001674 -0.003003 0.009156 -0.000483 0.001935 -0.001380
# 4 -0.002065 0.001897 -0.000483 0.025717 -0.000077 0.008755
# 5 -0.001829 -0.000509 0.001935 -0.000077 0.022942 -0.006596
# 6 -0.002859 0.004293 -0.001380 0.008755 -0.006596 0.050727
#
#
# Mechanical properties :
#
#
# Convention : Reuss Voigt Hill
#
# Bulk Modulus (GPa) = 69.03431 69.43080 69.23255
# Shear Modulus (GPa) = 32.97773 38.59698 35.78735
#
# Velocity S-wave (km/s) = 3.86380 4.18005 4.02503
# Velocity P-wave (km/s) = 7.15241 7.39786 7.27617
#
# Compressibility (1/GPa) = 0.01448555
#
# Stress axis : x y z
#
# Youngs Moduli (GPa) = 103.16527 82.68061 109.21890
#
# Poissons Ratio (x) = 0.29363 0.18287
# Poissons Ratio (y) = 0.36638 0.32803
# Poissons Ratio (z) = 0.17273 0.24832
#
# Static dielectric constant tensor:
#      x y z
#    x 5.186370 -0.064370 0.409880 
#    y -0.064370 3.676540 -0.218650 
#    z 0.409880 -0.218650 3.939230 
# 
# 
# High freq. dielectric constant tensor:
#      x y z
#    x 1.897510 -0.003470 -0.000460 
#    y -0.003470 1.859580 0.003530 
#    z -0.000460 0.003530 1.880090 
# 
# From -- ./inp_files/447559.got.cif
#   From: 2010.06.25/outbox.cif.g09.slc.cpg/sg2_224_cif.got.tgz:447559.got - 2010.06.27 13:26:56.
