data_PCOD8037560
_publ_section_title
;
Structure prediction by ZEFSAII (Michael W. Deem and Ramdas Pophale) SiO2 
 PCOD8037560
Probable space group: P -1
;
_chemical_formula_sum "Si O2"
_cell_formula_units_Z 12
_cell_length_a 12.453181
_cell_length_b 12.435767
_cell_length_c 8.321619
_cell_angle_alpha 98.214566
_cell_angle_beta 97.954677
_cell_angle_gamma 21.870718
_cell_volume 475.083843
_symmetry_space_group_name_H-M "P -1"
_symmetry_group_IT_number 2
_symmetry_cell_setting 'triclinic'
loop_
_space_group_symop_operation_xyz
x,y,z
-x,-y,-z
loop_
_atom_site_type_symbol
_atom_site_label
_atom_site_fract_x
_atom_site_fract_y
_atom_site_fract_z
Si Si1 0.497502 0.721374 0.087568
Si Si2 0.624228 0.825661 0.642988
Si Si3 0.940099 0.180241 0.236183
Si Si4 0.167823 0.365465 0.842787
Si Si5 0.167898 0.962697 0.759130
Si Si6 0.305294 0.493650 0.420996
O O1 0.733142 0.407260 0.093806
O O2 0.656023 0.687704 0.129819
O O3 0.350490 0.850355 0.912085
O O4 0.257471 0.934874 0.223359
O O5 0.661268 0.665024 0.582535
O O6 0.933561 0.590348 0.699471
O O7 0.500000 0.000000 0.500000
O O8 0.395175 0.057000 0.790350
O O9 0.964427 0.027921 0.208546
O O10 0.812553 0.342962 0.408860
O O11 0.000000 0.500000 0.000000
O O12 0.382775 0.744245 0.605947
O O13 0.910788 0.281701 0.723581
#
# Coordination Sequence:
#
# PCOD8037560 Si02
#       6
#     2   2   2   2   2   2
#     4  12  26  46  73 107 145 190 241 300 362 429
#     4  12  27  49  75 108 146 189 241 300 361 432
#     4  12  25  47  74 107 145 191 243 300 360 429
#     4  12  27  49  75 108 146 189 241 300 361 432
#     4  12  25  47  74 107 145 191 243 300 360 429
#     4  12  26  46  73 107 145 190 241 300 362 429
#
# _framework density 25.258697999999999
#
# number of rings (size 3 to 8) (size 9 to 14) (size 15 to 20)
#    0.000    0.000    0.000   10.000    0.000    5.333 
#    0.000    3.333    0.000    0.000    0.000    0.000 
#    0.000    0.000    0.000    0.000    0.000    0.000 
#
# Total GULP energy -148907.329942 kJ/mol
# GULP energy per Si atom -12408.944162 kJ/mol
# Density = 2.520121 g / cm^3
# Si number density = 25.258698 Si / 1000 Ang^3
#
#
#
# Elastic Constant Matrix: (Units=GPa)
#
#
# Indices 1 2 3 4 5 6 
#
# 1 125.9081 55.8844 32.5161 -19.5899 -9.9073 -14.6419
# 2 55.8844 134.2632 1.1536 -19.4992 -5.7652 0.0925
# 3 32.5161 1.1536 45.7083 -13.7889 -0.0036 3.0297
# 4 -19.5899 -19.4992 -13.7889 54.7874 -3.1856 -15.7524
# 5 -9.9073 -5.7652 -0.0036 -3.1856 38.6369 2.1834
# 6 -14.6419 0.0925 3.0297 -15.7524 2.1834 55.9557
#
#
#
# Elastic Compliance Matrix: (Units=1/GPa)
#
#
# Indices 1 2 3 4 5 6 
#
# 1 0.013743 -0.005209 -0.009286 0.002208 0.002667 0.004625
# 2 -0.005209 0.009964 0.004275 0.002520 0.000411 -0.000918
# 3 -0.009286 0.004275 0.030039 0.004937 -0.001185 -0.002627
# 4 0.002208 0.002520 0.004937 0.023269 0.002479 0.006760
# 5 0.002667 0.000411 -0.001185 0.002479 0.026808 0.000413
# 6 0.004625 -0.000918 -0.002627 0.006760 0.000413 0.021112
#
#
# Mechanical properties :
#
#
# Convention : Reuss Voigt Hill
#
# Bulk Modulus (GPa) = 30.02349 53.88753 41.95551
# Shear Modulus (GPa) = 31.95362 44.29773 38.12567
#
# Velocity S-wave (km/s) = 3.56062 4.19234 3.88932
# Velocity P-wave (km/s) = 5.36807 6.69439 6.06758
#
# Compressibility (1/GPa) = 0.03330725
#
# Stress axis : x y z
#
# Youngs Moduli (GPa) = 72.76185 100.36593 33.28999
#
# Poissons Ratio (x) = 0.52277 0.30912
# Poissons Ratio (y) = 0.37899 -0.14231
# Poissons Ratio (z) = 0.67564 -0.42905
#
# Static dielectric constant tensor:
#      x y z
#    x 4.929200 -0.071700 -0.195700 
#    y -0.071700 5.352590 -0.010850 
#    z -0.195700 -0.010850 4.752740 
# 
# 
# High freq. dielectric constant tensor:
#      x y z
#    x 2.009280 -0.005900 -0.007170 
#    y -0.005900 2.038950 0.000780 
#    z -0.007170 0.000780 2.020060 
# 
# From -- ./inp_files/258526.got.cif
#   From: 2010.06.25/outbox.cif.g09.slc.cpg/sg2_130_cif.got.tgz:258526.got - 2010.06.27 13:26:56.
