data_PCOD8037800
_publ_section_title
;
Structure prediction by ZEFSAII (Michael W. Deem and Ramdas Pophale) SiO2 
 PCOD8037800
Probable space group: P -1
;
_chemical_formula_sum "Si O2"
_cell_formula_units_Z 16
_cell_length_a 13.971068
_cell_length_b 9.165132
_cell_length_c 9.020409
_cell_angle_alpha 75.045960
_cell_angle_beta 107.884269
_cell_angle_gamma 52.332443
_cell_volume 701.476605
_symmetry_space_group_name_H-M "P -1"
_symmetry_group_IT_number 2
_symmetry_cell_setting 'triclinic'
loop_
_space_group_symop_operation_xyz
x,y,z
-x,-y,-z
loop_
_atom_site_type_symbol
_atom_site_label
_atom_site_fract_x
_atom_site_fract_y
_atom_site_fract_z
Si Si1 0.391748 0.716511 0.141755
Si Si2 0.320304 0.029635 0.767856
Si Si3 0.840919 0.433461 0.802776
Si Si4 0.849919 0.970392 0.797434
Si Si5 0.774389 0.566521 0.236226
Si Si6 0.086412 0.327190 0.336413
Si Si7 0.385166 0.379275 0.123037
Si Si8 0.735577 0.379275 0.497693
O O1 0.284558 0.875100 0.187853
O O2 0.377324 0.560823 0.123402
O O3 0.561857 0.560877 0.315770
O O4 0.340304 0.875145 0.937044
O O5 0.328760 0.182909 0.810982
O O6 0.162375 0.188638 0.562749
O O7 0.443766 0.878049 0.733267
O O8 0.895120 0.515105 0.713151
O O9 0.720208 0.609103 0.828371
O O10 0.745282 0.426779 0.657919
O O11 0.988337 0.182918 0.006166
O O12 0.821807 0.121969 0.611270
O O13 0.850947 0.811445 0.751291
O O14 0.829330 0.390904 0.437490
O O15 0.910234 0.484870 0.228232
O O16 0.672091 0.573144 0.084725
#
# Coordination Sequence:
#
# PCOD8037800 Si02
#       8
#     2   2   2   2   2   2   2   2
#     4  12  28  48  74 110 150 184 244 302 352 436
#     4  12  27  47  75 106 149 193 235 299 367 415
#     4  12  27  49  73 107 148 190 245 297 354 434
#     4  12  27  47  75 106 149 193 235 299 367 415
#     4  12  27  49  73 107 148 190 245 297 354 434
#     4  12  28  48  74 110 146 190 244 296 358 434
#     4  12  27  48  75 106 148 191 243 296 358 431
#     4  12  27  48  75 106 148 191 243 296 358 431
#
# _framework density 22.809028000000001
#
# number of rings (size 3 to 8) (size 9 to 14) (size 15 to 20)
#    0.000    0.000    5.000    3.750    7.000    1.000 
#    0.000    0.000    0.000    0.000    0.000    0.000 
#    0.000    0.000    0.000    0.000    0.000    0.000 
#
# Total GULP energy -198416.145349 kJ/mol
# GULP energy per Si atom -12401.009084 kJ/mol
# Density = 2.275711 g / cm^3
# Si number density = 22.809028 Si / 1000 Ang^3
#
#
#
# Elastic Constant Matrix: (Units=GPa)
#
#
# Indices 1 2 3 4 5 6 
#
# 1 105.9543 34.8973 27.2946 -10.4132 -5.9100 -3.9164
# 2 34.8973 108.4929 25.3994 3.8242 8.5738 -5.0720
# 3 27.2946 25.3994 110.9096 -0.5213 3.2506 13.0738
# 4 -10.4132 3.8242 -0.5213 37.5506 8.9610 2.5655
# 5 -5.9100 8.5738 3.2506 8.9610 34.8192 7.9412
# 6 -3.9164 -5.0720 13.0738 2.5655 7.9412 29.4402
#
#
#
# Elastic Compliance Matrix: (Units=1/GPa)
#
#
# Indices 1 2 3 4 5 6 
#
# 1 0.011586 -0.003407 -0.002252 0.002976 0.001986 0.001160
# 2 -0.003407 0.011296 -0.002064 -0.001510 -0.003578 0.003506
# 3 -0.002252 -0.002064 0.010681 0.000020 0.000379 -0.005502
# 4 0.002976 -0.001510 0.000020 0.029204 -0.006489 -0.000668
# 5 0.001986 -0.003578 0.000379 -0.006489 0.033631 -0.009027
# 6 0.001160 0.003506 -0.005502 -0.000668 -0.009027 0.039662
#
#
# Mechanical properties :
#
#
# Convention : Reuss Voigt Hill
#
# Bulk Modulus (GPa) = 55.19639 55.61549 55.40594
# Shear Modulus (GPa) = 31.73675 36.21303 33.97489
#
# Velocity S-wave (km/s) = 3.73421 3.98887 3.86364
# Velocity P-wave (km/s) = 6.54556 6.75654 6.65189
#
# Compressibility (1/GPa) = 0.01811713
#
# Stress axis : x y z
#
# Youngs Moduli (GPa) = 86.30790 88.52504 93.62579
#
# Poissons Ratio (x) = 0.30162 0.21085
# Poissons Ratio (y) = 0.29407 0.19324
# Poissons Ratio (z) = 0.19437 0.18271
#
# Static dielectric constant tensor:
#      x y z
#    x 4.061100 0.027480 0.041240 
#    y 0.027480 4.220820 0.079180 
#    z 0.041240 0.079180 4.274120 
# 
# 
# High freq. dielectric constant tensor:
#      x y z
#    x 1.904680 0.000940 0.001200 
#    y 0.000940 1.907980 0.011010 
#    z 0.001200 0.011010 1.915570 
# 
# From -- ./inp_files/209066.got.cif
#   From: 2010.06.25/outbox.cif.g09.slc.cpg/sg2_105_cif.got.tgz:209066.got - 2010.06.27 13:26:56.
