data_PCOD8037537
_publ_section_title
;
Structure prediction by ZEFSAII (Michael W. Deem and Ramdas Pophale) SiO2 
 PCOD8037537
Probable space group: P -1
;
_chemical_formula_sum "Si O2"
_cell_formula_units_Z 14
_cell_length_a 28.245801
_cell_length_b 5.064672
_cell_length_c 13.310163
_cell_angle_alpha 104.939067
_cell_angle_beta 25.090297
_cell_angle_gamma 88.997079
_cell_volume 616.642384
_symmetry_space_group_name_H-M "P -1"
_symmetry_group_IT_number 2
_symmetry_cell_setting 'triclinic'
loop_
_space_group_symop_operation_xyz
x,y,z
-x,-y,-z
loop_
_atom_site_type_symbol
_atom_site_label
_atom_site_fract_x
_atom_site_fract_y
_atom_site_fract_z
Si Si1 0.047063 0.477601 0.113392
Si Si2 0.061363 0.199505 0.430160
Si Si3 0.372553 0.739052 0.843299
Si Si4 0.512208 0.405314 0.083225
Si Si5 0.790256 0.323743 0.293429
Si Si6 0.212109 0.363225 0.471445
Si Si7 0.371697 0.328371 0.985111
O O1 0.981310 0.644650 0.362485
O O2 0.920182 0.636671 0.292843
O O3 0.147839 0.571264 0.898319
O O4 0.143542 0.068204 0.890687
O O5 0.000000 0.500000 0.500000
O O6 0.000000 0.000000 0.500000
O O7 0.230796 0.967250 0.072556
O O8 0.500000 0.500000 0.500000
O O9 0.342693 0.539233 0.959824
O O10 0.415256 0.953382 0.839311
O O11 0.377979 0.428510 0.375379
O O12 0.500000 0.500000 0.000000
O O13 0.509555 0.688859 0.181147
O O14 0.652422 0.021225 0.797634
O O15 0.826051 0.369877 0.341248
O O16 0.235763 0.506137 0.337979
#
# Coordination Sequence:
#
# PCOD8037537 Si02
#       7
#     2   2   2   2   2   2   2
#     4  12  28  48  73 107 152 192 243 298 363 438
#     4  12  27  50  76 105 145 192 238 309 377 425
#     4  12  28  51  78 109 139 189 257 306 364 440
#     4  12  26  46  75 109 153 195 245 297 359 425
#     4  12  28  44  73 115 151 189 245 296 356 435
#     4  12  26  48  77 105 150 204 243 289 366 444
#     4  12  25  46  80 105 147 193 244 294 371 430
#
# _framework density 22.703598
#
# number of rings (size 3 to 8) (size 9 to 14) (size 15 to 20)
#    0.000    0.000    4.286    4.286    6.000    3.429 
#    0.000    0.000    0.000    0.000    0.000    0.000 
#    0.000    0.000    0.000    0.000    0.000    0.000 
#
# Total GULP energy -173636.311374 kJ/mol
# GULP energy per Si atom -12402.593670 kJ/mol
# Density = 2.265192 g / cm^3
# Si number density = 22.703598 Si / 1000 Ang^3
#
#
#
# Elastic Constant Matrix: (Units=GPa)
#
#
# Indices 1 2 3 4 5 6 
#
# 1 82.5497 18.2096 28.9156 0.1316 -7.5427 16.4628
# 2 18.2096 140.4946 39.5571 -8.4089 -3.5290 4.0272
# 3 28.9156 39.5571 126.8097 -6.8260 -15.6905 -4.4404
# 4 0.1316 -8.4089 -6.8260 40.3341 6.7100 1.0671
# 5 -7.5427 -3.5290 -15.6905 6.7100 42.9596 2.3661
# 6 16.4628 4.0272 -4.4404 1.0671 2.3661 58.6321
#
#
#
# Elastic Compliance Matrix: (Units=1/GPa)
#
#
# Indices 1 2 3 4 5 6 
#
# 1 0.014365 -0.000914 -0.002973 -0.000917 0.001738 -0.004249
# 2 -0.000914 0.007961 -0.002283 0.001377 -0.000530 -0.000467
# 3 -0.002973 -0.002283 0.009696 0.000694 0.002635 0.001607
# 4 -0.000917 0.001377 0.000694 0.025839 -0.003825 -0.000100
# 5 0.001738 -0.000530 0.002635 -0.003825 0.025165 -0.001198
# 6 -0.004249 -0.000467 0.001607 -0.000100 -0.001198 0.018453
#
#
# Mechanical properties :
#
#
# Convention : Reuss Voigt Hill
#
# Bulk Modulus (GPa) = 50.81018 58.13538 54.47278
# Shear Modulus (GPa) = 41.53517 45.92994 43.73256
#
# Velocity S-wave (km/s) = 4.28185 4.50268 4.39366
# Velocity P-wave (km/s) = 6.84646 7.25907 7.05578
#
# Compressibility (1/GPa) = 0.01968109
#
# Stress axis : x y z
#
# Youngs Moduli (GPa) = 69.61453 125.60581 103.13987
#
# Poissons Ratio (x) = 0.11481 0.30668
# Poissons Ratio (y) = 0.06363 0.23545
# Poissons Ratio (z) = 0.20700 0.28673
#
# Static dielectric constant tensor:
#      x y z
#    x 4.397280 0.214430 -0.041350 
#    y 0.214430 4.298080 -0.166730 
#    z -0.041350 -0.166730 4.199670 
# 
# 
# High freq. dielectric constant tensor:
#      x y z
#    x 1.909130 0.009740 0.002540 
#    y 0.009740 1.913280 -0.010030 
#    z 0.002540 -0.010030 1.901260 
# 
# From -- ./inp_files/473451.got.cif
#   From: 2010.06.25/outbox.cif.g09.slc.cpg/sg2_237_cif.got.tgz:473451.got - 2010.06.27 13:26:56.
