data_PCOD8037603
_publ_section_title
;
Structure prediction by ZEFSAII (Michael W. Deem and Ramdas Pophale) SiO2 
 PCOD8037603
Probable space group: P -1
;
_chemical_formula_sum "Si O2"
_cell_formula_units_Z 14
_cell_length_a 8.248922
_cell_length_b 13.573899
_cell_length_c 19.910798
_cell_angle_alpha 147.106946
_cell_angle_beta 33.256286
_cell_angle_gamma 147.547601
_cell_volume 584.012436
_symmetry_space_group_name_H-M "P -1"
_symmetry_group_IT_number 2
_symmetry_cell_setting 'triclinic'
loop_
_space_group_symop_operation_xyz
x,y,z
-x,-y,-z
loop_
_atom_site_type_symbol
_atom_site_label
_atom_site_fract_x
_atom_site_fract_y
_atom_site_fract_z
Si Si1 0.626802 0.942789 0.353613
Si Si2 0.709379 0.083391 0.682245
Si Si3 0.608469 0.869592 0.058069
Si Si4 0.635546 0.507903 0.776174
Si Si5 0.601097 0.908094 0.848534
Si Si6 0.621425 0.365822 0.424209
Si Si7 0.418249 0.465342 0.675839
O O1 0.437307 0.979151 0.377617
O O2 0.533611 0.704840 0.247643
O O3 0.500000 0.000000 0.500000
O O4 0.022875 0.065867 0.269868
O O5 0.517882 0.174908 0.846958
O O6 0.093313 0.254161 0.646461
O O7 0.662931 0.873838 0.614201
O O8 0.452848 0.995516 0.145248
O O9 0.488560 0.651530 0.938315
O O10 0.000000 0.000000 0.000000
O O11 0.531705 0.459816 0.707927
O O12 0.035046 0.620980 0.714368
O O13 0.358354 0.661744 0.795089
O O14 0.500000 0.000000 0.000000
O O15 0.500000 0.500000 0.500000
O O16 0.700688 0.468358 0.529589
#
# Coordination Sequence:
#
# PCOD8037603 Si02
#       7
#     2   2   2   2   2   2   2
#     4  12  28  52  78 111 155 197 255 313 377 448
#     4  12  27  47  77 110 149 194 249 314 371 453
#     4  12  26  48  75 108 153 197 256 307 374 450
#     4  12  26  47  74 107 151 199 246 313 375 443
#     4  12  26  49  77 111 154 203 250 305 379 446
#     4  12  25  48  74 107 146 198 251 309 378 445
#     4  12  26  45  77 109 148 194 252 306 377 446
#
# _framework density 23.972093000000001
#
# number of rings (size 3 to 8) (size 9 to 14) (size 15 to 20)
#    0.000    0.000    2.857    6.857    4.000    4.000 
#    0.000    0.000    0.000    0.000    0.000    0.000 
#    0.000    0.000    0.000    0.000    0.000    0.000 
#
# Total GULP energy -173591.202491 kJ/mol
# GULP energy per Si atom -12399.371606 kJ/mol
# Density = 2.391753 g / cm^3
# Si number density = 23.972093 Si / 1000 Ang^3
#
#
#
# Elastic Constant Matrix: (Units=GPa)
#
#
# Indices 1 2 3 4 5 6 
#
# 1 133.5549 43.4877 46.3453 -0.3675 4.7472 -0.7166
# 2 43.4877 131.2684 33.0733 22.4542 -14.4111 -6.3885
# 3 46.3453 33.0733 117.4018 -13.3670 13.1190 0.1528
# 4 -0.3675 22.4542 -13.3670 46.7626 -11.2956 -7.1904
# 5 4.7472 -14.4111 13.1190 -11.2956 48.6213 1.8190
# 6 -0.7166 -6.3885 0.1528 -7.1904 1.8190 37.7516
#
#
#
# Elastic Compliance Matrix: (Units=1/GPa)
#
#
# Indices 1 2 3 4 5 6 
#
# 1 0.009324 -0.002508 -0.002855 0.000240 -0.000822 -0.000151
# 2 -0.002508 0.010365 -0.002824 -0.005010 0.002892 0.000624
# 3 -0.002855 -0.002824 0.011186 0.003931 -0.002675 0.000300
# 4 0.000240 -0.005010 0.003931 0.026352 0.003404 0.003996
# 5 -0.000822 0.002892 -0.002675 0.003404 0.023016 0.000024
# 6 -0.000151 0.000624 0.000300 0.003996 0.000024 0.027351
#
#
# Mechanical properties :
#
#
# Convention : Reuss Voigt Hill
#
# Bulk Modulus (GPa) = 68.95958 69.78196 69.37077
# Shear Modulus (GPa) = 38.81900 43.91499 41.36700
#
# Velocity S-wave (km/s) = 4.02847 4.28474 4.15858
# Velocity P-wave (km/s) = 7.10402 7.32472 7.21521
#
# Compressibility (1/GPa) = 0.01450125
#
# Stress axis : x y z
#
# Youngs Moduli (GPa) = 107.25005 96.47554 89.39439
#
# Poissons Ratio (x) = 0.24199 0.25520
# Poissons Ratio (y) = 0.26902 0.25247
# Poissons Ratio (z) = 0.30617 0.27247
#
# Static dielectric constant tensor:
#      x y z
#    x 4.040710 -0.265750 0.054810 
#    y -0.265750 4.578670 -0.018130 
#    z 0.054810 -0.018130 4.903840 
# 
# 
# High freq. dielectric constant tensor:
#      x y z
#    x 1.950870 -0.008710 0.011970 
#    y -0.008710 1.961810 0.009380 
#    z 0.011970 0.009380 1.977490 
# 
# From -- ./inp_files/271891.got.cif
#   From: 2010.06.25/outbox.cif.g09.slc.cpg/sg2_136_cif.got.tgz:271891.got - 2010.06.27 13:26:56.
