data_PCOD8037032
_publ_section_title
;
Structure prediction by ZEFSAII (Michael W. Deem and Ramdas Pophale) SiO2 
 PCOD8037032
Probable space group: P -1
;
_chemical_formula_sum "Si O2"
_cell_formula_units_Z 16
_cell_length_a 8.998124
_cell_length_b 8.939408
_cell_length_c 11.058509
_cell_angle_alpha 54.469314
_cell_angle_beta 112.407868
_cell_angle_gamma 103.802992
_cell_volume 669.067093
_symmetry_space_group_name_H-M "P -1"
_symmetry_group_IT_number 2
_symmetry_cell_setting 'triclinic'
loop_
_space_group_symop_operation_xyz
x,y,z
-x,-y,-z
loop_
_atom_site_type_symbol
_atom_site_label
_atom_site_fract_x
_atom_site_fract_y
_atom_site_fract_z
Si Si1 0.833006 0.578171 0.865152
Si Si2 0.562147 0.023758 0.227798
Si Si3 0.289533 0.299088 0.705726
Si Si4 0.074726 0.436828 0.362137
Si Si5 0.003017 0.156314 0.827404
Si Si6 0.271653 0.030487 0.305965
Si Si7 0.154619 0.883546 0.574529
Si Si8 0.482022 0.610625 0.067783
O O1 0.838993 0.632652 0.699743
O O2 0.787079 0.762779 0.835882
O O3 0.693661 0.426723 0.914278
O O4 0.000000 0.500000 0.000000
O O5 0.444553 0.997786 0.317596
O O6 0.734014 0.119144 0.271187
O O7 0.582373 0.825406 0.266236
O O8 0.487143 0.171020 0.044014
O O9 0.191078 0.421475 0.521771
O O10 0.168835 0.158065 0.803859
O O11 0.384279 0.435222 0.766044
O O12 0.022048 0.642409 0.220213
O O13 0.909304 0.319356 0.388108
O O14 0.856405 0.117448 0.712305
O O15 0.000000 0.000000 0.000000
O O16 0.274888 0.983436 0.470337
O O17 0.000000 0.000000 0.500000
O O18 0.500000 0.500000 0.000000
#
# Coordination Sequence:
#
# PCOD8037032 Si02
#       8
#     2   2   2   2   2   2   2   2
#     4  12  27  47  78 112 153 206 265 318 386 472
#     4  12  26  47  75 109 158 205 255 323 391 464
#     4  12  28  52  76 109 160 204 259 325 396 468
#     4  12  27  48  80 115 152 210 259 319 392 460
#     4  12  28  47  77 111 155 203 262 322 388 470
#     4  12  25  46  71 113 151 202 260 316 390 454
#     4  12  23  47  77 111 153 203 258 316 389 467
#     4  12  29  49  75 111 154 204 262 325 397 464
#
# _framework density 23.913896999999999
#
# number of rings (size 3 to 8) (size 9 to 14) (size 15 to 20)
#    0.000    0.000    5.000    3.375    8.750    0.500 
#    2.250    0.000    0.000    0.000    0.000    0.000 
#    0.000    0.000    0.000    0.000    0.000    0.000 
#
# Total GULP energy -198424.743058 kJ/mol
# GULP energy per Si atom -12401.546441 kJ/mol
# Density = 2.385947 g / cm^3
# Si number density = 23.913897 Si / 1000 Ang^3
#
#
#
# Elastic Constant Matrix: (Units=GPa)
#
#
# Indices 1 2 3 4 5 6 
#
# 1 164.2879 40.8505 51.3143 2.5010 -8.8898 4.2073
# 2 40.8505 126.2374 45.0161 1.5487 11.4817 -0.9567
# 3 51.3143 45.0161 122.0716 10.6812 -6.4128 3.8632
# 4 2.5010 1.5487 10.6812 53.4572 10.0389 7.9154
# 5 -8.8898 11.4817 -6.4128 10.0389 40.5107 -0.7571
# 6 4.2073 -0.9567 3.8632 7.9154 -0.7571 43.9771
#
#
#
# Elastic Compliance Matrix: (Units=1/GPa)
#
#
# Indices 1 2 3 4 5 6 
#
# 1 0.007351 -0.001702 -0.002349 -0.000078 0.001734 -0.000490
# 2 -0.001702 0.010001 -0.003295 0.001142 -0.004005 0.000395
# 3 -0.002349 -0.003295 0.010758 -0.002407 0.002712 -0.000312
# 4 -0.000078 0.001142 -0.002407 0.020808 -0.005946 -0.003604
# 5 0.001734 -0.004005 0.002712 -0.005946 0.028123 0.001063
# 6 -0.000490 0.000395 -0.000312 -0.003604 0.001063 0.023489
#
#
# Mechanical properties :
#
#
# Convention : Reuss Voigt Hill
#
# Bulk Modulus (GPa) = 74.53237 76.32873 75.43055
# Shear Modulus (GPa) = 41.77284 45.95006 43.86145
#
# Velocity S-wave (km/s) = 4.18401 4.38822 4.28733
# Velocity P-wave (km/s) = 7.38755 7.59360 7.49128
#
# Compressibility (1/GPa) = 0.01341699
#
# Stress axis : x y z
#
# Youngs Moduli (GPa) = 136.02997 99.99357 92.95656
#
# Poissons Ratio (x) = 0.17015 0.21838
# Poissons Ratio (y) = 0.23147 0.30634
# Poissons Ratio (z) = 0.31957 0.32953
#
# Static dielectric constant tensor:
#      x y z
#    x 4.393170 0.055660 -0.178670 
#    y 0.055660 4.452580 0.184390 
#    z -0.178670 0.184390 4.413540 
# 
# 
# High freq. dielectric constant tensor:
#      x y z
#    x 1.956660 0.002000 -0.003980 
#    y 0.002000 1.949960 0.004560 
#    z -0.003980 0.004560 1.955180 
# 
# From -- ./inp_files/381473.got.cif
#   From: 2010.06.25/outbox.cif.g09.slc.cpg/sg2_191_cif.got.tgz:381473.got - 2010.06.27 13:26:56.
