data_PCOD8037599
_publ_section_title
;
Structure prediction by ZEFSAII (Michael W. Deem and Ramdas Pophale) SiO2 
 PCOD8037599
Probable space group: P -1
;
_chemical_formula_sum "Si O2"
_cell_formula_units_Z 12
_cell_length_a 4.939003
_cell_length_b 22.249464
_cell_length_c 8.926327
_cell_angle_alpha 145.272108
_cell_angle_beta 121.730488
_cell_angle_gamma 67.125970
_cell_volume 473.361240
_symmetry_space_group_name_H-M "P -1"
_symmetry_group_IT_number 2
_symmetry_cell_setting 'triclinic'
loop_
_space_group_symop_operation_xyz
x,y,z
-x,-y,-z
loop_
_atom_site_type_symbol
_atom_site_label
_atom_site_fract_x
_atom_site_fract_y
_atom_site_fract_z
Si Si1 0.891545 0.727511 0.437880
Si Si2 0.279856 0.887840 0.076347
Si Si3 0.269503 0.426997 0.386941
Si Si4 0.293454 0.986997 0.762422
Si Si5 0.560494 0.392628 0.716932
Si Si6 0.200732 0.206859 0.769651
O O1 0.062663 0.625800 0.216236
O O2 0.629712 0.700625 0.434075
O O3 0.725710 0.783804 0.367712
O O4 0.180864 0.805243 0.747236
O O5 0.480598 0.989596 0.268587
O O6 0.484667 0.832841 0.146409
O O7 0.032402 0.072742 0.856633
O O8 0.500000 0.500000 0.500000
O O9 0.441958 0.390154 0.508586
O O10 0.000000 0.500000 0.500000
O O11 0.126537 0.321290 0.045086
O O12 0.119060 0.870118 0.454836
O O13 0.500000 0.000000 0.000000
O O14 0.500000 0.500000 0.000000
#
# Coordination Sequence:
#
# PCOD8037599 Si02
#       6
#     2   2   2   2   2   2
#     4  12  26  46  76 108 150 202 249 312 385 444
#     4  12  27  50  75 112 155 197 257 313 377 457
#     4  12  27  48  75 115 152 198 257 312 377 456
#     4  12  27  50  78 113 153 202 255 315 380 455
#     4  12  25  48  73 107 154 197 256 317 374 448
#     4  12  28  49  82 110 157 204 255 317 384 449
#
# _framework density 25.350615999999999
#
# number of rings (size 3 to 8) (size 9 to 14) (size 15 to 20)
#    0.000    0.000    3.333    6.000    0.000    2.667 
#    0.000    0.000    0.000    0.000    0.000    0.000 
#    0.000    0.000    0.000    0.000    0.000    0.000 
#
# Total GULP energy -148894.171705 kJ/mol
# GULP energy per Si atom -12407.847642 kJ/mol
# Density = 2.529292 g / cm^3
# Si number density = 25.350616 Si / 1000 Ang^3
#
#
#
# Elastic Constant Matrix: (Units=GPa)
#
#
# Indices 1 2 3 4 5 6 
#
# 1 109.3552 38.7256 2.3700 0.3428 8.9349 2.1660
# 2 38.7256 193.4996 46.6244 -23.7872 12.6619 11.8687
# 3 2.3700 46.6244 152.5612 -1.5246 2.8590 -2.4940
# 4 0.3428 -23.7872 -1.5246 47.6204 -2.7806 0.8085
# 5 8.9349 12.6619 2.8590 -2.7806 23.4831 1.3711
# 6 2.1660 11.8687 -2.4940 0.8085 1.3711 52.3720
#
#
#
# Elastic Compliance Matrix: (Units=1/GPa)
#
#
# Indices 1 2 3 4 5 6 
#
# 1 0.010129 -0.002137 0.000541 -0.001297 -0.002932 0.000188
# 2 -0.002137 0.006692 -0.001966 0.003199 -0.002089 -0.001517
# 3 0.000541 -0.001966 0.007155 -0.000779 -0.000155 0.000780
# 4 -0.001297 0.003199 -0.000779 0.022695 0.001615 -0.001101
# 5 -0.002932 -0.002089 -0.000155 0.001615 0.045072 -0.000618
# 6 0.000188 -0.001517 0.000780 -0.001101 -0.000618 0.019500
#
#
# Mechanical properties :
#
#
# Convention : Reuss Voigt Hill
#
# Bulk Modulus (GPa) = 59.33577 70.09512 64.71544
# Shear Modulus (GPa) = 40.32760 49.20817 44.76788
#
# Velocity S-wave (km/s) = 3.99280 4.41058 4.20688
# Velocity P-wave (km/s) = 6.68681 7.32447 7.01289
#
# Compressibility (1/GPa) = 0.01685324
#
# Stress axis : x y z
#
# Youngs Moduli (GPa) = 98.72285 149.42785 139.76333
#
# Poissons Ratio (x) = 0.31927 -0.07557
# Poissons Ratio (y) = 0.21093 0.27473
# Poissons Ratio (z) = -0.05338 0.29373
#
# Static dielectric constant tensor:
#      x y z
#    x 4.422850 0.223870 -0.060640 
#    y 0.223870 4.851260 -0.001520 
#    z -0.060640 -0.001520 4.856380 
# 
# 
# High freq. dielectric constant tensor:
#      x y z
#    x 2.018870 -0.002120 -0.006630 
#    y -0.002120 2.034530 -0.001850 
#    z -0.006630 -0.001850 2.024660 
# 
# From -- ./inp_files/140943.got.cif
#   From: 2010.06.25/outbox.cif.g09.slc.cpg/sg2_71_cif.got.tgz:140943.got - 2010.06.27 13:26:56.
