data_PCOD8037028
_publ_section_title
;
Structure prediction by ZEFSAII (Michael W. Deem and Ramdas Pophale) SiO2 
 PCOD8037028
Probable space group: P -1
;
_chemical_formula_sum "Si O2"
_cell_formula_units_Z 14
_cell_length_a 15.412641
_cell_length_b 19.825493
_cell_length_c 11.666713
_cell_angle_alpha 157.770179
_cell_angle_beta 150.072736
_cell_angle_gamma 29.616437
_cell_volume 628.893527
_symmetry_space_group_name_H-M "P -1"
_symmetry_group_IT_number 2
_symmetry_cell_setting 'triclinic'
loop_
_space_group_symop_operation_xyz
x,y,z
-x,-y,-z
loop_
_atom_site_type_symbol
_atom_site_label
_atom_site_fract_x
_atom_site_fract_y
_atom_site_fract_z
Si Si1 0.192717 0.123577 0.665719
Si Si2 0.416770 0.546566 0.352804
Si Si3 0.271777 0.403276 0.355802
Si Si4 0.392196 0.148682 0.310127
Si Si5 0.633002 0.796809 0.375768
Si Si6 0.111149 0.926906 0.626334
Si Si7 0.965695 0.803674 0.642903
O O1 0.038872 0.028894 0.372283
O O2 0.158555 0.196558 0.611492
O O3 0.401148 0.976439 0.691437
O O4 0.156763 0.300008 0.989123
O O5 0.500000 0.500000 0.500000
O O6 0.535012 0.636858 0.551252
O O7 0.211123 0.700136 0.370952
O O8 0.412877 0.357179 0.993196
O O9 0.306645 0.320366 0.393502
O O10 0.161023 0.629706 0.590300
O O11 0.401486 0.237477 0.584733
O O12 0.263563 0.021762 0.974824
O O13 0.847000 0.778475 0.575517
O O14 0.500000 0.000000 0.500000
O O15 0.000000 0.000000 0.500000
O O16 0.000000 0.000000 0.000000
#
# Coordination Sequence:
#
# PCOD8037028 Si02
#       7
#     2   2   2   2   2   2   2
#     4  12  23  47  76 101 144 186 238 291 348 427
#     4  12  25  46  74 105 140 186 242 291 348 428
#     4  12  25  45  72 107 142 183 241 295 353 418
#     4  12  26  48  71 108 146 185 234 298 358 422
#     4  12  25  47  71 100 144 188 235 291 356 419
#     4  12  24  45  73 106 142 182 234 292 354 419
#     4  12  26  47  71 103 140 188 242 292 354 427
#
# _framework density 22.261319
#
# number of rings (size 3 to 8) (size 9 to 14) (size 15 to 20)
#    0.000    0.000    4.286    6.857    0.000    1.143 
#    2.571    0.000    0.000    0.000    0.000    0.000 
#    0.000    0.000    0.000    0.000    0.000    0.000 
#
# Total GULP energy -173701.313407 kJ/mol
# GULP energy per Si atom -12407.236672 kJ/mol
# Density = 2.221065 g / cm^3
# Si number density = 22.261319 Si / 1000 Ang^3
#
#
#
# Elastic Constant Matrix: (Units=GPa)
#
#
# Indices 1 2 3 4 5 6 
#
# 1 135.0074 42.7716 54.7402 -2.9164 1.8258 -0.0985
# 2 42.7716 142.2115 56.6280 6.9867 -8.6604 2.3171
# 3 54.7402 56.6280 134.6466 5.1075 -11.1840 5.4783
# 4 -2.9164 6.9867 5.1075 29.2870 -5.2710 7.2750
# 5 1.8258 -8.6604 -11.1840 -5.2710 42.5649 -14.4460
# 6 -0.0985 2.3171 5.4783 7.2750 -14.4460 49.9288
#
#
#
# Elastic Compliance Matrix: (Units=1/GPa)
#
#
# Indices 1 2 3 4 5 6 
#
# 1 0.009314 -0.001671 -0.003260 0.001685 -0.001460 -0.000214
# 2 -0.001671 0.008829 -0.002901 -0.001691 0.001051 0.000456
# 3 -0.003260 -0.002901 0.010188 -0.000981 0.002016 -0.000264
# 4 0.001685 -0.001691 -0.000981 0.036409 0.002327 -0.004442
# 5 -0.001460 0.001051 0.002016 0.002327 0.027035 0.007210
# 6 -0.000214 0.000456 -0.000264 -0.004442 0.007210 0.022769
#
#
# Mechanical properties :
#
#
# Convention : Reuss Voigt Hill
#
# Bulk Modulus (GPa) = 78.95047 80.01612 79.48329
# Shear Modulus (GPa) = 37.19347 41.53787 39.36567
#
# Velocity S-wave (km/s) = 4.09194 4.32432 4.20973
# Velocity P-wave (km/s) = 7.60707 7.80737 7.70787
#
# Compressibility (1/GPa) = 0.01266617
#
# Stress axis : x y z
#
# Youngs Moduli (GPa) = 107.36011 113.25988 98.15766
#
# Poissons Ratio (x) = 0.18930 0.32003
# Poissons Ratio (y) = 0.17944 0.28474
# Poissons Ratio (z) = 0.35003 0.32855
#
# Static dielectric constant tensor:
#      x y z
#    x 4.221040 -0.031440 -0.359940 
#    y -0.031440 3.923480 0.125900 
#    z -0.359940 0.125900 2.948940 
# 
# 
# High freq. dielectric constant tensor:
#      x y z
#    x 1.896200 -0.006480 0.002740 
#    y -0.006480 1.883480 -0.005490 
#    z 0.002740 -0.005490 1.878440 
# 
# From -- ./inp_files/183063.got.cif
#   From: 2010.06.25/outbox.cif.g09.slc.cpg/sg2_92_cif.got.tgz:183063.got - 2010.06.27 13:26:56.
