data_PCOD8037063
_publ_section_title
;
Structure prediction by ZEFSAII (Michael W. Deem and Ramdas Pophale) SiO2 
 PCOD8037063
Probable space group: P -1
;
_chemical_formula_sum "Si O2"
_cell_formula_units_Z 16
_cell_length_a 12.819547
_cell_length_b 15.982048
_cell_length_c 16.549946
_cell_angle_alpha 144.538999
_cell_angle_beta 28.300175
_cell_angle_gamma 124.446526
_cell_volume 778.336741
_symmetry_space_group_name_H-M "P -1"
_symmetry_group_IT_number 2
_symmetry_cell_setting 'triclinic'
loop_
_space_group_symop_operation_xyz
x,y,z
-x,-y,-z
loop_
_atom_site_type_symbol
_atom_site_label
_atom_site_fract_x
_atom_site_fract_y
_atom_site_fract_z
Si Si1 0.803714 0.427445 0.245438
Si Si2 0.975885 0.728017 0.593773
Si Si3 0.953960 0.411843 0.311590
Si Si4 0.584226 0.818191 0.071897
Si Si5 0.010662 0.653788 0.239539
Si Si6 0.568639 0.499094 0.783268
Si Si7 0.208011 0.050804 0.254726
Si Si8 0.027038 0.164405 0.749784
O O1 0.500000 0.500000 0.500000
O O2 0.828882 0.580883 0.316501
O O3 0.901227 0.375311 0.229396
O O4 0.984742 0.251488 0.934006
O O5 0.945438 0.587700 0.458087
O O6 0.261119 0.636475 0.368931
O O7 0.965367 0.854588 0.632548
O O8 0.745215 0.831824 0.898770
O O9 0.725653 0.432570 0.540443
O O10 0.234041 0.252324 0.027638
O O11 0.327072 0.003681 0.411773
O O12 0.501683 0.687702 0.999923
O O13 0.892264 0.834272 0.507067
O O14 0.036066 0.689013 0.156733
O O15 0.297600 0.510188 0.967215
O O16 0.184274 0.888811 0.160062
O O17 0.500000 0.000000 0.000000
#
# Coordination Sequence:
#
# PCOD8037063 Si02
#       8
#     2   2   2   2   2   2   2   2
#     4  12  26  44  62  87 126 169 209 248 304 380
#     4   9  19  38  64  94 124 158 203 253 309 364
#     4   9  19  39  65  89 123 167 203 245 306 374
#     4   9  19  38  63  95 125 156 200 259 313 356
#     4  12  24  41  64  90 122 166 210 252 304 369
#     4   9  19  37  66  94 121 157 207 255 303 367
#     4  12  24  37  62  93 125 160 205 263 308 350
#     4  12  26  40  60  93 131 160 204 261 307 358
#
# _framework density 20.556654000000002
#
# number of rings (size 3 to 8) (size 9 to 14) (size 15 to 20)
#    0.000    1.500    2.500    4.500    3.500    2.000 
#    0.000    0.000    0.000    3.750    0.000    0.000 
#    0.000    0.000    0.000    0.000    0.000    0.000 
#
# Total GULP energy -198457.052632 kJ/mol
# GULP energy per Si atom -12403.565790 kJ/mol
# Density = 2.050987 g / cm^3
# Si number density = 20.556654 Si / 1000 Ang^3
#
#
#
# Elastic Constant Matrix: (Units=GPa)
#
#
# Indices 1 2 3 4 5 6 
#
# 1 132.1794 40.1500 63.7800 -5.8893 5.7720 2.3657
# 2 40.1500 88.4179 10.5431 -7.6487 -5.1736 5.7511
# 3 63.7800 10.5431 110.9527 -3.2019 -1.2610 2.4134
# 4 -5.8893 -7.6487 -3.2019 24.5743 6.5623 -3.9730
# 5 5.7720 -5.1736 -1.2610 6.5623 39.9957 -1.5527
# 6 2.3657 5.7511 2.4134 -3.9730 -1.5527 24.4586
#
#
#
# Elastic Compliance Matrix: (Units=1/GPa)
#
#
# Indices 1 2 3 4 5 6 
#
# 1 0.012488 -0.004956 -0.006713 0.001450 -0.002867 0.000673
# 2 -0.004956 0.013846 0.001679 0.002396 0.002072 -0.002421
# 3 -0.006713 0.001679 0.012750 0.000015 0.001550 -0.000903
# 4 0.001450 0.002396 0.000015 0.044640 -0.006986 0.006103
# 5 -0.002867 0.002072 0.001550 -0.006986 0.026888 0.000209
# 6 0.000673 -0.002421 -0.000903 0.006103 0.000209 0.042483
#
#
# Mechanical properties :
#
#
# Convention : Reuss Voigt Hill
#
# Bulk Modulus (GPa) = 52.34771 62.27738 57.31255
# Shear Modulus (GPa) = 27.86380 32.27751 30.07065
#
# Velocity S-wave (km/s) = 3.68566 3.96684 3.82883
# Velocity P-wave (km/s) = 6.60549 7.16536 6.89111
#
# Compressibility (1/GPa) = 0.01910303
#
# Stress axis : x y z
#
# Youngs Moduli (GPa) = 80.07762 72.22100 78.43206
#
# Poissons Ratio (x) = 0.35795 0.52651
# Poissons Ratio (y) = 0.39689 -0.13167
# Poissons Ratio (z) = 0.53756 -0.12124
#
# Static dielectric constant tensor:
#      x y z
#    x 3.806460 -0.151830 -0.054830 
#    y -0.151830 3.618070 -0.139670 
#    z -0.054830 -0.139670 3.789510 
# 
# 
# High freq. dielectric constant tensor:
#      x y z
#    x 1.807270 -0.016160 -0.006030 
#    y -0.016160 1.790560 -0.016660 
#    z -0.006030 -0.016660 1.810150 
# 
# From -- ./inp_files/262658.got.cif
#   From: 2010.06.25/outbox.cif.g09.slc.cpg/sg2_132_cif.got.tgz:262658.got - 2010.06.27 13:26:56.
