data_PCOD8037439
_publ_section_title
;
Structure prediction by ZEFSAII (Michael W. Deem and Ramdas Pophale) SiO2 
 PCOD8037439
Probable space group: P -1
;
_chemical_formula_sum "Si O2"
_cell_formula_units_Z 16
_cell_length_a 11.910828
_cell_length_b 8.833076
_cell_length_c 21.744822
_cell_angle_alpha 48.549839
_cell_angle_beta 26.134541
_cell_angle_gamma 39.093178
_cell_volume 630.438180
_symmetry_space_group_name_H-M "P -1"
_symmetry_group_IT_number 2
_symmetry_cell_setting 'triclinic'
loop_
_space_group_symop_operation_xyz
x,y,z
-x,-y,-z
loop_
_atom_site_type_symbol
_atom_site_label
_atom_site_fract_x
_atom_site_fract_y
_atom_site_fract_z
Si Si1 0.793111 0.202911 0.701658
Si Si2 0.626923 0.695721 0.785940
Si Si3 0.168263 0.499488 0.762961
Si Si4 0.944958 0.183433 0.768009
Si Si5 0.078763 0.770779 0.982131
Si Si6 0.455480 0.115477 0.092796
Si Si7 0.242602 0.962514 0.439524
Si Si8 0.298082 0.699916 0.762277
O O1 0.948154 0.195588 0.690253
O O2 0.627776 0.469321 0.679790
O O3 0.544257 0.128725 0.850100
O O4 0.083663 0.011945 0.569993
O O5 0.908392 0.432491 0.742740
O O6 0.435934 0.597258 0.872289
O O7 0.464460 0.868807 0.878890
O O8 0.680148 0.838808 0.668841
O O9 0.478364 0.319322 0.621188
O O10 0.185953 0.664510 0.761335
O O11 0.892295 0.662725 0.808614
O O12 0.130638 0.314560 0.869873
O O13 0.684954 0.134577 0.930732
O O14 0.271601 0.955093 0.694544
O O15 0.054967 0.776711 0.917744
O O16 0.000000 0.000000 0.000000
O O17 0.000000 0.000000 0.500000
#
# Coordination Sequence:
#
# PCOD8037439 Si02
#       8
#     2   2   2   2   2   2   2   2
#     4  12  26  50  70 104 149 199 248 299 356 444
#     4  12  25  47  72 109 153 191 237 314 372 434
#     4  12  25  44  77 111 144 199 247 303 371 438
#     4  12  27  44  72 114 147 186 245 310 377 426
#     4  12  25  43  72 115 148 190 243 305 383 435
#     4  12  25  45  77 111 151 186 247 316 370 438
#     4  12  26  49  76 100 148 207 252 293 364 447
#     4  12  26  44  76 107 150 195 242 304 370 439
#
# _framework density 25.379175
#
# number of rings (size 3 to 8) (size 9 to 14) (size 15 to 20)
#    0.000    0.000    7.500    1.875    5.250    1.000 
#    2.250    0.625    0.000    0.000    0.000    0.000 
#    0.000    0.000    0.000    0.000    0.000    0.000 
#
# Total GULP energy -198258.300695 kJ/mol
# GULP energy per Si atom -12391.143793 kJ/mol
# Density = 2.532141 g / cm^3
# Si number density = 25.379175 Si / 1000 Ang^3
#
#
#
# Elastic Constant Matrix: (Units=GPa)
#
#
# Indices 1 2 3 4 5 6 
#
# 1 58.1881 -6.5372 4.3924 3.3726 17.4223 -7.7678
# 2 -6.5372 130.8507 5.6284 7.8335 3.9387 -7.7942
# 3 4.3924 5.6284 67.8256 16.9003 19.6505 3.5612
# 4 3.3726 7.8335 16.9003 30.7704 3.0439 4.3948
# 5 17.4223 3.9387 19.6505 3.0439 32.4322 9.8919
# 6 -7.7678 -7.7942 3.5612 4.3948 9.8919 39.5088
#
#
#
# Elastic Compliance Matrix: (Units=1/GPa)
#
#
# Indices 1 2 3 4 5 6 
#
# 1 0.024400 0.002517 0.004426 -0.005349 -0.018695 0.010170
# 2 0.002517 0.008208 0.000717 -0.002877 -0.003504 0.003247
# 3 0.004426 0.000717 0.021641 -0.011606 -0.015802 0.004308
# 4 -0.005349 -0.002877 -0.011606 0.040367 0.008673 -0.007235
# 5 -0.018695 -0.003504 -0.015802 0.008673 0.055491 -0.017801
# 6 0.010170 0.003247 0.004308 -0.007235 -0.017801 0.032824
#
#
# Mechanical properties :
#
#
# Convention : Reuss Voigt Hill
#
# Bulk Modulus (GPa) = 14.37383 29.31463 21.84423
# Shear Modulus (GPa) = 26.20535 37.43432 31.81984
#
# Velocity S-wave (km/s) = 3.21682 3.84474 3.54471
# Velocity P-wave (km/s) = 4.41284 5.59331 5.03777
#
# Compressibility (1/GPa) = 0.06957089
#
# Stress axis : x y z
#
# Youngs Moduli (GPa) = 40.98444 121.82796 46.20765
#
# Poissons Ratio (x) = -0.30669 -0.20452
# Poissons Ratio (y) = -0.10317 -0.03315
# Poissons Ratio (z) = -0.18140 -0.08739
#
# Static dielectric constant tensor:
#      x y z
#    x 3.632750 -0.308200 0.450230 
#    y -0.308200 6.348170 0.761410 
#    z 0.450230 0.761410 3.785850 
# 
# 
# High freq. dielectric constant tensor:
#      x y z
#    x 2.018340 -0.008800 0.018990 
#    y -0.008800 2.048110 0.017070 
#    z 0.018990 0.017070 1.984700 
# 
# From -- ./inp_files/403444.got.cif
#   From: 2010.06.25/outbox.cif.g09.slc.cpg/sg2_202_cif.got.tgz:403444.got - 2010.06.27 13:26:56.
