data_PCOD8037983
_publ_section_title
;
Structure prediction by ZEFSAII (Michael W. Deem and Ramdas Pophale) SiO2 
 PCOD8037983
Probable space group: P -1
;
_chemical_formula_sum "Si O2"
_cell_formula_units_Z 14
_cell_length_a 9.557737
_cell_length_b 18.870798
_cell_length_c 8.980608
_cell_angle_alpha 103.581836
_cell_angle_beta 79.991856
_cell_angle_gamma 151.671570
_cell_volume 745.217851
_symmetry_space_group_name_H-M "P -1"
_symmetry_group_IT_number 2
_symmetry_cell_setting 'triclinic'
loop_
_space_group_symop_operation_xyz
x,y,z
-x,-y,-z
loop_
_atom_site_type_symbol
_atom_site_label
_atom_site_fract_x
_atom_site_fract_y
_atom_site_fract_z
Si Si1 0.902637 0.052157 0.400827
Si Si2 0.310307 0.846998 0.283886
Si Si3 0.238834 0.340958 0.552812
Si Si4 0.945147 0.034587 0.727077
Si Si5 0.623603 0.652688 0.150258
Si Si6 0.478117 0.933256 0.836898
Si Si7 0.035402 0.326790 0.022985
O O1 0.872926 0.017902 0.560869
O O2 0.122804 0.219544 0.418176
O O3 0.573357 0.917529 0.335147
O O4 0.039456 0.044666 0.282521
O O5 0.047742 0.737303 0.399526
O O6 0.180127 0.749445 0.112141
O O7 0.437443 0.985818 0.290654
O O8 0.500000 0.500000 0.500000
O O9 0.385382 0.381485 0.698372
O O10 0.257009 0.211168 0.805338
O O11 0.687728 0.957302 0.831821
O O12 0.839240 0.698428 0.036197
O O13 0.295046 0.503277 0.069642
O O14 0.141327 0.752249 0.824938
O O15 0.500000 0.000000 0.000000
#
# Coordination Sequence:
#
# PCOD8037983 Si02
#       7
#     2   2   2   2   2   2   2
#     4  10  21  35  55  78 114 142 174 221 273 322
#     4  10  19  35  52  84 103 138 187 222 259 316
#     4  10  20  33  54  83 108 136 181 224 268 315
#     4  10  19  36  55  79 108 147 174 218 278 320
#     4   9  17  34  52  78 107 140 173 221 269 314
#     4  10  17  33  56  79 104 138 192 217 254 318
#     4   9  18  31  55  79 104 137 182 225 259 305
#
# _framework density 18.786453000000002
#
# number of rings (size 3 to 8) (size 9 to 14) (size 15 to 20)
#    0.000    2.286    5.714    0.429    2.000    0.000 
#    0.000    5.000    0.000    5.143    0.000    0.000 
#    0.000    0.000    0.000    0.000    0.000    0.000 
#
# Total GULP energy -173491.534870 kJ/mol
# GULP energy per Si atom -12392.252491 kJ/mol
# Density = 1.874369 g / cm^3
# Si number density = 18.786453 Si / 1000 Ang^3
#
#
#
# Elastic Constant Matrix: (Units=GPa)
#
#
# Indices 1 2 3 4 5 6 
#
# 1 103.6017 65.0486 35.3979 7.8626 -20.0777 7.7398
# 2 65.0486 149.5995 55.9784 -0.4763 -7.5359 13.2190
# 3 35.3979 55.9784 45.2174 3.3623 -14.1834 8.2766
# 4 7.8626 -0.4763 3.3623 41.2895 7.5578 0.0820
# 5 -20.0777 -7.5359 -14.1834 7.5578 25.8206 3.4661
# 6 7.7398 13.2190 8.2766 0.0820 3.4661 21.5814
#
#
#
# Elastic Compliance Matrix: (Units=1/GPa)
#
#
# Indices 1 2 3 4 5 6 
#
# 1 0.017079 -0.006411 0.000144 -0.005855 0.013800 -0.004448
# 2 -0.006411 0.015998 -0.019630 0.005370 -0.012951 0.002088
# 3 0.000144 -0.019630 0.060566 -0.011222 0.033157 -0.016538
# 4 -0.005855 0.005370 -0.011222 0.029712 -0.018652 0.005997
# 5 0.013800 -0.012951 0.033157 -0.018652 0.072206 -0.021258
# 6 -0.004448 0.002088 -0.016538 0.005997 -0.021258 0.056386
#
#
# Mechanical properties :
#
#
# Convention : Reuss Voigt Hill
#
# Bulk Modulus (GPa) = 23.89493 67.91871 45.90682
# Shear Modulus (GPa) = 15.73860 27.20454 21.47157
#
# Velocity S-wave (km/s) = 2.89755 3.80951 3.38439
# Velocity P-wave (km/s) = 4.89298 7.45529 6.30566
#
# Compressibility (1/GPa) = 0.04184988
#
# Stress axis : x y z
#
# Youngs Moduli (GPa) = 58.55079 62.50955 16.51085
#
# Poissons Ratio (x) = 0.40074 -0.00238
# Poissons Ratio (y) = 0.37536 0.32411
# Poissons Ratio (z) = -0.00845 1.22706
#
# Static dielectric constant tensor:
#      x y z
#    x 3.302490 0.144230 -0.196640 
#    y 0.144230 3.842410 0.021820 
#    z -0.196640 0.021820 3.494400 
# 
# 
# High freq. dielectric constant tensor:
#      x y z
#    x 1.696320 0.017940 -0.010910 
#    y 0.017940 1.733190 0.007300 
#    z -0.010910 0.007300 1.720760 
# 
# From -- ./inp_files/155470.got.cif
#   From: 2010.06.25/outbox.cif.g09.slc.cpg/sg2_78_cif.got.tgz:155470.got - 2010.06.27 13:26:56.
