data_PCOD8037534
_publ_section_title
;
Structure prediction by ZEFSAII (Michael W. Deem and Ramdas Pophale) SiO2 
 PCOD8037534
Probable space group: P -1
;
_chemical_formula_sum "Si O2"
_cell_formula_units_Z 14
_cell_length_a 16.643681
_cell_length_b 8.132678
_cell_length_c 17.060510
_cell_angle_alpha 43.132312
_cell_angle_beta 157.549838
_cell_angle_gamma 140.517290
_cell_volume 559.439986
_symmetry_space_group_name_H-M "P -1"
_symmetry_group_IT_number 2
_symmetry_cell_setting 'triclinic'
loop_
_space_group_symop_operation_xyz
x,y,z
-x,-y,-z
loop_
_atom_site_type_symbol
_atom_site_label
_atom_site_fract_x
_atom_site_fract_y
_atom_site_fract_z
Si Si1 0.319316 0.805161 0.844873
Si Si2 0.180970 0.513354 0.091784
Si Si3 0.945451 0.711973 0.427950
Si Si4 0.526370 0.283060 0.264504
Si Si5 0.885983 0.666427 0.068435
Si Si6 0.325779 0.093394 0.990108
Si Si7 0.663100 0.933433 0.609102
O O1 0.148974 0.562807 0.822145
O O2 0.465001 0.729013 0.936969
O O3 0.145586 0.890437 0.604985
O O4 0.500000 0.000000 0.000000
O O5 0.332499 0.808526 0.104531
O O6 0.352492 0.361346 0.318660
O O7 0.035185 0.395828 0.923261
O O8 0.000000 0.500000 0.000000
O O9 0.726862 0.560697 0.337644
O O10 0.000000 0.500000 0.500000
O O11 0.900691 0.907809 0.257122
O O12 0.357628 0.218861 0.060442
O O13 0.621150 0.056675 0.446390
O O14 0.357513 0.302053 0.175039
O O15 0.076143 0.927733 0.178970
O O16 0.500000 0.000000 0.500000
#
# Coordination Sequence:
#
# PCOD8037534 Si02
#       7
#     2   2   2   2   2   2   2
#     4  12  25  47  75 117 163 196 261 344 411 471
#     4  12  29  50  74 110 165 210 260 341 399 473
#     4  12  25  46  78 117 156 211 267 323 403 489
#     4  12  25  46  82 115 153 212 277 327 391 487
#     4  12  25  51  78 111 158 209 270 336 400 476
#     4  12  27  47  75 117 160 201 262 338 410 465
#     4  12  28  51  81 113 152 220 279 318 394 490
#
# _framework density 25.025027000000001
#
# number of rings (size 3 to 8) (size 9 to 14) (size 15 to 20)
#    0.000    0.000    7.143    2.571    4.000    1.143 
#    5.143    0.000    0.000    0.000    0.000    0.000 
#    0.000    0.000    0.000    0.000    0.000    0.000 
#
# Total GULP energy -173462.901955 kJ/mol
# GULP energy per Si atom -12390.207282 kJ/mol
# Density = 2.496807 g / cm^3
# Si number density = 25.025027 Si / 1000 Ang^3
#
#
#
# Elastic Constant Matrix: (Units=GPa)
#
#
# Indices 1 2 3 4 5 6 
#
# 1 134.3509 23.7055 46.3764 -4.1731 11.8884 -1.6800
# 2 23.7055 99.7227 54.6750 -8.5316 -6.4383 0.7339
# 3 46.3764 54.6750 166.4479 -1.6692 -16.1929 -9.5641
# 4 -4.1731 -8.5316 -1.6692 53.8238 -3.1322 -2.8673
# 5 11.8884 -6.4383 -16.1929 -3.1322 49.5362 4.1543
# 6 -1.6800 0.7339 -9.5641 -2.8673 4.1543 29.7436
#
#
#
# Elastic Compliance Matrix: (Units=1/GPa)
#
#
# Indices 1 2 3 4 5 6 
#
# 1 0.008711 -0.000924 -0.002401 0.000290 -0.002993 0.000189
# 2 -0.000924 0.012584 -0.003866 0.001769 0.000836 -0.001552
# 3 -0.002401 -0.003866 0.008325 -0.000270 0.002589 0.002249
# 4 0.000290 0.001769 -0.000270 0.019023 0.001144 0.001560
# 5 -0.002993 0.000836 0.002589 0.001144 0.022129 -0.002337
# 6 0.000189 -0.001552 0.002249 0.001560 -0.002337 0.034870
#
#
# Mechanical properties :
#
#
# Convention : Reuss Voigt Hill
#
# Bulk Modulus (GPa) = 65.62691 72.22613 68.92652
# Shear Modulus (GPa) = 39.96651 45.00502 42.48577
#
# Velocity S-wave (km/s) = 4.00066 4.24536 4.12482
# Velocity P-wave (km/s) = 6.90086 7.27701 7.09143
#
# Compressibility (1/GPa) = 0.01523765
#
# Stress axis : x y z
#
# Youngs Moduli (GPa) = 114.79335 79.46626 120.11583
#
# Poissons Ratio (x) = 0.07344 0.28840
# Poissons Ratio (y) = 0.10609 0.46440
# Poissons Ratio (z) = 0.27562 0.30724
#
# Static dielectric constant tensor:
#      x y z
#    x 4.817210 0.307150 -0.235420 
#    y 0.307150 4.403130 -0.132290 
#    z -0.235420 -0.132290 4.862370 
# 
# 
# High freq. dielectric constant tensor:
#      x y z
#    x 2.012850 0.014590 -0.011170 
#    y 0.014590 1.980460 -0.013930 
#    z -0.011170 -0.013930 2.007950 
# 
# From -- ./inp_files/575515.got.cif
#   From: 2010.06.25/outbox.cif.g09.slc.cpg/sg2_288_cif.got.tgz:575515.got - 2010.06.27 13:26:56.
