data_PCOD8037327
_publ_section_title
;
Structure prediction by ZEFSAII (Michael W. Deem and Ramdas Pophale) SiO2 
 PCOD8037327
Probable space group: P -1
;
_chemical_formula_sum "Si O2"
_cell_formula_units_Z 14
_cell_length_a 14.616802
_cell_length_b 6.624293
_cell_length_c 21.196437
_cell_angle_alpha 67.628154
_cell_angle_beta 22.653819
_cell_angle_gamma 56.005550
_cell_volume 593.599940
_symmetry_space_group_name_H-M "P -1"
_symmetry_group_IT_number 2
_symmetry_cell_setting 'triclinic'
loop_
_space_group_symop_operation_xyz
x,y,z
-x,-y,-z
loop_
_atom_site_type_symbol
_atom_site_label
_atom_site_fract_x
_atom_site_fract_y
_atom_site_fract_z
Si Si1 0.177094 0.147611 0.657108
Si Si2 0.276240 0.244364 0.157433
Si Si3 0.935972 0.526054 0.964224
Si Si4 0.867429 0.186887 0.503289
Si Si5 0.681031 0.114211 0.023385
Si Si6 0.437909 0.693708 0.788727
Si Si7 0.529879 0.094851 0.628001
O O1 0.225089 0.063514 0.562846
O O2 0.967192 0.474699 0.756217
O O3 0.500000 0.000000 0.500000
O O4 0.000564 0.051126 0.816533
O O5 0.117705 0.129532 0.304822
O O6 0.500000 0.000000 0.000000
O O7 0.466324 0.282733 0.081750
O O8 0.725737 0.830205 0.037025
O O9 0.251346 0.382277 0.744970
O O10 0.000000 0.500000 0.000000
O O11 0.806220 0.358975 0.053143
O O12 0.714855 0.477598 0.596649
O O13 0.656243 0.139970 0.604857
O O14 0.000000 0.000000 0.500000
O O15 0.509676 0.300782 0.170686
O O16 0.362931 0.963807 0.772111
#
# Coordination Sequence:
#
# PCOD8037327 Si02
#       7
#     2   2   2   2   2   2   2
#     4  12  30  51  80 111 152 209 259 316 382 457
#     4  12  29  53  76 111 160 204 256 317 385 460
#     4  12  25  44  76 115 154 195 249 319 387 444
#     4  12  27  45  77 113 151 197 255 317 385 454
#     4  12  29  49  80 111 154 208 254 313 389 461
#     4  12  24  47  76 111 152 195 255 314 384 458
#     4  12  26  47  75 112 154 198 254 321 379 457
#
# _framework density 23.584909
#
# number of rings (size 3 to 8) (size 9 to 14) (size 15 to 20)
#    0.000    0.000    4.286    4.286   12.000    1.714 
#    0.000    0.000    0.000    0.000    0.000    0.000 
#    0.000    0.000    0.000    0.000    0.000    0.000 
#
# Total GULP energy -173519.763892 kJ/mol
# GULP energy per Si atom -12394.268849 kJ/mol
# Density = 2.353123 g / cm^3
# Si number density = 23.584909 Si / 1000 Ang^3
#
#
#
# Elastic Constant Matrix: (Units=GPa)
#
#
# Indices 1 2 3 4 5 6 
#
# 1 123.5509 56.1150 47.6231 13.8425 -0.3331 12.0949
# 2 56.1150 113.8975 58.8298 4.2838 1.1516 7.6843
# 3 47.6231 58.8298 144.2690 9.1310 5.5084 4.0398
# 4 13.8425 4.2838 9.1310 51.4109 1.7882 3.8309
# 5 -0.3331 1.1516 5.5084 1.7882 51.4778 6.5443
# 6 12.0949 7.6843 4.0398 3.8309 6.5443 39.1703
#
#
#
# Elastic Compliance Matrix: (Units=1/GPa)
#
#
# Indices 1 2 3 4 5 6 
#
# 1 0.011243 -0.004409 -0.001736 -0.002203 0.000730 -0.002334
# 2 -0.004409 0.012979 -0.003873 0.000854 0.000180 -0.000899
# 3 -0.001736 -0.003873 0.009157 -0.000847 -0.000950 0.000593
# 4 -0.002203 0.000854 -0.000847 0.020237 -0.000481 -0.001299
# 5 0.000730 0.000180 -0.000950 -0.000481 0.019984 -0.003455
# 6 -0.002334 -0.000899 0.000593 -0.001299 -0.003455 0.027070
#
#
# Mechanical properties :
#
#
# Convention : Reuss Voigt Hill
#
# Bulk Modulus (GPa) = 74.94980 78.53924 76.74452
# Shear Modulus (GPa) = 39.95028 43.02176 41.48602
#
# Velocity S-wave (km/s) = 4.12016 4.27561 4.19860
# Velocity P-wave (km/s) = 7.38119 7.59917 7.49097
#
# Compressibility (1/GPa) = 0.01334226
#
# Stress axis : x y z
#
# Youngs Moduli (GPa) = 88.94348 77.04523 109.20270
#
# Poissons Ratio (x) = 0.33973 0.18962
# Poissons Ratio (y) = 0.39219 0.42294
# Poissons Ratio (z) = 0.15444 0.29839
#
# Static dielectric constant tensor:
#      x y z
#    x 4.813860 0.714920 -0.135540 
#    y 0.714920 3.743190 -0.335030 
#    z -0.135540 -0.335030 4.542100 
# 
# 
# High freq. dielectric constant tensor:
#      x y z
#    x 1.936960 0.008150 0.008370 
#    y 0.008150 1.939280 0.005400 
#    z 0.008370 0.005400 1.955790 
# 
# From -- ./inp_files/441609.got.cif
#   From: 2010.06.25/outbox.cif.g09.slc.cpg/sg2_221_cif.got.tgz:441609.got - 2010.06.27 13:26:56.
