data_PCOD8037640
_publ_section_title
;
Structure prediction by ZEFSAII (Michael W. Deem and Ramdas Pophale) SiO2 
 PCOD8037640
Probable space group: P -1
;
_chemical_formula_sum "Si O2"
_cell_formula_units_Z 16
_cell_length_a 19.910177
_cell_length_b 23.268939
_cell_length_c 8.813998
_cell_angle_alpha 30.871874
_cell_angle_beta 42.665055
_cell_angle_gamma 21.454279
_cell_volume 721.147292
_symmetry_space_group_name_H-M "P -1"
_symmetry_group_IT_number 2
_symmetry_cell_setting 'triclinic'
loop_
_space_group_symop_operation_xyz
x,y,z
-x,-y,-z
loop_
_atom_site_type_symbol
_atom_site_label
_atom_site_fract_x
_atom_site_fract_y
_atom_site_fract_z
Si Si1 0.697399 0.757919 0.784049
Si Si2 0.218664 0.043931 0.223990
Si Si3 0.706344 0.320860 0.495919
Si Si4 0.128649 0.635541 0.720823
Si Si5 0.972962 0.672269 0.396207
Si Si6 0.009161 0.849118 0.125738
Si Si7 0.296124 0.715841 0.770665
Si Si8 0.601623 0.803551 0.181319
O O1 0.884323 0.647843 0.674593
O O2 0.500000 0.000000 0.500000
O O3 0.726515 0.606818 0.007519
O O4 0.679020 0.771775 0.963855
O O5 0.082825 0.201672 0.238392
O O6 0.205793 0.924729 0.482964
O O7 0.442933 0.859002 0.301880
O O8 0.137028 0.196189 0.875737
O O9 0.500000 0.500000 0.500000
O O10 0.773814 0.382946 0.269208
O O11 0.695757 0.305060 0.373527
O O12 0.840625 0.102785 0.856864
O O13 0.109240 0.729773 0.390312
O O14 0.928651 0.812549 0.272775
O O15 0.204680 0.430952 0.524024
O O16 0.160086 0.750940 0.977700
O O17 0.500000 0.500000 0.000000
O O18 0.500000 0.000000 0.000000
#
# Coordination Sequence:
#
# PCOD8037640 Si02
#       8
#     2   2   2   2   2   2   2   2
#     4  12  28  50  75 108 151 195 246 310 372 439
#     4  12  27  49  75 109 151 194 248 307 372 442
#     4  12  27  45  75 111 146 194 248 304 372 441
#     4  12  28  48  74 109 149 195 248 308 372 441
#     4  12  26  50  78 104 152 199 244 310 371 443
#     4  12  25  49  74 105 152 191 244 304 374 439
#     4  12  26  48  73 109 150 197 244 301 372 444
#     4  12  28  49  76 110 144 197 253 304 371 442
#
# _framework density 22.186868
#
# number of rings (size 3 to 8) (size 9 to 14) (size 15 to 20)
#    0.000    0.000    5.000    4.125    8.750    1.000 
#    0.000    0.000    0.000    0.000    0.000    0.000 
#    0.000    0.000    0.000    0.000    0.000    0.000 
#
# Total GULP energy -198507.074818 kJ/mol
# GULP energy per Si atom -12406.692176 kJ/mol
# Density = 2.213637 g / cm^3
# Si number density = 22.186868 Si / 1000 Ang^3
#
#
#
# Elastic Constant Matrix: (Units=GPa)
#
#
# Indices 1 2 3 4 5 6 
#
# 1 104.3424 33.4839 43.2640 -13.5008 -16.1314 6.1884
# 2 33.4839 135.8521 46.8960 -13.3234 -1.4808 -0.9136
# 3 43.2640 46.8960 117.2299 -17.1223 -8.2512 6.2260
# 4 -13.5008 -13.3234 -17.1223 44.4118 1.9524 1.4614
# 5 -16.1314 -1.4808 -8.2512 1.9524 31.9525 -5.7950
# 6 6.1884 -0.9136 6.2260 1.4614 -5.7950 47.6689
#
#
#
# Elastic Compliance Matrix: (Units=1/GPa)
#
#
# Indices 1 2 3 4 5 6 
#
# 1 0.012580 -0.001737 -0.003280 0.001832 0.005191 -0.000663
# 2 -0.001737 0.008874 -0.002868 0.001060 -0.001163 0.000596
# 3 -0.003280 -0.002868 0.011371 0.002528 0.000795 -0.001095
# 4 0.001832 0.001060 0.002528 0.024414 -0.000102 -0.001309
# 5 0.005191 -0.001163 0.000795 -0.000102 0.034695 0.003421
# 6 -0.000663 0.000596 -0.001095 -0.001309 0.003421 0.021675
#
#
# Mechanical properties :
#
#
# Convention : Reuss Voigt Hill
#
# Bulk Modulus (GPa) = 58.62635 67.19025 62.90830
# Shear Modulus (GPa) = 37.01977 40.39201 38.70589
#
# Velocity S-wave (km/s) = 4.08921 4.27140 4.18130
# Velocity P-wave (km/s) = 6.98404 7.39433 7.19211
#
# Compressibility (1/GPa) = 0.01705718
#
# Stress axis : x y z
#
# Youngs Moduli (GPa) = 79.49100 112.68576 87.94210
#
# Poissons Ratio (x) = 0.19570 0.28843
# Poissons Ratio (y) = 0.13805 0.25219
# Poissons Ratio (z) = 0.26071 0.32315
#
# Static dielectric constant tensor:
#      x y z
#    x 4.110780 -0.105870 0.025930 
#    y -0.105870 4.340940 -0.154150 
#    z 0.025930 -0.154150 4.302580 
# 
# 
# High freq. dielectric constant tensor:
#      x y z
#    x 1.881600 0.000180 -0.002760 
#    y 0.000180 1.890580 -0.002380 
#    z -0.002760 -0.002380 1.887110 
# 
# From -- ./inp_files/349957.got.cif
#   From: 2010.06.25/outbox.cif.g09.slc.cpg/sg2_175_cif.got.tgz:349957.got - 2010.06.27 13:26:56.
