data_PCOD8037363
_publ_section_title
;
Structure prediction by ZEFSAII (Michael W. Deem and Ramdas Pophale) SiO2 
 PCOD8037363
Probable space group: P -1
;
_chemical_formula_sum "Si O2"
_cell_formula_units_Z 16
_cell_length_a 19.583862
_cell_length_b 11.399355
_cell_length_c 9.397044
_cell_angle_alpha 110.618635
_cell_angle_beta 68.335303
_cell_angle_gamma 158.614909
_cell_volume 710.687362
_symmetry_space_group_name_H-M "P -1"
_symmetry_group_IT_number 2
_symmetry_cell_setting 'triclinic'
loop_
_space_group_symop_operation_xyz
x,y,z
-x,-y,-z
loop_
_atom_site_type_symbol
_atom_site_label
_atom_site_fract_x
_atom_site_fract_y
_atom_site_fract_z
Si Si1 0.803366 0.147139 0.815601
Si Si2 0.023414 0.156658 0.951800
Si Si3 0.710724 0.858761 0.031344
Si Si4 0.721878 0.851562 0.508131
Si Si5 0.338281 0.817441 0.126494
Si Si6 0.814748 0.176130 0.336565
Si Si7 0.843550 0.768692 0.398723
Si Si8 0.451156 0.034426 0.449637
O O1 0.651905 0.021149 0.858085
O O2 0.994199 0.502492 0.757693
O O3 0.814182 0.122289 0.960778
O O4 0.741459 0.923373 0.687243
O O5 0.113671 0.256725 0.775634
O O6 0.142831 0.447860 0.069970
O O7 0.822111 0.902602 0.966563
O O8 0.000000 0.000000 0.000000
O O9 0.500000 0.500000 0.000000
O O10 0.690850 0.887725 0.214139
O O11 0.500000 0.500000 0.500000
O O12 0.830767 0.892977 0.411995
O O13 0.835163 0.137002 0.455015
O O14 0.373239 0.859687 0.285782
O O15 0.500000 0.000000 0.000000
O O16 0.714900 0.151135 0.425709
O O17 0.634990 0.409594 0.459353
O O18 0.000000 0.000000 0.500000
O O19 0.500000 0.000000 0.500000
#
# Coordination Sequence:
#
# PCOD8037363 Si02
#       8
#     2   2   2   2   2   2   2   2
#     4  12  27  47  77 108 148 196 255 309 374 445
#     4  12  29  49  78 112 153 203 252 308 388 451
#     4  12  29  48  76 109 153 200 253 317 378 450
#     4  12  24  48  74 105 148 193 251 298 371 447
#     4  12  27  51  76 108 153 199 252 315 379 456
#     4  12  26  46  74 106 145 198 254 306 369 448
#     4  12  28  48  75 113 153 196 250 316 376 450
#     4  12  30  47  75 112 150 203 251 311 388 450
#
# _framework density 22.513414999999998
#
# number of rings (size 3 to 8) (size 9 to 14) (size 15 to 20)
#    0.000    0.000    5.000    3.000   10.500    0.000 
#    0.000    0.000    0.000    0.000    0.000    0.000 
#    0.000    0.000    0.000    0.000    0.000    0.000 
#
# Total GULP energy -198469.610222 kJ/mol
# GULP energy per Si atom -12404.350639 kJ/mol
# Density = 2.246217 g / cm^3
# Si number density = 22.513415 Si / 1000 Ang^3
#
#
#
# Elastic Constant Matrix: (Units=GPa)
#
#
# Indices 1 2 3 4 5 6 
#
# 1 189.6108 25.7562 51.6654 -10.2371 -4.9188 7.0065
# 2 25.7562 88.9842 6.1576 -1.3339 -0.8673 9.4004
# 3 51.6654 6.1576 110.9038 5.0082 -15.2616 9.6025
# 4 -10.2371 -1.3339 5.0082 43.9789 -2.7554 2.3371
# 5 -4.9188 -0.8673 -15.2616 -2.7554 46.3413 -5.1667
# 6 7.0065 9.4004 9.6025 2.3371 -5.1667 39.6787
#
#
#
# Elastic Compliance Matrix: (Units=1/GPa)
#
#
# Indices 1 2 3 4 5 6 
#
# 1 0.006403 -0.001605 -0.002994 0.001776 -0.000249 -0.000163
# 2 -0.001605 0.011962 0.000289 0.000088 -0.000141 -0.002644
# 3 -0.002994 0.000289 0.011037 -0.001664 0.003032 -0.001718
# 4 0.001776 0.000088 -0.001664 0.023464 0.000904 -0.001196
# 5 -0.000249 -0.000141 0.003032 0.000904 0.022855 0.002266
# 6 -0.000163 -0.002644 -0.001718 -0.001196 0.002266 0.026639
#
#
# Mechanical properties :
#
#
# Convention : Reuss Voigt Hill
#
# Bulk Modulus (GPa) = 48.11924 61.85077 54.98501
# Shear Modulus (GPa) = 42.40638 46.39441 44.40040
#
# Velocity S-wave (km/s) = 4.34476 4.54447 4.44574
# Velocity P-wave (km/s) = 6.82563 7.42083 7.12945
#
# Compressibility (1/GPa) = 0.02078171
#
# Stress axis : x y z
#
# Youngs Moduli (GPa) = 156.17007 83.60001 90.60617
#
# Poissons Ratio (x) = 0.13416 0.27130
# Poissons Ratio (y) = 0.25062 -0.02619
# Poissons Ratio (z) = 0.46762 -0.02416
#
# Static dielectric constant tensor:
#      x y z
#    x 4.005360 0.070310 0.189260 
#    y 0.070310 4.484310 0.024750 
#    z 0.189260 0.024750 4.747790 
# 
# 
# High freq. dielectric constant tensor:
#      x y z
#    x 1.901470 0.004330 -0.005910 
#    y 0.004330 1.892310 0.005360 
#    z -0.005910 0.005360 1.909090 
# 
# From -- ./inp_files/207418.got.cif
#   From: 2010.06.25/outbox.cif.g09.slc.cpg/sg2_104_cif.got.tgz:207418.got - 2010.06.27 13:26:56.
