data_PCOD8037780
_publ_section_title
;
Structure prediction by ZEFSAII (Michael W. Deem and Ramdas Pophale) SiO2 
 PCOD8037780
Probable space group: P -1
;
_chemical_formula_sum "Si O2"
_cell_formula_units_Z 14
_cell_length_a 16.484862
_cell_length_b 8.028464
_cell_length_c 9.411784
_cell_angle_alpha 62.496479
_cell_angle_beta 65.081922
_cell_angle_gamma 30.275444
_cell_volume 556.314559
_symmetry_space_group_name_H-M "P -1"
_symmetry_group_IT_number 2
_symmetry_cell_setting 'triclinic'
loop_
_space_group_symop_operation_xyz
x,y,z
-x,-y,-z
loop_
_atom_site_type_symbol
_atom_site_label
_atom_site_fract_x
_atom_site_fract_y
_atom_site_fract_z
Si Si1 0.789536 0.340942 0.155913
Si Si2 0.783602 0.935682 0.276579
Si Si3 0.058682 0.940034 0.320639
Si Si4 0.655571 0.935853 0.116499
Si Si5 0.876134 0.762676 0.799216
Si Si6 0.672365 0.653492 0.825261
Si Si7 0.647597 0.110224 0.590286
O O1 0.699152 0.638507 0.215631
O O2 0.711986 0.270287 0.221948
O O3 0.790420 0.435695 0.961377
O O4 0.959979 0.014230 0.237010
O O5 0.670206 0.021846 0.217890
O O6 0.969787 0.625371 0.214226
O O7 0.762951 0.863181 0.468584
O O8 0.238520 0.551242 0.308268
O O9 0.052332 0.174839 0.207065
O O10 0.000000 0.000000 0.500000
O O11 0.467980 0.257359 0.082519
O O12 0.774360 0.824511 0.961937
O O13 0.758873 0.027583 0.652883
O O14 0.598583 0.993529 0.738607
O O15 0.500000 0.500000 0.500000
#
# Coordination Sequence:
#
# PCOD8037780 Si02
#       7
#     2   2   2   2   2   2   2
#     4  12  26  50  79 115 153 206 255 312 382 463
#     4  12  27  49  82 111 155 203 255 319 388 452
#     4  12  27  49  81 117 154 204 259 315 382 465
#     4  12  28  48  77 115 155 196 263 315 382 451
#     4  12  26  50  76 113 155 200 258 318 379 465
#     4  12  28  49  78 111 160 200 254 324 386 450
#     4  12  28  50  77 112 155 202 256 321 390 456
#
# _framework density 25.165619
#
# number of rings (size 3 to 8) (size 9 to 14) (size 15 to 20)
#    0.000    0.000    2.857    6.000    6.000    1.714 
#    0.000    0.000    0.000    0.000    0.000    0.000 
#    0.000    0.000    0.000    0.000    0.000    0.000 
#
# Total GULP energy -173536.060432 kJ/mol
# GULP energy per Si atom -12395.432888 kJ/mol
# Density = 2.510834 g / cm^3
# Si number density = 25.165619 Si / 1000 Ang^3
#
#
#
# Elastic Constant Matrix: (Units=GPa)
#
#
# Indices 1 2 3 4 5 6 
#
# 1 163.3178 39.8791 54.0468 -3.6496 5.9048 21.8071
# 2 39.8791 75.3367 29.3619 -5.4785 -5.4005 2.3955
# 3 54.0468 29.3619 113.4652 -7.8448 0.5207 -11.1653
# 4 -3.6496 -5.4785 -7.8448 39.7522 -4.5530 -4.6233
# 5 5.9048 -5.4005 0.5207 -4.5530 42.8847 -2.2008
# 6 21.8071 2.3955 -11.1653 -4.6233 -2.2008 45.3599
#
#
#
# Elastic Compliance Matrix: (Units=1/GPa)
#
#
# Indices 1 2 3 4 5 6 
#
# 1 0.009031 -0.003261 -0.004069 -0.001282 -0.002018 -0.005400
# 2 -0.003261 0.016294 -0.002510 0.001813 0.002745 0.000407
# 3 -0.004069 -0.002510 0.012086 0.002357 0.000621 0.005334
# 4 -0.001282 0.001813 0.002357 0.026606 0.003405 0.003978
# 5 -0.002018 0.002745 0.000621 0.003405 0.024425 0.002510
# 6 -0.005400 0.000407 0.005334 0.003978 0.002510 0.026460
#
#
# Mechanical properties :
#
#
# Convention : Reuss Voigt Hill
#
# Bulk Modulus (GPa) = 56.39878 66.52169 61.46023
# Shear Modulus (GPa) = 35.58924 40.85482 38.22203
#
# Velocity S-wave (km/s) = 3.76467 4.03356 3.90143
# Velocity P-wave (km/s) = 6.43091 6.94145 6.69105
#
# Compressibility (1/GPa) = 0.01773088
#
# Stress axis : x y z
#
# Youngs Moduli (GPa) = 110.72934 61.37247 82.74128
#
# Poissons Ratio (x) = 0.20014 0.33664
# Poissons Ratio (y) = 0.36109 0.20771
# Poissons Ratio (z) = 0.45051 0.15407
#
# Static dielectric constant tensor:
#      x y z
#    x 5.040540 0.024260 0.121260 
#    y 0.024260 4.447760 0.086850 
#    z 0.121260 0.086850 4.502060 
# 
# 
# High freq. dielectric constant tensor:
#      x y z
#    x 2.022330 0.004710 0.003450 
#    y 0.004710 2.003630 0.006350 
#    z 0.003450 0.006350 1.999630 
# 
# From -- ./inp_files/328551.got.cif
#   From: 2010.06.25/outbox.cif.g09.slc.cpg/sg2_165_cif.got.tgz:328551.got - 2010.06.27 13:26:56.
