data_PCOD8037715
_publ_section_title
;
Structure prediction by ZEFSAII (Michael W. Deem and Ramdas Pophale) SiO2 
 PCOD8037715
Probable space group: P -1
;
_chemical_formula_sum "Si O2"
_cell_formula_units_Z 16
_cell_length_a 11.211143
_cell_length_b 13.746891
_cell_length_c 9.831500
_cell_angle_alpha 104.955843
_cell_angle_beta 86.998776
_cell_angle_gamma 148.458521
_cell_volume 722.453866
_symmetry_space_group_name_H-M "P -1"
_symmetry_group_IT_number 2
_symmetry_cell_setting 'triclinic'
loop_
_space_group_symop_operation_xyz
x,y,z
-x,-y,-z
loop_
_atom_site_type_symbol
_atom_site_label
_atom_site_fract_x
_atom_site_fract_y
_atom_site_fract_z
Si Si1 0.189714 0.575869 0.602274
Si Si2 0.941736 0.715845 0.344981
Si Si3 0.496808 0.770765 0.141744
Si Si4 0.497173 0.473493 0.647798
Si Si5 0.286497 0.765912 0.939286
Si Si6 0.068637 0.337341 0.973244
Si Si7 0.999548 0.112301 0.092244
Si Si8 0.410093 0.177334 0.548814
O O1 0.077069 0.384491 0.575514
O O2 0.266294 0.688094 0.774716
O O3 0.428859 0.737128 0.556995
O O4 0.000000 0.500000 0.500000
O O5 0.687339 0.585690 0.289592
O O6 0.014341 0.719401 0.198633
O O7 0.137875 0.941268 0.458380
O O8 0.490738 0.800436 0.310366
O O9 0.341116 0.734995 0.051713
O O10 0.359109 0.562385 0.055249
O O11 0.772100 0.963554 0.148780
O O12 0.500000 0.500000 0.500000
O O13 0.763994 0.686583 0.765174
O O14 0.407655 0.294991 0.613317
O O15 0.041769 0.647797 0.935911
O O16 0.500000 0.000000 0.000000
O O17 0.977162 0.166232 0.980965
O O18 0.000000 0.000000 0.000000
#
# Coordination Sequence:
#
# PCOD8037715 Si02
#       8
#     2   2   2   2   2   2   2   2
#     4  12  29  49  73 109 152 187 245 304 358 432
#     4  12  28  47  76 108 146 194 244 298 366 435
#     4  12  26  47  75 107 144 193 244 294 365 428
#     4  12  26  49  74 102 152 191 239 302 363 434
#     4  12  26  48  78 104 149 196 241 303 362 431
#     4  12  26  49  74 107 146 191 247 300 364 430
#     4  12  29  46  75 108 147 188 247 306 360 427
#     4  12  28  47  76 110 147 195 240 297 369 435
#
# _framework density 22.146744999999999
#
# number of rings (size 3 to 8) (size 9 to 14) (size 15 to 20)
#    0.000    0.000    5.000    3.750    7.000    1.500 
#    0.000    0.000    0.000    0.000    0.000    0.000 
#    0.000    0.000    0.000    0.000    0.000    0.000 
#
# Total GULP energy -198493.088382 kJ/mol
# GULP energy per Si atom -12405.818024 kJ/mol
# Density = 2.209634 g / cm^3
# Si number density = 22.146745 Si / 1000 Ang^3
#
#
#
# Elastic Constant Matrix: (Units=GPa)
#
#
# Indices 1 2 3 4 5 6 
#
# 1 135.3996 62.6198 43.9376 -5.2250 0.8596 -3.6852
# 2 62.6198 160.1919 60.8744 9.1457 -0.3250 -13.5670
# 3 43.9376 60.8744 133.0539 -3.0927 12.3135 -11.1292
# 4 -5.2250 9.1457 -3.0927 48.7517 -4.9986 1.9852
# 5 0.8596 -0.3250 12.3135 -4.9986 32.1677 5.1262
# 6 -3.6852 -13.5670 -11.1292 1.9852 5.1262 23.8972
#
#
#
# Elastic Compliance Matrix: (Units=1/GPa)
#
#
# Indices 1 2 3 4 5 6 
#
# 1 0.009495 -0.003242 -0.001829 0.001668 0.000922 -0.001565
# 2 -0.003242 0.009018 -0.002859 -0.002321 0.000369 0.003402
# 3 -0.001829 -0.002859 0.010157 0.000381 -0.004405 0.003738
# 4 0.001668 -0.002321 0.000381 0.021672 0.003708 -0.003479
# 5 0.000922 0.000369 -0.004405 0.003708 0.034839 -0.009481
# 6 -0.001565 0.003402 0.003738 -0.003479 -0.009481 0.047599
#
#
# Mechanical properties :
#
#
# Convention : Reuss Voigt Hill
#
# Bulk Modulus (GPa) = 78.07303 84.83434 81.45369
# Shear Modulus (GPa) = 32.69892 38.37757 35.53825
#
# Velocity S-wave (km/s) = 3.84665 4.16730 4.01018
# Velocity P-wave (km/s) = 7.42011 7.84499 7.63551
#
# Compressibility (1/GPa) = 0.01280852
#
# Stress axis : x y z
#
# Youngs Moduli (GPa) = 105.32332 110.89467 98.45502
#
# Poissons Ratio (x) = 0.35954 0.18012
# Poissons Ratio (y) = 0.34147 0.28145
# Poissons Ratio (z) = 0.19269 0.31701
#
# Static dielectric constant tensor:
#      x y z
#    x 4.330270 -0.112970 0.025640 
#    y -0.112970 4.465630 0.017240 
#    z 0.025640 0.017240 4.195380 
# 
# 
# High freq. dielectric constant tensor:
#      x y z
#    x 1.872530 -0.005660 0.003560 
#    y -0.005660 1.899160 -0.003140 
#    z 0.003560 -0.003140 1.884380 
# 
# From -- ./inp_files/273731.got.cif
#   From: 2010.06.25/outbox.cif.g09.slc.cpg/sg2_137_cif.got.tgz:273731.got - 2010.06.27 13:26:56.
