data_PCOD8037380
_publ_section_title
;
Structure prediction by ZEFSAII (Michael W. Deem and Ramdas Pophale) SiO2 
 PCOD8037380
Probable space group: P -1
;
_chemical_formula_sum "Si O2"
_cell_formula_units_Z 12
_cell_length_a 13.479122
_cell_length_b 16.927353
_cell_length_c 10.020019
_cell_angle_alpha 41.736503
_cell_angle_beta 145.521053
_cell_angle_gamma 154.856604
_cell_volume 549.903560
_symmetry_space_group_name_H-M "P -1"
_symmetry_group_IT_number 2
_symmetry_cell_setting 'triclinic'
loop_
_space_group_symop_operation_xyz
x,y,z
-x,-y,-z
loop_
_atom_site_type_symbol
_atom_site_label
_atom_site_fract_x
_atom_site_fract_y
_atom_site_fract_z
Si Si1 0.950381 0.936966 0.714652
Si Si2 0.499499 0.708519 0.005609
Si Si3 0.282184 0.843069 0.561888
Si Si4 0.776281 0.634921 0.715716
Si Si5 0.236516 0.287637 0.942206
Si Si6 0.724503 0.075259 0.257219
O O1 0.887696 0.813917 0.680299
O O2 0.762201 0.953108 0.459436
O O3 0.878584 0.840128 0.897379
O O4 0.276314 0.140899 0.820572
O O5 0.280963 0.493358 0.074045
O O6 0.687181 0.769721 0.011315
O O7 0.294266 0.707444 0.742476
O O8 0.368539 0.930433 0.693984
O O9 0.982062 0.733562 0.331895
O O10 0.500000 0.000000 0.500000
O O11 0.500000 0.500000 0.500000
O O12 0.998481 0.714094 0.750570
O O13 0.500000 0.500000 0.000000
O O14 0.500000 0.000000 0.000000
#
# Coordination Sequence:
#
# PCOD8037380 Si02
#       6
#     2   2   2   2   2   2
#     4  12  24  48  77 103 154 199 242 314 375 436
#     4  12  25  48  78 108 151 196 248 314 369 446
#     4  12  26  47  78 110 147 199 254 302 376 449
#     4  12  26  46  73 107 145 200 254 294 379 449
#     4  12  25  47  77 113 147 193 253 307 375 442
#     4  12  28  46  74 114 150 197 252 309 376 445
#
# _framework density 21.822008
#
# number of rings (size 3 to 8) (size 9 to 14) (size 15 to 20)
#    0.000    0.000    6.667    3.000    2.333    2.667 
#    0.000    0.000    0.000    0.000    0.000    0.000 
#    0.000    0.000    0.000    0.000    0.000    0.000 
#
# Total GULP energy -148819.557140 kJ/mol
# GULP energy per Si atom -12401.629762 kJ/mol
# Density = 2.177234 g / cm^3
# Si number density = 21.822008 Si / 1000 Ang^3
#
#
#
# Elastic Constant Matrix: (Units=GPa)
#
#
# Indices 1 2 3 4 5 6 
#
# 1 140.0322 33.4430 50.8326 6.3498 -0.9210 3.1394
# 2 33.4430 88.9209 21.5600 21.2203 10.4339 -8.2087
# 3 50.8326 21.5600 165.6453 14.1125 24.6876 -10.9829
# 4 6.3498 21.2203 14.1125 36.3282 -9.9381 -0.0103
# 5 -0.9210 10.4339 24.6876 -9.9381 39.9465 -6.6986
# 6 3.1394 -8.2087 -10.9829 -0.0103 -6.6986 34.0921
#
#
#
# Elastic Compliance Matrix: (Units=1/GPa)
#
#
# Indices 1 2 3 4 5 6 
#
# 1 0.009217 -0.004022 -0.003248 0.003000 0.003657 -0.002144
# 2 -0.004022 0.016333 0.001425 -0.011453 -0.007539 0.003277
# 3 -0.003248 0.001425 0.008431 -0.005358 -0.006647 0.002051
# 4 0.003000 -0.011453 -0.005358 0.040178 0.016102 -0.001584
# 5 0.003657 -0.007539 -0.006647 0.016102 0.035657 0.002718
# 6 -0.002144 0.003277 0.002051 -0.001584 0.002718 0.031513
#
#
# Mechanical properties :
#
#
# Convention : Reuss Voigt Hill
#
# Bulk Modulus (GPa) = 44.85826 67.36329 56.11077
# Shear Modulus (GPa) = 31.16257 41.32422 36.24340
#
# Velocity S-wave (km/s) = 3.78303 4.35638 4.07979
# Velocity P-wave (km/s) = 6.29943 7.49937 6.92544
#
# Compressibility (1/GPa) = 0.02229244
#
# Stress axis : x y z
#
# Youngs Moduli (GPa) = 108.49837 61.22421 118.60696
#
# Poissons Ratio (x) = 0.24623 0.38519
# Poissons Ratio (y) = 0.43636 -0.16902
# Poissons Ratio (z) = 0.35236 -0.08725
#
# Static dielectric constant tensor:
#      x y z
#    x 4.296100 0.258770 -0.100150 
#    y 0.258770 4.850680 -0.403370 
#    z -0.100150 -0.403370 4.453970 
# 
# 
# High freq. dielectric constant tensor:
#      x y z
#    x 1.871690 0.006810 -0.008550 
#    y 0.006810 1.861580 -0.007060 
#    z -0.008550 -0.007060 1.876040 
# 
# From -- ./inp_files/262435.got.cif
#   From: 2010.06.25/outbox.cif.g09.slc.cpg/sg2_132_cif.got.tgz:262435.got - 2010.06.27 13:26:56.
