data_PCOD8037486
_publ_section_title
;
Structure prediction by ZEFSAII (Michael W. Deem and Ramdas Pophale) SiO2 
 PCOD8037486
Probable space group: P -1
;
_chemical_formula_sum "Si O2"
_cell_formula_units_Z 16
_cell_length_a 11.602322
_cell_length_b 8.558146
_cell_length_c 9.284129
_cell_angle_alpha 88.759962
_cell_angle_beta 99.388285
_cell_angle_gamma 52.643109
_cell_volume 714.343837
_symmetry_space_group_name_H-M "P -1"
_symmetry_group_IT_number 2
_symmetry_cell_setting 'triclinic'
loop_
_space_group_symop_operation_xyz
x,y,z
-x,-y,-z
loop_
_atom_site_type_symbol
_atom_site_label
_atom_site_fract_x
_atom_site_fract_y
_atom_site_fract_z
Si Si1 0.335231 0.497674 0.080455
Si Si2 0.182526 0.726021 0.752523
Si Si3 0.869106 0.878711 0.301041
Si Si4 0.607618 0.535501 0.447679
Si Si5 0.178828 0.468225 0.291541
Si Si6 0.345448 0.818579 0.217202
Si Si7 0.402256 0.933385 0.942809
Si Si8 0.876652 0.837198 0.639614
O O1 0.221831 0.470459 0.134484
O O2 0.350568 0.631352 0.186193
O O3 0.497591 0.287567 0.099120
O O4 0.278557 0.595550 0.911116
O O5 0.277561 0.648543 0.628124
O O6 0.050790 0.710623 0.709026
O O7 0.118467 0.953232 0.754522
O O8 0.844192 0.886611 0.464886
O O9 0.017568 0.667948 0.290046
O O10 0.726677 0.913347 0.198436
O O11 0.500000 0.500000 0.500000
O O12 0.694459 0.567270 0.579334
O O13 0.501917 0.736074 0.326159
O O14 0.179419 0.282847 0.314783
O O15 0.209898 0.956593 0.296009
O O16 0.320009 0.942847 0.068877
O O17 0.500000 0.000000 0.000000
#
# Coordination Sequence:
#
# PCOD8037486 Si02
#       8
#     2   2   2   2   2   2   2   2
#     4  12  26  49  74 108 147 195 251 296 366 444
#     4  12  26  48  78 105 146 197 247 304 361 443
#     4  12  27  48  75 107 146 193 251 298 366 444
#     4  12  25  45  76 106 145 189 243 304 364 437
#     4  12  29  47  73 111 149 196 242 307 371 434
#     4  12  25  47  72 104 145 196 246 298 366 436
#     4  12  28  47  74 111 150 192 241 307 373 433
#     4  12  29  47  74 110 151 192 246 308 371 430
#
# _framework density 22.398178999999999
#
# number of rings (size 3 to 8) (size 9 to 14) (size 15 to 20)
#    0.000    0.000    5.000    4.125    7.000    2.000 
#    0.000    0.000    0.000    0.000    0.000    0.000 
#    0.000    0.000    0.000    0.000    0.000    0.000 
#
# Total GULP energy -198514.343282 kJ/mol
# GULP energy per Si atom -12407.146455 kJ/mol
# Density = 2.234720 g / cm^3
# Si number density = 22.398179 Si / 1000 Ang^3
#
#
#
# Elastic Constant Matrix: (Units=GPa)
#
#
# Indices 1 2 3 4 5 6 
#
# 1 127.3377 32.8892 35.8403 2.6459 12.6496 -2.1506
# 2 32.8892 87.7966 27.4642 3.6516 6.8954 -17.8158
# 3 35.8403 27.4642 68.9312 8.5163 0.3847 -9.2414
# 4 2.6459 3.6516 8.5163 29.3364 -5.4558 -6.2361
# 5 12.6496 6.8954 0.3847 -5.4558 45.8779 0.4487
# 6 -2.1506 -17.8158 -9.2414 -6.2361 0.4487 42.0626
#
#
#
# Elastic Compliance Matrix: (Units=1/GPa)
#
#
# Indices 1 2 3 4 5 6 
#
# 1 0.009923 -0.002471 -0.004352 -0.000071 -0.002322 -0.001481
# 2 -0.002471 0.014720 -0.003904 0.000375 -0.001506 0.005322
# 3 -0.004352 -0.003904 0.019051 -0.004083 0.001125 0.001692
# 4 -0.000071 0.000375 -0.004083 0.037042 0.004356 0.004704
# 5 -0.002322 -0.001506 0.001125 0.004356 0.023173 -0.000111
# 6 -0.001481 0.005322 0.001692 0.004704 -0.000111 0.027023
#
#
# Mechanical properties :
#
#
# Convention : Reuss Voigt Hill
#
# Bulk Modulus (GPa) = 44.96653 52.93921 48.95287
# Shear Modulus (GPa) = 31.28917 35.98018 33.63467
#
# Velocity S-wave (km/s) = 3.74164 4.01233 3.87934
# Velocity P-wave (km/s) = 6.22784 6.71951 6.47834
#
# Compressibility (1/GPa) = 0.02223876
#
# Stress axis : x y z
#
# Youngs Moduli (GPa) = 100.77165 67.93640 52.49203
#
# Poissons Ratio (x) = 0.16789 0.22844
# Poissons Ratio (y) = 0.24904 0.20494
# Poissons Ratio (z) = 0.43854 0.26524
#
# Static dielectric constant tensor:
#      x y z
#    x 4.154120 -0.058120 -0.001820 
#    y -0.058120 4.104900 -0.045930 
#    z -0.001820 -0.045930 4.395530 
# 
# 
# High freq. dielectric constant tensor:
#      x y z
#    x 1.890520 -0.008260 -0.003520 
#    y -0.008260 1.885610 -0.000950 
#    z -0.003520 -0.000950 1.903120 
# 
# From -- ./inp_files/184384.got.cif
#   From: 2010.06.25/outbox.cif.g09.slc.cpg/sg2_93_cif.got.tgz:184384.got - 2010.06.27 13:26:56.
