data_PCOD8037157
_publ_section_title
;
Structure prediction by ZEFSAII (Michael W. Deem and Ramdas Pophale) SiO2 
 PCOD8037157
Probable space group: P -1
;
_chemical_formula_sum "Si O2"
_cell_formula_units_Z 14
_cell_length_a 12.719615
_cell_length_b 9.013138
_cell_length_c 8.724305
_cell_angle_alpha 129.019265
_cell_angle_beta 54.202763
_cell_angle_gamma 122.858495
_cell_volume 605.689722
_symmetry_space_group_name_H-M "P -1"
_symmetry_group_IT_number 2
_symmetry_cell_setting 'triclinic'
loop_
_space_group_symop_operation_xyz
x,y,z
-x,-y,-z
loop_
_atom_site_type_symbol
_atom_site_label
_atom_site_fract_x
_atom_site_fract_y
_atom_site_fract_z
Si Si1 0.134992 0.947774 0.390021
Si Si2 0.029267 0.500836 0.151522
Si Si3 0.452734 0.977862 0.849400
Si Si4 0.272838 0.647490 0.592478
Si Si5 0.701060 0.019208 0.446155
Si Si6 0.135615 0.179170 0.006759
Si Si7 0.709539 0.751541 0.787032
O O1 0.124284 0.717381 0.242555
O O2 0.173770 0.992304 0.561864
O O3 0.247715 0.073316 0.261637
O O4 0.000000 0.000000 0.500000
O O5 0.887430 0.446175 0.323603
O O6 0.116567 0.355038 0.031437
O O7 0.000000 0.500000 0.000000
O O8 0.565683 0.951483 0.616532
O O9 0.330706 0.779432 0.780995
O O10 0.411797 0.182225 0.982485
O O11 0.500000 0.000000 0.000000
O O12 0.298661 0.772670 0.495090
O O13 0.338495 0.462949 0.395043
O O14 0.727079 0.876671 0.196457
O O15 0.168098 0.248458 0.200539
O O16 0.000000 0.000000 0.000000
#
# Coordination Sequence:
#
# PCOD8037157 Si02
#       7
#     2   2   2   2   2   2   2
#     4  12  24  44  72 107 150 188 240 304 374 433
#     4  12  25  42  73 111 150 190 245 302 378 446
#     4  12  27  53  74 103 150 197 253 308 365 438
#     4  12  27  48  76 110 145 194 254 303 371 443
#     4  12  26  47  75 106 149 196 244 306 361 443
#     4  12  24  44  75 109 152 193 242 304 377 437
#     4  12  26  49  74 108 148 198 247 307 365 444
#
# _framework density 23.114142999999999
#
# number of rings (size 3 to 8) (size 9 to 14) (size 15 to 20)
#    0.000    0.000    5.714    4.714    0.000    2.286 
#    2.571    0.000    0.000    0.000    0.000    0.000 
#    0.000    0.000    0.000    0.000    0.000    0.000 
#
# Total GULP energy -173488.576951 kJ/mol
# GULP energy per Si atom -12392.041211 kJ/mol
# Density = 2.306153 g / cm^3
# Si number density = 23.114143 Si / 1000 Ang^3
#
#
#
# Elastic Constant Matrix: (Units=GPa)
#
#
# Indices 1 2 3 4 5 6 
#
# 1 114.3154 38.8147 36.0242 10.1074 9.5180 -22.6714
# 2 38.8147 126.5936 48.4174 16.7635 -4.1749 -26.0877
# 3 36.0242 48.4174 127.2585 19.9720 -16.6443 -2.5640
# 4 10.1074 16.7635 19.9720 47.9522 -8.6932 -3.6621
# 5 9.5180 -4.1749 -16.6443 -8.6932 52.9828 -3.2041
# 6 -22.6714 -26.0877 -2.5640 -3.6621 -3.2041 28.8057
#
#
#
# Elastic Compliance Matrix: (Units=1/GPa)
#
#
# Indices 1 2 3 4 5 6 
#
# 1 0.011893 -0.000790 -0.003148 -0.000828 -0.002843 0.007944
# 2 -0.000790 0.011770 -0.003785 -0.001610 0.000192 0.009518
# 3 -0.003148 -0.003785 0.010853 -0.002366 0.002992 -0.004908
# 4 -0.000828 -0.001610 -0.002366 0.023223 0.003148 0.000982
# 5 -0.002843 0.000192 0.002992 0.003148 0.020912 0.000928
# 6 0.007944 0.009518 -0.004908 0.000982 0.000928 0.049378
#
#
# Mechanical properties :
#
#
# Convention : Reuss Voigt Hill
#
# Bulk Modulus (GPa) = 52.43653 68.29778 60.36716
# Shear Modulus (GPa) = 33.37069 42.27555 37.82312
#
# Velocity S-wave (km/s) = 3.80377 4.28131 4.04959
# Velocity P-wave (km/s) = 6.48280 7.35198 6.93103
#
# Compressibility (1/GPa) = 0.01907068
#
# Stress axis : x y z
#
# Youngs Moduli (GPa) = 84.08091 84.96260 92.14062
#
# Poissons Ratio (x) = 0.06709 0.29007
# Poissons Ratio (y) = 0.06639 0.34875
# Poissons Ratio (z) = 0.26470 0.32158
#
# Static dielectric constant tensor:
#      x y z
#    x 1.540240 -5.272150 0.867280 
#    y -5.272150 -5.416730 1.642520 
#    z 0.867280 1.642520 4.209120 
# 
# 
# High freq. dielectric constant tensor:
#      x y z
#    x 1.927550 -0.016210 0.002550 
#    y -0.016210 1.901400 -0.001630 
#    z 0.002550 -0.001630 1.929530 
# 
# From -- ./inp_files/224005.got.cif
#   From: 2010.06.25/outbox.cif.g09.slc.cpg/sg2_113_cif.got.tgz:224005.got - 2010.06.27 13:26:56.
