data_PCOD8037519
_publ_section_title
;
Structure prediction by ZEFSAII (Michael W. Deem and Ramdas Pophale) SiO2 
 PCOD8037519
Probable space group: P -1
;
_chemical_formula_sum "Si O2"
_cell_formula_units_Z 12
_cell_length_a 8.729888
_cell_length_b 9.074914
_cell_length_c 14.825369
_cell_angle_alpha 63.539735
_cell_angle_beta 138.416095
_cell_angle_gamma 85.609915
_cell_volume 505.308595
_symmetry_space_group_name_H-M "P -1"
_symmetry_group_IT_number 2
_symmetry_cell_setting 'triclinic'
loop_
_space_group_symop_operation_xyz
x,y,z
-x,-y,-z
loop_
_atom_site_type_symbol
_atom_site_label
_atom_site_fract_x
_atom_site_fract_y
_atom_site_fract_z
Si Si1 0.307015 0.946116 0.968981
Si Si2 0.777168 0.321266 0.102390
Si Si3 0.251515 0.963128 0.555225
Si Si4 0.632292 0.262357 0.597784
Si Si5 0.179426 0.425135 0.203922
Si Si6 0.291001 0.039699 0.141617
O O1 0.394615 0.721158 0.031278
O O2 0.953575 0.146909 0.717164
O O3 0.500000 0.000000 0.000000
O O4 0.349780 0.938581 0.096682
O O5 0.914292 0.410867 0.082586
O O6 0.500000 0.500000 0.000000
O O7 0.075945 0.103307 0.348598
O O8 0.568832 0.704392 0.733395
O O9 0.381976 0.045986 0.652349
O O10 0.000000 0.000000 0.500000
O O11 0.500000 0.500000 0.500000
O O12 0.369935 0.295124 0.415584
O O13 0.775454 0.085923 0.791486
O O14 0.005254 0.687395 0.059552
#
# Coordination Sequence:
#
# PCOD8037519 Si02
#       6
#     2   2   2   2   2   2
#     4  12  26  47  75 112 157 197 250 315 383 451
#     4  12  26  49  78 112 158 202 251 319 382 452
#     4  12  25  46  75 116 150 196 261 314 376 455
#     4  12  26  49  78 110 153 198 257 313 383 458
#     4  12  25  50  80 108 156 202 254 321 379 450
#     4  12  27  49  78 113 147 203 259 307 390 458
#
# _framework density 23.747862999999999
#
# number of rings (size 3 to 8) (size 9 to 14) (size 15 to 20)
#    0.000    0.000    5.000    5.500    0.000    1.333 
#    0.000    1.667    0.000    0.000    0.000    0.000 
#    0.000    0.000    0.000    0.000    0.000    0.000 
#
# Total GULP energy -148671.498105 kJ/mol
# GULP energy per Si atom -12389.291509 kJ/mol
# Density = 2.369381 g / cm^3
# Si number density = 23.747863 Si / 1000 Ang^3
#
#
#
# Elastic Constant Matrix: (Units=GPa)
#
#
# Indices 1 2 3 4 5 6 
#
# 1 141.5026 80.4005 66.8975 -10.2492 21.2640 5.5892
# 2 80.4005 199.5295 60.4954 9.5558 3.5484 -8.9324
# 3 66.8975 60.4954 109.3539 9.4645 -11.0575 -1.7273
# 4 -10.2492 9.5558 9.4645 55.0580 -4.4879 -2.4973
# 5 21.2640 3.5484 -11.0575 -4.4879 53.0047 2.5438
# 6 5.5892 -8.9324 -1.7273 -2.4973 2.5438 45.0780
#
#
#
# Elastic Compliance Matrix: (Units=1/GPa)
#
#
# Indices 1 2 3 4 5 6 
#
# 1 0.014046 -0.003492 -0.007698 0.003911 -0.006573 -0.002141
# 2 -0.003492 0.007030 -0.001557 -0.001495 0.000399 0.001661
# 3 -0.007698 -0.001557 0.015634 -0.003318 0.006139 0.000715
# 4 0.003911 -0.001495 -0.003318 0.019689 -0.000504 0.000211
# 5 -0.006573 0.000399 0.006139 -0.000504 0.022723 -0.000181
# 6 -0.002141 0.001661 0.000715 0.000211 -0.000181 0.022828
#
#
# Mechanical properties :
#
#
# Convention : Reuss Voigt Hill
#
# Bulk Modulus (GPa) = 89.15263 96.21920 92.68592
# Shear Modulus (GPa) = 38.11510 46.80097 42.45803
#
# Velocity S-wave (km/s) = 4.01058 4.44412 4.23291
# Velocity P-wave (km/s) = 7.68565 8.18160 7.93750
#
# Compressibility (1/GPa) = 0.01121672
#
# Stress axis : x y z
#
# Youngs Moduli (GPa) = 71.19386 142.25236 63.96320
#
# Poissons Ratio (x) = 0.49678 0.49238
# Poissons Ratio (y) = 0.24863 0.09956
# Poissons Ratio (z) = 0.54804 0.22142
#
# Static dielectric constant tensor:
#      x y z
#    x 0.000000 0.000000 0.000000 
#    y 0.000000 0.000000 0.000000 
#    z 0.000000 0.000000 0.000000 
# 
# 
# High freq. dielectric constant tensor:
#      x y z
#    x 1.941150 -0.003210 0.004480 
#    y -0.003210 1.958710 0.017260 
#    z 0.004480 0.017260 1.959970 
# 
# From -- ./inp_files/271435.got.cif
#   From: 2010.06.25/outbox.cif.g09.slc.cpg/sg2_136_cif.got.tgz:271435.got - 2010.06.27 13:26:56.
