data_PCOD8037683
_publ_section_title
;
Structure prediction by ZEFSAII (Michael W. Deem and Ramdas Pophale) SiO2 
 PCOD8037683
Probable space group: P -1
;
_chemical_formula_sum "Si O2"
_cell_formula_units_Z 16
_cell_length_a 8.689234
_cell_length_b 26.653029
_cell_length_c 27.159118
_cell_angle_alpha 10.363131
_cell_angle_beta 38.243140
_cell_angle_gamma 37.237918
_cell_volume 684.533649
_symmetry_space_group_name_H-M "P -1"
_symmetry_group_IT_number 2
_symmetry_cell_setting 'triclinic'
loop_
_space_group_symop_operation_xyz
x,y,z
-x,-y,-z
loop_
_atom_site_type_symbol
_atom_site_label
_atom_site_fract_x
_atom_site_fract_y
_atom_site_fract_z
Si Si1 0.967912 0.234533 0.882039
Si Si2 0.968257 0.872825 0.918500
Si Si3 0.633592 0.115134 0.401427
Si Si4 0.413662 0.597271 0.661003
Si Si5 0.523722 0.705296 0.905438
Si Si6 0.192819 0.209848 0.154626
Si Si7 0.674707 0.421497 0.410390
Si Si8 0.137887 0.627293 0.386159
O O1 0.128223 0.447198 0.612304
O O2 0.679735 0.401465 0.798665
O O3 0.073481 0.136237 0.003923
O O4 0.990255 0.953603 0.114303
O O5 0.253728 0.883192 0.820920
O O6 0.770362 0.142589 0.687642
O O7 0.897661 0.592569 0.183787
O O8 0.500000 0.000000 0.500000
O O9 0.652750 0.885609 0.661074
O O10 0.477915 0.418156 0.168075
O O11 0.911183 0.155051 0.278483
O O12 0.385893 0.903816 0.397716
O O13 0.397800 0.664487 0.542510
O O14 0.203899 0.423143 0.900177
O O15 0.725428 0.634669 0.967657
O O16 0.430071 0.616202 0.310051
O O17 0.000000 0.500000 0.500000
#
# Coordination Sequence:
#
# PCOD8037683 Si02
#       8
#     2   2   2   2   2   2   2   2
#     4  12  26  47  75 103 143 189 245 294 355 434
#     4  12  28  46  73 107 145 187 239 300 363 421
#     4  12  28  47  73 112 148 188 236 299 365 426
#     4  12  26  45  77 108 142 191 252 296 352 431
#     4  12  26  49  75 102 151 192 238 293 361 437
#     4  12  26  47  78 107 144 195 245 294 357 434
#     4  12  28  45  71 108 146 188 239 303 367 418
#     4  12  26  45  74 103 144 189 241 300 359 426
#
# _framework density 23.373577999999998
#
# number of rings (size 3 to 8) (size 9 to 14) (size 15 to 20)
#    0.000    0.000    2.500    6.750    8.750    3.000 
#    0.000    0.000    0.000    0.000    0.000    0.000 
#    0.000    0.000    0.000    0.000    0.000    0.000 
#
# Total GULP energy -198511.943388 kJ/mol
# GULP energy per Si atom -12406.996462 kJ/mol
# Density = 2.332038 g / cm^3
# Si number density = 23.373578 Si / 1000 Ang^3
#
#
#
# Elastic Constant Matrix: (Units=GPa)
#
#
# Indices 1 2 3 4 5 6 
#
# 1 99.0028 40.0802 29.9825 5.2403 5.2003 -2.7384
# 2 40.0802 106.1420 32.5584 7.7450 0.3485 7.4378
# 3 29.9825 32.5584 128.8658 5.0586 5.6966 14.5477
# 4 5.2403 7.7450 5.0586 56.7774 7.0399 1.7427
# 5 5.2003 0.3485 5.6966 7.0399 48.2918 4.8390
# 6 -2.7384 7.4378 14.5477 1.7427 4.8390 29.1908
#
#
#
# Elastic Compliance Matrix: (Units=1/GPa)
#
#
# Indices 1 2 3 4 5 6 
#
# 1 0.012721 -0.004358 -0.002196 -0.000323 -0.001398 0.003649
# 2 -0.004358 0.011847 -0.001677 -0.001107 0.001013 -0.002694
# 3 -0.002196 -0.001677 0.009204 -0.000210 -0.000377 -0.004291
# 4 -0.000323 -0.001107 -0.000210 0.018137 -0.002546 -0.000304
# 5 -0.001398 0.001013 -0.000377 -0.002546 0.021631 -0.003635
# 6 0.003649 -0.002694 -0.004291 -0.000304 -0.003635 0.038045
#
#
# Mechanical properties :
#
#
# Convention : Reuss Voigt Hill
#
# Bulk Modulus (GPa) = 57.76496 59.91695 58.84095
# Shear Modulus (GPa) = 37.36436 42.27797 39.82117
#
# Velocity S-wave (km/s) = 4.00255 4.25761 4.13205
# Velocity P-wave (km/s) = 6.79176 7.06114 6.92776
#
# Compressibility (1/GPa) = 0.01731153
#
# Stress axis : x y z
#
# Youngs Moduli (GPa) = 78.60733 84.40710 108.64934
#
# Poissons Ratio (x) = 0.36781 0.23863
# Poissons Ratio (y) = 0.34254 0.18216
# Poissons Ratio (z) = 0.17265 0.14152
#
# Static dielectric constant tensor:
#      x y z
#    x 4.091810 0.165990 -0.045650 
#    y 0.165990 4.441400 0.037280 
#    z -0.045650 0.037280 4.446150 
# 
# 
# High freq. dielectric constant tensor:
#      x y z
#    x 1.923590 0.006330 0.001420 
#    y 0.006330 1.938260 0.005820 
#    z 0.001420 0.005820 1.943920 
# 
# From -- ./inp_files/617665.got.cif
#   From: 2010.06.25/outbox.cif.g09.slc.cpg/sg2_309_cif.got.tgz:617665.got - 2010.06.27 13:26:56.
