data_PCOD8037723
_publ_section_title
;
Structure prediction by ZEFSAII (Michael W. Deem and Ramdas Pophale) SiO2 
 PCOD8037723
Probable space group: P -1
;
_chemical_formula_sum "Si O2"
_cell_formula_units_Z 14
_cell_length_a 15.774442
_cell_length_b 6.557974
_cell_length_c 25.201710
_cell_angle_alpha 110.699473
_cell_angle_beta 16.582484
_cell_angle_gamma 101.849770
_cell_volume 602.869240
_symmetry_space_group_name_H-M "P -1"
_symmetry_group_IT_number 2
_symmetry_cell_setting 'triclinic'
loop_
_space_group_symop_operation_xyz
x,y,z
-x,-y,-z
loop_
_atom_site_type_symbol
_atom_site_label
_atom_site_fract_x
_atom_site_fract_y
_atom_site_fract_z
Si Si1 0.828396 0.441589 0.830584
Si Si2 0.260395 0.070803 0.028634
Si Si3 0.656356 0.782083 0.118311
Si Si4 0.749174 0.508881 0.696082
Si Si5 0.286069 0.275758 0.443273
Si Si6 0.743449 0.023874 0.397912
Si Si7 0.265002 0.475299 0.793897
O O1 0.662972 0.713092 0.981324
O O2 0.159597 0.351224 0.586272
O O3 0.500000 0.500000 0.000000
O O4 0.949341 0.240734 0.787693
O O5 0.890282 0.159461 0.284273
O O6 0.308571 0.052307 0.934501
O O7 0.500831 0.799799 0.884821
O O8 0.445628 0.640318 0.218401
O O9 0.475636 0.974346 0.293494
O O10 0.045762 0.586468 0.882129
O O11 0.000000 0.500000 0.500000
O O12 0.955374 0.391705 0.614979
O O13 0.547719 0.376715 0.283503
O O14 0.547385 0.191241 0.582504
O O15 0.500000 0.000000 0.500000
O O16 0.000000 0.500000 0.000000
#
# Coordination Sequence:
#
# PCOD8037723 Si02
#       7
#     2   2   2   2   2   2   2
#     4  12  28  47  74 111 150 189 245 312 375 437
#     4  12  26  48  75 106 148 191 249 296 369 453
#     4  12  27  48  75 107 148 197 249 303 368 447
#     4  12  26  47  77 110 146 196 249 304 369 446
#     4  12  26  47  76 111 148 194 245 312 375 432
#     4  12  28  48  75 106 149 199 245 298 371 451
#     4  12  27  48  74 110 150 192 248 311 371 434
#
# _framework density 23.222282
#
# number of rings (size 3 to 8) (size 9 to 14) (size 15 to 20)
#    0.000    0.000    2.857    6.857    8.000    2.286 
#    0.000    0.000    0.000    0.000    0.000    0.000 
#    0.000    0.000    0.000    0.000    0.000    0.000 
#
# Total GULP energy -173536.593657 kJ/mol
# GULP energy per Si atom -12395.470976 kJ/mol
# Density = 2.316943 g / cm^3
# Si number density = 23.222282 Si / 1000 Ang^3
#
#
#
# Elastic Constant Matrix: (Units=GPa)
#
#
# Indices 1 2 3 4 5 6 
#
# 1 93.4053 41.0256 34.1931 -0.6567 -12.9954 10.9414
# 2 41.0256 127.7777 57.6787 11.2470 -4.3035 20.8679
# 3 34.1931 57.6787 110.2533 2.1851 7.7981 8.2055
# 4 -0.6567 11.2470 2.1851 43.4737 -4.7078 5.8482
# 5 -12.9954 -4.3035 7.7981 -4.7078 63.8437 -6.7085
# 6 10.9414 20.8679 8.2055 5.8482 -6.7085 42.8077
#
#
#
# Elastic Compliance Matrix: (Units=1/GPa)
#
#
# Indices 1 2 3 4 5 6 
#
# 1 0.013587 -0.002921 -0.002828 0.001588 0.002898 -0.001270
# 2 -0.002921 0.011830 -0.004979 -0.002328 0.000250 -0.003709
# 3 -0.002828 -0.004979 0.012694 0.000307 -0.002408 0.000297
# 4 0.001588 -0.002328 0.000307 0.024111 0.001658 -0.002364
# 5 0.002898 0.000250 -0.002408 0.001658 0.016899 0.002021
# 6 -0.001270 -0.003709 0.000297 -0.002364 0.002021 0.026075
#
#
# Mechanical properties :
#
#
# Convention : Reuss Voigt Hill
#
# Bulk Modulus (GPa) = 60.03558 66.35900 63.19729
# Shear Modulus (GPa) = 37.82076 43.26097 40.54087
#
# Velocity S-wave (km/s) = 4.04002 4.32082 4.18278
# Velocity P-wave (km/s) = 6.90442 7.31644 7.11342
#
# Compressibility (1/GPa) = 0.01665679
#
# Stress axis : x y z
#
# Youngs Moduli (GPa) = 73.59914 84.52887 78.77954
#
# Poissons Ratio (x) = 0.24689 0.22277
# Poissons Ratio (y) = 0.21496 0.39221
# Poissons Ratio (z) = 0.20812 0.42084
#
# Static dielectric constant tensor:
#      x y z
#    x 4.407820 -0.170040 0.139080 
#    y -0.170040 4.183070 -0.013060 
#    z 0.139080 -0.013060 4.654630 
# 
# 
# High freq. dielectric constant tensor:
#      x y z
#    x 1.925320 -0.000530 0.011340 
#    y -0.000530 1.926220 -0.001470 
#    z 0.011340 -0.001470 1.941890 
# 
# From -- ./inp_files/72028.got.cif
#   From: 2010.06.25/outbox.cif.g09.slc.cpg/sg2_37_cif.got.tgz:72028.got - 2010.06.27 13:26:56.
