data_PCOD8037026
_publ_section_title
;
Structure prediction by ZEFSAII (Michael W. Deem and Ramdas Pophale) SiO2 
 PCOD8037026
Probable space group: P -1
;
_chemical_formula_sum "Si O2"
_cell_formula_units_Z 16
_cell_length_a 13.083306
_cell_length_b 13.492363
_cell_length_c 18.005205
_cell_angle_alpha 31.969707
_cell_angle_beta 151.743380
_cell_angle_gamma 129.045780
_cell_volume 704.086835
_symmetry_space_group_name_H-M "P -1"
_symmetry_group_IT_number 2
_symmetry_cell_setting 'triclinic'
loop_
_space_group_symop_operation_xyz
x,y,z
-x,-y,-z
loop_
_atom_site_type_symbol
_atom_site_label
_atom_site_fract_x
_atom_site_fract_y
_atom_site_fract_z
Si Si1 0.743397 0.178885 0.247635
Si Si2 0.434816 0.976456 0.120531
Si Si3 0.963114 0.654231 0.446425
Si Si4 0.724408 0.595859 0.940832
Si Si5 0.269193 0.837690 0.243187
Si Si6 0.761837 0.723560 0.723862
Si Si7 0.725416 0.156374 0.417428
Si Si8 0.827709 0.545826 0.582568
O O1 0.752367 0.234340 0.303964
O O2 0.544706 0.099984 0.160789
O O3 0.675707 0.394938 0.022854
O O4 0.000000 0.000000 0.500000
O O5 0.276679 0.916397 0.114539
O O6 0.627167 0.780391 0.322620
O O7 0.283000 0.130516 0.859414
O O8 0.959705 0.539389 0.593555
O O9 0.000000 0.500000 0.500000
O O10 0.169465 0.731142 0.530451
O O11 0.677511 0.719982 0.755440
O O12 0.553548 0.757794 0.791083
O O13 0.995591 0.521056 0.191090
O O14 0.516681 0.802005 0.466994
O O15 0.296336 0.604705 0.406460
O O16 0.000000 0.000000 0.000000
O O17 0.855421 0.900271 0.664903
O O18 0.000000 0.500000 0.000000
#
# Coordination Sequence:
#
# PCOD8037026 Si02
#       8
#     2   2   2   2   2   2   2   2
#     4  12  23  47  75 105 143 188 241 303 363 432
#     4  12  26  47  74 105 145 193 241 295 367 436
#     4  12  28  46  72 107 145 190 243 298 364 432
#     4  12  26  44  75 106 144 188 242 303 363 428
#     4  12  28  48  75 107 152 195 242 301 368 439
#     4  12  28  49  77 108 145 194 251 301 365 434
#     4  12  26  47  73 104 145 188 243 301 358 434
#     4  12  27  47  71 107 147 190 240 300 368 433
#
# _framework density 22.72447
#
# number of rings (size 3 to 8) (size 9 to 14) (size 15 to 20)
#    0.000    0.000    3.750    5.250   10.500    0.000 
#    0.000    0.000    0.000    0.000    0.000    0.000 
#    0.000    0.000    0.000    0.000    0.000    0.000 
#
# Total GULP energy -198413.342049 kJ/mol
# GULP energy per Si atom -12400.833878 kJ/mol
# Density = 2.267275 g / cm^3
# Si number density = 22.724470 Si / 1000 Ang^3
#
#
#
# Elastic Constant Matrix: (Units=GPa)
#
#
# Indices 1 2 3 4 5 6 
#
# 1 86.1346 8.6805 -5.5446 16.9561 -11.0541 2.5951
# 2 8.6805 145.3528 10.0213 0.5318 -14.9569 5.4263
# 3 -5.5446 10.0213 76.7044 21.6708 -5.9403 -1.2865
# 4 16.9561 0.5318 21.6708 11.3547 13.2479 -0.6824
# 5 -11.0541 -14.9569 -5.9403 13.2479 38.7468 -7.2788
# 6 2.5951 5.4263 -1.2865 -0.6824 -7.2788 34.2555
#
#
#
# Elastic Compliance Matrix: (Units=1/GPa)
#
#
# Indices 1 2 3 4 5 6 
#
# 1 0.001436 -0.000890 -0.011929 0.038576 -0.015505 -0.002942
# 2 -0.000890 0.007217 -0.001338 0.001578 0.001647 -0.000744
# 3 -0.011929 -0.001338 -0.002637 0.047164 -0.020917 -0.002488
# 4 0.038576 0.001578 0.047164 -0.138506 0.068140 0.010319
# 5 -0.015505 0.001647 -0.020917 0.068140 -0.004379 0.000555
# 6 -0.002942 -0.000744 -0.002488 0.010319 0.000555 0.029763
#
#
# Mechanical properties :
#
#
# Convention : Reuss Voigt Hill
#
# Bulk Modulus (GPa) = -44.84890 37.16735 -3.84077
# Shear Modulus (GPa) = -57.98821 36.54037 -10.72392
#
# Velocity S-wave (km/s) = -5.05701 4.01431 -2.17471
# Velocity P-wave (km/s) = 7.34007 6.15446 2.82836
#
# Compressibility (1/GPa) = -0.02229709
#
# Stress axis : x y z
#
# Youngs Moduli (GPa) = 696.18839 138.56649 -379.23873
#
# Poissons Ratio (x) = 0.12334 -4.52384
# Poissons Ratio (y) = 0.61970 -0.50736
# Poissons Ratio (z) = 8.30464 0.18538
#
# Static dielectric constant tensor:
#      x y z
#    x 4.065690 0.039000 -0.032540 
#    y 0.039000 4.089240 -0.252750 
#    z -0.032540 -0.252750 4.347730 
# 
# 
# High freq. dielectric constant tensor:
#      x y z
#    x 1.903460 0.002920 0.001100 
#    y 0.002920 1.912000 -0.011920 
#    z 0.001100 -0.011920 1.908550 
# 
# From -- ./inp_files/285870.got.cif
#   From: 2010.06.25/outbox.cif.g09.slc.cpg/sg2_143_cif.got.tgz:285870.got - 2010.06.27 13:26:56.
