data_PCOD8037614
_publ_section_title
;
Structure prediction by ZEFSAII (Michael W. Deem and Ramdas Pophale) SiO2 
 PCOD8037614
Probable space group: P -1
;
_chemical_formula_sum "Si O2"
_cell_formula_units_Z 14
_cell_length_a 8.344330
_cell_length_b 20.572063
_cell_length_c 9.476748
_cell_angle_alpha 133.586818
_cell_angle_beta 31.675418
_cell_angle_gamma 130.593213
_cell_volume 609.942505
_symmetry_space_group_name_H-M "P -1"
_symmetry_group_IT_number 2
_symmetry_cell_setting 'triclinic'
loop_
_space_group_symop_operation_xyz
x,y,z
-x,-y,-z
loop_
_atom_site_type_symbol
_atom_site_label
_atom_site_fract_x
_atom_site_fract_y
_atom_site_fract_z
Si Si1 0.507448 0.333772 0.904741
Si Si2 0.390129 0.770826 0.879321
Si Si3 0.722059 0.052588 0.298830
Si Si4 0.665035 0.022889 0.768820
Si Si5 0.092390 0.248968 0.320662
Si Si6 0.692982 0.681501 0.290853
Si Si7 0.350904 0.494859 0.757225
O O1 0.415867 0.339715 0.819158
O O2 0.866798 0.322085 0.623919
O O3 0.257000 0.254995 0.051590
O O4 0.481023 0.424137 0.147425
O O5 0.634946 0.735525 0.746367
O O6 0.518102 0.760166 0.607665
O O7 0.349915 0.873020 0.103865
O O8 0.061359 0.708631 0.056660
O O9 0.860467 0.155603 0.384105
O O10 0.500000 0.000000 0.500000
O O11 0.518770 0.049683 0.307884
O O12 0.000000 0.000000 0.000000
O O13 0.000000 0.000000 0.500000
O O14 0.500000 0.000000 0.000000
O O15 0.597023 0.594958 0.333223
O O16 0.500000 0.500000 0.500000
O O17 0.000000 0.500000 0.000000
#
# Coordination Sequence:
#
# PCOD8037614 Si02
#       7
#     2   2   2   2   2   2   2
#     4  12  27  46  73 110 142 185 230 298 350 415
#     4  12  26  47  71 105 141 193 237 287 354 424
#     4  12  26  48  70 103 138 191 241 295 347 413
#     4  12  28  46  71 102 145 185 239 297 358 413
#     4  12  26  46  74 102 144 188 244 285 353 422
#     4  12  27  46  74 107 148 181 233 294 351 418
#     4  12  25  48  76 107 141 187 233 280 352 426
#
# _framework density 22.952983
#
# number of rings (size 3 to 8) (size 9 to 14) (size 15 to 20)
#    0.000    0.000    1.429    9.000    8.000    0.000 
#    0.000    4.286    0.000    0.000    0.000    0.000 
#    0.000    0.000    0.000    0.000    0.000    0.000 
#
# Total GULP energy -173602.527858 kJ/mol
# GULP energy per Si atom -12400.180561 kJ/mol
# Density = 2.290074 g / cm^3
# Si number density = 22.952983 Si / 1000 Ang^3
#
#
#
# Elastic Constant Matrix: (Units=GPa)
#
#
# Indices 1 2 3 4 5 6 
#
# 1 153.7923 56.6862 71.8706 -9.5467 4.5028 8.8757
# 2 56.6862 99.2830 45.3781 -13.8442 3.2742 5.7639
# 3 71.8706 45.3781 178.6263 -24.4012 -2.3270 2.1947
# 4 -9.5467 -13.8442 -24.4012 46.9962 -2.3685 3.4426
# 5 4.5028 3.2742 -2.3270 -2.3685 55.2577 -2.9361
# 6 8.8757 5.7639 2.1947 3.4426 -2.9361 39.8935
#
#
#
# Elastic Compliance Matrix: (Units=1/GPa)
#
#
# Indices 1 2 3 4 5 6 
#
# 1 0.009375 -0.004054 -0.002831 -0.000699 -0.000744 -0.001339
# 2 -0.004054 0.013478 -0.001448 0.002459 -0.000488 -0.001214
# 3 -0.002831 -0.001448 0.007511 0.002920 0.000770 0.000231
# 4 -0.000699 0.002459 0.002920 0.023594 0.000922 -0.002329
# 5 -0.000744 -0.000488 0.000770 0.000922 0.018336 0.001464
# 6 -0.001339 -0.001214 0.000231 -0.002329 0.001464 0.025836
#
#
# Mechanical properties :
#
#
# Convention : Reuss Voigt Hill
#
# Bulk Modulus (GPa) = 73.00290 86.61903 79.81097
# Shear Modulus (GPa) = 41.88854 45.61391 43.75123
#
# Velocity S-wave (km/s) = 4.27660 4.46272 4.37065
# Velocity P-wave (km/s) = 7.50068 8.02334 7.76641
#
# Compressibility (1/GPa) = 0.01369809
#
# Stress axis : x y z
#
# Youngs Moduli (GPa) = 106.66418 74.19251 133.13128
#
# Poissons Ratio (x) = 0.30079 0.37689
# Poissons Ratio (y) = 0.43243 0.19282
# Poissons Ratio (z) = 0.30196 0.10746
#
# Static dielectric constant tensor:
#      x y z
#    x 4.285920 -0.018930 -0.087990 
#    y -0.018930 3.940390 -0.456820 
#    z -0.087990 -0.456820 4.586080 
# 
# 
# High freq. dielectric constant tensor:
#      x y z
#    x 1.918010 0.004180 -0.000460 
#    y 0.004180 1.913900 -0.007330 
#    z -0.000460 -0.007330 1.933600 
# 
# From -- ./inp_files/223982.got.cif
#   From: 2010.06.25/outbox.cif.g09.slc.cpg/sg2_112_cif.got.tgz:223982.got - 2010.06.27 13:26:56.
