data_PCOD8037923
_publ_section_title
;
Structure prediction by ZEFSAII (Michael W. Deem and Ramdas Pophale) SiO2 
 PCOD8037923
Probable space group: P -1
;
_chemical_formula_sum "Si O2"
_cell_formula_units_Z 16
_cell_length_a 12.565122
_cell_length_b 8.904353
_cell_length_c 26.946379
_cell_angle_alpha 45.808985
_cell_angle_beta 26.344207
_cell_angle_gamma 64.000949
_cell_volume 777.661575
_symmetry_space_group_name_H-M "P -1"
_symmetry_group_IT_number 2
_symmetry_cell_setting 'triclinic'
loop_
_space_group_symop_operation_xyz
x,y,z
-x,-y,-z
loop_
_atom_site_type_symbol
_atom_site_label
_atom_site_fract_x
_atom_site_fract_y
_atom_site_fract_z
Si Si1 0.309340 0.065211 0.968326
Si Si2 0.182227 0.777298 0.663227
Si Si3 0.678356 0.671865 0.188691
Si Si4 0.281212 0.855035 0.345799
Si Si5 0.129184 0.192344 0.556688
Si Si6 0.180500 0.422539 0.663915
Si Si7 0.046351 0.572297 0.345932
Si Si8 0.201761 0.713154 0.008860
O O1 0.253785 0.245103 0.916725
O O2 0.600164 0.247825 0.837837
O O3 0.350859 0.880930 0.958376
O O4 0.027559 0.879890 0.164169
O O5 0.215660 0.601922 0.652646
O O6 0.962807 0.590395 0.842626
O O7 0.500000 0.000000 0.500000
O O8 0.031917 0.901430 0.671412
O O9 0.483053 0.757139 0.273508
O O10 0.470023 0.361626 0.355800
O O11 0.981056 0.784090 0.065852
O O12 0.055330 0.775292 0.414072
O O13 0.096206 0.715637 0.505189
O O14 0.524205 0.171163 0.172083
O O15 0.093265 0.294123 0.600545
O O16 0.500000 0.500000 0.500000
O O17 0.034297 0.468597 0.668498
#
# Coordination Sequence:
#
# PCOD8037923 Si02
#       8
#     2   2   2   2   2   2   2   2
#     4  10  19  36  57  88 118 150 194 240 291 339
#     4  11  23  41  59  84 123 157 193 242 295 348
#     4  10  17  32  59  90 119 146 199 247 282 334
#     4  10  19  33  59  95 114 148 198 242 290 341
#     4  11  19  36  65  88 118 153 193 242 295 347
#     4  11  26  39  59  87 114 159 201 236 293 350
#     4  11  20  38  62  88 121 148 191 245 292 349
#     4  10  20  32  57  92 118 149 202 241 286 335
#
# _framework density 20.574501000000001
#
# number of rings (size 3 to 8) (size 9 to 14) (size 15 to 20)
#    0.000    1.500    5.000    3.375    7.000    0.500 
#    0.000    0.625    0.000    1.500    0.000    0.000 
#    0.000    0.000    0.000    0.000    0.000    0.000 
#
# Total GULP energy -198283.025272 kJ/mol
# GULP energy per Si atom -12392.689079 kJ/mol
# Density = 2.052767 g / cm^3
# Si number density = 20.574501 Si / 1000 Ang^3
#
#
#
# Elastic Constant Matrix: (Units=GPa)
#
#
# Indices 1 2 3 4 5 6 
#
# 1 107.6098 10.9583 49.6937 -10.2706 -1.9946 3.0343
# 2 10.9583 39.6310 26.5511 -13.3914 6.9531 -6.1234
# 3 49.6937 26.5511 189.0765 -26.3225 7.7862 2.4407
# 4 -10.2706 -13.3914 -26.3225 26.7869 -7.2458 2.3849
# 5 -1.9946 6.9531 7.7862 -7.2458 39.0223 -7.4696
# 6 3.0343 -6.1234 2.4407 2.3849 -7.4696 19.0973
#
#
#
# Elastic Compliance Matrix: (Units=1/GPa)
#
#
# Indices 1 2 3 4 5 6 
#
# 1 0.010776 -0.001252 -0.002473 0.001552 0.001269 -0.001495
# 2 -0.001252 0.033177 -0.002679 0.012280 -0.001421 0.009090
# 3 -0.002473 -0.002679 0.007013 0.004634 -0.000605 -0.002178
# 4 0.001552 0.012280 0.004634 0.050357 0.006168 -0.000778
# 5 0.001269 -0.001421 -0.000605 0.006168 0.029133 0.010045
# 6 -0.001495 0.009090 -0.002178 -0.000778 0.010045 0.059820
#
#
# Mechanical properties :
#
#
# Convention : Reuss Voigt Hill
#
# Bulk Modulus (GPa) = 26.20709 56.74704 41.47707
# Shear Modulus (GPa) = 23.16907 33.58892 28.37900
#
# Velocity S-wave (km/s) = 3.35939 4.04487 3.71796
# Velocity P-wave (km/s) = 5.27377 7.03248 6.21564
#
# Compressibility (1/GPa) = 0.03815761
#
# Stress axis : x y z
#
# Youngs Moduli (GPa) = 92.79604 30.14140 142.58556
#
# Poissons Ratio (x) = 0.03774 0.35267
# Poissons Ratio (y) = 0.11618 0.38201
# Poissons Ratio (z) = 0.22952 0.08075
#
# Static dielectric constant tensor:
#      x y z
#    x 3.754130 -0.244760 0.194170 
#    y -0.244760 3.234950 -0.506610 
#    z 0.194170 -0.506610 4.774980 
# 
# 
# High freq. dielectric constant tensor:
#      x y z
#    x 1.811120 -0.023650 -0.002510 
#    y -0.023650 1.732200 -0.029760 
#    z -0.002510 -0.029760 1.841220 
# 
# From -- ./inp_files/279402.got.cif
#   From: 2010.06.25/outbox.cif.g09.slc.cpg/sg2_140_cif.got.tgz:279402.got - 2010.06.27 13:26:56.
