data_PCOD8037160
_publ_section_title
;
Structure prediction by ZEFSAII (Michael W. Deem and Ramdas Pophale) SiO2 
 PCOD8037160
Probable space group: P -1
;
_chemical_formula_sum "Si O2"
_cell_formula_units_Z 14
_cell_length_a 8.370033
_cell_length_b 17.573283
_cell_length_c 22.967897
_cell_angle_alpha 158.110791
_cell_angle_beta 148.897788
_cell_angle_gamma 42.105030
_cell_volume 625.868583
_symmetry_space_group_name_H-M "P -1"
_symmetry_group_IT_number 2
_symmetry_cell_setting 'triclinic'
loop_
_space_group_symop_operation_xyz
x,y,z
-x,-y,-z
loop_
_atom_site_type_symbol
_atom_site_label
_atom_site_fract_x
_atom_site_fract_y
_atom_site_fract_z
Si Si1 0.786622 0.912635 0.817503
Si Si2 0.872301 0.064789 0.675350
Si Si3 0.896258 0.414762 0.344732
Si Si4 0.891696 0.333128 0.522632
Si Si5 0.165097 0.405247 0.103673
Si Si6 0.914073 0.799290 0.287724
Si Si7 0.216854 0.678833 0.961990
O O1 0.462982 0.741526 0.614839
O O2 0.022037 0.808112 0.781153
O O3 0.703469 0.096077 0.885066
O O4 0.000000 0.000000 0.000000
O O5 0.063334 0.129226 0.721157
O O6 0.500000 0.000000 0.500000
O O7 0.969025 0.864143 0.589172
O O8 0.951753 0.256978 0.882642
O O9 0.527559 0.395528 0.201365
O O10 0.000000 0.500000 0.500000
O O11 0.114887 0.547701 0.455762
O O12 0.114598 0.486779 0.748388
O O13 0.144530 0.647259 0.263087
O O14 0.052912 0.327781 0.078434
O O15 0.543490 0.666438 0.087574
O O16 0.000000 0.000000 0.500000
#
# Coordination Sequence:
#
# PCOD8037160 Si02
#       7
#     2   2   2   2   2   2   2
#     4  12  26  48  74 103 141 194 246 285 351 428
#     4  12  24  44  73 106 147 183 233 304 361 420
#     4  12  28  44  72 104 147 188 234 301 354 415
#     4  12  25  49  73 105 143 192 243 288 356 430
#     4  12  27  46  70 112 143 185 239 298 364 420
#     4  12  25  47  75 105 144 188 241 291 358 438
#     4  12  26  47  76 104 142 191 242 291 356 432
#
# _framework density 22.368914
#
# number of rings (size 3 to 8) (size 9 to 14) (size 15 to 20)
#    0.000    0.000    2.857    7.286    6.000    0.571 
#    0.000    0.000    0.000    0.000    0.000    0.000 
#    0.000    0.000    0.000    0.000    0.000    0.000 
#
# Total GULP energy -173639.248466 kJ/mol
# GULP energy per Si atom -12402.803462 kJ/mol
# Density = 2.231800 g / cm^3
# Si number density = 22.368914 Si / 1000 Ang^3
#
#
#
# Elastic Constant Matrix: (Units=GPa)
#
#
# Indices 1 2 3 4 5 6 
#
# 1 112.0474 26.6443 50.6446 6.7713 -16.5962 6.4767
# 2 26.6443 99.2648 48.7607 -4.4058 0.9553 -25.3220
# 3 50.6446 48.7607 150.6400 -5.3944 -25.7669 -8.0924
# 4 6.7713 -4.4058 -5.3944 34.2864 -0.5259 -3.4005
# 5 -16.5962 0.9553 -25.7669 -0.5259 54.2699 -1.0878
# 6 6.4767 -25.3220 -8.0924 -3.4005 -1.0878 51.9870
#
#
#
# Elastic Compliance Matrix: (Units=1/GPa)
#
#
# Indices 1 2 3 4 5 6 
#
# 1 0.011627 -0.002695 -0.002986 -0.003418 0.002084 -0.003406
# 2 -0.002695 0.014581 -0.003820 0.002452 -0.002731 0.006947
# 3 -0.002986 -0.003820 0.009586 0.001683 0.003726 0.000192
# 4 -0.003418 0.002452 0.001683 0.030809 0.000087 0.003899
# 5 0.002084 -0.002731 0.003726 0.000087 0.020870 -0.000568
# 6 -0.003406 0.006947 0.000192 0.003899 -0.000568 0.023316
#
#
# Mechanical properties :
#
#
# Convention : Reuss Voigt Hill
#
# Bulk Modulus (GPa) = 59.54604 68.22793 63.88698
# Shear Modulus (GPa) = 36.93048 43.83550 40.38299
#
# Velocity S-wave (km/s) = 4.06763 4.43161 4.25351
# Velocity P-wave (km/s) = 6.98130 7.53346 7.26263
#
# Compressibility (1/GPa) = 0.01679373
#
# Stress axis : x y z
#
# Youngs Moduli (GPa) = 86.00478 68.58237 104.31395
#
# Poissons Ratio (x) = 0.18483 0.31144
# Poissons Ratio (y) = 0.23178 0.39847
# Poissons Ratio (z) = 0.25677 0.26198
#
# Static dielectric constant tensor:
#      x y z
#    x 4.273830 -0.051710 0.091920 
#    y -0.051710 4.131720 0.002350 
#    z 0.091920 0.002350 4.165190 
# 
# 
# High freq. dielectric constant tensor:
#      x y z
#    x 1.896620 -0.007100 -0.004820 
#    y -0.007100 1.898370 0.000250 
#    z -0.004820 0.000250 1.891950 
# 
# From -- ./inp_files/24945.got.cif
#   From: 2010.06.25/outbox.cif.g09.slc.cpg/sg2_13_cif.got.tgz:24945.got - 2010.06.27 13:26:56.
