data_PCOD8037595
_publ_section_title
;
Structure prediction by ZEFSAII (Michael W. Deem and Ramdas Pophale) SiO2 
 PCOD8037595
Probable space group: P -1
;
_chemical_formula_sum "Si O2"
_cell_formula_units_Z 16
_cell_length_a 14.506994
_cell_length_b 8.302369
_cell_length_c 8.727727
_cell_angle_alpha 81.392501
_cell_angle_beta 57.607375
_cell_angle_gamma 116.853944
_cell_volume 676.464062
_symmetry_space_group_name_H-M "P -1"
_symmetry_group_IT_number 2
_symmetry_cell_setting 'triclinic'
loop_
_space_group_symop_operation_xyz
x,y,z
-x,-y,-z
loop_
_atom_site_type_symbol
_atom_site_label
_atom_site_fract_x
_atom_site_fract_y
_atom_site_fract_z
Si Si1 0.252196 0.094489 0.852659
Si Si2 0.207426 0.049122 0.253362
Si Si3 0.541021 0.880654 0.881150
Si Si4 0.024609 0.604254 0.118298
Si Si5 0.942430 0.599355 0.619464
Si Si6 0.763832 0.585824 0.321619
Si Si7 0.689010 0.538833 0.729129
Si Si8 0.488153 0.803595 0.577556
O O1 0.181540 0.189294 0.827338
O O2 0.399630 0.200103 0.617058
O O3 0.260435 0.135969 0.021294
O O4 0.161753 0.846113 0.952699
O O5 0.291252 0.975254 0.260729
O O6 0.242426 0.233865 0.301006
O O7 0.041375 0.848322 0.450348
O O8 0.506790 0.831066 0.739647
O O9 0.469432 0.650785 0.048743
O O10 0.500000 0.000000 0.000000
O O11 0.052928 0.462078 0.203962
O O12 0.890232 0.592400 0.275015
O O13 0.000000 0.500000 0.000000
O O14 0.784274 0.482817 0.720191
O O15 0.000000 0.500000 0.500000
O O16 0.673689 0.535360 0.560684
O O17 0.667349 0.409095 0.302180
O O18 0.500000 0.000000 0.500000
#
# Coordination Sequence:
#
# PCOD8037595 Si02
#       8
#     2   2   2   2   2   2   2   2
#     4  12  26  48  71 105 145 186 231 291 353 420
#     4  12  26  46  74 104 142 186 236 289 352 415
#     4  12  27  46  75 106 139 184 237 290 347 421
#     4  12  29  44  74 104 143 186 238 289 355 416
#     4  12  25  48  72 104 141 186 240 292 344 420
#     4  12  26  48  71 105 145 186 231 291 353 420
#     4  12  26  46  74 104 142 186 236 289 352 415
#     4  12  27  46  73 106 143 182 235 288 355 418
#
# _framework density 23.6524
#
# number of rings (size 3 to 8) (size 9 to 14) (size 15 to 20)
#    0.000    0.000    2.500    6.750   10.500    0.000 
#    0.000    0.000    0.000    0.000    0.000    0.000 
#    0.000    0.000    0.000    0.000    0.000    0.000 
#
# Total GULP energy -198217.316730 kJ/mol
# GULP energy per Si atom -12388.582296 kJ/mol
# Density = 2.359857 g / cm^3
# Si number density = 23.652400 Si / 1000 Ang^3
#
#
#
# Elastic Constant Matrix: (Units=GPa)
#
#
# Indices 1 2 3 4 5 6 
#
# 1 104.6104 11.0733 19.1841 5.2261 23.1513 3.8919
# 2 11.0733 92.1118 30.0860 9.4616 15.1893 0.7292
# 3 19.1841 30.0860 88.7715 -4.3863 34.5015 9.6368
# 4 5.2261 9.4616 -4.3863 38.5818 13.8039 8.9162
# 5 23.1513 15.1893 34.5015 13.8039 48.4958 4.2250
# 6 3.8919 0.7292 9.6368 8.9162 4.2250 43.8082
#
#
#
# Elastic Compliance Matrix: (Units=1/GPa)
#
#
# Indices 1 2 3 4 5 6 
#
# 1 0.010731 -0.000478 -0.000129 0.000563 -0.004994 -0.000550
# 2 -0.000478 0.012833 -0.004971 -0.004344 0.000832 0.001726
# 3 -0.000129 -0.004971 0.019759 0.009910 -0.014838 -0.004838
# 4 0.000563 -0.004344 0.009910 0.035339 -0.015332 -0.007872
# 5 -0.004994 0.000832 -0.014838 -0.015332 0.037385 0.003209
# 6 -0.000550 0.001726 -0.004838 -0.007872 0.003209 0.025204
#
#
# Mechanical properties :
#
#
# Convention : Reuss Voigt Hill
#
# Bulk Modulus (GPa) = 31.08705 45.13116 38.10911
# Shear Modulus (GPa) = 30.65051 41.18718 35.91885
#
# Velocity S-wave (km/s) = 3.60373 4.17748 3.90117
# Velocity P-wave (km/s) = 5.52156 6.51083 6.03649
#
# Compressibility (1/GPa) = 0.03216774
#
# Stress axis : x y z
#
# Youngs Moduli (GPa) = 93.18787 77.92422 50.60888
#
# Poissons Ratio (x) = 0.03725 0.00651
# Poissons Ratio (y) = 0.04454 0.25159
# Poissons Ratio (z) = 0.01198 0.38738
#
# Static dielectric constant tensor:
#      x y z
#    x 4.011280 -0.070820 0.043900 
#    y -0.070820 4.159910 0.111270 
#    z 0.043900 0.111270 4.057380 
# 
# 
# High freq. dielectric constant tensor:
#      x y z
#    x 1.950790 0.001740 0.006690 
#    y 0.001740 1.955350 0.005680 
#    z 0.006690 0.005680 1.945070 
# 
# From -- ./inp_files/298182.got.cif
#   From: 2010.06.25/outbox.cif.g09.slc.cpg/sg2_150_cif.got.tgz:298182.got - 2010.06.27 13:26:56.
