data_PCOD8037043
_publ_section_title
;
Structure prediction by ZEFSAII (Michael W. Deem and Ramdas Pophale) SiO2 
 PCOD8037043
Probable space group: P -1
;
_chemical_formula_sum "Si O2"
_cell_formula_units_Z 16
_cell_length_a 8.737828
_cell_length_b 14.730065
_cell_length_c 11.631899
_cell_angle_alpha 61.296675
_cell_angle_beta 66.163180
_cell_angle_gamma 116.823930
_cell_volume 713.637394
_symmetry_space_group_name_H-M "P -1"
_symmetry_group_IT_number 2
_symmetry_cell_setting 'triclinic'
loop_
_space_group_symop_operation_xyz
x,y,z
-x,-y,-z
loop_
_atom_site_type_symbol
_atom_site_label
_atom_site_fract_x
_atom_site_fract_y
_atom_site_fract_z
Si Si1 0.558620 0.843749 0.407188
Si Si2 0.890260 0.346265 0.692735
Si Si3 0.147198 0.791359 0.431039
Si Si4 0.815468 0.801002 0.979069
Si Si5 0.475674 0.609553 0.427627
Si Si6 0.413195 0.142100 0.140028
Si Si7 0.477040 0.470397 0.158034
Si Si8 0.336500 0.664962 0.812587
O O1 0.318445 0.787506 0.447386
O O2 0.588065 0.739376 0.416756
O O3 0.473808 0.808004 0.588635
O O4 0.860903 0.047833 0.171198
O O5 0.820190 0.215532 0.709505
O O6 0.000000 0.500000 0.500000
O O7 0.141590 0.446898 0.639983
O O8 0.618533 0.230201 0.918888
O O9 0.816235 0.622958 0.659968
O O10 0.254626 0.957922 0.330924
O O11 0.615674 0.722213 0.198485
O O12 0.728491 0.649951 0.040985
O O13 0.801280 0.879721 0.833123
O O14 0.500000 0.500000 0.500000
O O15 0.579270 0.260145 0.130540
O O16 0.516425 0.370885 0.236369
O O17 0.500000 0.500000 0.000000
O O18 0.000000 0.500000 0.000000
#
# Coordination Sequence:
#
# PCOD8037043 Si02
#       8
#     2   2   2   2   2   2   2   2
#     4  12  28  46  71 110 150 186 243 302 360 422
#     4  12  23  48  76 103 141 192 238 299 358 433
#     4  12  27  47  75 108 143 192 242 297 361 431
#     4  12  26  47  73 108 145 189 239 305 357 427
#     4  12  26  44  75 105 150 189 243 294 367 424
#     4  12  27  46  74 106 145 190 245 296 362 429
#     4  12  25  47  76 102 142 191 241 288 363 432
#     4  12  28  48  75 106 149 193 241 295 361 432
#
# _framework density 22.420351
#
# number of rings (size 3 to 8) (size 9 to 14) (size 15 to 20)
#    0.000    0.000    5.000    3.750    7.000    1.500 
#    0.000    0.000    0.000    0.000    0.000    0.000 
#    0.000    0.000    0.000    0.000    0.000    0.000 
#
# Total GULP energy -198352.250978 kJ/mol
# GULP energy per Si atom -12397.015686 kJ/mol
# Density = 2.236932 g / cm^3
# Si number density = 22.420351 Si / 1000 Ang^3
#
#
#
# Elastic Constant Matrix: (Units=GPa)
#
#
# Indices 1 2 3 4 5 6 
#
# 1 79.7799 29.8197 34.5521 -14.9420 -13.6865 -2.2861
# 2 29.8197 144.6330 38.0804 -4.9909 -4.7926 1.8479
# 3 34.5521 38.0804 88.0966 -1.4775 -5.6050 3.4394
# 4 -14.9420 -4.9909 -1.4775 44.9274 3.8365 4.2137
# 5 -13.6865 -4.7926 -5.6050 3.8365 39.4528 -3.5003
# 6 -2.2861 1.8479 3.4394 4.2137 -3.5003 35.7416
#
#
#
# Elastic Compliance Matrix: (Units=1/GPa)
#
#
# Indices 1 2 3 4 5 6 
#
# 1 0.017459 -0.001780 -0.005762 0.004864 0.004695 0.001650
# 2 -0.001780 0.008016 -0.002757 0.000243 -0.000086 -0.000300
# 3 -0.005762 -0.002757 0.014821 -0.001578 -0.000207 -0.001486
# 4 0.004864 0.000243 -0.001578 0.024178 -0.001081 -0.002506
# 5 0.004695 -0.000086 -0.000207 -0.001081 0.027318 0.003127
# 6 0.001650 -0.000300 -0.001486 -0.002506 0.003127 0.028844
#
#
# Mechanical properties :
#
#
# Convention : Reuss Voigt Hill
#
# Bulk Modulus (GPa) = 50.76495 57.49045 54.12770
# Shear Modulus (GPa) = 33.82919 38.02818 35.92868
#
# Velocity S-wave (km/s) = 3.88862 4.12290 4.00747
# Velocity P-wave (km/s) = 6.54625 6.95429 6.75335
#
# Compressibility (1/GPa) = 0.01969863
#
# Stress axis : x y z
#
# Youngs Moduli (GPa) = 57.27669 124.74675 67.47131
#
# Poissons Ratio (x) = 0.22207 0.38878
# Poissons Ratio (y) = 0.10196 0.18599
# Poissons Ratio (z) = 0.33004 0.34387
#
# Static dielectric constant tensor:
#      x y z
#    x 1.708690 0.616490 -2.710960 
#    y 0.616490 4.079100 0.704170 
#    z -2.710960 0.704170 1.439530 
# 
# 
# High freq. dielectric constant tensor:
#      x y z
#    x 1.893630 0.002730 -0.004830 
#    y 0.002730 1.898920 0.000480 
#    z -0.004830 0.000480 1.887960 
# 
# From -- ./inp_files/225815.got.cif
#   From: 2010.06.25/outbox.cif.g09.slc.cpg/sg2_113_cif.got.tgz:225815.got - 2010.06.27 13:26:56.
