data_PCOD8037199
_publ_section_title
;
Structure prediction by ZEFSAII (Michael W. Deem and Ramdas Pophale) SiO2 
 PCOD8037199
Probable space group: P -1
;
_chemical_formula_sum "Si O2"
_cell_formula_units_Z 12
_cell_length_a 10.708926
_cell_length_b 11.624338
_cell_length_c 5.280569
_cell_angle_alpha 102.638616
_cell_angle_beta 86.271311
_cell_angle_gamma 48.924635
_cell_volume 463.642977
_symmetry_space_group_name_H-M "P -1"
_symmetry_group_IT_number 2
_symmetry_cell_setting 'triclinic'
loop_
_space_group_symop_operation_xyz
x,y,z
-x,-y,-z
loop_
_atom_site_type_symbol
_atom_site_label
_atom_site_fract_x
_atom_site_fract_y
_atom_site_fract_z
Si Si1 0.210140 0.851333 0.943344
Si Si2 0.103232 0.171761 0.048899
Si Si3 0.594461 0.639432 0.826400
Si Si4 0.796681 0.553737 0.251483
Si Si5 0.208653 0.704185 0.367470
Si Si6 0.118212 0.245445 0.578748
O O1 0.391542 0.799118 0.947402
O O2 0.228618 0.774888 0.637768
O O3 0.070584 0.051570 0.041803
O O4 0.158377 0.805791 0.168715
O O5 0.208568 0.122643 0.748086
O O6 0.216262 0.155636 0.256169
O O7 0.920566 0.359272 0.114714
O O8 0.666808 0.632685 0.542060
O O9 0.614089 0.484203 0.779548
O O10 0.688139 0.641695 0.051235
O O11 0.912492 0.596557 0.291999
O O12 0.065154 0.696922 0.438646
#
# Coordination Sequence:
#
# PCOD8037199 Si02
#       6
#     2   2   2   2   2   2
#     4  12  28  45  70 104 148 176 233 282 358 412
#     4  12  24  46  69 108 136 182 230 298 339 400
#     4  12  25  47  70 106 136 191 226 285 348 416
#     4  12  24  47  76 102 134 182 244 283 339 415
#     4  12  24  45  73 101 138 190 228 283 339 426
#     4  12  25  44  75 104 136 181 240 285 341 410
#
# _framework density 25.881983000000002
#
# number of rings (size 3 to 8) (size 9 to 14) (size 15 to 20)
#    0.000    0.000    3.333    7.000    0.000    4.000 
#    0.000    5.000    0.000    0.000    0.000    0.000 
#    0.000    0.000    0.000    0.000    0.000    0.000 
#
# Total GULP energy -148760.254493 kJ/mol
# GULP energy per Si atom -12396.687874 kJ/mol
# Density = 2.582307 g / cm^3
# Si number density = 25.881983 Si / 1000 Ang^3
#
#
#
# Elastic Constant Matrix: (Units=GPa)
#
#
# Indices 1 2 3 4 5 6 
#
# 1 97.8564 33.4710 25.2883 5.6753 20.4108 8.8428
# 2 33.4710 77.6422 26.9386 -19.4492 4.1567 15.8751
# 3 25.2883 26.9386 147.1738 -48.6570 38.9310 -5.0431
# 4 5.6753 -19.4492 -48.6570 45.0409 3.2054 7.2073
# 5 20.4108 4.1567 38.9310 3.2054 40.4657 4.9413
# 6 8.8428 15.8751 -5.0431 7.2073 4.9413 34.4859
#
#
#
# Elastic Compliance Matrix: (Units=1/GPa)
#
#
# Indices 1 2 3 4 5 6 
#
# 1 0.014549 -0.007431 -0.002943 -0.008220 -0.003269 0.001446
# 2 -0.007431 0.020986 0.001101 0.012792 0.000787 -0.010380
# 3 -0.002943 0.001101 0.020672 0.024466 -0.020590 0.001108
# 4 -0.008220 0.012792 0.024466 0.058345 -0.024238 -0.008924
# 5 -0.003269 0.000787 -0.020590 -0.024238 0.048550 -0.004426
# 6 0.001446 -0.010380 0.001108 -0.008924 -0.004426 0.036066
#
#
# Mechanical properties :
#
#
# Convention : Reuss Voigt Hill
#
# Bulk Modulus (GPa) = 26.55245 54.89649 40.72447
# Shear Modulus (GPa) = 21.71386 39.79678 30.75532
#
# Velocity S-wave (km/s) = 2.89962 3.92551 3.45090
# Velocity P-wave (km/s) = 4.63591 6.46549 5.62558
#
# Compressibility (1/GPa) = 0.03766131
#
# Stress axis : x y z
#
# Youngs Moduli (GPa) = 68.73250 47.65150 48.37444
#
# Poissons Ratio (x) = 0.35408 0.14237
# Poissons Ratio (y) = 0.51072 -0.05325
# Poissons Ratio (z) = 0.20229 -0.05246
#
# Static dielectric constant tensor:
#      x y z
#    x 4.521590 0.176180 0.104400 
#    y 0.176180 4.817000 -0.444630 
#    z 0.104400 -0.444630 5.748650 
# 
# 
# High freq. dielectric constant tensor:
#      x y z
#    x 2.018270 0.018670 0.019100 
#    y 0.018670 2.029180 -0.030920 
#    z 0.019100 -0.030920 2.074900 
# 
# From -- ./inp_files/67598.got.cif
#   From: 2010.06.25/outbox.cif.g09.slc.cpg/sg2_34_cif.got.tgz:67598.got - 2010.06.27 13:26:56.
