data_PCOD8037488
_publ_section_title
;
Structure prediction by ZEFSAII (Michael W. Deem and Ramdas Pophale) SiO2 
 PCOD8037488
Probable space group: P -1
;
_chemical_formula_sum "Si O2"
_cell_formula_units_Z 16
_cell_length_a 11.633374
_cell_length_b 8.763036
_cell_length_c 9.354532
_cell_angle_alpha 86.348224
_cell_angle_beta 80.837476
_cell_angle_gamma 129.647882
_cell_volume 707.565505
_symmetry_space_group_name_H-M "P -1"
_symmetry_group_IT_number 2
_symmetry_cell_setting 'triclinic'
loop_
_space_group_symop_operation_xyz
x,y,z
-x,-y,-z
loop_
_atom_site_type_symbol
_atom_site_label
_atom_site_fract_x
_atom_site_fract_y
_atom_site_fract_z
Si Si1 0.046841 0.734942 0.674389
Si Si2 0.560921 0.141962 0.345821
Si Si3 0.763889 0.592030 0.302648
Si Si4 0.739990 0.058737 0.137605
Si Si5 0.239106 0.971367 0.359298
Si Si6 0.059934 0.682393 0.169348
Si Si7 0.551067 0.604272 0.139861
Si Si8 0.234641 0.313137 0.379865
O O1 0.010683 0.540985 0.762651
O O2 0.889863 0.684602 0.668727
O O3 0.156173 0.921660 0.754077
O O4 0.152934 0.802595 0.510738
O O5 0.698743 0.367164 0.358601
O O6 0.615882 0.074515 0.216079
O O7 0.500000 0.000000 0.500000
O O8 0.423934 0.132828 0.319432
O O9 0.664961 0.586624 0.198763
O O10 0.763580 0.679535 0.448653
O O11 0.936317 0.714004 0.202666
O O12 0.646219 0.844117 0.088412
O O13 0.863622 0.255869 0.004736
O O14 0.201145 0.847828 0.232399
O O15 0.183351 0.098244 0.361535
O O16 0.401285 0.503657 0.273597
O O17 0.500000 0.500000 0.000000
#
# Coordination Sequence:
#
# PCOD8037488 Si02
#       8
#     2   2   2   2   2   2   2   2
#     4  12  26  46  75 107 147 189 244 294 364 427
#     4  12  25  45  76 107 143 191 248 300 358 430
#     4  12  26  48  75 103 150 189 245 301 358 428
#     4  12  28  48  75 104 147 197 241 300 365 425
#     4  12  25  48  73 109 145 189 246 297 362 432
#     4  12  28  47  71 108 150 192 241 302 360 433
#     4  12  29  50  72 108 148 195 240 297 367 433
#     4  12  27  47  76 110 146 190 242 304 358 432
#
# _framework density 22.612749000000001
#
# number of rings (size 3 to 8) (size 9 to 14) (size 15 to 20)
#    0.000    0.000    5.000    3.750    7.000    1.000 
#    0.000    0.000    0.000    0.000    0.000    0.000 
#    0.000    0.000    0.000    0.000    0.000    0.000 
#
# Total GULP energy -198436.203440 kJ/mol
# GULP energy per Si atom -12402.262715 kJ/mol
# Density = 2.256128 g / cm^3
# Si number density = 22.612749 Si / 1000 Ang^3
#
#
#
# Elastic Constant Matrix: (Units=GPa)
#
#
# Indices 1 2 3 4 5 6 
#
# 1 125.4597 22.3782 67.7837 1.8225 -4.4170 16.8872
# 2 22.3782 90.8700 12.4998 2.4273 -2.7270 -2.6869
# 3 67.7837 12.4998 108.6693 -5.5619 -11.9435 -0.2565
# 4 1.8225 2.4273 -5.5619 47.9495 9.4064 0.0341
# 5 -4.4170 -2.7270 -11.9435 9.4064 38.5933 -0.8325
# 6 16.8872 -2.6869 -0.2565 0.0341 -0.8325 32.4362
#
#
#
# Elastic Compliance Matrix: (Units=1/GPa)
#
#
# Indices 1 2 3 4 5 6 
#
# 1 0.014153 -0.002512 -0.008743 -0.001196 -0.001137 -0.007674
# 2 -0.002512 0.011694 0.000286 -0.000628 0.000830 0.002301
# 3 -0.008743 0.000286 0.015085 0.001387 0.003453 0.004782
# 4 -0.001196 -0.000628 0.001387 0.022099 -0.005129 0.000427
# 5 -0.001137 0.000830 0.003453 -0.005129 0.028189 0.001417
# 6 -0.007674 0.002301 0.004782 0.000427 0.001417 0.035089
#
#
# Mechanical properties :
#
#
# Convention : Reuss Voigt Hill
#
# Bulk Modulus (GPa) = 52.64990 58.92471 55.78731
# Shear Modulus (GPa) = 32.34613 38.61829 35.48221
#
# Velocity S-wave (km/s) = 3.78622 4.13705 3.96551
# Velocity P-wave (km/s) = 6.51519 6.99535 6.75954
#
# Compressibility (1/GPa) = 0.01899339
#
# Stress axis : x y z
#
# Youngs Moduli (GPa) = 70.65719 85.51668 66.29132
#
# Poissons Ratio (x) = 0.21479 0.57961
# Poissons Ratio (y) = 0.17747 -0.01897
# Poissons Ratio (z) = 0.61779 -0.02447
#
# Static dielectric constant tensor:
#      x y z
#    x 4.952300 0.355420 -0.013440 
#    y 0.355420 4.241860 -0.026070 
#    z -0.013440 -0.026070 4.117810 
# 
# 
# High freq. dielectric constant tensor:
#      x y z
#    x 1.901520 0.011820 -0.002310 
#    y 0.011820 1.908550 -0.002380 
#    z -0.002310 -0.002380 1.896390 
# 
# From -- ./inp_files/190851.got.cif
#   From: 2010.06.25/outbox.cif.g09.slc.cpg/sg2_96_cif.got.tgz:190851.got - 2010.06.27 13:26:56.
