data_PCOD8037046
_publ_section_title
;
Structure prediction by ZEFSAII (Michael W. Deem and Ramdas Pophale) SiO2 
 PCOD8037046
Probable space group: P -1
;
_chemical_formula_sum "Si O2"
_cell_formula_units_Z 12
_cell_length_a 9.418529
_cell_length_b 14.440916
_cell_length_c 11.278970
_cell_angle_alpha 30.868672
_cell_angle_beta 53.838848
_cell_angle_gamma 39.999195
_cell_volume 495.220505
_symmetry_space_group_name_H-M "P -1"
_symmetry_group_IT_number 2
_symmetry_cell_setting 'triclinic'
loop_
_space_group_symop_operation_xyz
x,y,z
-x,-y,-z
loop_
_atom_site_type_symbol
_atom_site_label
_atom_site_fract_x
_atom_site_fract_y
_atom_site_fract_z
Si Si1 0.636353 0.319015 0.529714
Si Si2 0.842369 0.468847 0.819791
Si Si3 0.957627 0.045878 0.110321
Si Si4 0.321815 0.213117 0.773364
Si Si5 0.651834 0.944086 0.315614
Si Si6 0.778457 0.535145 0.041480
O O1 0.500000 0.500000 0.500000
O O2 0.454813 0.308862 0.562132
O O3 0.735958 0.399553 0.301592
O O4 0.832046 0.080433 0.763426
O O5 0.649954 0.742936 0.589769
O O6 0.089143 0.403557 0.748397
O O7 0.808762 0.424854 0.019043
O O8 0.810942 0.319061 0.911699
O O9 0.810914 0.962441 0.301543
O O10 0.000000 0.000000 0.000000
O O11 0.256847 0.130437 0.783409
O O12 0.500000 0.000000 0.000000
O O13 0.408629 0.189621 0.163036
O O14 0.000000 0.500000 0.000000
#
# Coordination Sequence:
#
# PCOD8037046 Si02
#       6
#     2   2   2   2   2   2
#     4  12  26  46  80 110 151 203 260 308 379 457
#     4  12  27  48  79 112 156 200 254 317 386 443
#     4  12  25  47  76 114 151 198 255 314 379 457
#     4  12  23  48  76 111 147 202 256 310 369 456
#     4  12  27  47  75 109 158 198 254 312 382 459
#     4  12  28  52  76 112 157 199 255 323 383 449
#
# _framework density 24.231629000000002
#
# number of rings (size 3 to 8) (size 9 to 14) (size 15 to 20)
#    0.000    0.000    3.333    7.000    4.667    1.333 
#    3.000    0.000    0.000    0.000    0.000    0.000 
#    0.000    0.000    0.000    0.000    0.000    0.000 
#
# Total GULP energy -148776.820440 kJ/mol
# GULP energy per Si atom -12398.068370 kJ/mol
# Density = 2.417648 g / cm^3
# Si number density = 24.231629 Si / 1000 Ang^3
#
#
#
# Elastic Constant Matrix: (Units=GPa)
#
#
# Indices 1 2 3 4 5 6 
#
# 1 106.3332 28.5680 48.4194 2.2936 -18.1143 16.5850
# 2 28.5680 115.9282 54.0582 10.4376 -1.0583 13.1598
# 3 48.4194 54.0582 140.0874 5.6527 -7.3262 13.7036
# 4 2.2936 10.4376 5.6527 51.3745 5.0435 5.3109
# 5 -18.1143 -1.0583 -7.3262 5.0435 45.7902 -0.9044
# 6 16.5850 13.1598 13.7036 5.3109 -0.9044 41.2864
#
#
#
# Elastic Compliance Matrix: (Units=1/GPa)
#
#
# Indices 1 2 3 4 5 6 
#
# 1 0.012491 -0.001089 -0.003331 -0.000036 0.004319 -0.003466
# 2 -0.001089 0.010913 -0.003645 -0.001536 -0.000625 -0.001648
# 3 -0.003331 -0.003645 0.009781 -0.000128 0.000163 -0.000727
# 4 -0.000036 -0.001536 -0.000128 0.020240 -0.002341 -0.002109
# 5 0.004319 -0.000625 0.000163 -0.002341 0.023801 -0.000767
# 6 -0.003466 -0.001648 -0.000727 -0.002109 -0.000767 0.026634
#
#
# Mechanical properties :
#
#
# Convention : Reuss Voigt Hill
#
# Bulk Modulus (GPa) = 58.62839 69.38221 64.00530
# Shear Modulus (GPa) = 39.78524 43.11042 41.44783
#
# Velocity S-wave (km/s) = 4.05640 4.22251 4.14029
# Velocity P-wave (km/s) = 6.79608 7.24347 7.02334
#
# Compressibility (1/GPa) = 0.01705658
#
# Stress axis : x y z
#
# Youngs Moduli (GPa) = 80.05998 91.62997 102.24123
#
# Poissons Ratio (x) = 0.09977 0.34054
# Poissons Ratio (y) = 0.08717 0.37263
# Poissons Ratio (z) = 0.26666 0.33395
#
# Static dielectric constant tensor:
#      x y z
#    x 3.634690 1.485910 -0.007810 
#    y 1.485910 3.080980 -0.177120 
#    z -0.007810 -0.177120 4.387310 
# 
# 
# High freq. dielectric constant tensor:
#      x y z
#    x 1.975400 0.002410 -0.005670 
#    y 0.002410 1.961330 -0.005130 
#    z -0.005670 -0.005130 1.973620 
# 
# From -- ./inp_files/398015.got.cif
#   From: 2010.06.25/outbox.cif.g09.slc.cpg/sg2_200_cif.got.tgz:398015.got - 2010.06.27 13:26:56.
