data_PCOD8037702
_publ_section_title
;
Structure prediction by ZEFSAII (Michael W. Deem and Ramdas Pophale) SiO2 
 PCOD8037702
Probable space group: P -1
;
_chemical_formula_sum "Si O2"
_cell_formula_units_Z 12
_cell_length_a 18.181363
_cell_length_b 12.606348
_cell_length_c 8.897643
_cell_angle_alpha 45.355576
_cell_angle_beta 132.097372
_cell_angle_gamma 158.579819
_cell_volume 528.861851
_symmetry_space_group_name_H-M "P -1"
_symmetry_group_IT_number 2
_symmetry_cell_setting 'triclinic'
loop_
_space_group_symop_operation_xyz
x,y,z
-x,-y,-z
loop_
_atom_site_type_symbol
_atom_site_label
_atom_site_fract_x
_atom_site_fract_y
_atom_site_fract_z
Si Si1 0.951163 0.847981 0.732400
Si Si2 0.681079 0.158023 0.675431
Si Si3 0.917853 0.299476 0.442744
Si Si4 0.348418 0.334136 0.323932
Si Si5 0.361448 0.226978 0.978712
Si Si6 0.290862 0.759361 0.024384
O O1 0.829902 0.786331 0.751453
O O2 0.820464 0.539881 0.805415
O O3 0.000000 0.000000 0.500000
O O4 0.159999 0.060256 0.868197
O O5 0.667924 0.123126 0.871054
O O6 0.882124 0.509283 0.549362
O O7 0.500000 0.000000 0.500000
O O8 0.690116 0.998905 0.791447
O O9 0.000000 0.500000 0.500000
O O10 0.758312 0.957096 0.598705
O O11 0.829227 0.288855 0.201926
O O12 0.500000 0.500000 0.500000
O O13 0.504550 0.616667 0.143385
O O14 0.500000 0.500000 0.000000
O O15 0.500000 0.000000 0.000000
#
# Coordination Sequence:
#
# PCOD8037702 Si02
#       6
#     2   2   2   2   2   2
#     4  12  26  46  77 107 144 195 240 302 373 437
#     4  12  27  48  75 105 146 197 246 305 368 436
#     4  12  26  48  75 110 147 191 247 306 368 442
#     4  12  26  47  77 108 148 194 246 302 372 444
#     4  12  28  48  72 109 150 188 246 305 368 442
#     4  12  26  47  73 105 146 189 247 302 367 438
#
# _framework density 22.690234
#
# number of rings (size 3 to 8) (size 9 to 14) (size 15 to 20)
#    0.000    0.000    3.333    6.500    4.667    0.667 
#    0.000    0.000    0.000    0.000    0.000    0.000 
#    0.000    0.000    0.000    0.000    0.000    0.000 
#
# Total GULP energy -148702.902766 kJ/mol
# GULP energy per Si atom -12391.908564 kJ/mol
# Density = 2.263859 g / cm^3
# Si number density = 22.690234 Si / 1000 Ang^3
#
#
#
# Elastic Constant Matrix: (Units=GPa)
#
#
# Indices 1 2 3 4 5 6 
#
# 1 113.6845 42.5725 24.9619 22.3931 10.1222 20.8170
# 2 42.5725 157.9779 45.8499 13.1581 18.0197 10.7891
# 3 24.9619 45.8499 112.3208 24.3491 20.3933 5.4254
# 4 22.3931 13.1581 24.3491 53.3040 -2.5184 2.2126
# 5 10.1222 18.0197 20.3933 -2.5184 42.0320 -0.2984
# 6 20.8170 10.7891 5.4254 2.2126 -0.2984 61.9998
#
#
#
# Elastic Compliance Matrix: (Units=1/GPa)
#
#
# Indices 1 2 3 4 5 6 
#
# 1 0.011220 -0.002183 -0.000224 -0.004029 -0.001922 -0.003233
# 2 -0.002183 0.007831 -0.002390 0.000014 -0.001674 -0.000429
# 3 -0.000224 -0.002390 0.011940 -0.004991 -0.005017 -0.000400
# 4 -0.004029 0.000014 -0.004991 0.022913 0.004765 0.000992
# 5 -0.001922 -0.001674 -0.005017 0.004765 0.027701 0.001339
# 6 -0.003233 -0.000429 -0.000400 0.000992 0.001339 0.017295
#
#
# Mechanical properties :
#
#
# Convention : Reuss Voigt Hill
#
# Bulk Modulus (GPa) = 46.73426 67.86132 57.29779
# Shear Modulus (GPa) = 43.24270 49.50709 46.37490
#
# Velocity S-wave (km/s) = 4.37027 4.67611 4.52577
# Velocity P-wave (km/s) = 6.79021 7.68943 7.25377
#
# Compressibility (1/GPa) = 0.02139758
#
# Stress axis : x y z
#
# Youngs Moduli (GPa) = 89.12958 127.69792 83.74874
#
# Poissons Ratio (x) = 0.27876 0.01875
# Poissons Ratio (y) = 0.19457 0.20015
# Poissons Ratio (z) = 0.01995 0.30519
#
# Static dielectric constant tensor:
#      x y z
#    x 4.136130 -0.050910 0.095670 
#    y -0.050910 4.401620 -0.099910 
#    z 0.095670 -0.099910 3.795240 
# 
# 
# High freq. dielectric constant tensor:
#      x y z
#    x 1.904270 0.006650 -0.003720 
#    y 0.006650 1.928420 -0.006100 
#    z -0.003720 -0.006100 1.903280 
# 
# From -- ./inp_files/148916.got.cif
#   From: 2010.06.25/outbox.cif.g09.slc.cpg/sg2_75_cif.got.tgz:148916.got - 2010.06.27 13:26:56.
