data_PCOD8037639
_publ_section_title
;
Structure prediction by ZEFSAII (Michael W. Deem and Ramdas Pophale) SiO2 
 PCOD8037639
Probable space group: P -1
;
_chemical_formula_sum "Si O2"
_cell_formula_units_Z 16
_cell_length_a 16.929808
_cell_length_b 17.698904
_cell_length_c 8.882407
_cell_angle_alpha 149.630237
_cell_angle_beta 41.068026
_cell_angle_gamma 148.337098
_cell_volume 704.412292
_symmetry_space_group_name_H-M "P -1"
_symmetry_group_IT_number 2
_symmetry_cell_setting 'triclinic'
loop_
_space_group_symop_operation_xyz
x,y,z
-x,-y,-z
loop_
_atom_site_type_symbol
_atom_site_label
_atom_site_fract_x
_atom_site_fract_y
_atom_site_fract_z
Si Si1 0.154994 0.547303 0.122793
Si Si2 0.305654 0.470913 0.549724
Si Si3 0.800137 0.913457 0.837851
Si Si4 0.136673 0.550142 0.706324
Si Si5 0.351703 0.946402 0.545048
Si Si6 0.648332 0.040939 0.792709
Si Si7 0.345903 0.256919 0.560790
Si Si8 0.108312 0.320775 0.075476
O O1 0.222264 0.740747 0.445397
O O2 0.080753 0.370261 0.035337
O O3 0.033692 0.523145 0.135528
O O4 0.297321 0.582880 0.890557
O O5 0.207835 0.256035 0.371353
O O6 0.208791 0.466121 0.545493
O O7 0.480322 0.569964 0.430663
O O8 0.745142 0.870893 0.672073
O O9 0.681665 0.913889 0.109989
O O10 0.968886 0.105814 0.942404
O O11 0.127612 0.478384 0.426361
O O12 0.225606 0.770554 0.977515
O O13 0.350628 0.940208 0.355371
O O14 0.500000 0.000000 0.500000
O O15 0.658822 0.874171 0.531001
O O16 0.500000 0.000000 0.000000
O O17 0.263572 0.341480 0.890594
#
# Coordination Sequence:
#
# PCOD8037639 Si02
#       8
#     2   2   2   2   2   2   2   2
#     4  12  25  49  73 106 147 197 247 300 368 429
#     4  12  27  47  75 106 149 195 243 307 370 430
#     4  12  27  49  71 112 148 195 248 297 373 437
#     4  12  27  47  73 106 146 193 247 302 361 441
#     4  12  28  45  78 109 145 195 246 306 362 441
#     4  12  26  48  74 109 147 191 245 304 370 429
#     4  12  27  49  75 110 151 192 245 305 370 435
#     4  12  29  47  75 108 150 201 240 305 365 441
#
# _framework density 22.71397
#
# number of rings (size 3 to 8) (size 9 to 14) (size 15 to 20)
#    0.000    0.000    5.000    3.750    8.750    1.000 
#    0.000    0.000    0.000    0.000    0.000    0.000 
#    0.000    0.000    0.000    0.000    0.000    0.000 
#
# Total GULP energy -198335.933767 kJ/mol
# GULP energy per Si atom -12395.995860 kJ/mol
# Density = 2.266227 g / cm^3
# Si number density = 22.713970 Si / 1000 Ang^3
#
#
#
# Elastic Constant Matrix: (Units=GPa)
#
#
# Indices 1 2 3 4 5 6 
#
# 1 112.4800 48.9900 22.6283 7.7402 -12.6477 1.1273
# 2 48.9900 104.3373 20.6945 8.4182 -0.3379 4.0234
# 3 22.6283 20.6945 84.5434 -4.8075 -1.6445 -2.5731
# 4 7.7402 8.4182 -4.8075 36.1016 6.1825 -5.1270
# 5 -12.6477 -0.3379 -1.6445 6.1825 37.8462 0.4950
# 6 1.1273 4.0234 -2.5731 -5.1270 0.4950 41.0105
#
#
#
# Elastic Compliance Matrix: (Units=1/GPa)
#
#
# Indices 1 2 3 4 5 6 
#
# 1 0.012187 -0.005080 -0.002086 -0.002498 0.004349 -0.000332
# 2 -0.005080 0.012567 -0.001904 -0.002077 -0.001310 -0.001457
# 3 -0.002086 -0.001904 0.013051 0.002944 -0.000647 0.001439
# 4 -0.002498 -0.002077 0.002944 0.030726 -0.005802 0.004368
# 5 0.004349 -0.001310 -0.000647 -0.005802 0.028799 -0.001105
# 6 -0.000332 -0.001457 0.001439 0.004368 -0.001105 0.025186
#
#
# Mechanical properties :
#
#
# Convention : Reuss Voigt Hill
#
# Bulk Modulus (GPa) = 50.85321 53.99849 52.42585
# Shear Modulus (GPa) = 33.96493 36.92817 35.44655
#
# Velocity S-wave (km/s) = 3.87115 4.03648 3.95468
# Velocity P-wave (km/s) = 6.51292 6.74901 6.63202
#
# Compressibility (1/GPa) = 0.01966444
#
# Stress axis : x y z
#
# Youngs Moduli (GPa) = 82.05488 79.57484 76.62042
#
# Poissons Ratio (x) = 0.40424 0.15983
# Poissons Ratio (y) = 0.41684 0.14591
# Poissons Ratio (z) = 0.17116 0.15154
#
# Static dielectric constant tensor:
#      x y z
#    x 4.212780 0.049660 -0.038850 
#    y 0.049660 4.011970 -0.128420 
#    z -0.038850 -0.128420 4.246280 
# 
# 
# High freq. dielectric constant tensor:
#      x y z
#    x 1.905840 0.004450 -0.011160 
#    y 0.004450 1.902790 -0.000890 
#    z -0.011160 -0.000890 1.913040 
# 
# From -- ./inp_files/299024.got.cif
#   From: 2010.06.25/outbox.cif.g09.slc.cpg/sg2_150_cif.got.tgz:299024.got - 2010.06.27 13:26:56.
