data_PCOD8037588
_publ_section_title
;
Structure prediction by ZEFSAII (Michael W. Deem and Ramdas Pophale) SiO2 
 PCOD8037588
Probable space group: P -1
;
_chemical_formula_sum "Si O2"
_cell_formula_units_Z 12
_cell_length_a 11.561703
_cell_length_b 20.194193
_cell_length_c 17.129259
_cell_angle_alpha 19.266723
_cell_angle_beta 21.553747
_cell_angle_gamma 29.861808
_cell_volume 482.890791
_symmetry_space_group_name_H-M "P -1"
_symmetry_group_IT_number 2
_symmetry_cell_setting 'triclinic'
loop_
_space_group_symop_operation_xyz
x,y,z
-x,-y,-z
loop_
_atom_site_type_symbol
_atom_site_label
_atom_site_fract_x
_atom_site_fract_y
_atom_site_fract_z
Si Si1 0.198999 0.999287 0.743052
Si Si2 0.401673 0.147940 0.220361
Si Si3 0.887779 0.187029 0.313276
Si Si4 0.159819 0.619285 0.626581
Si Si5 0.636443 0.735503 0.328715
Si Si6 0.195453 0.669243 0.367644
O O1 0.272953 0.862710 0.923000
O O2 0.500000 0.000000 0.500000
O O3 0.125744 0.223368 0.565923
O O4 0.883231 0.929501 0.969582
O O5 0.175648 0.295419 0.239899
O O6 0.229497 0.919268 0.576604
O O7 0.498171 0.217353 0.994461
O O8 0.600309 0.283201 0.429332
O O9 0.000000 0.000000 0.500000
O O10 0.141760 0.378664 0.925057
O O11 0.431108 0.740645 0.372827
O O12 0.264197 0.650930 0.436857
O O13 0.853499 0.549387 0.397981
#
# Coordination Sequence:
#
# PCOD8037588 Si02
#       6
#     2   2   2   2   2   2
#     4  12  29  51  75 112 156 211 253 312 381 457
#     4  12  26  52  78 112 159 200 256 311 384 458
#     4  12  25  47  83 114 155 199 249 323 387 451
#     4  12  27  49  81 118 152 196 254 323 384 451
#     4  12  27  47  80 113 151 199 257 316 386 445
#     4  12  27  49  78 114 156 199 258 311 382 453
#
# _framework density 24.850342000000001
#
# number of rings (size 3 to 8) (size 9 to 14) (size 15 to 20)
#    0.000    0.000    6.667    2.500    2.333    3.333 
#    0.000    0.000    0.000    0.000    0.000    0.000 
#    0.000    0.000    0.000    0.000    0.000    0.000 
#
# Total GULP energy -148749.369090 kJ/mol
# GULP energy per Si atom -12395.780758 kJ/mol
# Density = 2.479378 g / cm^3
# Si number density = 24.850342 Si / 1000 Ang^3
#
#
#
# Elastic Constant Matrix: (Units=GPa)
#
#
# Indices 1 2 3 4 5 6 
#
# 1 121.3355 38.4047 60.3983 -6.4832 9.5577 -4.7810
# 2 38.4047 190.9099 28.7607 3.2734 15.4424 -1.3694
# 3 60.3983 28.7607 84.0059 9.5199 8.1196 -0.4047
# 4 -6.4832 3.2734 9.5199 39.1657 3.0553 5.4730
# 5 9.5577 15.4424 8.1196 3.0553 35.8286 4.7460
# 6 -4.7810 -1.3694 -0.4047 5.4730 4.7460 46.5741
#
#
#
# Elastic Compliance Matrix: (Units=1/GPa)
#
#
# Indices 1 2 3 4 5 6 
#
# 1 0.014080 -0.001271 -0.010096 0.004879 -0.001455 0.000895
# 2 -0.001271 0.005787 -0.000833 -0.000377 -0.001971 0.000278
# 3 -0.010096 -0.000833 0.020274 -0.006449 -0.000989 -0.000026
# 4 0.004879 -0.000377 -0.006449 0.028457 -0.001743 -0.002733
# 5 -0.001455 -0.001971 -0.000989 -0.001743 0.029926 -0.003061
# 6 0.000895 0.000278 -0.000026 -0.002733 -0.003061 0.022204
#
#
# Mechanical properties :
#
#
# Convention : Reuss Voigt Hill
#
# Bulk Modulus (GPa) = 63.52713 72.37542 67.95128
# Shear Modulus (GPa) = 33.24986 42.22619 37.73803
#
# Velocity S-wave (km/s) = 3.66184 4.12663 3.90116
# Velocity P-wave (km/s) = 6.59531 7.20369 6.90621
#
# Compressibility (1/GPa) = 0.01574131
#
# Stress axis : x y z
#
# Youngs Moduli (GPa) = 71.02179 172.79717 49.32348
#
# Poissons Ratio (x) = 0.21963 0.49798
# Poissons Ratio (y) = 0.09027 0.04108
# Poissons Ratio (z) = 0.71705 0.14393
#
# Static dielectric constant tensor:
#      x y z
#    x 4.944860 0.029730 -0.133150 
#    y 0.029730 5.085790 -0.131400 
#    z -0.133150 -0.131400 4.391730 
# 
# 
# High freq. dielectric constant tensor:
#      x y z
#    x 1.982960 0.007350 0.004150 
#    y 0.007350 2.027070 0.002500 
#    z 0.004150 0.002500 1.970280 
# 
# From -- ./inp_files/306800.got.cif
#   From: 2010.06.25/outbox.cif.g09.slc.cpg/sg2_154_cif.got.tgz:306800.got - 2010.06.27 13:26:56.
