data_PCOD8037856
_publ_section_title
;
Structure prediction by ZEFSAII (Michael W. Deem and Ramdas Pophale) SiO2 
 PCOD8037856
Probable space group: P -1
;
_chemical_formula_sum "Si O2"
_cell_formula_units_Z 12
_cell_length_a 14.165287
_cell_length_b 13.566143
_cell_length_c 8.767456
_cell_angle_alpha 124.426907
_cell_angle_beta 135.723231
_cell_angle_gamma 31.114799
_cell_volume 602.499228
_symmetry_space_group_name_H-M "P -1"
_symmetry_group_IT_number 2
_symmetry_cell_setting 'triclinic'
loop_
_space_group_symop_operation_xyz
x,y,z
-x,-y,-z
loop_
_atom_site_type_symbol
_atom_site_label
_atom_site_fract_x
_atom_site_fract_y
_atom_site_fract_z
Si Si1 0.972103 0.759383 0.940820
Si Si2 0.752622 0.034862 0.642723
Si Si3 0.024260 0.000644 0.706165
Si Si4 0.785282 0.594267 0.260651
Si Si5 0.554094 0.325537 0.912192
Si Si6 0.474742 0.016197 0.303545
O O1 0.154114 0.531059 0.924321
O O2 0.891415 0.858633 0.767324
O O3 0.779475 0.835795 0.889663
O O4 0.073240 0.802440 0.185489
O O5 0.659971 0.216226 0.778082
O O6 0.554971 0.089378 0.396611
O O7 0.901893 0.976480 0.626865
O O8 0.279099 0.821273 0.887104
O O9 0.000000 0.000000 0.500000
O O10 0.665358 0.597540 0.252069
O O11 0.622952 0.812858 0.215044
O O12 0.000000 0.500000 0.500000
O O13 0.500000 0.500000 0.000000
O O14 0.500000 0.000000 0.500000
#
# Coordination Sequence:
#
# PCOD8037856 Si02
#       6
#     2   2   2   2   2   2
#     4  10  19  36  58  86 118 147 196 239 289 342
#     4  10  18  35  56  83 114 149 192 241 286 341
#     4  11  23  40  57  80 124 163 190 236 294 343
#     4  12  18  30  60  92 115 142 182 252 298 328
#     4  11  21  35  59  91 113 145 203 244 280 344
#     4  10  17  32  54  88 118 140 192 242 295 338
#
# _framework density 19.917037000000001
#
# number of rings (size 3 to 8) (size 9 to 14) (size 15 to 20)
#    0.000    1.333    8.333    4.000    0.000    0.000 
#    0.000    4.167    0.000    1.000    0.000    0.000 
#    0.000    0.000    0.000    0.000    0.000    0.000 
#
# Total GULP energy -148759.701869 kJ/mol
# GULP energy per Si atom -12396.641822 kJ/mol
# Density = 1.987170 g / cm^3
# Si number density = 19.917037 Si / 1000 Ang^3
#
#
#
# Elastic Constant Matrix: (Units=GPa)
#
#
# Indices 1 2 3 4 5 6 
#
# 1 112.9591 24.0464 61.1994 -0.0950 22.6743 -16.7859
# 2 24.0464 129.3871 30.7829 33.1301 -3.9661 -9.8559
# 3 61.1994 30.7829 75.0066 19.0238 8.9165 -0.5231
# 4 -0.0950 33.1301 19.0238 31.1385 -3.1378 11.6283
# 5 22.6743 -3.9661 8.9165 -3.1378 30.9710 2.3761
# 6 -16.7859 -9.8559 -0.5231 11.6283 2.3761 25.9171
#
#
#
# Elastic Compliance Matrix: (Units=1/GPa)
#
#
# Indices 1 2 3 4 5 6 
#
# 1 0.023886 -0.001060 -0.019275 0.007003 -0.012336 0.012667
# 2 -0.001060 0.014153 0.000484 -0.020676 -0.000724 0.014049
# 3 -0.019275 0.000484 0.033477 -0.019592 0.002788 -0.003090
# 4 0.007003 -0.020676 -0.019592 0.082609 0.009431 -0.041652
# 5 -0.012336 -0.000724 0.002788 0.009431 0.042634 -0.016349
# 6 0.012667 0.014049 -0.003090 -0.041652 -0.016349 0.072256
#
#
# Mechanical properties :
#
#
# Convention : Reuss Voigt Hill
#
# Bulk Modulus (GPa) = 31.43284 61.04557 46.23920
# Shear Modulus (GPa) = 15.65831 31.02692 23.34261
#
# Velocity S-wave (km/s) = 2.80693 3.95119 3.42715
# Velocity P-wave (km/s) = 5.13042 7.17860 6.23913
#
# Compressibility (1/GPa) = 0.03181386
#
# Stress axis : x y z
#
# Youngs Moduli (GPa) = 41.86577 70.65807 29.87167
#
# Poissons Ratio (x) = 0.07487 0.57579
# Poissons Ratio (y) = 0.04436 -0.01447
# Poissons Ratio (z) = 0.80698 -0.03423
#
# Static dielectric constant tensor:
#      x y z
#    x 3.691080 -0.286180 0.653710 
#    y -0.286180 3.953440 0.306370 
#    z 0.653710 0.306370 3.586290 
# 
# 
# High freq. dielectric constant tensor:
#      x y z
#    x 1.760700 -0.023080 0.055090 
#    y -0.023080 1.776420 0.033060 
#    z 0.055090 0.033060 1.751210 
# 
# From -- ./inp_files/191057.got.cif
#   From: 2010.06.25/outbox.cif.g09.slc.cpg/sg2_96_cif.got.tgz:191057.got - 2010.06.27 13:26:56.
