data_PCOD8037356
_publ_section_title
;
Structure prediction by ZEFSAII (Michael W. Deem and Ramdas Pophale) SiO2 
 PCOD8037356
Probable space group: P -1
;
_chemical_formula_sum "Si O2"
_cell_formula_units_Z 16
_cell_length_a 9.587042
_cell_length_b 30.548083
_cell_length_c 13.300880
_cell_angle_alpha 26.653017
_cell_angle_beta 147.318014
_cell_angle_gamma 153.875189
_cell_volume 754.091601
_symmetry_space_group_name_H-M "P -1"
_symmetry_group_IT_number 2
_symmetry_cell_setting 'triclinic'
loop_
_space_group_symop_operation_xyz
x,y,z
-x,-y,-z
loop_
_atom_site_type_symbol
_atom_site_label
_atom_site_fract_x
_atom_site_fract_y
_atom_site_fract_z
Si Si1 0.869916 0.362646 0.207185
Si Si2 0.273123 0.296921 0.475367
Si Si3 0.195936 0.880347 0.610560
Si Si4 0.234902 0.228486 0.985518
Si Si5 0.228553 0.722286 0.461607
Si Si6 0.397956 0.712072 0.121220
Si Si7 0.899569 0.966878 0.392360
Si Si8 0.721133 0.461169 0.248424
O O1 0.937740 0.334344 0.415680
O O2 0.049898 0.338579 0.282357
O O3 0.485823 0.278901 0.126206
O O4 0.000000 0.500000 0.000000
O O5 0.346108 0.246852 0.718639
O O6 0.610853 0.410606 0.398823
O O7 0.083855 0.189212 0.500035
O O8 0.088019 0.917599 0.563933
O O9 0.500000 0.000000 0.500000
O O10 0.278897 0.795083 0.882585
O O11 0.431510 0.271445 0.913521
O O12 0.036047 0.284620 0.755516
O O13 0.989941 0.082606 0.144733
O O14 0.519056 0.863927 0.362789
O O15 0.348406 0.648407 0.638578
O O16 0.097616 0.571256 0.244353
O O17 0.000000 0.000000 0.500000
O O18 0.500000 0.500000 0.000000
#
# Coordination Sequence:
#
# PCOD8037356 Si02
#       8
#     2   2   2   2   2   2   2   2
#     4  12  25  43  72 102 143 190 229 285 356 415
#     4  12  25  46  70 107 140 183 238 289 346 419
#     4  12  25  48  74  99 143 189 233 292 351 409
#     4  12  25  46  70 103 142 185 235 290 347 419
#     4  12  26  45  72 104 141 185 232 290 355 416
#     4  12  25  44  74 105 139 186 234 286 348 424
#     4  12  25  49  74 102 142 184 236 294 352 413
#     4  12  24  48  73 102 146 182 232 294 349 416
#
# _framework density 21.217580999999999
#
# number of rings (size 3 to 8) (size 9 to 14) (size 15 to 20)
#    0.000    0.000    7.500    2.250    1.750    2.500 
#    4.500    0.000    0.000    0.000    0.000    0.000 
#    0.000    0.000    0.000    0.000    0.000    0.000 
#
# Total GULP energy -198500.626571 kJ/mol
# GULP energy per Si atom -12406.289161 kJ/mol
# Density = 2.116929 g / cm^3
# Si number density = 21.217581 Si / 1000 Ang^3
#
#
#
# Elastic Constant Matrix: (Units=GPa)
#
#
# Indices 1 2 3 4 5 6 
#
# 1 105.9980 30.9515 24.4957 -3.9717 8.1872 -0.2231
# 2 30.9515 107.9698 54.5634 -6.3985 1.8380 1.8383
# 3 24.4957 54.5634 108.5344 1.3339 6.6301 0.6997
# 4 -3.9717 -6.3985 1.3339 43.2771 4.0809 -8.3783
# 5 8.1872 1.8380 6.6301 4.0809 35.9768 -11.8042
# 6 -0.2231 1.8383 0.6997 -8.3783 -11.8042 34.9825
#
#
#
# Elastic Compliance Matrix: (Units=1/GPa)
#
#
# Indices 1 2 3 4 5 6 
#
# 1 0.010587 -0.002416 -0.001041 0.000792 -0.002306 -0.000373
# 2 -0.002416 0.013152 -0.006142 0.001861 0.000847 0.000148
# 3 -0.001041 -0.006142 0.012677 -0.001391 -0.001930 -0.000922
# 4 0.000792 0.001861 -0.001391 0.024658 -0.001012 0.005499
# 5 -0.002306 0.000847 -0.001930 -0.001012 0.032230 0.010612
# 6 -0.000373 0.000148 -0.000922 0.005499 0.010612 0.033492
#
#
# Mechanical properties :
#
#
# Convention : Reuss Voigt Hill
#
# Bulk Modulus (GPa) = 58.08070 60.28038 59.18054
# Shear Modulus (GPa) = 32.95239 37.01338 34.98288
#
# Velocity S-wave (km/s) = 3.94518 4.18121 4.06491
# Velocity P-wave (km/s) = 6.94160 7.19599 7.06994
#
# Compressibility (1/GPa) = 0.01721742
#
# Stress axis : x y z
#
# Youngs Moduli (GPa) = 94.45236 76.03525 78.88068
#
# Poissons Ratio (x) = 0.18373 0.08213
# Poissons Ratio (y) = 0.22823 0.48449
# Poissons Ratio (z) = 0.09834 0.46701
#
# Static dielectric constant tensor:
#      x y z
#    x 4.218380 0.322350 -0.236660 
#    y 0.322350 4.059440 -0.136120 
#    z -0.236660 -0.136120 4.199510 
# 
# 
# High freq. dielectric constant tensor:
#      x y z
#    x 1.844780 0.009290 -0.004180 
#    y 0.009290 1.836280 -0.005670 
#    z -0.004180 -0.005670 1.842450 
# 
# From -- ./inp_files/273102.got.cif
#   From: 2010.06.25/outbox.cif.g09.slc.cpg/sg2_137_cif.got.tgz:273102.got - 2010.06.27 13:26:56.
