data_PCOD8037358
_publ_section_title
;
Structure prediction by ZEFSAII (Michael W. Deem and Ramdas Pophale) SiO2 
 PCOD8037358
Probable space group: P -1
;
_chemical_formula_sum "Si O2"
_cell_formula_units_Z 12
_cell_length_a 9.111975
_cell_length_b 7.594359
_cell_length_c 9.830183
_cell_angle_alpha 75.510563
_cell_angle_beta 133.759217
_cell_angle_gamma 96.857179
_cell_volume 474.279851
_symmetry_space_group_name_H-M "P -1"
_symmetry_group_IT_number 2
_symmetry_cell_setting 'triclinic'
loop_
_space_group_symop_operation_xyz
x,y,z
-x,-y,-z
loop_
_atom_site_type_symbol
_atom_site_label
_atom_site_fract_x
_atom_site_fract_y
_atom_site_fract_z
Si Si1 0.226745 0.831383 0.585417
Si Si2 0.660512 0.346182 0.574758
Si Si3 0.940069 0.791800 0.008905
Si Si4 0.414017 0.301698 0.992054
Si Si5 0.147430 0.337818 0.567325
Si Si6 0.721781 0.799728 0.594415
O O1 0.279618 0.655145 0.549199
O O2 0.004663 0.824226 0.510735
O O3 0.212206 0.009829 0.451279
O O4 0.395562 0.834934 0.811991
O O5 0.500000 0.500000 0.500000
O O6 0.853925 0.327797 0.800498
O O7 0.519189 0.173265 0.530845
O O8 0.773263 0.735915 0.022098
O O9 0.859217 0.732904 0.822777
O O10 0.000000 0.000000 0.000000
O O11 0.336609 0.266023 0.797286
O O12 0.500000 0.500000 0.000000
O O13 0.231317 0.361266 0.462071
O O14 0.000000 0.500000 0.500000
#
# Coordination Sequence:
#
# PCOD8037358 Si02
#       6
#     2   2   2   2   2   2
#     4  12  24  48  73 106 151 194 251 303 373 449
#     4  12  26  43  76 112 147 188 249 314 368 433
#     4  12  25  49  79 108 149 199 251 305 372 447
#     4  12  26  44  78 105 149 198 242 309 377 441
#     4  12  26  47  70 106 152 193 243 306 372 441
#     4  12  27  45  79 108 144 201 251 306 369 446
#
# _framework density 25.301517
#
# number of rings (size 3 to 8) (size 9 to 14) (size 15 to 20)
#    0.000    0.000    6.667    3.000    0.000    4.000 
#    0.000    0.000    0.000    0.000    0.000    0.000 
#    0.000    0.000    0.000    0.000    0.000    0.000 
#
# Total GULP energy -148712.853420 kJ/mol
# GULP energy per Si atom -12392.737785 kJ/mol
# Density = 2.524393 g / cm^3
# Si number density = 25.301517 Si / 1000 Ang^3
#
#
#
# Elastic Constant Matrix: (Units=GPa)
#
#
# Indices 1 2 3 4 5 6 
#
# 1 160.9583 33.1215 77.3772 16.3048 -4.5962 43.9329
# 2 33.1215 58.6924 15.0215 3.8658 -2.7204 14.0268
# 3 77.3772 15.0215 261.3490 22.8708 8.7139 10.0798
# 4 16.3048 3.8658 22.8708 36.9607 4.8802 -4.3955
# 5 -4.5962 -2.7204 8.7139 4.8802 52.6136 13.4294
# 6 43.9329 14.0268 10.0798 -4.3955 13.4294 48.4906
#
#
#
# Elastic Compliance Matrix: (Units=1/GPa)
#
#
# Indices 1 2 3 4 5 6 
#
# 1 0.011668 -0.002748 -0.002573 -0.005179 0.004587 -0.010981
# 2 -0.002748 0.019727 -0.000104 -0.001500 0.001922 -0.003863
# 3 -0.002573 -0.000104 0.004697 -0.001398 -0.001291 0.001615
# 4 -0.005179 -0.001500 -0.001398 0.032319 -0.005839 0.009964
# 5 0.004587 0.001922 -0.001291 -0.005839 0.023169 -0.011389
# 6 -0.010981 -0.003863 0.001615 0.009964 -0.011389 0.035411
#
#
# Mechanical properties :
#
#
# Convention : Reuss Voigt Hill
#
# Bulk Modulus (GPa) = 39.61629 81.33778 60.47704
# Shear Modulus (GPa) = 34.18718 51.31161 42.74940
#
# Velocity S-wave (km/s) = 3.67984 4.50822 4.11493
# Velocity P-wave (km/s) = 5.80919 7.70169 6.82139
#
# Compressibility (1/GPa) = 0.02524214
#
# Stress axis : x y z
#
# Youngs Moduli (GPa) = 85.70471 50.69316 212.89860
#
# Poissons Ratio (x) = 0.13930 0.54773
# Poissons Ratio (y) = 0.23551 0.02216
# Poissons Ratio (z) = 0.22049 0.00528
#
# Static dielectric constant tensor:
#      x y z
#    x 5.838250 1.419310 0.623050 
#    y 1.419310 6.090250 1.073910 
#    z 0.623050 1.073910 5.504390 
# 
# 
# High freq. dielectric constant tensor:
#      x y z
#    x 2.036230 0.039540 0.001010 
#    y 0.039540 2.037580 0.008030 
#    z 0.001010 0.008030 2.013560 
# 
# From -- ./inp_files/157763.got.cif
#   From: 2010.06.25/outbox.cif.g09.slc.cpg/sg2_79_cif.got.tgz:157763.got - 2010.06.27 13:26:56.
