data_PCOD8037862
_publ_section_title
;
Structure prediction by ZEFSAII (Michael W. Deem and Ramdas Pophale) SiO2 
 PCOD8037862
Probable space group: P -1
;
_chemical_formula_sum "Si O2"
_cell_formula_units_Z 14
_cell_length_a 14.757311
_cell_length_b 24.777351
_cell_length_c 7.567579
_cell_angle_alpha 129.693612
_cell_angle_beta 59.522003
_cell_angle_gamma 161.322876
_cell_volume 625.783272
_symmetry_space_group_name_H-M "P -1"
_symmetry_group_IT_number 2
_symmetry_cell_setting 'triclinic'
loop_
_space_group_symop_operation_xyz
x,y,z
-x,-y,-z
loop_
_atom_site_type_symbol
_atom_site_label
_atom_site_fract_x
_atom_site_fract_y
_atom_site_fract_z
Si Si1 0.814458 0.088630 0.610181
Si Si2 0.715674 0.170837 0.999182
Si Si3 0.065113 0.153195 0.210570
Si Si4 0.205562 0.560914 0.533060
Si Si5 0.732871 0.992484 0.876098
Si Si6 0.503714 0.696771 0.870106
Si Si7 0.777782 0.370494 0.788358
O O1 0.065709 0.212741 0.488382
O O2 0.888820 0.115751 0.797817
O O3 0.480543 0.850149 0.393950
O O4 0.804238 0.166830 0.759168
O O5 0.502514 0.100329 0.988542
O O6 0.040902 0.402545 0.237026
O O7 0.500000 0.000000 0.000000
O O8 0.395227 0.320664 0.240287
O O9 0.013259 0.154715 0.072329
O O10 0.798005 0.929984 0.036558
O O11 0.524134 0.792011 0.620560
O O12 0.277364 0.563108 0.647100
O O13 0.960794 0.471701 0.635033
O O14 0.348384 0.628671 0.063928
O O15 0.000000 0.500000 0.000000
#
# Coordination Sequence:
#
# PCOD8037862 Si02
#       7
#     2   2   2   2   2   2   2
#     4  10  20  35  55  80 110 146 175 221 276 318
#     4  10  19  32  53  82 111 144 174 221 281 319
#     4   9  18  36  53  78 111 142 184 219 267 318
#     4  10  17  32  55  83 110 138 180 228 268 318
#     4  10  20  33  59  81 111 139 182 228 262 323
#     4   8  17  32  54  78 108 144 177 227 266 315
#     4   9  16  29  53  81 102 135 178 221 267 312
#
# _framework density 22.371963000000001
#
# number of rings (size 3 to 8) (size 9 to 14) (size 15 to 20)
#    0.000    2.571    2.857    1.286    0.000    0.571 
#    0.000   12.143    0.000    3.429    0.000    0.000 
#    0.000    0.000    0.000    0.000    0.000    0.000 
#
# Total GULP energy -173484.465607 kJ/mol
# GULP energy per Si atom -12391.747543 kJ/mol
# Density = 2.232104 g / cm^3
# Si number density = 22.371963 Si / 1000 Ang^3
#
#
#
# Elastic Constant Matrix: (Units=GPa)
#
#
# Indices 1 2 3 4 5 6 
#
# 1 90.4379 22.1736 44.2396 -6.1625 1.6993 23.5050
# 2 22.1736 51.0710 37.3548 -18.1522 -3.4826 18.3264
# 3 44.2396 37.3548 119.4142 -26.3462 -15.1153 19.3984
# 4 -6.1625 -18.1522 -26.3462 29.1022 -0.0958 -9.3500
# 5 1.6993 -3.4826 -15.1153 -0.0958 27.5061 -4.5219
# 6 23.5050 18.3264 19.3984 -9.3500 -4.5219 33.6558
#
#
#
# Elastic Compliance Matrix: (Units=1/GPa)
#
#
# Indices 1 2 3 4 5 6 
#
# 1 0.016806 -0.001965 -0.006268 -0.006482 -0.006350 -0.009708
# 2 -0.001965 0.031800 -0.005080 0.011670 -0.000215 -0.009802
# 3 -0.006268 -0.005080 0.015202 0.010038 0.008513 0.002314
# 4 -0.006482 0.011670 0.010038 0.051961 0.008893 0.008017
# 5 -0.006350 -0.000215 0.008513 0.008893 0.042721 0.007855
# 6 -0.009708 -0.009802 0.002314 0.008017 0.007855 0.043779
#
#
# Mechanical properties :
#
#
# Convention : Reuss Voigt Hill
#
# Bulk Modulus (GPa) = 26.89466 52.05101 39.47284
# Shear Modulus (GPa) = 20.72206 28.52982 24.62594
#
# Velocity S-wave (km/s) = 3.04674 3.57494 3.32135
# Velocity P-wave (km/s) = 4.94212 6.35271 5.69128
#
# Compressibility (1/GPa) = 0.03718210
#
# Stress axis : x y z
#
# Youngs Moduli (GPa) = 59.50172 31.44668 65.78186
#
# Poissons Ratio (x) = 0.06179 0.41234
# Poissons Ratio (y) = 0.11692 0.33414
# Poissons Ratio (z) = 0.37297 0.15974
#
# Static dielectric constant tensor:
#      x y z
#    x 4.341770 0.329870 -0.185120 
#    y 0.329870 4.136850 -0.502150 
#    z -0.185120 -0.502150 4.479470 
# 
# 
# High freq. dielectric constant tensor:
#      x y z
#    x 1.873330 0.007410 0.003460 
#    y 0.007410 1.850570 -0.010060 
#    z 0.003460 -0.010060 1.882500 
# 
# From -- ./inp_files/178909.got.cif
#   From: 2010.06.25/outbox.cif.g09.slc.cpg/sg2_90_cif.got.tgz:178909.got - 2010.06.27 13:26:56.
