data_PCOD8037506
_publ_section_title
;
Structure prediction by ZEFSAII (Michael W. Deem and Ramdas Pophale) SiO2 
 PCOD8037506
Probable space group: P -1
;
_chemical_formula_sum "Si O2"
_cell_formula_units_Z 16
_cell_length_a 17.879781
_cell_length_b 6.644526
_cell_length_c 15.603941
_cell_angle_alpha 103.067659
_cell_angle_beta 23.016796
_cell_angle_gamma 104.115807
_cell_volume 702.940551
_symmetry_space_group_name_H-M "P -1"
_symmetry_group_IT_number 2
_symmetry_cell_setting 'triclinic'
loop_
_space_group_symop_operation_xyz
x,y,z
-x,-y,-z
loop_
_atom_site_type_symbol
_atom_site_label
_atom_site_fract_x
_atom_site_fract_y
_atom_site_fract_z
Si Si1 0.641186 0.640872 0.421594
Si Si2 0.161034 0.002552 0.175189
Si Si3 0.799568 0.588957 0.725919
Si Si4 0.584825 0.190660 0.986007
Si Si5 0.421866 0.033433 0.741283
Si Si6 0.212349 0.272903 0.439188
Si Si7 0.238131 0.621465 0.572909
Si Si8 0.896603 0.824342 0.035653
O O1 0.500000 0.500000 0.500000
O O2 0.707605 0.537933 0.427743
O O3 0.825779 0.662745 0.167844
O O4 0.544687 0.851043 0.563294
O O5 0.190852 0.245433 0.190360
O O6 0.281845 0.960439 0.959617
O O7 0.937960 0.916875 0.388987
O O8 0.222485 0.861753 0.175210
O O9 0.766544 0.706354 0.683887
O O10 0.000000 0.500000 0.500000
O O11 0.634228 0.401662 0.899612
O O12 0.427894 0.218838 0.229790
O O13 0.500000 0.000000 0.000000
O O14 0.575679 0.220643 0.626456
O O15 0.286875 0.102791 0.814119
O O16 0.173921 0.490512 0.543332
O O17 0.049322 0.735487 0.802946
O O18 0.000000 0.000000 0.000000
#
# Coordination Sequence:
#
# PCOD8037506 Si02
#       8
#     2   2   2   2   2   2   2   2
#     4  12  25  50  78 101 146 189 238 294 363 432
#     4  12  28  47  71 106 146 187 240 297 351 421
#     4  12  25  48  74 100 146 192 236 295 355 417
#     4  12  25  46  73 101 138 191 242 287 353 421
#     4  12  28  48  71 110 150 185 237 304 355 425
#     4  12  27  46  73 107 143 188 242 291 357 422
#     4  12  28  47  72 111 146 187 240 298 359 430
#     4  12  26  48  78 105 143 191 237 291 366 432
#
# _framework density 22.761528999999999
#
# number of rings (size 3 to 8) (size 9 to 14) (size 15 to 20)
#    0.000    0.000    5.000    4.500    7.000    2.000 
#    0.000    0.000    0.000    0.000    0.000    0.000 
#    0.000    0.000    0.000    0.000    0.000    0.000 
#
# Total GULP energy -198383.414402 kJ/mol
# GULP energy per Si atom -12398.963400 kJ/mol
# Density = 2.270972 g / cm^3
# Si number density = 22.761529 Si / 1000 Ang^3
#
#
#
# Elastic Constant Matrix: (Units=GPa)
#
#
# Indices 1 2 3 4 5 6 
#
# 1 54.7002 20.0245 9.2648 -4.7300 4.5160 6.8666
# 2 20.0245 123.4716 37.3203 -20.3188 0.9568 22.5417
# 3 9.2648 37.3203 130.5128 -18.6075 4.8482 6.9088
# 4 -4.7300 -20.3188 -18.6075 57.5278 -2.6478 -1.5815
# 5 4.5160 0.9568 4.8482 -2.6478 36.6498 4.3902
# 6 6.8666 22.5417 6.9088 -1.5815 4.3902 49.1790
#
#
#
# Elastic Compliance Matrix: (Units=1/GPa)
#
#
# Indices 1 2 3 4 5 6 
#
# 1 0.019728 -0.002774 -0.000410 0.000378 -0.002130 -0.001223
# 2 -0.002774 0.010393 -0.002219 0.002661 0.001044 -0.004072
# 3 -0.000410 -0.002219 0.008634 0.001934 -0.000894 0.000003
# 4 0.000378 0.002661 0.001934 0.019003 0.001125 -0.001034
# 5 -0.002130 0.001044 -0.000894 0.001125 0.028022 -0.002521
# 6 -0.001223 -0.004072 0.000003 -0.001034 -0.002521 0.022563
#
#
# Mechanical properties :
#
#
# Convention : Reuss Voigt Hill
#
# Bulk Modulus (GPa) = 35.77585 49.10041 42.43813
# Shear Modulus (GPa) = 38.92131 44.80965 41.86548
#
# Velocity S-wave (km/s) = 4.13965 4.44177 4.29337
# Velocity P-wave (km/s) = 6.21295 6.92273 6.57742
#
# Compressibility (1/GPa) = 0.02795182
#
# Stress axis : x y z
#
# Youngs Moduli (GPa) = 50.68844 96.22064 115.81506
#
# Poissons Ratio (x) = 0.26688 0.04743
# Poissons Ratio (y) = 0.14059 0.25696
# Poissons Ratio (z) = 0.02076 0.21349
#
# Static dielectric constant tensor:
#      x y z
#    x 4.696160 -0.216490 -0.213530 
#    y -0.216490 4.459780 0.102920 
#    z -0.213530 0.102920 4.108560 
# 
# 
# High freq. dielectric constant tensor:
#      x y z
#    x 1.898360 0.005790 -0.004000 
#    y 0.005790 1.908110 -0.001540 
#    z -0.004000 -0.001540 1.926130 
# 
# From -- ./inp_files/51804.got.cif
#   From: 2010.06.25/outbox.cif.g09.slc.cpg/sg2_26_cif.got.tgz:51804.got - 2010.06.27 13:26:56.
