data_PCOD8037454
_publ_section_title
;
Structure prediction by ZEFSAII (Michael W. Deem and Ramdas Pophale) SiO2 
 PCOD8037454
Probable space group: P -1
;
_chemical_formula_sum "Si O2"
_cell_formula_units_Z 16
_cell_length_a 9.312440
_cell_length_b 14.056661
_cell_length_c 8.523817
_cell_angle_alpha 45.337703
_cell_angle_beta 67.882331
_cell_angle_gamma 65.429746
_cell_volume 715.609601
_symmetry_space_group_name_H-M "P -1"
_symmetry_group_IT_number 2
_symmetry_cell_setting 'triclinic'
loop_
_space_group_symop_operation_xyz
x,y,z
-x,-y,-z
loop_
_atom_site_type_symbol
_atom_site_label
_atom_site_fract_x
_atom_site_fract_y
_atom_site_fract_z
Si Si1 0.810171 0.491610 0.749724
Si Si2 0.890215 0.655182 0.040856
Si Si3 0.328861 0.729608 0.090431
Si Si4 0.971934 0.135604 0.456092
Si Si5 0.367952 0.727601 0.443321
Si Si6 0.291298 0.235721 0.715171
Si Si7 0.357530 0.451932 0.930349
Si Si8 0.852107 0.970141 0.187586
O O1 0.795547 0.356671 0.816851
O O2 0.790881 0.620598 0.495517
O O3 0.673807 0.520862 0.904830
O O4 0.987470 0.463250 0.778660
O O5 0.769057 0.756277 0.089438
O O6 0.799904 0.575034 0.053633
O O7 0.993675 0.740663 0.802706
O O8 0.342936 0.706372 0.296116
O O9 0.499313 0.681017 0.993440
O O10 0.266302 0.887074 0.883298
O O11 0.787495 0.172049 0.538273
O O12 0.088348 0.115383 0.581445
O O13 0.000000 0.000000 0.500000
O O14 0.517432 0.795773 0.329736
O O15 0.409277 0.579460 0.679970
O O16 0.242268 0.112016 0.789292
O O17 0.000000 0.000000 0.000000
#
# Coordination Sequence:
#
# PCOD8037454 Si02
#       8
#     2   2   2   2   2   2   2   2
#     4  12  25  44  75 109 146 188 247 300 359 429
#     4  12  26  45  74 108 147 190 245 300 364 429
#     4  12  25  47  74 103 149 192 239 298 362 432
#     4  12  27  49  74 106 148 194 241 297 367 434
#     4  12  26  48  76 103 149 192 242 299 366 430
#     4  12  27  47  75 111 144 191 245 297 364 437
#     4  12  25  46  73 111 144 191 242 307 364 425
#     4  12  27  48  74 108 145 191 242 298 362 433
#
# _framework density 22.358559
#
# number of rings (size 3 to 8) (size 9 to 14) (size 15 to 20)
#    0.000    0.000    5.000    5.250    1.750    1.500 
#    0.000    1.875    0.000    0.000    0.000    0.000 
#    0.000    0.000    0.000    0.000    0.000    0.000 
#
# Total GULP energy -198565.223585 kJ/mol
# GULP energy per Si atom -12410.326474 kJ/mol
# Density = 2.230767 g / cm^3
# Si number density = 22.358559 Si / 1000 Ang^3
#
#
#
# Elastic Constant Matrix: (Units=GPa)
#
#
# Indices 1 2 3 4 5 6 
#
# 1 113.4035 52.5912 31.0586 2.0376 -11.5272 2.2921
# 2 52.5912 137.3170 39.4239 -3.9501 -9.4861 -3.8167
# 3 31.0586 39.4239 78.7405 7.9967 1.3162 4.1229
# 4 2.0376 -3.9501 7.9967 36.1088 -2.4038 -2.3906
# 5 -11.5272 -9.4861 1.3162 -2.4038 39.2097 -3.4285
# 6 2.2921 -3.8167 4.1229 -2.3906 -3.4285 48.0370
#
#
#
# Elastic Compliance Matrix: (Units=1/GPa)
#
#
# Indices 1 2 3 4 5 6 
#
# 1 0.011446 -0.003421 -0.002798 -0.000256 0.002580 -0.000406
# 2 -0.003421 0.009980 -0.004002 0.002395 0.001825 0.001549
# 3 -0.002798 -0.004002 0.016388 -0.004226 -0.002775 -0.001999
# 4 -0.000256 0.002395 -0.004226 0.029228 0.002631 0.002208
# 5 0.002580 0.001825 -0.002775 0.002631 0.027162 0.002330
# 6 -0.000406 0.001549 -0.001999 0.002208 0.002330 0.021408
#
#
# Mechanical properties :
#
#
# Convention : Reuss Voigt Hill
#
# Bulk Modulus (GPa) = 57.56592 63.95649 60.76120
# Shear Modulus (GPa) = 35.25030 38.43024 36.84027
#
# Velocity S-wave (km/s) = 3.97494 4.15036 4.06359
# Velocity P-wave (km/s) = 6.84613 7.18570 7.01797
#
# Compressibility (1/GPa) = 0.01737139
#
# Stress axis : x y z
#
# Youngs Moduli (GPa) = 87.36828 100.20407 61.02157
#
# Poissons Ratio (x) = 0.34278 0.17073
# Poissons Ratio (y) = 0.29887 0.24422
# Poissons Ratio (z) = 0.24445 0.40104
#
# Static dielectric constant tensor:
#      x y z
#    x 4.421270 -0.043990 0.075120 
#    y -0.043990 4.208710 0.115690 
#    z 0.075120 0.115690 4.189350 
# 
# 
# High freq. dielectric constant tensor:
#      x y z
#    x 1.900270 0.000000 0.004680 
#    y 0.000000 1.895230 0.009110 
#    z 0.004680 0.009110 1.880830 
# 
# From -- ./inp_files/205026.got.cif
#   From: 2010.06.25/outbox.cif.g09.slc.cpg/sg2_103_cif.got.tgz:205026.got - 2010.06.27 13:26:56.
