data_PCOD8037924
_publ_section_title
;
Structure prediction by ZEFSAII (Michael W. Deem and Ramdas Pophale) SiO2 
 PCOD8037924
Probable space group: P -1
;
_chemical_formula_sum "Si O2"
_cell_formula_units_Z 16
_cell_length_a 9.644556
_cell_length_b 11.397118
_cell_length_c 8.646142
_cell_angle_alpha 65.894973
_cell_angle_beta 111.292095
_cell_angle_gamma 116.321676
_cell_volume 758.076387
_symmetry_space_group_name_H-M "P -1"
_symmetry_group_IT_number 2
_symmetry_cell_setting 'triclinic'
loop_
_space_group_symop_operation_xyz
x,y,z
-x,-y,-z
loop_
_atom_site_type_symbol
_atom_site_label
_atom_site_fract_x
_atom_site_fract_y
_atom_site_fract_z
Si Si1 0.502507 0.076623 0.620509
Si Si2 0.152708 0.590978 0.108738
Si Si3 0.317195 0.415256 0.139548
Si Si4 0.172609 0.685228 0.395425
Si Si5 0.955429 0.156535 0.521483
Si Si6 0.208300 0.149682 0.402665
Si Si7 0.688805 0.188531 0.179977
Si Si8 0.660130 0.425674 0.230210
O O1 0.675306 0.184856 0.661802
O O2 0.383830 0.161300 0.518944
O O3 0.500000 0.000000 0.500000
O O4 0.447475 0.963110 0.798324
O O5 0.275708 0.509614 0.201024
O O6 0.097487 0.603613 0.254004
O O7 0.244341 0.743244 0.994258
O O8 0.000000 0.500000 0.000000
O O9 0.215460 0.256858 0.212165
O O10 0.502602 0.442738 0.224701
O O11 0.266640 0.451135 0.929277
O O12 0.043454 0.742061 0.390609
O O13 0.216661 0.578211 0.583173
O O14 0.839252 0.175453 0.334365
O O15 0.128941 0.189412 0.501772
O O16 0.891326 0.997322 0.631967
O O17 0.612734 0.283183 0.193877
#
# Coordination Sequence:
#
# PCOD8037924 Si02
#       8
#     2   2   2   2   2   2   2   2
#     4  11  17  34  67  93 120 155 196 262 303 362
#     4  11  25  41  59  81 126 173 205 252 299 357
#     4  10  19  35  60  84 123 159 193 246 307 359
#     4  11  21  39  63  92 122 158 216 246 302 363
#     4   9  19  33  62  91 119 157 197 252 297 379
#     4  10  17  32  59  95 123 157 193 236 322 357
#     4   9  18  36  60  88 119 154 207 240 315 356
#     4   9  18  34  60  92 114 155 198 252 297 369
#
# _framework density 21.106051999999998
#
# number of rings (size 3 to 8) (size 9 to 14) (size 15 to 20)
#    0.000    2.000    5.000    0.750    0.000    1.000 
#    0.000   10.000    5.500   10.500    0.000    0.000 
#    0.000    0.000    0.000    0.000    0.000    0.000 
#
# Total GULP energy -198317.751519 kJ/mol
# GULP energy per Si atom -12394.859470 kJ/mol
# Density = 2.105801 g / cm^3
# Si number density = 21.106052 Si / 1000 Ang^3
#
#
#
# Elastic Constant Matrix: (Units=GPa)
#
#
# Indices 1 2 3 4 5 6 
#
# 1 128.8879 40.7787 32.5602 4.3416 -9.3073 -33.7905
# 2 40.7787 82.4000 70.1511 -17.5456 -5.7077 -14.5619
# 3 32.5602 70.1511 120.9827 -19.0231 -15.4928 -16.0846
# 4 4.3416 -17.5456 -19.0231 51.4525 -2.3541 -6.0497
# 5 -9.3073 -5.7077 -15.4928 -2.3541 19.4958 -0.1030
# 6 -33.7905 -14.5619 -16.0846 -6.0497 -0.1030 32.8630
#
#
#
# Elastic Compliance Matrix: (Units=1/GPa)
#
#
# Indices 1 2 3 4 5 6 
#
# 1 0.012397 -0.005667 0.002092 -0.000622 0.005906 0.011164
# 2 -0.005667 0.028089 -0.014788 0.004348 -0.005707 0.000165
# 3 0.002092 -0.014788 0.019050 0.003031 0.012203 0.005519
# 4 -0.000622 0.004348 0.003031 0.023206 0.006224 0.007062
# 5 0.005906 -0.005707 0.012203 0.006224 0.062948 0.010859
# 6 0.011164 0.000165 0.005519 0.007062 0.010859 0.046017
#
#
# Mechanical properties :
#
#
# Convention : Reuss Voigt Hill
#
# Bulk Modulus (GPa) = 43.83625 68.80562 56.32093
# Shear Modulus (GPa) = 21.18309 33.34763 27.26536
#
# Velocity S-wave (km/s) = 3.17148 3.97924 3.59810
# Velocity P-wave (km/s) = 5.85027 7.33370 6.63358
#
# Compressibility (1/GPa) = 0.02281217
#
# Stress axis : x y z
#
# Youngs Moduli (GPa) = 80.66176 35.60064 52.49278
#
# Poissons Ratio (x) = 0.20174 -0.10982
# Poissons Ratio (y) = 0.45710 0.77625
# Poissons Ratio (z) = -0.16875 0.52645
#
# Static dielectric constant tensor:
#      x y z
#    x 4.146270 -0.248520 -0.172120 
#    y -0.248520 3.934180 -0.627070 
#    z -0.172120 -0.627070 3.775550 
# 
# 
# High freq. dielectric constant tensor:
#      x y z
#    x 1.844500 -0.013490 -0.016910 
#    y -0.013490 1.807490 -0.045500 
#    z -0.016910 -0.045500 1.803130 
# 
# From -- ./inp_files/176496.got.cif
#   From: 2010.06.25/outbox.cif.g09.slc.cpg/sg2_89_cif.got.tgz:176496.got - 2010.06.27 13:26:56.
