data_PCOD8037786
_publ_section_title
;
Structure prediction by ZEFSAII (Michael W. Deem and Ramdas Pophale) SiO2 
 PCOD8037786
Probable space group: P -1
;
_chemical_formula_sum "Si O2"
_cell_formula_units_Z 12
_cell_length_a 13.094801
_cell_length_b 7.269187
_cell_length_c 10.274410
_cell_angle_alpha 93.076878
_cell_angle_beta 33.174498
_cell_angle_gamma 76.869139
_cell_volume 463.408850
_symmetry_space_group_name_H-M "P -1"
_symmetry_group_IT_number 2
_symmetry_cell_setting 'triclinic'
loop_
_space_group_symop_operation_xyz
x,y,z
-x,-y,-z
loop_
_atom_site_type_symbol
_atom_site_label
_atom_site_fract_x
_atom_site_fract_y
_atom_site_fract_z
Si Si1 0.578489 0.079933 0.129560
Si Si2 0.198999 0.845536 0.869215
Si Si3 0.049879 0.188335 0.450571
Si Si4 0.234777 0.547071 0.460356
Si Si5 0.553601 0.217032 0.639772
Si Si6 0.087713 0.562926 0.136035
O O1 0.757663 0.055625 0.043985
O O2 0.456089 0.321032 0.215861
O O3 0.408996 0.016191 0.370315
O O4 0.708622 0.914556 0.868857
O O5 0.412889 0.762115 0.549306
O O6 0.144106 0.663058 0.957937
O O7 0.000000 0.000000 0.000000
O O8 0.875182 0.392056 0.561979
O O9 0.048107 0.265932 0.600913
O O10 0.000000 0.000000 0.500000
O O11 0.278718 0.735182 0.461985
O O12 0.065412 0.535386 0.742184
O O13 0.311532 0.378958 0.946591
#
# Coordination Sequence:
#
# PCOD8037786 Si02
#       6
#     2   2   2   2   2   2
#     4  12  27  51  79 116 151 203 256 315 385 453
#     4  12  26  51  78 112 155 202 257 315 380 455
#     4  12  26  51  78 114 160 194 260 316 378 459
#     4  12  28  50  79 116 153 204 252 316 385 450
#     4  12  27  50  79 111 158 198 259 312 381 453
#     4  12  27  50  76 116 152 205 256 312 384 451
#
# _framework density 25.895060999999998
#
# number of rings (size 3 to 8) (size 9 to 14) (size 15 to 20)
#    0.000    0.000    5.000    3.500    2.333    4.000 
#    0.000    0.000    0.000    0.000    0.000    0.000 
#    0.000    0.000    0.000    0.000    0.000    0.000 
#
# Total GULP energy -148810.905887 kJ/mol
# GULP energy per Si atom -12400.908824 kJ/mol
# Density = 2.583612 g / cm^3
# Si number density = 25.895061 Si / 1000 Ang^3
#
#
#
# Elastic Constant Matrix: (Units=GPa)
#
#
# Indices 1 2 3 4 5 6 
#
# 1 79.5555 32.9706 25.8202 6.2813 -24.1172 1.9045
# 2 32.9706 149.5732 22.3284 -20.9376 -19.2054 -8.7072
# 3 25.8202 22.3284 121.3254 -13.5180 -0.7885 0.6665
# 4 6.2813 -20.9376 -13.5180 41.1420 6.4275 -10.5902
# 5 -24.1172 -19.2054 -0.7885 6.4275 40.1658 -9.1177
# 6 1.9045 -8.7072 0.6665 -10.5902 -9.1177 40.3153
#
#
#
# Elastic Compliance Matrix: (Units=1/GPa)
#
#
# Indices 1 2 3 4 5 6 
#
# 1 0.019388 -0.003441 -0.004325 -0.008164 0.010932 -0.001260
# 2 -0.003441 0.008777 -0.000267 0.005605 0.002141 0.004019
# 3 -0.004325 -0.000267 0.009668 0.004295 -0.003129 0.000407
# 4 -0.008164 0.005605 0.004295 0.032964 -0.005377 0.008968
# 5 0.010932 0.002141 -0.003129 -0.005377 0.034746 0.006444
# 6 -0.001260 0.004019 0.000407 0.008968 0.006444 0.029538
#
#
# Mechanical properties :
#
#
# Convention : Reuss Voigt Hill
#
# Bulk Modulus (GPa) = 45.93688 56.96582 51.45135
# Shear Modulus (GPa) = 31.56513 42.28028 36.92271
#
# Velocity S-wave (km/s) = 3.49515 4.04512 3.78015
# Velocity P-wave (km/s) = 5.83663 6.62298 6.24220
#
# Compressibility (1/GPa) = 0.02176900
#
# Stress axis : x y z
#
# Youngs Moduli (GPa) = 51.57825 113.92889 103.43739
#
# Poissons Ratio (x) = 0.39199 0.44732
# Poissons Ratio (y) = 0.17746 0.02760
# Poissons Ratio (z) = 0.22305 0.03040
#
# Static dielectric constant tensor:
#      x y z
#    x 4.625300 0.104230 0.106790 
#    y 0.104230 5.175340 -0.408640 
#    z 0.106790 -0.408640 5.153980 
# 
# 
# High freq. dielectric constant tensor:
#      x y z
#    x 2.019420 0.002150 -0.015870 
#    y 0.002150 2.058700 -0.013230 
#    z -0.015870 -0.013230 2.042650 
# 
# From -- ./inp_files/243786.got.cif
#   From: 2010.06.25/outbox.cif.g09.slc.cpg/sg2_122_cif.got.tgz:243786.got - 2010.06.27 13:26:56.
