data_PCOD8037630
_publ_section_title
;
Structure prediction by ZEFSAII (Michael W. Deem and Ramdas Pophale) SiO2 
 PCOD8037630
Probable space group: P -1
;
_chemical_formula_sum "Si O2"
_cell_formula_units_Z 16
_cell_length_a 9.696146
_cell_length_b 27.546903
_cell_length_c 11.990231
_cell_angle_alpha 27.370658
_cell_angle_beta 141.814046
_cell_angle_gamma 151.031807
_cell_volume 712.512570
_symmetry_space_group_name_H-M "P -1"
_symmetry_group_IT_number 2
_symmetry_cell_setting 'triclinic'
loop_
_space_group_symop_operation_xyz
x,y,z
-x,-y,-z
loop_
_atom_site_type_symbol
_atom_site_label
_atom_site_fract_x
_atom_site_fract_y
_atom_site_fract_z
Si Si1 0.243478 0.893429 0.363744
Si Si2 0.223329 0.445287 0.506519
Si Si3 0.836989 0.167456 0.188010
Si Si4 0.181393 0.232221 0.059689
Si Si5 0.736331 0.379257 0.646828
Si Si6 0.761831 0.022746 0.055128
Si Si7 0.188599 0.192531 0.554976
Si Si8 0.819694 0.353507 0.238382
O O1 0.174964 0.748432 0.629004
O O2 0.037250 0.898090 0.305177
O O3 0.566718 0.014646 0.356460
O O4 0.185553 0.905200 0.175314
O O5 0.500000 0.500000 0.500000
O O6 0.273921 0.573544 0.333097
O O7 0.944060 0.364730 0.416478
O O8 0.175563 0.349681 0.771462
O O9 0.986657 0.162371 0.186224
O O10 0.050788 0.230608 0.299429
O O11 0.734800 0.254266 0.918689
O O12 0.495996 0.292784 0.171469
O O13 0.052490 0.117618 0.117105
O O14 0.459129 0.330602 0.498901
O O15 0.000000 0.500000 0.500000
O O16 0.704867 0.882845 0.283521
O O17 0.500000 0.000000 0.000000
O O18 0.000000 0.500000 0.000000
#
# Coordination Sequence:
#
# PCOD8037630 Si02
#       8
#     2   2   2   2   2   2   2   2
#     4  12  26  50  76 111 148 193 250 306 376 442
#     4  12  26  47  72 106 151 196 240 303 368 440
#     4  12  28  48  77 109 149 194 253 306 370 442
#     4  12  26  45  77 112 146 195 251 306 372 439
#     4  12  28  48  72 107 149 194 246 299 374 444
#     4  12  25  48  79 108 148 195 247 308 373 439
#     4  12  29  47  77 106 152 197 244 312 373 432
#     4  12  28  45  76 111 149 193 249 304 371 446
#
# _framework density 22.455743999999999
#
# number of rings (size 3 to 8) (size 9 to 14) (size 15 to 20)
#    0.000    0.000    6.250    2.250    5.250    1.500 
#    0.000    0.000    0.000    0.000    0.000    0.000 
#    0.000    0.000    0.000    0.000    0.000    0.000 
#
# Total GULP energy -198509.842143 kJ/mol
# GULP energy per Si atom -12406.865134 kJ/mol
# Density = 2.240463 g / cm^3
# Si number density = 22.455744 Si / 1000 Ang^3
#
#
#
# Elastic Constant Matrix: (Units=GPa)
#
#
# Indices 1 2 3 4 5 6 
#
# 1 134.7519 50.2787 24.6355 5.9329 -0.4895 6.6445
# 2 50.2787 174.4804 47.3240 19.8412 6.1102 4.4519
# 3 24.6355 47.3240 80.0338 6.1916 -2.2086 -1.1864
# 4 5.9329 19.8412 6.1916 49.0965 -6.1221 -2.3973
# 5 -0.4895 6.1102 -2.2086 -6.1221 36.6666 -5.2598
# 6 6.6445 4.4519 -1.1864 -2.3973 -5.2598 40.2682
#
#
#
# Elastic Compliance Matrix: (Units=1/GPa)
#
#
# Indices 1 2 3 4 5 6 
#
# 1 0.008502 -0.002033 -0.001423 -0.000062 0.000184 -0.001200
# 2 -0.002033 0.007771 -0.003834 -0.002734 -0.002165 -0.001082
# 3 -0.001423 -0.003834 0.015261 0.000080 0.001745 0.001341
# 4 -0.000062 -0.002734 0.000080 0.022137 0.004474 0.002217
# 5 0.000184 -0.002165 0.001745 0.004474 0.029109 0.004329
# 6 -0.001200 -0.001082 0.001341 0.002217 0.004329 0.025888
#
#
# Mechanical properties :
#
#
# Convention : Reuss Voigt Hill
#
# Bulk Modulus (GPa) = 58.97632 70.41581 64.69606
# Shear Modulus (GPa) = 38.78988 43.00812 40.89900
#
# Velocity S-wave (km/s) = 4.16070 4.38109 4.27232
# Velocity P-wave (km/s) = 7.02867 7.55100 7.29451
#
# Compressibility (1/GPa) = 0.01695596
#
# Stress axis : x y z
#
# Youngs Moduli (GPa) = 117.61583 128.67953 65.52463
#
# Poissons Ratio (x) = 0.26159 0.09324
# Poissons Ratio (y) = 0.23910 0.25120
# Poissons Ratio (z) = 0.16737 0.49331
#
# Static dielectric constant tensor:
#      x y z
#    x 4.228790 -0.269700 0.085690 
#    y -0.269700 4.540670 0.085740 
#    z 0.085690 0.085740 4.103560 
# 
# 
# High freq. dielectric constant tensor:
#      x y z
#    x 1.894750 -0.004310 0.001220 
#    y -0.004310 1.905910 0.003960 
#    z 0.001220 0.003960 1.883680 
# 
# From -- ./inp_files/407325.got.cif
#   From: 2010.06.25/outbox.cif.g09.slc.cpg/sg2_204_cif.got.tgz:407325.got - 2010.06.27 13:26:56.
