data_PCOD8037664
_publ_section_title
;
Structure prediction by ZEFSAII (Michael W. Deem and Ramdas Pophale) SiO2 
 PCOD8037664
Probable space group: P -1
;
_chemical_formula_sum "Si O2"
_cell_formula_units_Z 12
_cell_length_a 10.070361
_cell_length_b 8.353407
_cell_length_c 8.498263
_cell_angle_alpha 129.054476
_cell_angle_beta 102.620628
_cell_angle_gamma 67.466894
_cell_volume 512.501971
_symmetry_space_group_name_H-M "P -1"
_symmetry_group_IT_number 2
_symmetry_cell_setting 'triclinic'
loop_
_space_group_symop_operation_xyz
x,y,z
-x,-y,-z
loop_
_atom_site_type_symbol
_atom_site_label
_atom_site_fract_x
_atom_site_fract_y
_atom_site_fract_z
Si Si1 0.371491 0.676402 0.495977
Si Si2 0.181181 0.412825 0.198938
Si Si3 0.412939 0.740173 0.182018
Si Si4 0.124591 0.051248 0.161449
Si Si5 0.941802 0.811870 0.434360
Si Si6 0.331982 0.131598 0.784695
O O1 0.500000 0.500000 0.500000
O O2 0.241365 0.580191 0.413491
O O3 0.399785 0.734957 0.361974
O O4 0.342283 0.900117 0.727287
O O5 0.191690 0.200093 0.168093
O O6 0.019581 0.574072 0.228026
O O7 0.269953 0.333968 0.012904
O O8 0.511082 0.886550 0.249665
O O9 0.255096 0.836172 0.117956
O O10 0.500000 0.500000 0.000000
O O11 0.044718 0.190642 0.376034
O O12 0.000000 0.000000 0.000000
O O13 0.775386 0.852890 0.378931
O O14 0.000000 0.000000 0.500000
#
# Coordination Sequence:
#
# PCOD8037664 Si02
#       6
#     2   2   2   2   2   2
#     4  12  27  47  77 109 151 197 252 316 380 454
#     4  12  27  47  73 114 150 201 255 310 382 450
#     4  12  27  49  76 114 151 201 253 311 385 442
#     4  12  29  49  77 112 157 201 254 312 378 460
#     4  12  25  50  77 108 150 205 255 309 382 454
#     4  12  26  48  80 108 158 192 256 315 379 451
#
# _framework density 23.414545
#
# number of rings (size 3 to 8) (size 9 to 14) (size 15 to 20)
#    0.000    0.000    5.000    3.500    7.000    1.333 
#    0.000    0.000    0.000    0.000    0.000    0.000 
#    0.000    0.000    0.000    0.000    0.000    0.000 
#
# Total GULP energy -148765.736883 kJ/mol
# GULP energy per Si atom -12397.144740 kJ/mol
# Density = 2.336125 g / cm^3
# Si number density = 23.414545 Si / 1000 Ang^3
#
#
#
# Elastic Constant Matrix: (Units=GPa)
#
#
# Indices 1 2 3 4 5 6 
#
# 1 134.1951 46.4174 40.0747 -5.7305 13.7318 -6.4756
# 2 46.4174 141.3299 42.4803 10.1999 2.1764 -21.0312
# 3 40.0747 42.4803 96.6561 13.1756 -0.6468 -10.3126
# 4 -5.7305 10.1999 13.1756 46.2541 0.4112 -3.2288
# 5 13.7318 2.1764 -0.6468 0.4112 43.9674 4.0938
# 6 -6.4756 -21.0312 -10.3126 -3.2288 4.0938 49.2759
#
#
#
# Elastic Compliance Matrix: (Units=1/GPa)
#
#
# Indices 1 2 3 4 5 6 
#
# 1 0.009684 -0.002311 -0.003387 0.002701 -0.002985 0.000002
# 2 -0.002311 0.009146 -0.002558 -0.001366 -0.000033 0.002978
# 3 -0.003387 -0.002558 0.013480 -0.003642 0.001330 0.000935
# 4 0.002701 -0.001366 -0.003642 0.023347 -0.001107 0.000631
# 5 -0.002985 -0.000033 0.001330 -0.001107 0.023912 -0.002187
# 6 0.000002 0.002978 0.000935 0.000631 -0.002187 0.021984
#
#
# Mechanical properties :
#
#
# Convention : Reuss Voigt Hill
#
# Bulk Modulus (GPa) = 63.30199 70.01398 66.65799
# Shear Modulus (GPa) = 40.54218 44.11341 42.32780
#
# Velocity S-wave (km/s) = 4.16564 4.34524 4.25638
# Velocity P-wave (km/s) = 7.08737 7.42574 7.25852
#
# Compressibility (1/GPa) = 0.01579729
#
# Stress axis : x y z
#
# Youngs Moduli (GPa) = 103.26743 109.34213 74.18669
#
# Poissons Ratio (x) = 0.25268 0.25128
# Poissons Ratio (y) = 0.23864 0.18974
# Poissons Ratio (z) = 0.34978 0.27966
#
# Static dielectric constant tensor:
#      x y z
#    x 4.317460 -0.183210 -0.079190 
#    y -0.183210 4.625000 0.255970 
#    z -0.079190 0.255970 4.786590 
# 
# 
# High freq. dielectric constant tensor:
#      x y z
#    x 1.940760 -0.006050 -0.000180 
#    y -0.006050 1.933870 0.017760 
#    z -0.000180 0.017760 1.933260 
# 
# From -- ./inp_files/157023.got.cif
#   From: 2010.06.25/outbox.cif.g09.slc.cpg/sg2_79_cif.got.tgz:157023.got - 2010.06.27 13:26:56.
