data_PCOD8037402
_publ_section_title
;
Structure prediction by ZEFSAII (Michael W. Deem and Ramdas Pophale) SiO2 
 PCOD8037402
Probable space group: P -1
;
_chemical_formula_sum "Si O2"
_cell_formula_units_Z 14
_cell_length_a 8.479726
_cell_length_b 8.960080
_cell_length_c 9.537314
_cell_angle_alpha 109.612525
_cell_angle_beta 116.200881
_cell_angle_gamma 71.556680
_cell_volume 600.214293
_symmetry_space_group_name_H-M "P -1"
_symmetry_group_IT_number 2
_symmetry_cell_setting 'triclinic'
loop_
_space_group_symop_operation_xyz
x,y,z
-x,-y,-z
loop_
_atom_site_type_symbol
_atom_site_label
_atom_site_fract_x
_atom_site_fract_y
_atom_site_fract_z
Si Si1 0.404772 0.962941 0.306385
Si Si2 0.744011 0.737546 0.829920
Si Si3 0.088311 0.787136 0.132170
Si Si4 0.695770 0.487232 0.517169
Si Si5 0.289249 0.324177 0.690613
Si Si6 0.330969 0.469210 0.016877
Si Si7 0.022615 0.812843 0.425784
O O1 0.200997 0.931511 0.228260
O O2 0.529995 0.804272 0.240327
O O3 0.500000 0.000000 0.500000
O O4 0.396645 0.114771 0.247842
O O5 0.798925 0.595979 0.689866
O O6 0.638708 0.673420 0.898577
O O7 0.925345 0.801812 0.962085
O O8 0.993446 0.780719 0.241274
O O9 0.231828 0.624701 0.109374
O O10 0.500000 0.500000 0.500000
O O11 0.672723 0.551168 0.370478
O O12 0.789263 0.298204 0.488603
O O13 0.209442 0.417924 0.829985
O O14 0.131389 0.235910 0.551869
O O15 0.500000 0.500000 0.000000
O O16 0.000000 0.000000 0.500000
#
# Coordination Sequence:
#
# PCOD8037402 Si02
#       7
#     2   2   2   2   2   2   2
#     4  12  26  48  77 109 155 201 254 317 378 458
#     4  12  26  47  81 108 154 206 252 317 390 447
#     4  12  25  51  74 110 154 199 253 319 388 451
#     4  12  26  49  79 112 150 213 257 306 388 462
#     4  12  25  48  73 112 152 199 262 310 376 465
#     4  12  24  49  76 108 150 202 257 319 376 461
#     4  12  27  47  77 112 157 197 254 320 382 458
#
# _framework density 23.325004
#
# number of rings (size 3 to 8) (size 9 to 14) (size 15 to 20)
#    0.000    0.000    5.714    4.714    2.000    0.571 
#    2.571    0.000    0.000    0.000    0.000    0.000 
#    0.000    0.000    0.000    0.000    0.000    0.000 
#
# Total GULP energy -173489.748400 kJ/mol
# GULP energy per Si atom -12392.124886 kJ/mol
# Density = 2.327192 g / cm^3
# Si number density = 23.325004 Si / 1000 Ang^3
#
#
#
# Elastic Constant Matrix: (Units=GPa)
#
#
# Indices 1 2 3 4 5 6 
#
# 1 119.1189 64.0761 36.6962 -7.4051 9.3735 10.7279
# 2 64.0761 179.8244 75.8058 -20.1856 -4.0619 -3.9863
# 3 36.6962 75.8058 120.1540 -10.1509 -8.5185 2.9584
# 4 -7.4051 -20.1856 -10.1509 46.2827 3.9675 -1.9758
# 5 9.3735 -4.0619 -8.5185 3.9675 47.2044 0.2777
# 6 10.7279 -3.9863 2.9584 -1.9758 0.2777 44.2501
#
#
#
# Elastic Compliance Matrix: (Units=1/GPa)
#
#
# Indices 1 2 3 4 5 6 
#
# 1 0.011194 -0.003566 -0.001286 0.000064 -0.002750 -0.002929
# 2 -0.003566 0.009024 -0.004416 0.002445 0.000470 0.002079
# 3 -0.001286 -0.004416 0.011681 0.000224 0.001970 -0.000869
# 4 0.000064 0.002445 0.000224 0.022930 -0.001696 0.001224
# 5 -0.002750 0.000470 0.001970 -0.001696 0.022267 0.000362
# 6 -0.002929 0.002079 -0.000869 0.001224 0.000362 0.023607
#
#
# Mechanical properties :
#
#
# Convention : Reuss Voigt Hill
#
# Bulk Modulus (GPa) = 74.83156 85.80595 80.31875
# Shear Modulus (GPa) = 40.42255 43.71538 42.06896
#
# Velocity S-wave (km/s) = 4.16746 4.33388 4.25149
# Velocity P-wave (km/s) = 7.43699 7.86831 7.65569
#
# Compressibility (1/GPa) = 0.01336335
#
# Stress axis : x y z
#
# Youngs Moduli (GPa) = 89.33590 110.81125 85.60707
#
# Poissons Ratio (x) = 0.39518 0.11010
# Poissons Ratio (y) = 0.31860 0.37801
# Poissons Ratio (z) = 0.11490 0.48930
#
# Static dielectric constant tensor:
#      x y z
#    x 4.579600 0.199860 -0.181680 
#    y 0.199860 4.552110 0.399030 
#    z -0.181680 0.399030 4.750000 
# 
# 
# High freq. dielectric constant tensor:
#      x y z
#    x 1.927520 0.015240 -0.000090 
#    y 0.015240 1.929190 0.009740 
#    z -0.000090 0.009740 1.931290 
# 
# From -- ./inp_files/159255.got.cif
#   From: 2010.06.25/outbox.cif.g09.slc.cpg/sg2_80_cif.got.tgz:159255.got - 2010.06.27 13:26:56.
