data_PCOD8037831
_publ_section_title
;
Structure prediction by ZEFSAII (Michael W. Deem and Ramdas Pophale) SiO2 
 PCOD8037831
Probable space group: P -1
;
_chemical_formula_sum "Si O2"
_cell_formula_units_Z 16
_cell_length_a 13.567977
_cell_length_b 9.676052
_cell_length_c 12.024585
_cell_angle_alpha 52.187141
_cell_angle_beta 46.059049
_cell_angle_gamma 51.538168
_cell_volume 842.704796
_symmetry_space_group_name_H-M "P -1"
_symmetry_group_IT_number 2
_symmetry_cell_setting 'triclinic'
loop_
_space_group_symop_operation_xyz
x,y,z
-x,-y,-z
loop_
_atom_site_type_symbol
_atom_site_label
_atom_site_fract_x
_atom_site_fract_y
_atom_site_fract_z
Si Si1 0.400387 0.306657 0.694730
Si Si2 0.977725 0.173716 0.252226
Si Si3 0.347589 0.686288 0.648896
Si Si4 0.990337 0.255655 0.781703
Si Si5 0.217239 0.885672 0.854234
Si Si6 0.137178 0.523609 0.636071
Si Si7 0.151878 0.778047 0.312385
Si Si8 0.738514 0.971647 0.019796
O O1 0.403886 0.461517 0.705549
O O2 0.552870 0.233778 0.545614
O O3 0.269173 0.385826 0.670508
O O4 0.376921 0.132459 0.863059
O O5 0.818021 0.229062 0.300912
O O6 0.978678 0.322809 0.272068
O O7 0.025996 0.963582 0.367812
O O8 0.095302 0.171913 0.063570
O O9 0.351766 0.752811 0.740016
O O10 0.048264 0.417797 0.691925
O O11 0.913226 0.305494 0.697798
O O12 0.119348 0.056262 0.769959
O O13 0.875369 0.239818 0.970973
O O14 0.279870 0.968626 0.866766
O O15 0.207773 0.626352 0.440195
O O16 0.285106 0.845206 0.129915
#
# Coordination Sequence:
#
# PCOD8037831 Si02
#       8
#     2   2   2   2   2   2   2   2
#     4  10  22  34  51  82 101 135 171 209 255 299
#     4   9  19  33  55  77 100 134 170 213 252 295
#     4  10  20  34  53  75 109 132 167 216 252 299
#     4  10  18  30  51  81 103 131 168 210 260 296
#     4  10  17  32  51  75 105 131 166 211 255 294
#     4  11  20  31  53  78 108 131 170 211 254 302
#     4   9  19  34  51  77 106 133 164 214 259 296
#     4   9  19  35  52  80 100 131 177 208 253 301
#
# _framework density 18.986483
#
# number of rings (size 3 to 8) (size 9 to 14) (size 15 to 20)
#    0.750    1.500    2.500    1.500    1.750    1.500 
#    0.000    0.000    0.000   11.250    0.000    0.000 
#    0.000    0.000    0.000    0.000    0.000    0.000 
#
# Total GULP energy -198261.456996 kJ/mol
# GULP energy per Si atom -12391.341062 kJ/mol
# Density = 1.894327 g / cm^3
# Si number density = 18.986483 Si / 1000 Ang^3
#
#
#
# Elastic Constant Matrix: (Units=GPa)
#
#
# Indices 1 2 3 4 5 6 
#
# 1 26.0809 21.5976 20.5382 1.4392 -1.1708 21.2830
# 2 21.5976 78.0953 56.6122 15.4591 -1.7198 29.7073
# 3 20.5382 56.6122 102.9611 2.4914 -11.5481 24.6296
# 4 1.4392 15.4591 2.4914 34.4368 3.1208 2.4017
# 5 -1.1708 -1.7198 -11.5481 3.1208 30.7482 -3.3303
# 6 21.2830 29.7073 24.6296 2.4017 -3.3303 23.6366
#
#
#
# Elastic Compliance Matrix: (Units=1/GPa)
#
#
# Indices 1 2 3 4 5 6 
#
# 1 0.166829 0.028071 -0.007210 -0.005303 -0.013674 -0.179373
# 2 0.028071 0.041497 -0.013935 -0.013779 -0.007217 -0.062528
# 3 -0.007210 -0.013935 0.018025 0.004328 0.005884 0.005613
# 4 -0.005303 -0.013779 0.004328 0.034282 -0.001320 0.013914
# 5 -0.013674 -0.007217 0.005884 -0.001320 0.036160 0.020481
# 6 -0.179373 -0.062528 0.005613 0.013914 0.020481 0.278030
#
#
# Mechanical properties :
#
#
# Convention : Reuss Voigt Hill
#
# Bulk Modulus (GPa) = 4.16315 44.95928 24.56121
# Shear Modulus (GPa) = 7.79983 24.99025 16.39504
#
# Velocity S-wave (km/s) = 2.02904 3.63190 2.94174
# Velocity P-wave (km/s) = 2.77251 6.42796 4.95002
#
# Compressibility (1/GPa) = 0.24020294
#
# Stress axis : x y z
#
# Youngs Moduli (GPa) = 5.99417 24.09787 55.47746
#
# Poissons Ratio (x) = -0.67645 0.40000
# Poissons Ratio (y) = -0.16826 0.77309
# Poissons Ratio (z) = 0.04322 0.33581
#
# Static dielectric constant tensor:
#      x y z
#    x 3.145750 0.356510 0.021510 
#    y 0.356510 3.558320 0.088790 
#    z 0.021510 0.088790 3.492230 
# 
# 
# High freq. dielectric constant tensor:
#      x y z
#    x 1.705760 0.035460 0.001070 
#    y 0.035460 1.730510 -0.000360 
#    z 0.001070 -0.000360 1.734630 
# 
# From -- ./inp_files/416446.got.cif
#   From: 2010.06.25/outbox.cif.g09.slc.cpg/sg2_209_cif.got.tgz:416446.got - 2010.06.27 13:26:56.
