data_PCOD8037724
_publ_section_title
;
Structure prediction by ZEFSAII (Michael W. Deem and Ramdas Pophale) SiO2 
 PCOD8037724
Probable space group: P -1
;
_chemical_formula_sum "Si O2"
_cell_formula_units_Z 14
_cell_length_a 8.496763
_cell_length_b 5.204970
_cell_length_c 14.996104
_cell_angle_alpha 88.574902
_cell_angle_beta 117.487948
_cell_angle_gamma 92.447848
_cell_volume 587.790855
_symmetry_space_group_name_H-M "P -1"
_symmetry_group_IT_number 2
_symmetry_cell_setting 'triclinic'
loop_
_space_group_symop_operation_xyz
x,y,z
-x,-y,-z
loop_
_atom_site_type_symbol
_atom_site_label
_atom_site_fract_x
_atom_site_fract_y
_atom_site_fract_z
Si Si1 0.141219 0.913043 0.466309
Si Si2 0.616908 0.261302 0.762941
Si Si3 0.204071 0.465296 0.046977
Si Si4 0.803638 0.337513 0.137097
Si Si5 0.635457 0.578900 0.458416
Si Si6 0.970839 0.147537 0.759648
Si Si7 0.535744 0.917981 0.909772
O O1 0.239560 0.659313 0.528298
O O2 0.044754 0.831667 0.350721
O O3 0.268869 0.162038 0.481844
O O4 0.000000 0.000000 0.500000
O O5 0.711354 0.503717 0.833706
O O6 0.463800 0.355004 0.658663
O O7 0.773249 0.125151 0.750795
O O8 0.523104 0.106775 0.821069
O O9 0.265148 0.186727 0.035288
O O10 0.265926 0.669883 0.984811
O O11 0.000000 0.500000 0.000000
O O12 0.624962 0.297296 0.150128
O O13 0.906843 0.609360 0.178841
O O14 0.938151 0.112829 0.188809
O O15 0.500000 0.500000 0.500000
O O16 0.500000 0.000000 0.000000
#
# Coordination Sequence:
#
# PCOD8037724 Si02
#       7
#     2   2   2   2   2   2   2
#     4  12  29  54  81 119 159 200 263 338 397 459
#     4  12  29  46  82 111 156 214 261 312 400 465
#     4  12  26  47  76 111 160 206 262 315 386 476
#     4  12  27  47  78 115 161 201 261 321 391 463
#     4  12  28  53  83 115 157 205 268 327 390 471
#     4  12  28  50  81 113 156 213 262 320 394 476
#     4  12  28  48  74 116 162 206 262 326 387 458
#
# _framework density 23.817995
#
# number of rings (size 3 to 8) (size 9 to 14) (size 15 to 20)
#    0.000    0.000    4.286    3.857    6.000    1.143 
#    0.000    0.000    0.000    0.000    0.000    0.000 
#    0.000    0.000    0.000    0.000    0.000    0.000 
#
# Total GULP energy -173497.684596 kJ/mol
# GULP energy per Si atom -12392.691757 kJ/mol
# Density = 2.376378 g / cm^3
# Si number density = 23.817995 Si / 1000 Ang^3
#
#
#
# Elastic Constant Matrix: (Units=GPa)
#
#
# Indices 1 2 3 4 5 6 
#
# 1 104.0749 41.9936 52.8233 -3.3101 -17.7529 -13.2459
# 2 41.9936 132.6727 47.3403 -17.2034 5.1729 -13.9920
# 3 52.8233 47.3403 150.7645 -24.8705 -18.2079 -9.0224
# 4 -3.3101 -17.2034 -24.8705 43.5231 3.2238 6.7025
# 5 -17.7529 5.1729 -18.2079 3.2238 39.2327 -5.8600
# 6 -13.2459 -13.9920 -9.0224 6.7025 -5.8600 53.8805
#
#
#
# Elastic Compliance Matrix: (Units=1/GPa)
#
#
# Indices 1 2 3 4 5 6 
#
# 1 0.014094 -0.003562 -0.003450 -0.003212 0.005960 0.003010
# 2 -0.003562 0.009898 -0.001835 0.002787 -0.003905 0.000616
# 3 -0.003450 -0.001835 0.009441 0.004201 0.002722 0.000030
# 4 -0.003212 0.002787 0.004201 0.026881 -0.002525 -0.002981
# 5 0.005960 -0.003905 0.002722 -0.002525 0.030855 0.004577
# 6 0.003010 0.000616 0.000030 -0.002981 0.004577 0.020333
#
#
# Mechanical properties :
#
#
# Convention : Reuss Voigt Hill
#
# Bulk Modulus (GPa) = 63.53031 74.64740 69.08885
# Shear Modulus (GPa) = 37.19079 43.68423 40.43751
#
# Velocity S-wave (km/s) = 3.95582 4.28727 4.12487
# Velocity P-wave (km/s) = 6.89897 7.47772 7.19417
#
# Compressibility (1/GPa) = 0.01574052
#
# Stress axis : x y z
#
# Youngs Moduli (GPa) = 70.95222 101.02906 105.91707
#
# Poissons Ratio (x) = 0.35982 0.36539
# Poissons Ratio (y) = 0.25270 0.19438
# Poissons Ratio (z) = 0.24477 0.18541
#
# Static dielectric constant tensor:
#      x y z
#    x 4.826380 0.205640 0.200600 
#    y 0.205640 4.749180 -0.371470 
#    z 0.200600 -0.371470 3.751510 
# 
# 
# High freq. dielectric constant tensor:
#      x y z
#    x 1.966160 0.001130 -0.001040 
#    y 0.001130 1.953610 -0.005360 
#    z -0.001040 -0.005360 1.956710 
# 
# From -- ./inp_files/487242.got.cif
#   From: 2010.06.25/outbox.cif.g09.slc.cpg/sg2_244_cif.got.tgz:487242.got - 2010.06.27 13:26:56.
