data_PCOD8037743
_publ_section_title
;
Structure prediction by ZEFSAII (Michael W. Deem and Ramdas Pophale) SiO2 
 PCOD8037743
Probable space group: P -1
;
_chemical_formula_sum "Si O2"
_cell_formula_units_Z 12
_cell_length_a 9.774539
_cell_length_b 14.255025
_cell_length_c 9.507864
_cell_angle_alpha 72.144113
_cell_angle_beta 106.348214
_cell_angle_gamma 42.583588
_cell_volume 525.819940
_symmetry_space_group_name_H-M "P -1"
_symmetry_group_IT_number 2
_symmetry_cell_setting 'triclinic'
loop_
_space_group_symop_operation_xyz
x,y,z
-x,-y,-z
loop_
_atom_site_type_symbol
_atom_site_label
_atom_site_fract_x
_atom_site_fract_y
_atom_site_fract_z
Si Si1 0.427264 0.279652 0.555959
Si Si2 0.282988 0.215620 0.919802
Si Si3 0.193061 0.845210 0.487161
Si Si4 0.639003 0.950342 0.709927
Si Si5 0.645509 0.403001 0.935242
Si Si6 0.651260 0.176138 0.964129
O O1 0.600174 0.191814 0.495789
O O2 0.679909 0.148824 0.816051
O O3 0.095496 0.550434 0.348753
O O4 0.374175 0.193938 0.583968
O O5 0.377173 0.270217 0.895620
O O6 0.312691 0.171711 0.114499
O O7 0.500000 0.000000 0.000000
O O8 0.440555 0.602140 0.686810
O O9 0.000000 0.000000 0.500000
O O10 0.966828 0.946688 0.248920
O O11 0.500000 0.000000 0.500000
O O12 0.976503 0.801044 0.860946
O O13 0.572199 0.338077 0.897243
O O14 0.500000 0.500000 0.000000
#
# Coordination Sequence:
#
# PCOD8037743 Si02
#       6
#     2   2   2   2   2   2
#     4  12  27  50  74 112 150 198 258 307 375 451
#     4  12  29  50  74 112 152 199 253 308 382 446
#     4  12  26  48  76 111 151 196 253 310 376 443
#     4  12  29  48  78 108 152 200 250 312 380 444
#     4  12  27  48  75 112 150 196 253 309 375 444
#     4  12  28  45  81 108 152 198 252 312 373 445
#
# _framework density 22.8215
#
# number of rings (size 3 to 8) (size 9 to 14) (size 15 to 20)
#    0.000    0.000    6.667    1.000    9.333    1.333 
#    0.000    0.000    0.000    0.000    0.000    0.000 
#    0.000    0.000    0.000    0.000    0.000    0.000 
#
# Total GULP energy -148727.869278 kJ/mol
# GULP energy per Si atom -12393.989106 kJ/mol
# Density = 2.276956 g / cm^3
# Si number density = 22.821500 Si / 1000 Ang^3
#
#
#
# Elastic Constant Matrix: (Units=GPa)
#
#
# Indices 1 2 3 4 5 6 
#
# 1 146.2683 55.1661 49.3524 7.8374 -11.7257 6.7158
# 2 55.1661 117.7277 64.2827 6.8473 -2.0911 10.7112
# 3 49.3524 64.2827 184.4689 4.5579 -18.1314 17.2845
# 4 7.8374 6.8473 4.5579 43.4774 -1.0942 0.4911
# 5 -11.7257 -2.0911 -18.1314 -1.0942 38.4869 3.6249
# 6 6.7158 10.7112 17.2845 0.4911 3.6249 48.7047
#
#
#
# Elastic Compliance Matrix: (Units=1/GPa)
#
#
# Indices 1 2 3 4 5 6 
#
# 1 0.008661 -0.003479 -0.000857 -0.000869 0.002047 -0.000269
# 2 -0.003479 0.012055 -0.003360 -0.000959 -0.001937 -0.000825
# 3 -0.000857 -0.003360 0.007320 0.000019 0.003192 -0.001978
# 4 -0.000869 -0.000959 0.000019 0.023314 0.000349 0.000063
# 5 0.002047 -0.001937 0.003192 0.000349 0.028306 -0.003099
# 6 -0.000269 -0.000825 -0.001978 0.000063 -0.003099 0.021683
#
#
# Mechanical properties :
#
#
# Convention : Reuss Voigt Hill
#
# Bulk Modulus (GPa) = 79.08573 87.34080 83.21326
# Shear Modulus (GPa) = 41.34094 44.77806 43.05950
#
# Velocity S-wave (km/s) = 4.26078 4.43436 4.34844
# Velocity P-wave (km/s) = 7.67691 8.03570 7.85835
#
# Compressibility (1/GPa) = 0.01264451
#
# Stress axis : x y z
#
# Youngs Moduli (GPa) = 115.45913 82.95053 136.62062
#
# Poissons Ratio (x) = 0.28861 0.11708
# Poissons Ratio (y) = 0.40171 0.45898
# Poissons Ratio (z) = 0.09894 0.27868
#
# Static dielectric constant tensor:
#      x y z
#    x 4.424570 -0.212210 -0.259310 
#    y -0.212210 3.941600 -0.010790 
#    z -0.259310 -0.010790 4.420530 
# 
# 
# High freq. dielectric constant tensor:
#      x y z
#    x 1.915930 -0.006510 -0.021270 
#    y -0.006510 1.898130 -0.000210 
#    z -0.021270 -0.000210 1.920340 
# 
# From -- ./inp_files/148762.got.cif
#   From: 2010.06.25/outbox.cif.g09.slc.cpg/sg2_75_cif.got.tgz:148762.got - 2010.06.27 13:26:56.
