data_PCOD8037022
_publ_section_title
;
Structure prediction by ZEFSAII (Michael W. Deem and Ramdas Pophale) SiO2 
 PCOD8037022
Probable space group: P -1
;
_chemical_formula_sum "Si O2"
_cell_formula_units_Z 16
_cell_length_a 10.830869
_cell_length_b 8.536042
_cell_length_c 9.633134
_cell_angle_alpha 113.415005
_cell_angle_beta 67.515349
_cell_angle_gamma 74.341799
_cell_volume 655.034000
_symmetry_space_group_name_H-M "P -1"
_symmetry_group_IT_number 2
_symmetry_cell_setting 'triclinic'
loop_
_space_group_symop_operation_xyz
x,y,z
-x,-y,-z
loop_
_atom_site_type_symbol
_atom_site_label
_atom_site_fract_x
_atom_site_fract_y
_atom_site_fract_z
Si Si1 0.833698 0.876365 0.030745
Si Si2 0.265486 0.935585 0.132233
Si Si3 0.409006 0.264664 0.983858
Si Si4 0.733836 0.205914 0.397223
Si Si5 0.813063 0.292829 0.691039
Si Si6 0.822918 0.460931 0.262598
Si Si7 0.456760 0.220754 0.641585
Si Si8 0.907997 0.679401 0.501843
O O1 0.702037 0.825351 0.025793
O O2 0.806005 0.983584 0.228239
O O3 0.999118 0.680881 0.902982
O O4 0.820394 0.028805 0.968254
O O5 0.450543 0.838913 0.003042
O O6 0.206066 0.818506 0.209689
O O7 0.212745 0.146531 0.291970
O O8 0.499274 0.233252 0.787650
O O9 0.316830 0.482426 0.159761
O O10 0.810975 0.200805 0.509849
O O11 0.753134 0.339329 0.322074
O O12 0.553495 0.287203 0.526873
O O13 0.981856 0.269209 0.618664
O O14 0.720483 0.598282 0.227554
O O15 0.803345 0.631240 0.433330
O O16 0.500000 0.000000 0.500000
O O17 0.000000 0.500000 0.500000
#
# Coordination Sequence:
#
# PCOD8037022 Si02
#       8
#     2   2   2   2   2   2   2   2
#     4  12  27  50  75 116 150 200 249 310 386 443
#     4  12  26  46  78 112 155 192 259 313 371 448
#     4  12  26  50  76 110 153 202 251 307 379 450
#     4  12  27  49  78 112 153 200 250 309 380 447
#     4  12  26  49  77 111 155 196 256 313 372 449
#     4  12  27  48  77 110 159 194 251 310 378 455
#     4  12  27  52  74 114 152 200 251 310 383 446
#     4  12  23  47  74 110 148 202 249 306 378 444
#
# _framework density 24.426210000000001
#
# number of rings (size 3 to 8) (size 9 to 14) (size 15 to 20)
#    0.000    0.000    6.250    2.625    1.750    1.500 
#    2.250    0.000    0.000    0.000    0.000    0.000 
#    0.000    0.000    0.000    0.000    0.000    0.000 
#
# Total GULP energy -198354.010372 kJ/mol
# GULP energy per Si atom -12397.125648 kJ/mol
# Density = 2.437062 g / cm^3
# Si number density = 24.426210 Si / 1000 Ang^3
#
#
#
# Elastic Constant Matrix: (Units=GPa)
#
#
# Indices 1 2 3 4 5 6 
#
# 1 70.3992 32.6024 19.1777 14.1662 -7.3897 5.2451
# 2 32.6024 94.8052 23.1019 11.1841 -6.4621 -3.4148
# 3 19.1777 23.1019 125.2520 22.3408 5.5838 -0.6543
# 4 14.1662 11.1841 22.3408 31.5694 2.4904 -7.1670
# 5 -7.3897 -6.4621 5.5838 2.4904 38.5737 3.4656
# 6 5.2451 -3.4148 -0.6543 -7.1670 3.4656 44.5312
#
#
#
# Elastic Compliance Matrix: (Units=1/GPa)
#
#
# Indices 1 2 3 4 5 6 
#
# 1 0.019098 -0.005403 -0.000810 -0.007316 0.003715 -0.004142
# 2 -0.005403 0.013009 -0.001453 -0.000949 0.001294 0.001359
# 3 -0.000810 -0.001453 0.009482 -0.005891 -0.001326 -0.000722
# 4 -0.007316 -0.000949 -0.005891 0.041536 -0.004082 0.007705
# 5 0.003715 0.001294 -0.001326 -0.004082 0.027592 -0.003162
# 6 -0.004142 0.001359 -0.000722 0.007705 -0.003162 0.024524
#
#
# Mechanical properties :
#
#
# Convention : Reuss Voigt Hill
#
# Bulk Modulus (GPa) = 38.08558 48.91337 43.49947
# Shear Modulus (GPa) = 31.38191 37.30649 34.34420
#
# Velocity S-wave (km/s) = 3.58825 3.91233 3.75379
# Velocity P-wave (km/s) = 5.72654 6.36214 6.05269
#
# Compressibility (1/GPa) = 0.02625666
#
# Stress axis : x y z
#
# Youngs Moduli (GPa) = 52.36016 76.86775 105.46168
#
# Poissons Ratio (x) = 0.41534 0.08542
# Poissons Ratio (y) = 0.28292 0.15328
# Poissons Ratio (z) = 0.04241 0.11172
#
# Static dielectric constant tensor:
#      x y z
#    x 4.725350 -0.175850 -0.066000 
#    y -0.175850 4.881890 0.009620 
#    z -0.066000 0.009620 4.661680 
# 
# 
# High freq. dielectric constant tensor:
#      x y z
#    x 1.980250 0.007180 -0.003800 
#    y 0.007180 1.974490 0.006400 
#    z -0.003800 0.006400 1.983990 
# 
# From -- ./inp_files/244988.got.cif
#   From: 2010.06.25/outbox.cif.g09.slc.cpg/sg2_123_cif.got.tgz:244988.got - 2010.06.27 13:26:56.
