data_PCOD8037185
_publ_section_title
;
Structure prediction by ZEFSAII (Michael W. Deem and Ramdas Pophale) SiO2 
 PCOD8037185
Probable space group: P -1
;
_chemical_formula_sum "Si O2"
_cell_formula_units_Z 8
_cell_length_a 5.427292
_cell_length_b 5.575457
_cell_length_c 10.853105
_cell_angle_alpha 94.312326
_cell_angle_beta 59.766831
_cell_angle_gamma 77.402052
_cell_volume 270.161980
_symmetry_space_group_name_H-M "P -1"
_symmetry_group_IT_number 2
_symmetry_cell_setting 'triclinic'
loop_
_space_group_symop_operation_xyz
x,y,z
-x,-y,-z
loop_
_atom_site_type_symbol
_atom_site_label
_atom_site_fract_x
_atom_site_fract_y
_atom_site_fract_z
Si Si1 0.853335 0.401390 0.895266
Si Si2 0.134861 0.831490 0.823921
Si Si3 0.256135 0.493264 0.338494
Si Si4 0.739285 0.134847 0.478106
O O1 0.908923 0.355625 0.733077
O O2 0.004012 0.617400 0.913230
O O3 0.500000 0.500000 0.000000
O O4 0.973847 0.122923 0.919454
O O5 0.489103 0.769484 0.768097
O O6 0.098664 0.804481 0.683904
O O7 0.450046 0.630790 0.380064
O O8 0.000000 0.500000 0.500000
O O9 0.500000 0.000000 0.500000
O O10 0.000000 0.000000 0.500000
#
# Coordination Sequence:
#
# PCOD8037185 Si02
#       4
#     2   2   2   2
#     4  12  29  51  76 112 159 212 269 324 398 483
#     4  12  27  47  79 112 159 206 267 330 401 476
#     4  12  26  47  80 118 160 204 266 337 407 479
#     4  12  24  44  79 121 161 202 264 338 412 476
#
# _framework density 29.611868999999999
#
# number of rings (size 3 to 8) (size 9 to 14) (size 15 to 20)
#    0.000    0.000    5.000    4.500    0.000    4.000 
#    0.000    0.000    0.000    0.000    0.000    0.000 
#    0.000    0.000    0.000    0.000    0.000    0.000 
#
# Total GULP energy -99126.333821 kJ/mol
# GULP energy per Si atom -12390.791728 kJ/mol
# Density = 2.954447 g / cm^3
# Si number density = 29.611869 Si / 1000 Ang^3
#
#
#
# Elastic Constant Matrix: (Units=GPa)
#
#
# Indices 1 2 3 4 5 6 
#
# 1 131.7199 89.6795 34.2401 0.3511 -36.4491 -0.7356
# 2 89.6795 245.4814 97.7749 -6.3762 -12.1039 -11.0204
# 3 34.2401 97.7749 107.9190 -11.7311 -25.0868 5.0598
# 4 0.3511 -6.3762 -11.7311 62.3695 -8.6810 6.3168
# 5 -36.4491 -12.1039 -25.0868 -8.6810 62.5881 8.8649
# 6 -0.7356 -11.0204 5.0598 6.3168 8.8649 65.2584
#
#
#
# Elastic Compliance Matrix: (Units=1/GPa)
#
#
# Indices 1 2 3 4 5 6 
#
# 1 0.012834 -0.005614 0.003162 0.001316 0.008162 -0.002285
# 2 -0.005614 0.009180 -0.008105 -0.001609 -0.005391 0.003003
# 3 0.003162 -0.008105 0.018328 0.004273 0.008831 -0.004367
# 4 0.001316 -0.001609 0.004273 0.017669 0.005041 -0.002983
# 5 0.008162 -0.005391 0.008831 0.005041 0.024684 -0.005344
# 6 -0.002285 0.003003 -0.004367 -0.002983 -0.005344 0.017159
#
#
# Mechanical properties :
#
#
# Convention : Reuss Voigt Hill
#
# Bulk Modulus (GPa) = 52.00612 103.16771 77.58691
# Shear Modulus (GPa) = 39.25332 55.60491 47.42911
#
# Velocity S-wave (km/s) = 3.64482 4.33805 4.00646
# Velocity P-wave (km/s) = 5.94253 7.74643 6.90365
#
# Compressibility (1/GPa) = 0.01922851
#
# Stress axis : x y z
#
# Youngs Moduli (GPa) = 77.91501 108.93420 54.56085
#
# Poissons Ratio (x) = 0.61155 -0.17251
# Poissons Ratio (y) = 0.43741 0.44220
# Poissons Ratio (z) = -0.24634 0.88288
#
# Static dielectric constant tensor:
#      x y z
#    x 5.184260 -0.818980 -0.571610 
#    y -0.818980 5.393740 -2.063120 
#    z -0.571610 -2.063120 1.209060 
# 
# 
# High freq. dielectric constant tensor:
#      x y z
#    x 2.228280 -0.007390 0.028370 
#    y -0.007390 2.225910 0.005530 
#    z 0.028370 0.005530 2.247500 
# 
# From -- ./inp_files/1822.got.cif
#   From: 2010.06.25/outbox.cif.g09.slc.cpg/sg2_1_cif.got.tgz:1822.got - 2010.06.27 13:26:56.
