data_PCOD8037274
_publ_section_title
;
Structure prediction by ZEFSAII (Michael W. Deem and Ramdas Pophale) SiO2 
 PCOD8037274
Probable space group: P -1
;
_chemical_formula_sum "Si O2"
_cell_formula_units_Z 16
_cell_length_a 8.781420
_cell_length_b 12.362459
_cell_length_c 11.618481
_cell_angle_alpha 116.741995
_cell_angle_beta 41.838510
_cell_angle_gamma 122.630754
_cell_volume 705.920225
_symmetry_space_group_name_H-M "P -1"
_symmetry_group_IT_number 2
_symmetry_cell_setting 'triclinic'
loop_
_space_group_symop_operation_xyz
x,y,z
-x,-y,-z
loop_
_atom_site_type_symbol
_atom_site_label
_atom_site_fract_x
_atom_site_fract_y
_atom_site_fract_z
Si Si1 0.747989 0.617278 0.919690
Si Si2 0.039756 0.364427 0.430530
Si Si3 0.273632 0.046707 0.165975
Si Si4 0.148944 0.207866 0.720505
Si Si5 0.915219 0.381372 0.073865
Si Si6 0.650366 0.715124 0.605771
Si Si7 0.536277 0.133259 0.606129
Si Si8 0.761675 0.888760 0.038779
O O1 0.822608 0.655813 0.767112
O O2 0.939921 0.578117 0.868605
O O3 0.500000 0.500000 0.000000
O O4 0.737360 0.750014 0.040252
O O5 0.208477 0.367448 0.447278
O O6 0.000000 0.500000 0.500000
O O7 0.802403 0.237869 0.509921
O O8 0.295817 0.143614 0.304447
O O9 0.254358 0.115847 0.090740
O O10 0.026578 0.933744 0.280787
O O11 0.500000 0.000000 0.000000
O O12 0.266675 0.281373 0.571994
O O13 0.366576 0.202419 0.675160
O O14 0.977112 0.269404 0.917346
O O15 0.637330 0.352093 0.250385
O O16 0.000000 0.500000 0.000000
O O17 0.463582 0.088444 0.758145
O O18 0.500000 0.000000 0.500000
O O19 0.000000 0.000000 0.000000
#
# Coordination Sequence:
#
# PCOD8037274 Si02
#       8
#     2   2   2   2   2   2   2   2
#     4  12  25  49  75 106 148 193 250 305 366 445
#     4  12  28  47  74 108 146 193 248 307 369 440
#     4  12  25  45  76 109 148 194 243 303 377 441
#     4  12  27  49  74 111 150 195 247 304 377 443
#     4  12  28  48  78 107 149 201 246 304 374 445
#     4  12  28  49  74 111 154 191 247 308 375 448
#     4  12  26  45  74 106 148 193 250 306 365 437
#     4  12  24  46  76 104 147 195 250 302 366 439
#
# _framework density 22.665451000000001
#
# number of rings (size 3 to 8) (size 9 to 14) (size 15 to 20)
#    0.000    0.000    5.000    4.125    7.000    0.500 
#    0.000    0.000    0.000    0.000    0.000    0.000 
#    0.000    0.000    0.000    0.000    0.000    0.000 
#
# Total GULP energy -198328.080514 kJ/mol
# GULP energy per Si atom -12395.505032 kJ/mol
# Density = 2.261386 g / cm^3
# Si number density = 22.665451 Si / 1000 Ang^3
#
#
#
# Elastic Constant Matrix: (Units=GPa)
#
#
# Indices 1 2 3 4 5 6 
#
# 1 132.6672 42.8074 42.4870 -20.8017 -16.9341 -3.0808
# 2 42.8074 135.2588 38.2394 -20.0368 -17.3792 8.0149
# 3 42.4870 38.2394 140.8561 -33.8998 -3.0759 2.7354
# 4 -20.8017 -20.0368 -33.8998 51.3141 1.4304 -9.5603
# 5 -16.9341 -17.3792 -3.0759 1.4304 43.5096 -5.6591
# 6 -3.0808 8.0149 2.7354 -9.5603 -5.6591 41.6299
#
#
#
# Elastic Compliance Matrix: (Units=1/GPa)
#
#
# Indices 1 2 3 4 5 6 
#
# 1 0.009511 -0.001912 -0.001786 0.002239 0.003013 0.002113
# 2 -0.001912 0.009023 -0.001427 0.001532 0.002568 -0.001084
# 3 -0.001786 -0.001427 0.009181 0.004910 -0.000703 0.000571
# 4 0.002239 0.001532 0.004910 0.025228 0.001726 0.005576
# 5 0.003013 0.002568 -0.000703 0.001726 0.025549 0.003644
# 6 0.002113 -0.001084 0.000571 0.005576 0.003644 0.026125
#
#
# Mechanical properties :
#
#
# Convention : Reuss Voigt Hill
#
# Bulk Modulus (GPa) = 57.25777 72.87219 65.06498
# Shear Modulus (GPa) = 41.42887 46.30726 43.86807
#
# Velocity S-wave (km/s) = 4.27997 4.52494 4.40416
# Velocity P-wave (km/s) = 7.05274 7.71500 7.39129
#
# Compressibility (1/GPa) = 0.01746488
#
# Stress axis : x y z
#
# Youngs Moduli (GPa) = 105.13838 110.83075 108.92183
#
# Poissons Ratio (x) = 0.21186 0.19458
# Poissons Ratio (y) = 0.20098 0.15544
# Poissons Ratio (z) = 0.18782 0.15817
#
# Static dielectric constant tensor:
#      x y z
#    x 4.115350 0.029920 -0.085180 
#    y 0.029920 4.149360 0.175170 
#    z -0.085180 0.175170 4.398400 
# 
# 
# High freq. dielectric constant tensor:
#      x y z
#    x 1.902210 -0.000030 0.005800 
#    y -0.000030 1.907850 -0.003090 
#    z 0.005800 -0.003090 1.914580 
# 
# From -- ./inp_files/390614.got.cif
#   From: 2010.06.25/outbox.cif.g09.slc.cpg/sg2_196_cif.got.tgz:390614.got - 2010.06.27 13:26:56.
