data_PCOD8037106
_publ_section_title
;
Structure prediction by ZEFSAII (Michael W. Deem and Ramdas Pophale) SiO2 
 PCOD8037106
Probable space group: P -1
;
_chemical_formula_sum "Si O2"
_cell_formula_units_Z 16
_cell_length_a 29.876322
_cell_length_b 13.051738
_cell_length_c 9.698992
_cell_angle_alpha 144.302554
_cell_angle_beta 153.667628
_cell_angle_gamma 26.233158
_cell_volume 740.900682
_symmetry_space_group_name_H-M "P -1"
_symmetry_group_IT_number 2
_symmetry_cell_setting 'triclinic'
loop_
_space_group_symop_operation_xyz
x,y,z
-x,-y,-z
loop_
_atom_site_type_symbol
_atom_site_label
_atom_site_fract_x
_atom_site_fract_y
_atom_site_fract_z
Si Si1 0.537497 0.757336 0.356963
Si Si2 0.866773 0.635345 0.363872
Si Si3 0.807873 0.284307 0.099283
Si Si4 0.908875 0.881602 0.303524
Si Si5 0.069006 0.225114 0.052998
Si Si6 0.743117 0.042860 0.274962
Si Si7 0.282539 0.550502 0.253067
Si Si8 0.213536 0.612797 0.548354
O O1 0.578505 0.661937 0.523112
O O2 0.662555 0.585740 0.416280
O O3 0.500000 0.000000 0.500000
O O4 0.412679 0.777625 0.997830
O O5 0.887946 0.655053 0.606740
O O6 0.000000 0.500000 0.500000
O O7 0.761652 0.894699 0.294951
O O8 0.819774 0.491481 0.054348
O O9 0.747638 0.439423 0.240091
O O10 0.697603 0.435404 0.839840
O O11 0.942457 0.231972 0.368568
O O12 0.841387 0.042238 0.948392
O O13 0.837573 0.864656 0.216273
O O14 0.820188 0.150226 0.319903
O O15 0.910295 0.757948 0.034668
O O16 0.913840 0.364342 0.808059
O O17 0.782040 0.200327 0.586938
#
# Coordination Sequence:
#
# PCOD8037106 Si02
#       8
#     2   2   2   2   2   2   2   2
#     4  12  25  45  63  90 130 175 225 265 311 379
#     4  12  25  39  65 102 134 164 208 271 327 381
#     4   9  19  39  67  97 127 163 207 269 330 377
#     4   9  19  37  68  99 126 165 210 261 327 386
#     4   9  19  40  66  99 132 159 206 267 326 386
#     4  12  25  43  67  93 130 173 217 263 317 385
#     4  12  24  43  64  94 130 170 218 264 318 384
#     4   9  19  39  67  94 128 171 211 259 320 386
#
# _framework density 21.595336
#
# number of rings (size 3 to 8) (size 9 to 14) (size 15 to 20)
#    0.000    1.500    3.750    3.375    1.750    1.000 
#    2.250    4.375    0.000    0.000    0.000    0.000 
#    0.000    0.000    0.000    0.000    0.000    0.000 
#
# Total GULP energy -198377.269664 kJ/mol
# GULP energy per Si atom -12398.579354 kJ/mol
# Density = 2.154618 g / cm^3
# Si number density = 21.595336 Si / 1000 Ang^3
#
#
#
# Elastic Constant Matrix: (Units=GPa)
#
#
# Indices 1 2 3 4 5 6 
#
# 1 85.5334 18.9285 43.1977 2.5052 -24.4486 -6.1012
# 2 18.9285 80.0149 37.7065 11.0394 -11.5919 -3.0275
# 3 43.1977 37.7065 123.7345 14.2272 -16.2800 -3.2034
# 4 2.5052 11.0394 14.2272 29.2190 9.6512 4.5868
# 5 -24.4486 -11.5919 -16.2800 9.6512 39.2097 -4.7626
# 6 -6.1012 -3.0275 -3.2034 4.5868 -4.7626 27.6073
#
#
#
# Elastic Compliance Matrix: (Units=1/GPa)
#
#
# Indices 1 2 3 4 5 6 
#
# 1 0.017372 0.000181 -0.004049 -0.004139 0.010948 0.005966
# 2 0.000181 0.015880 -0.003306 -0.006776 0.005525 0.003477
# 3 -0.004049 -0.003306 0.011479 -0.005097 0.002686 0.001385
# 4 -0.004139 -0.006776 -0.005097 0.048500 -0.020316 -0.013812
# 5 0.010948 0.005525 0.002686 -0.020316 0.041771 0.013919
# 6 0.005966 0.003477 0.001385 -0.013812 0.013919 0.042779
#
#
# Mechanical properties :
#
#
# Convention : Reuss Voigt Hill
#
# Bulk Modulus (GPa) = 32.91437 54.32758 43.62098
# Shear Modulus (GPa) = 24.72113 31.83720 28.27917
#
# Velocity S-wave (km/s) = 3.38708 3.84378 3.62263
# Velocity P-wave (km/s) = 5.52910 6.70158 6.14338
#
# Compressibility (1/GPa) = 0.03038186
#
# Stress axis : x y z
#
# Youngs Moduli (GPa) = 57.56248 62.97337 87.11907
#
# Poissons Ratio (x) = -0.01143 0.35279
# Poissons Ratio (y) = -0.01044 0.28805
# Poissons Ratio (z) = 0.23310 0.20821
#
# Static dielectric constant tensor:
#      x y z
#    x 3.069220 1.248040 -0.284080 
#    y 1.248040 2.926080 -0.088290 
#    z -0.284080 -0.088290 4.021090 
# 
# 
# High freq. dielectric constant tensor:
#      x y z
#    x 1.845200 0.021640 -0.022010 
#    y 0.021640 1.845910 0.010640 
#    z -0.022010 0.010640 1.843970 
# 
# From -- ./inp_files/329117.got.cif
#   From: 2010.06.25/outbox.cif.g09.slc.cpg/sg2_165_cif.got.tgz:329117.got - 2010.06.27 13:26:56.
