data_PCOD8037648
_publ_section_title
;
Structure prediction by ZEFSAII (Michael W. Deem and Ramdas Pophale) SiO2 
 PCOD8037648
Probable space group: P -1
;
_chemical_formula_sum "Si O2"
_cell_formula_units_Z 14
_cell_length_a 16.571247
_cell_length_b 22.982510
_cell_length_c 8.645635
_cell_angle_alpha 28.098130
_cell_angle_beta 142.395425
_cell_angle_gamma 157.722195
_cell_volume 582.543462
_symmetry_space_group_name_H-M "P -1"
_symmetry_group_IT_number 2
_symmetry_cell_setting 'triclinic'
loop_
_space_group_symop_operation_xyz
x,y,z
-x,-y,-z
loop_
_atom_site_type_symbol
_atom_site_label
_atom_site_fract_x
_atom_site_fract_y
_atom_site_fract_z
Si Si1 0.084307 0.053545 0.329145
Si Si2 0.982060 0.586540 0.904592
Si Si3 0.715777 0.375149 0.268532
Si Si4 0.448812 0.989411 0.622518
Si Si5 0.333803 0.378384 0.391140
Si Si6 0.508435 0.208560 0.649964
Si Si7 0.696723 0.537334 0.392351
O O1 0.292060 0.117675 0.478018
O O2 0.142484 0.235043 0.943328
O O3 0.000000 0.000000 0.500000
O O4 0.892829 0.862036 0.374020
O O5 0.202920 0.821025 0.690415
O O6 0.793088 0.544638 0.676095
O O7 0.000000 0.500000 0.000000
O O8 0.933318 0.499119 0.210824
O O9 0.660235 0.271626 0.591678
O O10 0.533499 0.189144 0.313485
O O11 0.717212 0.519851 0.966641
O O12 0.500000 0.000000 0.500000
O O13 0.560530 0.961797 0.955825
O O14 0.500000 0.500000 0.500000
O O15 0.458167 0.412431 0.353911
O O16 0.670279 0.415834 0.504633
#
# Coordination Sequence:
#
# PCOD8037648 Si02
#       7
#     2   2   2   2   2   2   2
#     4  12  27  44  77 111 150 207 245 307 398 441
#     4  12  26  48  75 108 141 206 254 305 385 447
#     4  12  27  48  73 108 156 190 257 316 372 451
#     4  12  28  51  75 106 150 202 258 312 381 460
#     4  12  27  48  74 115 154 196 254 315 373 463
#     4  12  26  50  74 114 157 196 257 319 382 456
#     4  12  25  49  76 109 154 194 255 313 378 462
#
# _framework density 24.032541999999999
#
# number of rings (size 3 to 8) (size 9 to 14) (size 15 to 20)
#    0.000    0.000    7.143    1.714    6.000    1.143 
#    2.571    0.000    0.000    0.000    0.000    0.000 
#    0.000    0.000    0.000    0.000    0.000    0.000 
#
# Total GULP energy -173485.475732 kJ/mol
# GULP energy per Si atom -12391.819695 kJ/mol
# Density = 2.397784 g / cm^3
# Si number density = 24.032542 Si / 1000 Ang^3
#
#
#
# Elastic Constant Matrix: (Units=GPa)
#
#
# Indices 1 2 3 4 5 6 
#
# 1 142.6370 18.5204 31.5614 -6.8722 -29.7015 8.3153
# 2 18.5204 126.9397 23.9864 -29.4893 -1.5840 6.5642
# 3 31.5614 23.9864 103.2413 -21.9712 -12.3198 5.9916
# 4 -6.8722 -29.4893 -21.9712 45.0113 -2.4459 0.1106
# 5 -29.7015 -1.5840 -12.3198 -2.4459 51.6726 -5.5092
# 6 8.3153 6.5642 5.9916 0.1106 -5.5092 35.1496
#
#
#
# Elastic Compliance Matrix: (Units=1/GPa)
#
#
# Indices 1 2 3 4 5 6 
#
# 1 0.008470 -0.000759 -0.001814 0.000147 0.004326 -0.000875
# 2 -0.000759 0.009541 -0.000686 0.005793 -0.000197 -0.001534
# 3 -0.001814 -0.000686 0.011782 0.005129 0.001863 -0.001175
# 4 0.000147 0.005793 0.005129 0.028687 0.002665 -0.001663
# 5 0.004326 -0.000197 0.001863 0.002665 0.022642 0.002236
# 6 -0.000875 -0.001534 -0.001175 -0.001663 0.002236 0.029499
#
#
# Mechanical properties :
#
#
# Convention : Reuss Voigt Hill
#
# Bulk Modulus (GPa) = 42.96906 57.88383 50.42644
# Shear Modulus (GPa) = 40.03247 46.28336 43.15792
#
# Velocity S-wave (km/s) = 4.08580 4.39323 4.24230
# Velocity P-wave (km/s) = 6.33851 7.06200 6.71001
#
# Compressibility (1/GPa) = 0.02327256
#
# Stress axis : x y z
#
# Youngs Moduli (GPa) = 118.06545 104.81265 84.87472
#
# Poissons Ratio (x) = 0.07960 0.15400
# Poissons Ratio (y) = 0.08967 0.05824
# Poissons Ratio (z) = 0.21423 0.07192
#
# Static dielectric constant tensor:
#      x y z
#    x 4.855290 0.289740 -0.067840 
#    y 0.289740 4.772360 -0.202830 
#    z -0.067840 -0.202830 4.474620 
# 
# 
# High freq. dielectric constant tensor:
#      x y z
#    x 1.972970 -0.004220 -0.004840 
#    y -0.004220 1.951090 -0.016960 
#    z -0.004840 -0.016960 1.958200 
# 
# From -- ./inp_files/338647.got.cif
#   From: 2010.06.25/outbox.cif.g09.slc.cpg/sg2_170_cif.got.tgz:338647.got - 2010.06.27 13:26:56.
