data_PCOD8037365
_publ_section_title
;
Structure prediction by ZEFSAII (Michael W. Deem and Ramdas Pophale) SiO2 
 PCOD8037365
Probable space group: P -1
;
_chemical_formula_sum "Si O2"
_cell_formula_units_Z 12
_cell_length_a 8.376516
_cell_length_b 9.090935
_cell_length_c 12.290115
_cell_angle_alpha 56.515193
_cell_angle_beta 44.363301
_cell_angle_gamma 79.303284
_cell_volume 509.585697
_symmetry_space_group_name_H-M "P -1"
_symmetry_group_IT_number 2
_symmetry_cell_setting 'triclinic'
loop_
_space_group_symop_operation_xyz
x,y,z
-x,-y,-z
loop_
_atom_site_type_symbol
_atom_site_label
_atom_site_fract_x
_atom_site_fract_y
_atom_site_fract_z
Si Si1 0.062490 0.197310 0.323968
Si Si2 0.543645 0.127708 0.528333
Si Si3 0.416452 0.469788 0.430481
Si Si4 0.221061 0.943301 0.956596
Si Si5 0.402283 0.225374 0.940971
Si Si6 0.884917 0.432018 0.738048
O O1 0.173507 0.382135 0.271979
O O2 0.830284 0.228196 0.369828
O O3 0.248726 0.200547 0.136023
O O4 0.000000 0.000000 0.500000
O O5 0.403463 0.260461 0.498453
O O6 0.439709 0.017961 0.734463
O O7 0.500000 0.000000 0.500000
O O8 0.500000 0.500000 0.500000
O O9 0.625612 0.619026 0.193410
O O10 0.154792 0.491380 0.530233
O O11 0.322392 0.029209 0.992057
O O12 0.134151 0.715865 0.094024
O O13 0.000000 0.000000 0.000000
O O14 0.688123 0.312021 0.795341
#
# Coordination Sequence:
#
# PCOD8037365 Si02
#       6
#     2   2   2   2   2   2
#     4  12  29  50  71 107 152 194 244 304 366 434
#     4  12  27  46  74 105 151 189 247 304 363 432
#     4  12  24  49  73 110 143 194 246 303 365 434
#     4  12  24  48  74 111 145 190 247 300 363 440
#     4  12  27  45  75 109 149 194 244 297 370 437
#     4  12  26  47  76 105 150 191 246 306 362 436
#
# _framework density 23.548542999999999
#
# number of rings (size 3 to 8) (size 9 to 14) (size 15 to 20)
#    0.000    0.000    5.000    3.500    4.667    2.000 
#    0.000    0.000    0.000    0.000    0.000    0.000 
#    0.000    0.000    0.000    0.000    0.000    0.000 
#
# Total GULP energy -148742.278357 kJ/mol
# GULP energy per Si atom -12395.189863 kJ/mol
# Density = 2.349495 g / cm^3
# Si number density = 23.548543 Si / 1000 Ang^3
#
#
#
# Elastic Constant Matrix: (Units=GPa)
#
#
# Indices 1 2 3 4 5 6 
#
# 1 111.0358 35.2731 31.8868 4.2835 -7.8877 13.6837
# 2 35.2731 179.2875 58.2819 -9.6902 16.6078 6.6814
# 3 31.8868 58.2819 155.8914 -2.7489 21.3700 -3.4891
# 4 4.2835 -9.6902 -2.7489 45.8508 -8.5962 7.5512
# 5 -7.8877 16.6078 21.3700 -8.5962 45.3789 -10.3289
# 6 13.6837 6.6814 -3.4891 7.5512 -10.3289 35.0441
#
#
#
# Elastic Compliance Matrix: (Units=1/GPa)
#
#
# Indices 1 2 3 4 5 6 
#
# 1 0.010689 -0.001587 -0.002026 -0.000442 0.002577 -0.003218
# 2 -0.001587 0.006860 -0.001982 0.001398 -0.001992 -0.001774
# 3 -0.002026 -0.001982 0.008032 -0.000544 -0.003256 0.001126
# 4 -0.000442 0.001398 -0.000544 0.023404 0.003129 -0.004269
# 5 0.002577 -0.001992 -0.003256 0.003129 0.026766 0.006264
# 6 -0.003218 -0.001774 0.001126 -0.004269 0.006264 0.033009
#
#
# Mechanical properties :
#
#
# Convention : Reuss Voigt Hill
#
# Bulk Modulus (GPa) = 69.48835 77.45538 73.47187
# Shear Modulus (GPa) = 40.08128 46.63963 43.36045
#
# Velocity S-wave (km/s) = 4.13009 4.45519 4.29572
# Velocity P-wave (km/s) = 7.23299 7.70897 7.47477
#
# Compressibility (1/GPa) = 0.01439090
#
# Stress axis : x y z
#
# Youngs Moduli (GPa) = 93.55633 145.76344 124.49943
#
# Poissons Ratio (x) = 0.23132 0.25224
# Poissons Ratio (y) = 0.14847 0.24679
# Poissons Ratio (z) = 0.18955 0.28894
#
# Static dielectric constant tensor:
#      x y z
#    x 4.190350 0.104320 0.041420 
#    y 0.104320 4.440610 -0.217150 
#    z 0.041420 -0.217150 4.714650 
# 
# 
# High freq. dielectric constant tensor:
#      x y z
#    x 1.945150 -0.001350 0.005880 
#    y -0.001350 1.936490 -0.013120 
#    z 0.005880 -0.013120 1.946980 
# 
# From -- ./inp_files/173619.got.cif
#   From: 2010.06.25/outbox.cif.g09.slc.cpg/sg2_87_cif.got.tgz:173619.got - 2010.06.27 13:26:56.
