data_PCOD8037928
_publ_section_title
;
Structure prediction by ZEFSAII (Michael W. Deem and Ramdas Pophale) SiO2 
 PCOD8037928
Probable space group: P -1
;
_chemical_formula_sum "Si O2"
_cell_formula_units_Z 16
_cell_length_a 14.901223
_cell_length_b 15.575764
_cell_length_c 11.516976
_cell_angle_alpha 46.765781
_cell_angle_beta 65.005598
_cell_angle_gamma 26.948795
_cell_volume 725.416877
_symmetry_space_group_name_H-M "P -1"
_symmetry_group_IT_number 2
_symmetry_cell_setting 'triclinic'
loop_
_space_group_symop_operation_xyz
x,y,z
-x,-y,-z
loop_
_atom_site_type_symbol
_atom_site_label
_atom_site_fract_x
_atom_site_fract_y
_atom_site_fract_z
Si Si1 0.275975 0.949847 0.863318
Si Si2 0.674306 0.858086 0.692104
Si Si3 0.088261 0.722429 0.062284
Si Si4 0.807681 0.723491 0.499715
Si Si5 0.773849 0.501976 0.053973
Si Si6 0.968595 0.116330 0.742061
Si Si7 0.060791 0.051240 0.488424
Si Si8 0.519294 0.688997 0.593324
O O1 0.280817 0.047056 0.675073
O O2 0.541210 0.667629 0.036639
O O3 0.076117 0.187779 0.853862
O O4 0.210905 0.902186 0.871310
O O5 0.872499 0.639090 0.680403
O O6 0.404446 0.138960 0.529989
O O7 0.652009 0.011592 0.620410
O O8 0.722324 0.699272 0.903678
O O9 0.361778 0.432826 0.229928
O O10 0.085978 0.679224 0.973076
O O11 0.956381 0.991827 0.892674
O O12 0.000000 0.500000 0.500000
O O13 0.936710 0.296865 0.265488
O O14 0.738055 0.437285 0.617415
O O15 0.958930 0.150052 0.580632
O O16 0.347712 0.761210 0.608317
O O17 0.000000 0.000000 0.500000
#
# Coordination Sequence:
#
# PCOD8037928 Si02
#       8
#     2   2   2   2   2   2   2   2
#     4  10  21  36  62  94 122 157 202 257 308 361
#     4  10  21  38  60  91 126 164 202 250 307 367
#     4  11  22  39  66  95 124 162 207 259 311 363
#     4  10  17  32  60  92 126 156 198 253 306 365
#     4  11  24  41  63  93 129 163 207 253 307 372
#     4  11  24  41  64  92 125 165 210 257 311 368
#     4  12  27  43  62  91 126 170 208 256 312 368
#     4  11  24  42  65  93 126 162 209 258 309 373
#
# _framework density 22.056284000000002
#
# number of rings (size 3 to 8) (size 9 to 14) (size 15 to 20)
#    0.000    1.250    1.250    7.500    3.500    3.000 
#    0.000    0.625    0.000    0.000    0.000    0.000 
#    0.000    0.000    0.000    0.000    0.000    0.000 
#
# Total GULP energy -198291.925294 kJ/mol
# GULP energy per Si atom -12393.245331 kJ/mol
# Density = 2.200608 g / cm^3
# Si number density = 22.056284 Si / 1000 Ang^3
#
#
#
# Elastic Constant Matrix: (Units=GPa)
#
#
# Indices 1 2 3 4 5 6 
#
# 1 72.7499 32.5199 23.6139 4.2294 -15.3803 -4.6894
# 2 32.5199 106.0067 26.8716 4.3103 -0.9335 -3.3233
# 3 23.6139 26.8716 99.7206 8.4058 -3.0558 0.0713
# 4 4.2294 4.3103 8.4058 25.9287 5.3654 -7.9705
# 5 -15.3803 -0.9335 -3.0558 5.3654 28.2898 -4.9090
# 6 -4.6894 -3.3233 0.0713 -7.9705 -4.9090 29.0955
#
#
#
# Elastic Compliance Matrix: (Units=1/GPa)
#
#
# Indices 1 2 3 4 5 6 
#
# 1 0.019691 -0.005018 -0.002737 -0.002685 0.011412 0.003797
# 2 -0.005018 0.011452 -0.001987 0.000123 -0.002570 0.000104
# 3 -0.002737 -0.001987 0.011507 -0.003470 0.000063 -0.001636
# 4 -0.002685 0.000123 -0.003470 0.045110 -0.008563 0.010503
# 5 0.011412 -0.002570 0.000063 -0.008563 0.044256 0.006667
# 6 0.003797 0.000104 -0.001636 0.010503 0.006667 0.038999
#
#
# Mechanical properties :
#
#
# Convention : Reuss Voigt Hill
#
# Bulk Modulus (GPa) = 43.16740 49.38756 46.27748
# Shear Modulus (GPa) = 25.22429 29.69426 27.45928
#
# Velocity S-wave (km/s) = 3.38543 3.67317 3.53223
# Velocity P-wave (km/s) = 5.90724 6.35844 6.13699
#
# Compressibility (1/GPa) = 0.02316563
#
# Stress axis : x y z
#
# Youngs Moduli (GPa) = 50.78512 87.32059 86.90209
#
# Poissons Ratio (x) = 0.43818 0.23788
# Poissons Ratio (y) = 0.25484 0.17266
# Poissons Ratio (z) = 0.13902 0.17349
#
# Static dielectric constant tensor:
#      x y z
#    x 4.164870 -0.109720 -0.195980 
#    y -0.109720 3.956920 0.160190 
#    z -0.195980 0.160190 4.037330 
# 
# 
# High freq. dielectric constant tensor:
#      x y z
#    x 1.864920 -0.005470 -0.026360 
#    y -0.005470 1.871330 0.008540 
#    z -0.026360 0.008540 1.854580 
# 
# From -- ./inp_files/455544.got.cif
#   From: 2010.06.25/outbox.cif.g09.slc.cpg/sg2_228_cif.got.tgz:455544.got - 2010.06.27 13:26:56.
