data_PCOD8037590
_publ_section_title
;
Structure prediction by ZEFSAII (Michael W. Deem and Ramdas Pophale) SiO2 
 PCOD8037590
Probable space group: P -1
;
_chemical_formula_sum "Si O2"
_cell_formula_units_Z 14
_cell_length_a 5.312659
_cell_length_b 15.579306
_cell_length_c 12.973021
_cell_angle_alpha 144.924772
_cell_angle_beta 109.101734
_cell_angle_gamma 67.744868
_cell_volume 570.762588
_symmetry_space_group_name_H-M "P -1"
_symmetry_group_IT_number 2
_symmetry_cell_setting 'triclinic'
loop_
_space_group_symop_operation_xyz
x,y,z
-x,-y,-z
loop_
_atom_site_type_symbol
_atom_site_label
_atom_site_fract_x
_atom_site_fract_y
_atom_site_fract_z
Si Si1 0.746480 0.760657 0.592446
Si Si2 0.219889 0.916342 0.051346
Si Si3 0.019750 0.826125 0.301054
Si Si4 0.540141 0.269829 0.911850
Si Si5 0.363618 0.604271 0.277836
Si Si6 0.682076 0.811708 0.853360
Si Si7 0.251672 0.512415 0.401520
O O1 0.599969 0.702066 0.417271
O O2 0.009634 0.635950 0.538484
O O3 0.811222 0.924952 0.733574
O O4 0.567584 0.776615 0.690242
O O5 0.322104 0.777694 0.006602
O O6 0.438598 0.914061 0.986022
O O7 0.927845 0.900721 0.951561
O O8 0.246250 0.787330 0.205252
O O9 0.105922 0.713054 0.297895
O O10 0.726118 0.803393 0.202915
O O11 0.000000 0.000000 0.500000
O O12 0.463549 0.453577 0.074921
O O13 0.292199 0.559476 0.337437
O O14 0.811657 0.656906 0.779892
O O15 0.500000 0.500000 0.500000
#
# Coordination Sequence:
#
# PCOD8037590 Si02
#       7
#     2   2   2   2   2   2   2
#     4  12  28  43  76 109 154 197 255 304 374 440
#     4  12  27  47  76 108 154 201 250 310 372 434
#     4  12  29  52  80 110 149 189 252 315 374 441
#     4  12  27  51  76 111 149 193 250 307 374 447
#     4  12  28  47  79 109 152 199 247 307 378 443
#     4  12  25  48  70 108 153 203 250 303 365 444
#     4  12  26  47  73 110 153 202 250 301 367 454
#
# _framework density 24.528587999999999
#
# number of rings (size 3 to 8) (size 9 to 14) (size 15 to 20)
#    0.000    0.000    2.857    6.000    8.000    0.000 
#    0.000    0.000    0.000    0.000    0.000    0.000 
#    0.000    0.000    0.000    0.000    0.000    0.000 
#
# Total GULP energy -173669.582378 kJ/mol
# GULP energy per Si atom -12404.970170 kJ/mol
# Density = 2.447276 g / cm^3
# Si number density = 24.528588 Si / 1000 Ang^3
#
#
#
# Elastic Constant Matrix: (Units=GPa)
#
#
# Indices 1 2 3 4 5 6 
#
# 1 142.4364 28.9687 65.9480 -2.7324 -4.3586 -7.5252
# 2 28.9687 89.2982 19.8956 2.0882 -14.2502 -8.3150
# 3 65.9480 19.8956 173.2801 17.3533 -1.2165 -14.1086
# 4 -2.7324 2.0882 17.3533 45.4551 0.2207 -3.1305
# 5 -4.3586 -14.2502 -1.2165 0.2207 39.6233 -1.1710
# 6 -7.5252 -8.3150 -14.1086 -3.1305 -1.1710 36.4000
#
#
#
# Elastic Compliance Matrix: (Units=1/GPa)
#
#
# Indices 1 2 3 4 5 6 
#
# 1 0.009087 -0.002202 -0.003381 0.001954 0.000100 0.000236
# 2 -0.002202 0.012950 -0.000373 -0.000437 0.004479 0.002465
# 3 -0.003381 -0.000373 0.007547 -0.002937 -0.000202 0.001882
# 4 0.001954 -0.000437 -0.002937 0.023340 -0.000128 0.001169
# 5 0.000100 0.004479 -0.000202 -0.000128 0.026908 0.001820
# 6 0.000236 0.002465 0.001882 0.001169 0.001820 0.028973
#
#
# Mechanical properties :
#
#
# Convention : Reuss Voigt Hill
#
# Bulk Modulus (GPa) = 56.58930 70.51548 63.55239
# Shear Modulus (GPa) = 39.49200 43.64251 41.56725
#
# Velocity S-wave (km/s) = 4.01688 4.22269 4.12107
# Velocity P-wave (km/s) = 6.68092 7.25159 6.97209
#
# Compressibility (1/GPa) = 0.01767119
#
# Stress axis : x y z
#
# Youngs Moduli (GPa) = 110.04536 77.21721 132.51026
#
# Poissons Ratio (x) = 0.17006 0.44806
# Poissons Ratio (y) = 0.24236 0.04941
# Poissons Ratio (z) = 0.37210 0.02879
#
# Static dielectric constant tensor:
#      x y z
#    x 4.461710 -0.034710 0.387410 
#    y -0.034710 4.676270 0.227450 
#    z 0.387410 0.227450 5.807590 
# 
# 
# High freq. dielectric constant tensor:
#      x y z
#    x 1.974500 0.004640 0.005170 
#    y 0.004640 1.991060 0.018860 
#    z 0.005170 0.018860 1.997470 
# 
# From -- ./inp_files/485353.got.cif
#   From: 2010.06.25/outbox.cif.g09.slc.cpg/sg2_243_cif.got.tgz:485353.got - 2010.06.27 13:26:56.
