data_PCOD8037404
_publ_section_title
;
Structure prediction by ZEFSAII (Michael W. Deem and Ramdas Pophale) SiO2 
 PCOD8037404
Probable space group: P -1
;
_chemical_formula_sum "Si O2"
_cell_formula_units_Z 16
_cell_length_a 15.075128
_cell_length_b 13.194512
_cell_length_c 9.160509
_cell_angle_alpha 44.123546
_cell_angle_beta 118.515162
_cell_angle_gamma 145.887534
_cell_volume 678.779738
_symmetry_space_group_name_H-M "P -1"
_symmetry_group_IT_number 2
_symmetry_cell_setting 'triclinic'
loop_
_space_group_symop_operation_xyz
x,y,z
-x,-y,-z
loop_
_atom_site_type_symbol
_atom_site_label
_atom_site_fract_x
_atom_site_fract_y
_atom_site_fract_z
Si Si1 0.374291 0.420394 0.096028
Si Si2 0.630524 0.249487 0.258238
Si Si3 0.125759 0.403501 0.375129
Si Si4 0.835677 0.899727 0.986278
Si Si5 0.058256 0.404437 0.646467
Si Si6 0.775568 0.954413 0.413117
Si Si7 0.344333 0.863438 0.918369
Si Si8 0.321489 0.340291 0.592242
O O1 0.206964 0.191079 0.118201
O O2 0.356919 0.312223 0.345117
O O3 0.500000 0.500000 0.000000
O O4 0.424875 0.647417 0.920877
O O5 0.805103 0.458124 0.263028
O O6 0.646585 0.196875 0.169322
O O7 0.500000 0.000000 0.500000
O O8 0.133333 0.433743 0.523006
O O9 0.260100 0.433042 0.407305
O O10 0.179655 0.615785 0.123338
O O11 0.941560 0.160493 0.423893
O O12 0.695361 0.696742 0.206363
O O13 0.885909 0.122802 0.830643
O O14 0.000000 0.000000 0.000000
O O15 0.000000 0.500000 0.500000
O O16 0.811757 0.923301 0.315441
O O17 0.673043 0.984739 0.277068
O O18 0.500000 0.000000 0.000000
O O19 0.500000 0.500000 0.500000
#
# Coordination Sequence:
#
# PCOD8037404 Si02
#       8
#     2   2   2   2   2   2   2   2
#     4  12  25  45  76 109 153 198 256 316 378 455
#     4  12  27  48  75 111 151 200 252 314 388 460
#     4  12  25  48  73 112 153 199 261 318 380 458
#     4  12  24  49  77 113 151 204 256 318 378 454
#     4  12  27  47  80 111 154 198 257 315 381 461
#     4  12  26  46  73 110 147 203 260 317 383 460
#     4  12  28  48  72 105 157 200 255 319 394 465
#     4  12  26  45  74 111 155 203 256 314 386 457
#
# _framework density 23.571711000000001
#
# number of rings (size 3 to 8) (size 9 to 14) (size 15 to 20)
#    0.000    0.000    3.750    5.250    5.250    1.000 
#    0.000    0.000    0.000    0.000    0.000    0.000 
#    0.000    0.000    0.000    0.000    0.000    0.000 
#
# Total GULP energy -198221.393603 kJ/mol
# GULP energy per Si atom -12388.837100 kJ/mol
# Density = 2.351806 g / cm^3
# Si number density = 23.571711 Si / 1000 Ang^3
#
#
#
# Elastic Constant Matrix: (Units=GPa)
#
#
# Indices 1 2 3 4 5 6 
#
# 1 142.3224 32.2736 46.9782 2.5011 19.1144 -6.0518
# 2 32.2736 111.7635 34.9259 9.4226 -2.8718 -23.5541
# 3 46.9782 34.9259 160.5529 -13.1083 12.3732 -4.9386
# 4 2.5011 9.4226 -13.1083 46.6082 -8.2846 -5.4791
# 5 19.1144 -2.8718 12.3732 -8.2846 54.5729 -4.6861
# 6 -6.0518 -23.5541 -4.9386 -5.4791 -4.6861 43.4707
#
#
#
# Elastic Compliance Matrix: (Units=1/GPa)
#
#
# Indices 1 2 3 4 5 6 
#
# 1 0.008492 -0.001928 -0.001959 -0.001189 -0.002859 -0.000543
# 2 -0.001928 0.011566 -0.002074 -0.001791 0.001976 0.005750
# 3 -0.001959 -0.002074 0.007504 0.002459 -0.000778 -0.000318
# 4 -0.001189 -0.001791 0.002459 0.023495 0.003545 0.002487
# 5 -0.002859 0.001976 -0.000778 0.003545 0.020422 0.003232
# 6 -0.000543 0.005750 -0.000318 0.002487 0.003232 0.026670
#
#
# Mechanical properties :
#
#
# Convention : Reuss Voigt Hill
#
# Bulk Modulus (GPa) = 63.93406 71.44379 67.68892
# Shear Modulus (GPa) = 43.37214 48.96111 46.16663
#
# Velocity S-wave (km/s) = 4.29419 4.56248 4.43036
# Velocity P-wave (km/s) = 7.19505 7.62430 7.41278
#
# Compressibility (1/GPa) = 0.01564112
#
# Stress axis : x y z
#
# Youngs Moduli (GPa) = 117.76159 86.46305 133.26819
#
# Poissons Ratio (x) = 0.16667 0.26105
# Poissons Ratio (y) = 0.22700 0.27633
# Poissons Ratio (z) = 0.23067 0.17928
#
# Static dielectric constant tensor:
#      x y z
#    x 4.230090 0.109890 0.236980 
#    y 0.109890 4.479080 0.246220 
#    z 0.236980 0.246220 4.658050 
# 
# 
# High freq. dielectric constant tensor:
#      x y z
#    x 1.938420 -0.008660 0.004020 
#    y -0.008660 1.965110 0.003760 
#    z 0.004020 0.003760 1.946630 
# 
# From -- ./inp_files/306543.got.cif
#   From: 2010.06.25/outbox.cif.g09.slc.cpg/sg2_154_cif.got.tgz:306543.got - 2010.06.27 13:26:56.
