data_PCOD8037716
_publ_section_title
;
Structure prediction by ZEFSAII (Michael W. Deem and Ramdas Pophale) SiO2 
 PCOD8037716
Probable space group: P -1
;
_chemical_formula_sum "Si O2"
_cell_formula_units_Z 14
_cell_length_a 16.105613
_cell_length_b 13.330938
_cell_length_c 11.906161
_cell_angle_alpha 133.991483
_cell_angle_beta 34.949959
_cell_angle_gamma 153.286094
_cell_volume 651.239158
_symmetry_space_group_name_H-M "P -1"
_symmetry_group_IT_number 2
_symmetry_cell_setting 'triclinic'
loop_
_space_group_symop_operation_xyz
x,y,z
-x,-y,-z
loop_
_atom_site_type_symbol
_atom_site_label
_atom_site_fract_x
_atom_site_fract_y
_atom_site_fract_z
Si Si1 0.126100 0.998615 0.768314
Si Si2 0.624216 0.330330 0.018576
Si Si3 0.581724 0.207131 0.522166
Si Si4 0.000460 0.549732 0.167526
Si Si5 0.170386 0.499633 0.315616
Si Si6 0.738520 0.676538 0.300636
Si Si7 0.925670 0.095650 0.699151
O O1 0.368485 0.128965 0.647957
O O2 0.192678 0.124728 0.676224
O O3 0.960773 0.745522 0.725406
O O4 0.000000 0.000000 0.000000
O O5 0.666136 0.358682 0.862458
O O6 0.764719 0.321611 0.928147
O O7 0.702757 0.541430 0.135554
O O8 0.350761 0.097186 0.152369
O O9 0.774110 0.316360 0.299120
O O10 0.678984 0.380504 0.645831
O O11 0.500000 0.000000 0.500000
O O12 0.978557 0.701362 0.321340
O O13 0.000000 0.500000 0.000000
O O14 0.000000 0.500000 0.500000
O O15 0.500000 0.500000 0.500000
O O16 0.963562 0.800032 0.219427
O O17 0.000000 0.000000 0.500000
#
# Coordination Sequence:
#
# PCOD8037716 Si02
#       7
#     2   2   2   2   2   2   2
#     4  12  28  47  76 108 146 193 244 304 369 431
#     4  12  26  47  75 108 150 192 248 300 364 441
#     4  12  28  49  77 107 149 193 246 303 370 434
#     4  12  27  48  76 109 144 193 245 301 370 432
#     4  12  26  48  75 108 147 193 247 299 362 444
#     4  12  26  49  72 108 154 188 243 308 367 434
#     4  12  28  45  75 106 147 193 240 302 370 431
#
# _framework density 21.497479999999999
#
# number of rings (size 3 to 8) (size 9 to 14) (size 15 to 20)
#    0.000    0.000    7.143    1.286    6.000    0.571 
#    0.000    0.000    0.000    0.000    0.000    0.000 
#    0.000    0.000    0.000    0.000    0.000    0.000 
#
# Total GULP energy -173624.730929 kJ/mol
# GULP energy per Si atom -12401.766495 kJ/mol
# Density = 2.144855 g / cm^3
# Si number density = 21.497480 Si / 1000 Ang^3
#
#
#
# Elastic Constant Matrix: (Units=GPa)
#
#
# Indices 1 2 3 4 5 6 
#
# 1 150.8671 67.9080 49.2669 -20.6131 -8.8346 1.4277
# 2 67.9080 155.2076 57.4973 -2.2024 -2.5910 -11.4615
# 3 49.2669 57.4973 128.3551 -12.2930 3.0253 -7.3711
# 4 -20.6131 -2.2024 -12.2930 42.6119 2.8870 -3.0982
# 5 -8.8346 -2.5910 3.0253 2.8870 49.3745 0.2858
# 6 1.4277 -11.4615 -7.3711 -3.0982 0.2858 55.7465
#
#
#
# Elastic Compliance Matrix: (Units=1/GPa)
#
#
# Indices 1 2 3 4 5 6 
#
# 1 0.009345 -0.003422 -0.001793 0.003661 0.001394 -0.000984
# 2 -0.003422 0.009083 -0.002857 -0.001913 0.000143 0.001470
# 3 -0.001793 -0.002857 0.010034 0.002027 -0.001209 0.000904
# 4 0.003661 -0.001913 0.002027 0.025887 -0.001090 0.001225
# 5 0.001394 0.000143 -0.001209 -0.001090 0.020650 -0.000333
# 6 -0.000984 0.001470 0.000904 0.001225 -0.000333 0.018455
#
#
# Mechanical properties :
#
#
# Convention : Reuss Voigt Hill
#
# Bulk Modulus (GPa) = 81.18838 87.08602 84.13720
# Shear Modulus (GPa) = 43.97392 46.86376 45.41884
#
# Velocity S-wave (km/s) = 4.52767 4.67408 4.60145
# Velocity P-wave (km/s) = 8.07351 8.35028 8.21306
#
# Compressibility (1/GPa) = 0.01231703
#
# Stress axis : x y z
#
# Youngs Moduli (GPa) = 107.00615 110.10166 99.66611
#
# Poissons Ratio (x) = 0.37678 0.17868
# Poissons Ratio (y) = 0.36618 0.28477
# Poissons Ratio (z) = 0.19184 0.31458
#
# Static dielectric constant tensor:
#      x y z
#    x 4.171450 0.062280 -0.045760 
#    y 0.062280 3.719330 -0.167180 
#    z -0.045760 -0.167180 3.905560 
# 
# 
# High freq. dielectric constant tensor:
#      x y z
#    x 1.863950 -0.000210 -0.003290 
#    y -0.000210 1.863610 0.001430 
#    z -0.003290 0.001430 1.850250 
# 
# From -- ./inp_files/333887.got.cif
#   From: 2010.06.25/outbox.cif.g09.slc.cpg/sg2_167_cif.got.tgz:333887.got - 2010.06.27 13:26:56.
