data_PCOD8037301
_publ_section_title
;
Structure prediction by ZEFSAII (Michael W. Deem and Ramdas Pophale) SiO2 
 PCOD8037301
Probable space group: P -1
;
_chemical_formula_sum "Si O2"
_cell_formula_units_Z 12
_cell_length_a 8.692913
_cell_length_b 13.102167
_cell_length_c 9.765634
_cell_angle_alpha 35.674049
_cell_angle_beta 122.710938
_cell_angle_gamma 106.253810
_cell_volume 516.288506
_symmetry_space_group_name_H-M "P -1"
_symmetry_group_IT_number 2
_symmetry_cell_setting 'triclinic'
loop_
_space_group_symop_operation_xyz
x,y,z
-x,-y,-z
loop_
_atom_site_type_symbol
_atom_site_label
_atom_site_fract_x
_atom_site_fract_y
_atom_site_fract_z
Si Si1 0.526956 0.220485 0.500076
Si Si2 0.479108 0.711372 0.265357
Si Si3 0.044485 0.905659 0.770315
Si Si4 0.831328 0.616449 0.034878
Si Si5 0.079169 0.781491 0.411163
Si Si6 0.718461 0.815073 0.039011
O O1 0.480135 0.232035 0.625300
O O2 0.344455 0.350562 0.190207
O O3 0.711321 0.284897 0.487305
O O4 0.568119 0.008458 0.704564
O O5 0.500000 0.500000 0.500000
O O6 0.642558 0.737568 0.218457
O O7 0.271974 0.841958 0.973028
O O8 0.972508 0.728224 0.935275
O O9 0.000000 0.000000 0.500000
O O10 0.933865 0.054597 0.667896
O O11 0.946591 0.397065 0.328966
O O12 0.752114 0.669438 0.092137
O O13 0.917476 0.850481 0.139876
#
# Coordination Sequence:
#
# PCOD8037301 Si02
#       6
#     2   2   2   2   2   2
#     4  12  25  46  73 103 142 184 232 290 346 412
#     4  12  27  46  71 105 143 184 233 287 350 414
#     4  12  28  47  72 104 144 183 233 291 347 412
#     4  12  27  46  75 104 139 185 236 286 345 418
#     4  12  26  47  73 102 141 187 234 284 349 415
#     4  12  24  47  73 100 142 185 234 285 349 413
#
# _framework density 23.242819999999998
#
# number of rings (size 3 to 8) (size 9 to 14) (size 15 to 20)
#    0.000    0.000    3.333    6.500    7.000    0.667 
#    0.000    0.000    0.000    0.000    0.000    0.000 
#    0.000    0.000    0.000    0.000    0.000    0.000 
#
# Total GULP energy -148920.036491 kJ/mol
# GULP energy per Si atom -12410.003041 kJ/mol
# Density = 2.318992 g / cm^3
# Si number density = 23.242820 Si / 1000 Ang^3
#
#
#
# Elastic Constant Matrix: (Units=GPa)
#
#
# Indices 1 2 3 4 5 6 
#
# 1 98.4465 17.4616 -5.4059 21.3053 -14.2521 0.8373
# 2 17.4616 74.1449 19.9251 18.7875 -1.1830 0.0001
# 3 -5.4059 19.9251 80.4189 8.3446 -3.0183 -6.7313
# 4 21.3053 18.7875 8.3446 57.7060 8.8549 -12.1633
# 5 -14.2521 -1.1830 -3.0183 8.8549 39.2258 -0.7451
# 6 0.8373 0.0001 -6.7313 -12.1633 -0.7451 28.4853
#
#
#
# Elastic Compliance Matrix: (Units=1/GPa)
#
#
# Indices 1 2 3 4 5 6 
#
# 1 0.012741 -0.001988 0.001983 -0.005722 0.005972 -0.002193
# 2 -0.001988 0.016181 -0.003881 -0.004640 0.000461 -0.002828
# 3 0.001983 -0.003881 0.013963 -0.001210 0.002004 0.002777
# 4 -0.005722 -0.004640 -0.001210 0.024431 -0.007635 0.010115
# 5 0.005972 0.000461 0.002004 -0.007635 0.029513 -0.002190
# 6 -0.002193 -0.002828 0.002777 0.010115 -0.002190 0.040088
#
#
# Mechanical properties :
#
#
# Convention : Reuss Voigt Hill
#
# Bulk Modulus (GPa) = 28.47893 35.21911 31.84902
# Shear Modulus (GPa) = 31.97059 39.81871 35.89465
#
# Velocity S-wave (km/s) = 3.71280 4.14353 3.93406
# Velocity P-wave (km/s) = 5.53708 6.17068 5.86245
#
# Compressibility (1/GPa) = 0.03511367
#
# Stress axis : x y z
#
# Youngs Moduli (GPa) = 78.48704 61.79988 71.61793
#
# Poissons Ratio (x) = 0.12288 -0.14205
# Poissons Ratio (y) = 0.15606 0.27794
# Poissons Ratio (z) = -0.15568 0.23983
#
# Static dielectric constant tensor:
#      x y z
#    x 3.961520 0.061560 -0.370030 
#    y 0.061560 4.155610 0.006620 
#    z -0.370030 0.006620 4.059370 
# 
# 
# High freq. dielectric constant tensor:
#      x y z
#    x 1.927810 0.003710 -0.007380 
#    y 0.003710 1.922380 -0.002650 
#    z -0.007380 -0.002650 1.938240 
# 
# From -- ./inp_files/147321.got.cif
#   From: 2010.06.25/outbox.cif.g09.slc.cpg/sg2_74_cif.got.tgz:147321.got - 2010.06.27 13:26:56.
