data_PCOD8037790
_publ_section_title
;
Structure prediction by ZEFSAII (Michael W. Deem and Ramdas Pophale) SiO2 
 PCOD8037790
Probable space group: P -1
;
_chemical_formula_sum "Si O2"
_cell_formula_units_Z 10
_cell_length_a 10.419255
_cell_length_b 13.005182
_cell_length_c 11.943580
_cell_angle_alpha 35.079457
_cell_angle_beta 155.158901
_cell_angle_gamma 141.919176
_cell_volume 384.050032
_symmetry_space_group_name_H-M "P -1"
_symmetry_group_IT_number 2
_symmetry_cell_setting 'triclinic'
loop_
_space_group_symop_operation_xyz
x,y,z
-x,-y,-z
loop_
_atom_site_type_symbol
_atom_site_label
_atom_site_fract_x
_atom_site_fract_y
_atom_site_fract_z
Si Si1 0.135481 0.934101 0.290880
Si Si2 0.868207 0.247896 0.918475
Si Si3 0.130827 0.634187 0.743416
Si Si4 0.256630 0.382389 0.826930
Si Si5 0.144114 0.205926 0.407828
O O1 0.094966 0.763694 0.495920
O O2 0.932843 0.832649 0.111734
O O3 0.500000 0.000000 0.500000
O O4 0.976390 0.081990 0.091802
O O5 0.023634 0.283323 0.130956
O O6 0.505114 0.211200 0.678661
O O7 0.982515 0.426217 0.773270
O O8 0.938525 0.672897 0.664307
O O9 0.499075 0.644731 0.055321
O O10 0.000000 0.500000 0.500000
O O11 0.500000 0.500000 0.000000
O O12 0.000000 0.000000 0.500000
#
# Coordination Sequence:
#
# PCOD8037790 Si02
#       5
#     2   2   2   2   2
#     4  12  29  52  84 120 164 215 274 335 405 483
#     4  12  29  48  82 118 159 213 267 330 408 477
#     4  12  28  50  82 116 167 209 272 331 408 481
#     4  12  27  50  78 113 161 210 267 329 401 477
#     4  12  26  51  80 117 160 210 268 333 402 484
#
# _framework density 26.038274999999999
#
# number of rings (size 3 to 8) (size 9 to 14) (size 15 to 20)
#    0.000    0.000    4.000    4.200    5.600    2.400 
#    0.000    0.000    0.000    0.000    0.000    0.000 
#    0.000    0.000    0.000    0.000    0.000    0.000 
#
# Total GULP energy -123920.944526 kJ/mol
# GULP energy per Si atom -12392.094453 kJ/mol
# Density = 2.597901 g / cm^3
# Si number density = 26.038275 Si / 1000 Ang^3
#
#
#
# Elastic Constant Matrix: (Units=GPa)
#
#
# Indices 1 2 3 4 5 6 
#
# 1 100.7734 45.8449 58.1557 10.8273 29.8139 -13.9275
# 2 45.8449 248.1036 65.5311 13.2643 34.1025 -7.4470
# 3 58.1557 65.5311 185.7771 33.5134 65.1980 -7.8681
# 4 10.8273 13.2643 33.5134 63.1152 -2.4300 12.9545
# 5 29.8139 34.1025 65.1980 -2.4300 65.5451 -2.5348
# 6 -13.9275 -7.4470 -7.8681 12.9545 -2.5348 63.4316
#
#
#
# Elastic Compliance Matrix: (Units=1/GPa)
#
#
# Indices 1 2 3 4 5 6 
#
# 1 0.013229 -0.001272 -0.002227 -0.001485 -0.003093 0.002659
# 2 -0.001272 0.004648 -0.000778 -0.000431 -0.001074 0.000215
# 3 -0.002227 -0.000778 0.010818 -0.005890 -0.009500 0.001585
# 4 -0.001485 -0.000431 -0.005890 0.020631 0.007329 -0.005028
# 5 -0.003093 -0.001074 -0.009500 0.007329 0.026851 -0.002407
# 6 0.002659 0.000215 0.001585 -0.005028 -0.002407 0.017501
#
#
# Mechanical properties :
#
#
# Convention : Reuss Voigt Hill
#
# Bulk Modulus (GPa) = 49.64677 97.07972 73.36325
# Shear Modulus (GPa) = 45.89507 62.75988 54.32748
#
# Velocity S-wave (km/s) = 4.20289 4.91480 4.57272
# Velocity P-wave (km/s) = 6.53151 8.34095 7.49106
#
# Compressibility (1/GPa) = 0.02014230
#
# Stress axis : x y z
#
# Youngs Moduli (GPa) = 75.59219 215.13989 92.44050
#
# Poissons Ratio (x) = 0.27367 0.20583
# Poissons Ratio (y) = 0.09616 0.07188
# Poissons Ratio (z) = 0.16832 0.16728
#
# Static dielectric constant tensor:
#      x y z
#    x 7.255510 0.746370 2.568900 
#    y 0.746370 3.188990 -2.082380 
#    z 2.568900 -2.082380 5.327590 
# 
# 
# High freq. dielectric constant tensor:
#      x y z
#    x 2.060260 0.001060 0.019230 
#    y 0.001060 2.083920 -0.005610 
#    z 0.019230 -0.005610 2.071080 
# 
# From -- ./inp_files/289288.got.cif
#   From: 2010.06.25/outbox.cif.g09.slc.cpg/sg2_145_cif.got.tgz:289288.got - 2010.06.27 13:26:56.
