data_PCOD8037081
_publ_section_title
;
Structure prediction by ZEFSAII (Michael W. Deem and Ramdas Pophale) SiO2 
 PCOD8037081
Probable space group: P -1
;
_chemical_formula_sum "Si O2"
_cell_formula_units_Z 14
_cell_length_a 26.621366
_cell_length_b 23.917329
_cell_length_c 6.788327
_cell_angle_alpha 60.468147
_cell_angle_beta 118.051384
_cell_angle_gamma 170.616960
_cell_volume 609.180860
_symmetry_space_group_name_H-M "P -1"
_symmetry_group_IT_number 2
_symmetry_cell_setting 'triclinic'
loop_
_space_group_symop_operation_xyz
x,y,z
-x,-y,-z
loop_
_atom_site_type_symbol
_atom_site_label
_atom_site_fract_x
_atom_site_fract_y
_atom_site_fract_z
Si Si1 0.531811 0.818745 0.445665
Si Si2 0.217463 0.068330 0.847226
Si Si3 0.356523 0.409037 0.927900
Si Si4 0.936120 0.650193 0.291722
Si Si5 0.620467 0.193140 0.263016
Si Si6 0.326247 0.478455 0.407686
Si Si7 0.924774 0.352131 0.002174
O O1 0.297483 0.600645 0.521719
O O2 0.343047 0.569361 0.368023
O O3 0.711524 0.966048 0.651940
O O4 0.796300 0.157427 0.254424
O O5 0.398418 0.225235 0.753526
O O6 0.477001 0.380854 0.933900
O O7 0.020164 0.907876 0.659497
O O8 0.946576 0.725250 0.046117
O O9 0.387059 0.491857 0.659660
O O10 0.500000 0.500000 0.000000
O O11 0.000000 0.000000 0.000000
O O12 0.861643 0.502596 0.293422
O O13 0.769971 0.335869 0.085236
O O14 0.500000 0.000000 0.500000
O O15 0.330603 0.917440 0.166176
O O16 0.000000 0.500000 0.000000
#
# Coordination Sequence:
#
# PCOD8037081 Si02
#       7
#     2   2   2   2   2   2   2
#     4  12  24  43  70 100 138 183 232 294 352 411
#     4  12  26  46  74 105 142 186 238 289 356 423
#     4  12  28  48  74 106 146 182 234 294 356 426
#     4  12  24  43  70 100 138 183 232 294 352 411
#     4  12  24  42  64  97 137 182 235 288 352 413
#     4  12  26  46  74 105 142 186 238 289 356 423
#     4  12  24  42  64  97 137 182 235 288 352 413
#
# _framework density 22.981683
#
# number of rings (size 3 to 8) (size 9 to 14) (size 15 to 20)
#    0.000    0.000    1.429    9.429    2.000    3.429 
#    0.000    0.000    0.000    0.000    0.000    0.000 
#    0.000    0.000    0.000    0.000    0.000    0.000 
#
# Total GULP energy -173643.587063 kJ/mol
# GULP energy per Si atom -12403.113362 kJ/mol
# Density = 2.292938 g / cm^3
# Si number density = 22.981683 Si / 1000 Ang^3
#
#
#
# Elastic Constant Matrix: (Units=GPa)
#
#
# Indices 1 2 3 4 5 6 
#
# 1 131.9382 44.3964 51.6827 -12.2222 -9.5386 -5.8023
# 2 44.3964 119.3896 44.9118 6.2549 -3.6297 -0.2848
# 3 51.6827 44.9118 101.6300 5.8323 -6.6724 -13.2638
# 4 -12.2222 6.2549 5.8323 49.7755 11.4214 7.7993
# 5 -9.5386 -3.6297 -6.6724 11.4214 37.9124 -1.5263
# 6 -5.8023 -0.2848 -13.2638 7.7993 -1.5263 45.5655
#
#
#
# Elastic Compliance Matrix: (Units=1/GPa)
#
#
# Indices 1 2 3 4 5 6 
#
# 1 0.010465 -0.002355 -0.004506 0.003345 0.000585 -0.000547
# 2 -0.002355 0.010666 -0.003559 -0.001381 0.000177 -0.001027
# 3 -0.004506 -0.003559 0.014634 -0.003599 0.002361 0.004359
# 4 0.003345 -0.001381 -0.003599 0.023973 -0.007346 -0.004980
# 5 0.000585 0.000177 0.002361 -0.007346 0.029290 0.003001
# 6 -0.000547 -0.001027 0.004359 -0.004980 0.003001 0.024092
#
#
# Mechanical properties :
#
#
# Convention : Reuss Voigt Hill
#
# Bulk Modulus (GPa) = 67.00177 70.54885 68.77531
# Shear Modulus (GPa) = 35.98807 40.78181 38.38494
#
# Velocity S-wave (km/s) = 3.96150 4.21709 4.09129
# Velocity P-wave (km/s) = 7.08112 7.38081 7.23252
#
# Compressibility (1/GPa) = 0.01492498
#
# Stress axis : x y z
#
# Youngs Moduli (GPa) = 95.55644 93.75762 68.33342
#
# Poissons Ratio (x) = 0.22082 0.30791
# Poissons Ratio (y) = 0.22506 0.24318
# Poissons Ratio (z) = 0.43057 0.33366
#
# Static dielectric constant tensor:
#      x y z
#    x 4.191070 0.021720 -0.056360 
#    y 0.021720 4.248570 0.194890 
#    z -0.056360 0.194890 4.546310 
# 
# 
# High freq. dielectric constant tensor:
#      x y z
#    x 1.917220 0.004850 0.000620 
#    y 0.004850 1.922630 0.008330 
#    z 0.000620 0.008330 1.922810 
# 
# From -- ./inp_files/127659.got.cif
#   From: 2010.06.25/outbox.cif.g09.slc.cpg/sg2_64_cif.got.tgz:127659.got - 2010.06.27 13:26:56.
