data_PCOD8037188
_publ_section_title
;
Structure prediction by ZEFSAII (Michael W. Deem and Ramdas Pophale) SiO2 
 PCOD8037188
Probable space group: P -1
;
_chemical_formula_sum "Si O2"
_cell_formula_units_Z 16
_cell_length_a 13.926081
_cell_length_b 14.396379
_cell_length_c 14.139408
_cell_angle_alpha 48.950736
_cell_angle_beta 47.141984
_cell_angle_gamma 20.264248
_cell_volume 717.771238
_symmetry_space_group_name_H-M "P -1"
_symmetry_group_IT_number 2
_symmetry_cell_setting 'triclinic'
loop_
_space_group_symop_operation_xyz
x,y,z
-x,-y,-z
loop_
_atom_site_type_symbol
_atom_site_label
_atom_site_fract_x
_atom_site_fract_y
_atom_site_fract_z
Si Si1 0.879570 0.910768 0.490524
Si Si2 0.429264 0.067528 0.285760
Si Si3 0.991224 0.837865 0.257891
Si Si4 0.417291 0.967368 0.000068
Si Si5 0.017656 0.416979 0.644631
Si Si6 0.483262 0.558943 0.576738
Si Si7 0.604927 0.386292 0.110172
Si Si8 0.776007 0.423608 0.122791
O O1 0.807228 0.840999 0.633593
O O2 0.818053 0.950606 0.393313
O O3 0.203685 0.679135 0.436305
O O4 0.682479 0.175224 0.494178
O O5 0.542761 0.015776 0.143505
O O6 0.266744 0.313133 0.285533
O O7 0.691906 0.790508 0.355621
O O8 0.972761 0.738257 0.266467
O O9 0.325654 0.583370 0.226772
O O10 0.841846 0.081384 0.148860
O O11 0.597179 0.695025 0.076831
O O12 0.500000 0.000000 0.000000
O O13 0.096214 0.195607 0.079508
O O14 0.000000 0.500000 0.500000
O O15 0.500000 0.500000 0.500000
O O16 0.311386 0.606160 0.723498
O O17 0.742429 0.393207 0.060781
O O18 0.500000 0.500000 0.000000
#
# Coordination Sequence:
#
# PCOD8037188 Si02
#       8
#     2   2   2   2   2   2   2   2
#     4  12  24  47  72 106 143 181 240 299 361 424
#     4  12  28  46  73 105 149 196 247 290 362 435
#     4  12  24  45  69 102 149 183 235 293 365 422
#     4  12  30  51  75 103 147 200 246 303 353 432
#     4  12  26  44  70 108 147 192 232 296 360 441
#     4  12  27  45  78 106 137 183 234 309 369 420
#     4  12  27  45  72 104 143 193 234 295 362 431
#     4  12  26  50  75 106 147 184 247 298 363 432
#
# _framework density 22.291226000000002
#
# number of rings (size 3 to 8) (size 9 to 14) (size 15 to 20)
#    0.000    0.000    3.750    5.250   10.500    0.000 
#    0.000    0.000    0.000    0.000    0.000    0.000 
#    0.000    0.000    0.000    0.000    0.000    0.000 
#
# Total GULP energy -198475.056950 kJ/mol
# GULP energy per Si atom -12404.691059 kJ/mol
# Density = 2.224049 g / cm^3
# Si number density = 22.291226 Si / 1000 Ang^3
#
#
#
# Elastic Constant Matrix: (Units=GPa)
#
#
# Indices 1 2 3 4 5 6 
#
# 1 148.8376 60.3563 46.9091 -0.9348 -8.2551 12.3244
# 2 60.3563 165.5214 32.7246 -4.7295 -13.1265 6.6130
# 3 46.9091 32.7246 66.6485 8.8678 -10.0230 3.3496
# 4 -0.9348 -4.7295 8.8678 38.0749 3.7479 -15.6365
# 5 -8.2551 -13.1265 -10.0230 3.7479 44.9541 2.9746
# 6 12.3244 6.6130 3.3496 -15.6365 2.9746 48.3980
#
#
#
# Elastic Compliance Matrix: (Units=1/GPa)
#
#
# Indices 1 2 3 4 5 6 
#
# 1 0.009544 -0.002301 -0.005617 0.000649 -0.000126 -0.001510
# 2 -0.002301 0.007404 -0.002003 0.001228 0.001188 0.000036
# 3 -0.005617 -0.002003 0.021523 -0.006678 0.003884 -0.002182
# 4 0.000649 0.001228 -0.006678 0.032971 -0.004492 0.011057
# 5 -0.000126 0.001188 0.003884 -0.004492 0.024029 -0.003327
# 6 -0.001510 0.000036 -0.002182 0.011057 -0.003327 0.024969
#
#
# Mechanical properties :
#
#
# Convention : Reuss Voigt Hill
#
# Bulk Modulus (GPa) = 53.67585 73.44307 63.55946
# Shear Modulus (GPa) = 34.13139 42.35324 38.24232
#
# Velocity S-wave (km/s) = 3.91725 4.36362 4.14645
# Velocity P-wave (km/s) = 6.67768 7.64244 7.17629
#
# Compressibility (1/GPa) = 0.01863035
#
# Stress axis : x y z
#
# Youngs Moduli (GPa) = 104.77525 135.05721 46.46166
#
# Poissons Ratio (x) = 0.31074 0.26099
# Poissons Ratio (y) = 0.24107 0.09305
# Poissons Ratio (z) = 0.58855 0.27047
#
# Static dielectric constant tensor:
#      x y z
#    x 4.202250 0.047720 -0.038410 
#    y 0.047720 4.326630 0.081340 
#    z -0.038410 0.081340 4.068540 
# 
# 
# High freq. dielectric constant tensor:
#      x y z
#    x 1.888570 0.005190 -0.005590 
#    y 0.005190 1.901940 0.003670 
#    z -0.005590 0.003670 1.882580 
# 
# From -- ./inp_files/534258.got.cif
#   From: 2010.06.25/outbox.cif.g09.slc.cpg/sg2_268_cif.got.tgz:534258.got - 2010.06.27 13:26:56.
