data_PCOD8037231
_publ_section_title
;
Structure prediction by ZEFSAII (Michael W. Deem and Ramdas Pophale) SiO2 
 PCOD8037231
Probable space group: P -1
;
_chemical_formula_sum "Si O2"
_cell_formula_units_Z 14
_cell_length_a 5.250513
_cell_length_b 14.268898
_cell_length_c 11.536336
_cell_angle_alpha 133.453151
_cell_angle_beta 122.159356
_cell_angle_gamma 69.839062
_cell_volume 530.833577
_symmetry_space_group_name_H-M "P -1"
_symmetry_group_IT_number 2
_symmetry_cell_setting 'triclinic'
loop_
_space_group_symop_operation_xyz
x,y,z
-x,-y,-z
loop_
_atom_site_type_symbol
_atom_site_label
_atom_site_fract_x
_atom_site_fract_y
_atom_site_fract_z
Si Si1 0.215917 0.976574 0.177790
Si Si2 0.521390 0.226804 0.065483
Si Si3 0.107599 0.814099 0.213739
Si Si4 0.673498 0.135918 0.265175
Si Si5 0.160969 0.526800 0.913721
Si Si6 0.255351 0.696603 0.376028
Si Si7 0.238300 0.491507 0.651240
O O1 0.303554 0.922531 0.281543
O O2 0.452463 0.076747 0.261129
O O3 0.189018 0.849083 0.978836
O O4 0.889807 0.038016 0.168933
O O5 0.483144 0.199484 0.170440
O O6 0.539946 0.381014 0.184952
O O7 0.248663 0.160218 0.866030
O O8 0.240107 0.811342 0.373831
O O9 0.121686 0.676199 0.039649
O O10 0.859646 0.245173 0.479273
O O11 0.064472 0.486038 0.725311
O O12 0.942502 0.420659 0.836013
O O13 0.500000 0.500000 0.000000
O O14 0.582610 0.640472 0.430103
O O15 0.000000 0.500000 0.500000
#
# Coordination Sequence:
#
# PCOD8037231 Si02
#       7
#     2   2   2   2   2   2   2
#     4  12  28  52  78 115 150 215 268 316 381 461
#     4  12  26  50  80 113 152 204 268 321 386 463
#     4  12  26  47  80 112 155 205 264 320 386 468
#     4  12  31  49  79 111 165 203 263 327 382 461
#     4  12  24  45  78 113 156 202 254 318 395 470
#     4  12  29  49  72 120 161 200 253 328 399 466
#     4  12  27  45  78 117 156 198 252 327 402 465
#
# _framework density 26.373615999999998
#
# number of rings (size 3 to 8) (size 9 to 14) (size 15 to 20)
#    0.000    0.000    5.714    3.000    8.000    2.286 
#    0.000    0.000    0.000    0.000    0.000    0.000 
#    0.000    0.000    0.000    0.000    0.000    0.000 
#
# Total GULP energy -173460.267184 kJ/mol
# GULP energy per Si atom -12390.019085 kJ/mol
# Density = 2.631359 g / cm^3
# Si number density = 26.373616 Si / 1000 Ang^3
#
#
#
# Elastic Constant Matrix: (Units=GPa)
#
#
# Indices 1 2 3 4 5 6 
#
# 1 79.5541 29.2955 -9.0140 -8.1043 2.1557 -3.6555
# 2 29.2955 127.5994 25.4112 -22.5719 -7.1074 10.5418
# 3 -9.0140 25.4112 77.4092 -28.9259 -14.2741 -11.2421
# 4 -8.1043 -22.5719 -28.9259 49.8274 2.5598 3.4360
# 5 2.1557 -7.1074 -14.2741 2.5598 37.7925 8.2130
# 6 -3.6555 10.5418 -11.2421 3.4360 8.2130 28.5474
#
#
#
# Elastic Compliance Matrix: (Units=1/GPa)
#
#
# Indices 1 2 3 4 5 6 
#
# 1 0.015405 -0.004530 0.004995 0.003031 -0.001269 0.005613
# 2 -0.004530 0.010735 -0.003801 0.002286 0.002197 -0.006948
# 3 0.004995 -0.003801 0.020487 0.010233 0.004390 0.007617
# 4 0.003031 0.002286 0.010233 0.027445 0.002351 -0.000406
# 5 -0.001269 0.002197 0.004390 0.002351 0.030232 -0.008226
# 6 0.005613 -0.006948 0.007617 -0.000406 -0.008226 0.043729
#
#
# Mechanical properties :
#
#
# Convention : Reuss Voigt Hill
#
# Bulk Modulus (GPa) = 25.02851 41.77200 33.40025
# Shear Modulus (GPa) = 29.75763 39.15811 34.45787
#
# Velocity S-wave (km/s) = 3.36268 3.85742 3.61851
# Velocity P-wave (km/s) = 4.95857 5.97600 5.49090
#
# Compressibility (1/GPa) = 0.03995444
#
# Stress axis : x y z
#
# Youngs Moduli (GPa) = 64.91350 93.15562 48.81079
#
# Poissons Ratio (x) = 0.42196 -0.24379
# Poissons Ratio (y) = 0.29404 0.18554
# Poissons Ratio (z) = -0.32422 0.35411
#
# Static dielectric constant tensor:
#      x y z
#    x 4.416380 -0.612800 -0.409050 
#    y -0.612800 -10.125910 0.926090 
#    z -0.409050 0.926090 4.635710 
# 
# 
# High freq. dielectric constant tensor:
#      x y z
#    x 2.049830 0.013160 -0.019210 
#    y 0.013160 2.089190 0.000420 
#    z -0.019210 0.000420 2.049550 
# 
# From -- ./inp_files/368129.got.cif
#   From: 2010.06.25/outbox.cif.g09.slc.cpg/sg2_185_cif.got.tgz:368129.got - 2010.06.27 13:26:56.
