data_PCOD8037969
_publ_section_title
;
Structure prediction by ZEFSAII (Michael W. Deem and Ramdas Pophale) SiO2 
 PCOD8037969
Probable space group: P -1
;
_chemical_formula_sum "Si O2"
_cell_formula_units_Z 14
_cell_length_a 11.391785
_cell_length_b 11.160535
_cell_length_c 11.743199
_cell_angle_alpha 98.446384
_cell_angle_beta 129.986719
_cell_angle_gamma 48.164621
_cell_volume 741.279740
_symmetry_space_group_name_H-M "P -1"
_symmetry_group_IT_number 2
_symmetry_cell_setting 'triclinic'
loop_
_space_group_symop_operation_xyz
x,y,z
-x,-y,-z
loop_
_atom_site_type_symbol
_atom_site_label
_atom_site_fract_x
_atom_site_fract_y
_atom_site_fract_z
Si Si1 0.488040 0.411761 0.175922
Si Si2 0.786787 0.666251 0.809146
Si Si3 0.694021 0.459245 0.681689
Si Si4 0.352663 0.943601 0.708963
Si Si5 0.914616 0.322792 0.411108
Si Si6 0.888366 0.474661 0.191750
Si Si7 0.905542 0.740407 0.252231
O O1 0.326342 0.559529 0.199226
O O2 0.629989 0.209091 0.277963
O O3 0.671013 0.401855 0.247843
O O4 0.327495 0.477331 0.977549
O O5 0.658595 0.625221 0.668713
O O6 0.591100 0.853129 0.787377
O O7 0.886380 0.688154 0.771035
O O8 0.000000 0.500000 0.000000
O O9 0.500000 0.500000 0.500000
O O10 0.953280 0.278408 0.765947
O O11 0.311003 0.044453 0.814645
O O12 0.132980 0.098046 0.508701
O O13 0.946674 0.407747 0.348423
O O14 0.915046 0.382238 0.545499
O O15 0.818587 0.657560 0.155020
#
# Coordination Sequence:
#
# PCOD8037969 Si02
#       7
#     2   2   2   2   2   2   2
#     4  11  20  36  58  83 110 145 189 225 269 322
#     4  10  19  36  57  79 110 140 184 229 270 326
#     4  10  17  33  55  80 104 144 183 222 261 325
#     4   9  20  36  57  82 111 138 193 223 271 319
#     4  10  21  36  56  82 113 148 183 221 274 328
#     4  11  21  36  57  82 115 146 181 223 278 328
#     4   9  21  34  57  82 112 143 187 222 271 323
#
# _framework density 18.886257000000001
#
# number of rings (size 3 to 8) (size 9 to 14) (size 15 to 20)
#    0.857    1.143    4.286    1.286    0.000    1.143 
#    0.000    0.000    0.000    0.000    0.000    8.000 
#    0.000    0.000    0.000    0.000    0.000    0.000 
#
# Total GULP energy -173457.030554 kJ/mol
# GULP energy per Si atom -12389.787897 kJ/mol
# Density = 1.884327 g / cm^3
# Si number density = 18.886257 Si / 1000 Ang^3
#
#
#
# Elastic Constant Matrix: (Units=GPa)
#
#
# Indices 1 2 3 4 5 6 
#
# 1 109.1568 38.1075 15.9189 -5.7431 3.4224 -24.4409
# 2 38.1075 82.9826 12.7414 5.9213 3.4220 -32.9586
# 3 15.9189 12.7414 63.6655 12.6373 7.7561 -4.4462
# 4 -5.7431 5.9213 12.6373 23.0251 2.3570 4.2561
# 5 3.4224 3.4220 7.7561 2.3570 31.9837 -0.5254
# 6 -24.4409 -32.9586 -4.4462 4.2561 -0.5254 35.8083
#
#
#
# Elastic Compliance Matrix: (Units=1/GPa)
#
#
# Indices 1 2 3 4 5 6 
#
# 1 0.012065 -0.004013 -0.002904 0.005022 -0.000469 0.003577
# 2 -0.004013 0.022117 -0.000003 -0.010072 -0.000885 0.018801
# 3 -0.002904 -0.000003 0.019203 -0.011216 -0.003492 0.001682
# 4 0.005022 -0.010072 -0.011216 0.056116 -0.001104 -0.013921
# 5 -0.000469 -0.000885 -0.003492 -0.001104 0.032323 -0.000963
# 6 0.003577 0.018801 0.001682 -0.013921 -0.000963 0.049522
#
#
# Mechanical properties :
#
#
# Convention : Reuss Voigt Hill
#
# Bulk Modulus (GPa) = 25.28696 43.26007 34.27351
# Shear Modulus (GPa) = 22.89720 30.76589 26.83155
#
# Velocity S-wave (km/s) = 3.48569 4.04048 3.77330
# Velocity P-wave (km/s) = 5.44226 6.68749 6.09675
#
# Compressibility (1/GPa) = 0.03954608
#
# Stress axis : x y z
#
# Youngs Moduli (GPa) = 82.88108 45.21489 52.07554
#
# Poissons Ratio (x) = 0.18145 0.15120
# Poissons Ratio (y) = 0.33262 0.00014
# Poissons Ratio (z) = 0.24065 0.00012
#
# Static dielectric constant tensor:
#      x y z
#    x 3.558130 -0.383800 0.109530 
#    y -0.383800 3.346110 0.233600 
#    z 0.109530 0.233600 3.263260 
# 
# 
# High freq. dielectric constant tensor:
#      x y z
#    x 1.738280 -0.028720 0.014780 
#    y -0.028720 1.705400 0.026510 
#    z 0.014780 0.026510 1.723120 
# 
# From -- ./inp_files/421666.got.cif
#   From: 2010.06.25/outbox.cif.g09.slc.cpg/sg2_211_cif.got.tgz:421666.got - 2010.06.27 13:26:56.
