data_PCOD8037604
_publ_section_title
;
Structure prediction by ZEFSAII (Michael W. Deem and Ramdas Pophale) SiO2 
 PCOD8037604
Probable space group: P -1
;
_chemical_formula_sum "Si O2"
_cell_formula_units_Z 14
_cell_length_a 11.387328
_cell_length_b 8.720359
_cell_length_c 9.410646
_cell_angle_alpha 71.635193
_cell_angle_beta 112.519919
_cell_angle_gamma 62.277216
_cell_volume 609.474898
_symmetry_space_group_name_H-M "P -1"
_symmetry_group_IT_number 2
_symmetry_cell_setting 'triclinic'
loop_
_space_group_symop_operation_xyz
x,y,z
-x,-y,-z
loop_
_atom_site_type_symbol
_atom_site_label
_atom_site_fract_x
_atom_site_fract_y
_atom_site_fract_z
Si Si1 0.157736 0.179562 0.440792
Si Si2 0.366828 0.736763 0.531941
Si Si3 0.214522 0.394167 0.908928
Si Si4 0.174800 0.115111 0.791091
Si Si5 0.112335 0.789758 0.207353
Si Si6 0.303376 0.344925 0.289359
Si Si7 0.508528 0.621587 0.091712
O O1 0.170951 0.199493 0.609541
O O2 0.278385 0.204777 0.409683
O O3 0.964066 0.358524 0.244472
O O4 0.225267 0.942279 0.507132
O O5 0.279262 0.747160 0.344984
O O6 0.510886 0.744942 0.558265
O O7 0.448584 0.509578 0.707138
O O8 0.191186 0.235221 0.885040
O O9 0.347101 0.369872 0.874692
O O10 0.290100 0.318652 0.123953
O O11 0.995358 0.175820 0.714800
O O12 0.327134 0.860035 0.955558
O O13 0.159454 0.596052 0.190352
O O14 0.000000 0.000000 0.000000
O O15 0.500000 0.500000 0.000000
#
# Coordination Sequence:
#
# PCOD8037604 Si02
#       7
#     2   2   2   2   2   2   2
#     4  12  26  46  75 108 147 194 246 296 366 434
#     4  12  27  47  75 108 147 194 240 309 360 432
#     4  12  26  47  78 104 149 193 244 303 360 436
#     4  12  27  49  74 108 147 194 245 299 363 439
#     4  12  28  48  76 109 147 190 247 302 365 430
#     4  12  26  49  70 111 150 193 244 294 369 434
#     4  12  25  48  74 108 146 188 246 301 364 427
#
# _framework density 22.970594999999999
#
# number of rings (size 3 to 8) (size 9 to 14) (size 15 to 20)
#    0.000    0.000    4.286    4.714    6.000    1.143 
#    0.000    0.000    0.000    0.000    0.000    0.000 
#    0.000    0.000    0.000    0.000    0.000    0.000 
#
# Total GULP energy -173722.396630 kJ/mol
# GULP energy per Si atom -12408.742616 kJ/mol
# Density = 2.291831 g / cm^3
# Si number density = 22.970595 Si / 1000 Ang^3
#
#
#
# Elastic Constant Matrix: (Units=GPa)
#
#
# Indices 1 2 3 4 5 6 
#
# 1 86.9570 16.1126 30.1732 12.7324 8.9974 1.5084
# 2 16.1126 93.7373 22.7749 -11.6745 -0.3552 1.3152
# 3 30.1732 22.7749 125.5404 6.1126 0.1730 12.6026
# 4 12.7324 -11.6745 6.1126 41.6637 -3.5281 4.3033
# 5 8.9974 -0.3552 0.1730 -3.5281 38.0392 -0.0198
# 6 1.5084 1.3152 12.6026 4.3033 -0.0198 30.5366
#
#
#
# Elastic Compliance Matrix: (Units=1/GPa)
#
#
# Indices 1 2 3 4 5 6 
#
# 1 0.014019 -0.002379 -0.002817 -0.004990 -0.003787 0.001273
# 2 -0.002379 0.012086 -0.001813 0.004503 0.001101 -0.000289
# 3 -0.002817 -0.001813 0.009358 -0.000606 0.000549 -0.003559
# 4 -0.004990 0.004503 -0.000606 0.027567 0.003780 -0.003580
# 5 -0.003787 0.001101 0.000549 0.003780 0.027543 -0.000602
# 6 0.001273 -0.000289 -0.003559 -0.003580 -0.000602 0.034670
#
#
# Mechanical properties :
#
#
# Convention : Reuss Voigt Hill
#
# Bulk Modulus (GPa) = 46.63126 49.37288 48.00207
# Shear Modulus (GPa) = 34.15103 37.85949 36.00526
#
# Velocity S-wave (km/s) = 3.85999 4.06417 3.96340
# Velocity P-wave (km/s) = 6.34118 6.60030 6.47204
#
# Compressibility (1/GPa) = 0.02144484
#
# Stress axis : x y z
#
# Youngs Moduli (GPa) = 71.33322 82.73736 106.86513
#
# Poissons Ratio (x) = 0.19681 0.30109
# Poissons Ratio (y) = 0.16969 0.19371
# Poissons Ratio (z) = 0.20098 0.14998
#
# Static dielectric constant tensor:
#      x y z
#    x 4.748930 -0.298210 0.423380 
#    y -0.298210 4.554840 -0.347900 
#    z 0.423380 -0.347900 3.896030 
# 
# 
# High freq. dielectric constant tensor:
#      x y z
#    x 1.920350 -0.003960 0.003680 
#    y -0.003960 1.924050 -0.008590 
#    z 0.003680 -0.008590 1.913130 
# 
# From -- ./inp_files/158166.got.cif
#   From: 2010.06.25/outbox.cif.g09.slc.cpg/sg2_80_cif.got.tgz:158166.got - 2010.06.27 13:26:56.
