data_PCOD8037225
_publ_section_title
;
Structure prediction by ZEFSAII (Michael W. Deem and Ramdas Pophale) SiO2 
 PCOD8037225
Probable space group: P -1
;
_chemical_formula_sum "Si O2"
_cell_formula_units_Z 16
_cell_length_a 14.029074
_cell_length_b 11.602896
_cell_length_c 8.582582
_cell_angle_alpha 49.896989
_cell_angle_beta 139.191383
_cell_angle_gamma 128.253491
_cell_volume 673.733902
_symmetry_space_group_name_H-M "P -1"
_symmetry_group_IT_number 2
_symmetry_cell_setting 'triclinic'
loop_
_space_group_symop_operation_xyz
x,y,z
-x,-y,-z
loop_
_atom_site_type_symbol
_atom_site_label
_atom_site_fract_x
_atom_site_fract_y
_atom_site_fract_z
Si Si1 0.243220 0.252212 0.573155
Si Si2 0.150461 0.070861 0.033065
Si Si3 0.040397 0.479095 0.745883
Si Si4 0.661357 0.031979 0.084118
Si Si5 0.966856 0.191329 0.443743
Si Si6 0.764146 0.218658 0.746821
Si Si7 0.413946 0.543057 0.709119
Si Si8 0.695933 0.669153 0.771309
O O1 0.058270 0.189027 0.395846
O O2 0.279007 0.399747 0.606381
O O3 0.298284 0.278969 0.443113
O O4 0.329033 0.126072 0.854363
O O5 0.266931 0.188105 0.185627
O O6 0.234888 0.939352 0.204665
O O7 0.093418 0.158528 0.745019
O O8 0.000000 0.000000 0.000000
O O9 0.059164 0.639816 0.716632
O O10 0.929674 0.338220 0.828512
O O11 0.000000 0.500000 0.500000
O O12 0.203338 0.448380 0.970385
O O13 0.801741 0.068254 0.351138
O O14 0.704142 0.175369 0.888284
O O15 0.500000 0.000000 0.000000
O O16 0.649791 0.309428 0.451005
O O17 0.523692 0.578334 0.666630
O O18 0.500000 0.500000 0.000000
#
# Coordination Sequence:
#
# PCOD8037225 Si02
#       8
#     2   2   2   2   2   2   2   2
#     4  12  26  50  73 106 153 198 253 312 382 447
#     4  12  24  46  75 112 149 197 261 308 372 451
#     4  12  24  45  76 114 146 196 262 309 370 454
#     4  12  29  48  73 115 156 200 252 310 387 450
#     4  12  25  47  78 105 156 201 249 319 370 448
#     4  12  26  48  77 109 151 199 261 309 381 457
#     4  12  28  50  75 107 154 198 250 316 384 450
#     4  12  26  44  76 109 150 201 252 316 379 446
#
# _framework density 23.748248
#
# number of rings (size 3 to 8) (size 9 to 14) (size 15 to 20)
#    0.000    0.000    5.000    4.500    3.500    1.500 
#    2.250    0.000    0.000    0.000    0.000    0.000 
#    0.000    0.000    0.000    0.000    0.000    0.000 
#
# Total GULP energy -198321.003420 kJ/mol
# GULP energy per Si atom -12395.062714 kJ/mol
# Density = 2.369420 g / cm^3
# Si number density = 23.748248 Si / 1000 Ang^3
#
#
#
# Elastic Constant Matrix: (Units=GPa)
#
#
# Indices 1 2 3 4 5 6 
#
# 1 149.7831 56.1047 34.5195 -7.1043 23.1255 11.4911
# 2 56.1047 110.0770 52.4568 -17.3357 13.7021 -6.6970
# 3 34.5195 52.4568 106.8403 -16.5264 14.3420 -15.5448
# 4 -7.1043 -17.3357 -16.5264 43.4973 -6.7551 11.8323
# 5 23.1255 13.7021 14.3420 -6.7551 54.0701 -7.5602
# 6 11.4911 -6.6970 -15.5448 11.8323 -7.5602 48.1284
#
#
#
# Elastic Compliance Matrix: (Units=1/GPa)
#
#
# Indices 1 2 3 4 5 6 
#
# 1 0.009182 -0.003979 -0.001119 -0.000019 -0.003127 -0.003594
# 2 -0.003979 0.014019 -0.005066 0.002851 -0.000073 0.000552
# 3 -0.001119 -0.005066 0.013083 0.001737 -0.001044 0.003197
# 4 -0.000019 0.002851 0.001737 0.026446 0.001385 -0.005322
# 5 -0.003127 -0.000073 -0.001044 0.001385 0.020765 0.003321
# 6 -0.003594 0.000552 0.003197 -0.005322 0.003321 0.024575
#
#
# Mechanical properties :
#
#
# Convention : Reuss Voigt Hill
#
# Bulk Modulus (GPa) = 62.67783 72.54029 67.60906
# Shear Modulus (GPa) = 37.39261 44.04711 40.71986
#
# Velocity S-wave (km/s) = 3.97235 4.31136 4.14532
# Velocity P-wave (km/s) = 6.89125 7.44282 7.17234
#
# Compressibility (1/GPa) = 0.01595460
#
# Stress axis : x y z
#
# Youngs Moduli (GPa) = 108.90454 71.33366 76.43725
#
# Poissons Ratio (x) = 0.28385 0.08555
# Poissons Ratio (y) = 0.43336 0.38724
# Poissons Ratio (z) = 0.12188 0.36138
#
# Static dielectric constant tensor:
#      x y z
#    x 4.388950 0.055870 0.373640 
#    y 0.055870 3.811550 0.320960 
#    z 0.373640 0.320960 3.181670 
# 
# 
# High freq. dielectric constant tensor:
#      x y z
#    x 1.965880 0.008100 0.007450 
#    y 0.008100 1.945720 -0.022290 
#    z 0.007450 -0.022290 1.937860 
# 
# From -- ./inp_files/274771.got.cif
#   From: 2010.06.25/outbox.cif.g09.slc.cpg/sg2_138_cif.got.tgz:274771.got - 2010.06.27 13:26:56.
