data_PCOD8037280
_publ_section_title
;
Structure prediction by ZEFSAII (Michael W. Deem and Ramdas Pophale) SiO2 
 PCOD8037280
Probable space group: P -1
;
_chemical_formula_sum "Si O2"
_cell_formula_units_Z 12
_cell_length_a 12.008899
_cell_length_b 14.822960
_cell_length_c 5.223747
_cell_angle_alpha 92.781536
_cell_angle_beta 71.653024
_cell_angle_gamma 141.756531
_cell_volume 514.144921
_symmetry_space_group_name_H-M "P -1"
_symmetry_group_IT_number 2
_symmetry_cell_setting 'triclinic'
loop_
_space_group_symop_operation_xyz
x,y,z
-x,-y,-z
loop_
_atom_site_type_symbol
_atom_site_label
_atom_site_fract_x
_atom_site_fract_y
_atom_site_fract_z
Si Si1 0.444403 0.569638 0.520413
Si Si2 0.004706 0.738813 0.205543
Si Si3 0.963404 0.132282 0.302720
Si Si4 0.414875 0.176894 0.298854
Si Si5 0.209766 0.137200 0.024315
Si Si6 0.599834 0.105104 0.187833
O O1 0.500000 0.500000 0.500000
O O2 0.481479 0.659220 0.750333
O O3 0.584917 0.702796 0.229256
O O4 0.212229 0.438797 0.594071
O O5 0.086454 0.827988 0.430323
O O6 0.161745 0.764416 0.981783
O O7 0.967144 0.785785 0.010123
O O8 0.143502 0.178498 0.271504
O O9 0.749239 0.945392 0.370664
O O10 0.578251 0.199855 0.196634
O O11 0.268719 0.085019 0.139738
O O12 0.000000 0.000000 0.000000
O O13 0.500000 0.000000 0.500000
O O14 0.500000 0.000000 0.000000
#
# Coordination Sequence:
#
# PCOD8037280 Si02
#       6
#     2   2   2   2   2   2
#     4  12  28  45  73 111 160 194 248 311 389 444
#     4  12  26  48  74 113 148 196 247 315 373 439
#     4  12  24  46  77 104 150 192 253 305 372 443
#     4  12  27  45  77 111 147 203 256 309 373 454
#     4  12  26  45  75 110 151 197 257 308 376 453
#     4  12  26  49  81 109 147 199 260 311 364 451
#
# _framework density 23.339724
#
# number of rings (size 3 to 8) (size 9 to 14) (size 15 to 20)
#    0.000    0.000    6.667    2.500    4.667    2.000 
#    0.000    0.833    0.000    0.000    0.000    0.000 
#    0.000    0.000    0.000    0.000    0.000    0.000 
#
# Total GULP energy -148658.658436 kJ/mol
# GULP energy per Si atom -12388.221536 kJ/mol
# Density = 2.328660 g / cm^3
# Si number density = 23.339724 Si / 1000 Ang^3
#
#
#
# Elastic Constant Matrix: (Units=GPa)
#
#
# Indices 1 2 3 4 5 6 
#
# 1 172.4401 53.4208 49.0602 -4.3799 -24.9428 -2.8353
# 2 53.4208 128.5916 48.9310 -15.4991 -7.1208 -6.4712
# 3 49.0602 48.9310 120.1277 -10.7988 -16.6029 5.8635
# 4 -4.3799 -15.4991 -10.7988 42.1467 17.8534 -7.6732
# 5 -24.9428 -7.1208 -16.6029 17.8534 47.6243 -5.7612
# 6 -2.8353 -6.4712 5.8635 -7.6732 -5.7612 32.2701
#
#
#
# Elastic Compliance Matrix: (Units=1/GPa)
#
#
# Indices 1 2 3 4 5 6 
#
# 1 0.007588 -0.002479 -0.001778 -0.002084 0.003848 0.000684
# 2 -0.002479 0.010653 -0.003389 0.004258 -0.002100 0.003172
# 3 -0.001778 -0.003389 0.010834 0.000043 0.002029 -0.002432
# 4 -0.002084 0.004258 0.000043 0.030979 -0.011326 0.006007
# 5 0.003848 -0.002100 0.002029 -0.011326 0.027874 0.001831
# 6 0.000684 0.003172 -0.002432 0.006007 0.001831 0.033882
#
#
# Mechanical properties :
#
#
# Convention : Reuss Voigt Hill
#
# Bulk Modulus (GPa) = 72.55714 80.44259 76.49986
# Shear Modulus (GPa) = 35.28709 42.39137 38.83923
#
# Velocity S-wave (km/s) = 3.89252 4.26640 4.08374
# Velocity P-wave (km/s) = 7.16639 7.66879 7.42184
#
# Compressibility (1/GPa) = 0.01378224
#
# Stress axis : x y z
#
# Youngs Moduli (GPa) = 131.78870 93.87334 92.30336
#
# Poissons Ratio (x) = 0.23275 0.16411
# Poissons Ratio (y) = 0.32676 0.31279
# Poissons Ratio (z) = 0.23431 0.31811
#
# Static dielectric constant tensor:
#      x y z
#    x 4.500180 -0.198260 -0.439940 
#    y -0.198260 4.851050 0.012480 
#    z -0.439940 0.012480 4.625190 
# 
# 
# High freq. dielectric constant tensor:
#      x y z
#    x 1.924250 0.000730 -0.015760 
#    y 0.000730 1.914820 0.002390 
#    z -0.015760 0.002390 1.944830 
# 
# From -- ./inp_files/18818.got.cif
#   From: 2010.06.25/outbox.cif.g09.slc.cpg/sg2_10_cif.got.tgz:18818.got - 2010.06.27 13:26:56.
