data_PCOD8037430
_publ_section_title
;
Structure prediction by ZEFSAII (Michael W. Deem and Ramdas Pophale) SiO2 
 PCOD8037430
Probable space group: P -1
;
_chemical_formula_sum "Si O2"
_cell_formula_units_Z 16
_cell_length_a 10.087501
_cell_length_b 5.213997
_cell_length_c 19.090957
_cell_angle_alpha 97.363916
_cell_angle_beta 44.729111
_cell_angle_gamma 94.670974
_cell_volume 700.754430
_symmetry_space_group_name_H-M "P -1"
_symmetry_group_IT_number 2
_symmetry_cell_setting 'triclinic'
loop_
_space_group_symop_operation_xyz
x,y,z
-x,-y,-z
loop_
_atom_site_type_symbol
_atom_site_label
_atom_site_fract_x
_atom_site_fract_y
_atom_site_fract_z
Si Si1 0.010476 0.273218 0.686799
Si Si2 0.225998 0.209998 0.199182
Si Si3 0.353312 0.311034 0.013726
Si Si4 0.900689 0.738783 0.506863
Si Si5 0.066614 0.635534 0.050009
Si Si6 0.265006 0.274347 0.722466
Si Si7 0.534032 0.187427 0.307304
Si Si8 0.583809 0.089312 0.128678
O O1 0.886283 0.523687 0.759457
O O2 0.093869 0.302099 0.579401
O O3 0.184007 0.258667 0.674452
O O4 0.892977 0.010826 0.726591
O O5 0.289883 0.116833 0.093708
O O6 0.409231 0.278362 0.180271
O O7 0.161631 0.440331 0.062159
O O8 0.500000 0.500000 0.000000
O O9 0.461939 0.180889 0.902387
O O10 0.685906 0.754129 0.611801
O O11 0.000000 0.500000 0.500000
O O12 0.000000 0.000000 0.500000
O O13 0.892597 0.770183 0.160322
O O14 0.216974 0.845100 0.977950
O O15 0.000000 0.500000 0.000000
O O16 0.360709 0.549445 0.706340
O O17 0.415609 0.037441 0.663718
O O18 0.603356 0.069480 0.203270
#
# Coordination Sequence:
#
# PCOD8037430 Si02
#       8
#     2   2   2   2   2   2   2   2
#     4  12  26  47  77 106 146 188 244 308 368 441
#     4  12  25  44  72 109 145 190 246 308 367 426
#     4  12  25  43  68 106 144 198 255 306 360 433
#     4  12  27  52  81 111 139 182 241 308 377 438
#     4  12  25  43  67  99 151 198 247 291 359 438
#     4  12  27  46  70 107 146 198 239 291 363 441
#     4  12  28  48  73 105 148 188 243 297 366 442
#     4  12  26  41  70 101 148 195 246 306 362 421
#
# _framework density 22.832535
#
# number of rings (size 3 to 8) (size 9 to 14) (size 15 to 20)
#    0.000    0.000    3.750    6.375    1.750    2.000 
#    0.000    0.000    0.000    0.000    0.000    0.000 
#    0.000    0.000    0.000    0.000    0.000    0.000 
#
# Total GULP energy -198443.522161 kJ/mol
# GULP energy per Si atom -12402.720135 kJ/mol
# Density = 2.278057 g / cm^3
# Si number density = 22.832535 Si / 1000 Ang^3
#
#
#
# Elastic Constant Matrix: (Units=GPa)
#
#
# Indices 1 2 3 4 5 6 
#
# 1 156.2858 62.1676 44.8672 4.0003 3.4379 -0.3256
# 2 62.1676 134.0850 33.0474 -1.1643 1.1023 -2.7336
# 3 44.8672 33.0474 103.8293 -7.2124 15.6932 6.8201
# 4 4.0003 -1.1643 -7.2124 28.6600 -1.9286 -3.9462
# 5 3.4379 1.1023 15.6932 -1.9286 40.7651 2.7146
# 6 -0.3256 -2.7336 6.8201 -3.9462 2.7146 47.2892
#
#
#
# Elastic Compliance Matrix: (Units=1/GPa)
#
#
# Indices 1 2 3 4 5 6 
#
# 1 0.008571 -0.003288 -0.002858 -0.002012 0.000365 0.000092
# 2 -0.003288 0.009413 -0.001684 0.000568 0.000646 0.000775
# 3 -0.002858 -0.001684 0.012340 0.002957 -0.004230 -0.001407
# 4 -0.002012 0.000568 0.002957 0.036335 0.000562 0.002592
# 5 0.000365 0.000646 -0.004230 0.000562 0.026191 -0.000807
# 6 0.000092 0.000775 -0.001407 0.002592 -0.000807 0.021657
#
#
# Mechanical properties :
#
#
# Convention : Reuss Voigt Hill
#
# Bulk Modulus (GPa) = 68.20164 74.92939 71.56552
# Shear Modulus (GPa) = 37.02210 40.28405 38.65307
#
# Velocity S-wave (km/s) = 4.03111 4.20495 4.11894
# Velocity P-wave (km/s) = 7.18343 7.51423 7.35069
#
# Compressibility (1/GPa) = 0.01466240
#
# Stress axis : x y z
#
# Youngs Moduli (GPa) = 116.67882 106.23718 81.04016
#
# Poissons Ratio (x) = 0.34929 0.23162
# Poissons Ratio (y) = 0.38362 0.13650
# Poissons Ratio (z) = 0.33347 0.17895
#
# Static dielectric constant tensor:
#      x y z
#    x 4.552910 0.050560 0.041030 
#    y 0.050560 4.133550 0.013530 
#    z 0.041030 0.013530 4.321490 
# 
# 
# High freq. dielectric constant tensor:
#      x y z
#    x 1.930170 -0.001700 0.002860 
#    y -0.001700 1.903590 0.000090 
#    z 0.002860 0.000090 1.898500 
# 
# From -- ./inp_files/40010.got.cif
#   From: 2010.06.25/outbox.cif.g09.slc.cpg/sg2_21_cif.got.tgz:40010.got - 2010.06.27 13:26:56.
