data_PCOD8037329
_publ_section_title
;
Structure prediction by ZEFSAII (Michael W. Deem and Ramdas Pophale) SiO2 
 PCOD8037329
Probable space group: P -1
;
_chemical_formula_sum "Si O2"
_cell_formula_units_Z 14
_cell_length_a 8.865822
_cell_length_b 9.263238
_cell_length_c 11.602026
_cell_angle_alpha 122.197107
_cell_angle_beta 110.239320
_cell_angle_gamma 112.064619
_cell_volume 536.309350
_symmetry_space_group_name_H-M "P -1"
_symmetry_group_IT_number 2
_symmetry_cell_setting 'triclinic'
loop_
_space_group_symop_operation_xyz
x,y,z
-x,-y,-z
loop_
_atom_site_type_symbol
_atom_site_label
_atom_site_fract_x
_atom_site_fract_y
_atom_site_fract_z
Si Si1 0.655160 0.844083 0.903302
Si Si2 0.093922 0.894692 0.511394
Si Si3 0.299260 0.503153 0.321899
Si Si4 0.180758 0.489232 0.538969
Si Si5 0.305721 0.959072 0.374392
Si Si6 0.870061 0.303401 0.024654
Si Si7 0.488905 0.290233 0.937563
O O1 0.711331 0.696448 0.812666
O O2 0.423478 0.744551 0.746770
O O3 0.831061 0.117099 0.023613
O O4 0.652189 0.837182 0.037253
O O5 0.108926 0.814849 0.357678
O O6 0.344560 0.083998 0.714299
O O7 0.000000 0.000000 0.500000
O O8 0.894802 0.690953 0.456634
O O9 0.199249 0.419781 0.389026
O O10 0.563279 0.763788 0.504046
O O11 0.144745 0.519846 0.209333
O O12 0.000000 0.500000 0.500000
O O13 0.500000 0.000000 0.500000
O O14 0.181378 0.788091 0.158274
O O15 0.731927 0.374320 0.048414
O O16 0.500000 0.500000 0.000000
#
# Coordination Sequence:
#
# PCOD8037329 Si02
#       7
#     2   2   2   2   2   2   2
#     4  12  26  48  79 113 155 195 261 318 371 460
#     4  12  27  45  73 108 155 196 244 314 382 447
#     4  12  27  48  82 114 150 203 258 314 381 451
#     4  12  24  47  77 111 148 202 251 308 381 448
#     4  12  26  50  75 113 156 196 257 314 380 451
#     4  12  27  50  80 109 154 203 253 318 381 452
#     4  12  26  49  71 113 152 197 255 315 382 458
#
# _framework density 26.104336
#
# number of rings (size 3 to 8) (size 9 to 14) (size 15 to 20)
#    0.000    0.000    2.857    7.286    4.000    1.714 
#    2.571    0.000    0.000    0.000    0.000    0.000 
#    0.000    0.000    0.000    0.000    0.000    0.000 
#
# Total GULP energy -173510.309738 kJ/mol
# GULP energy per Si atom -12393.593553 kJ/mol
# Density = 2.604492 g / cm^3
# Si number density = 26.104336 Si / 1000 Ang^3
#
#
#
# Elastic Constant Matrix: (Units=GPa)
#
#
# Indices 1 2 3 4 5 6 
#
# 1 126.0351 28.7330 29.5452 -21.3771 -12.7540 4.1156
# 2 28.7330 106.1075 41.0355 -40.4851 -20.4891 14.3661
# 3 29.5452 41.0355 77.0907 -9.7157 -4.0969 27.2796
# 4 -21.3771 -40.4851 -9.7157 42.8893 8.5367 -10.8047
# 5 -12.7540 -20.4891 -4.0969 8.5367 52.0600 -10.5933
# 6 4.1156 14.3661 27.2796 -10.8047 -10.5933 55.6850
#
#
#
# Elastic Compliance Matrix: (Units=1/GPa)
#
#
# Indices 1 2 3 4 5 6 
#
# 1 0.009731 0.001113 -0.004480 0.005109 0.002159 0.002590
# 2 0.001113 0.020060 -0.010085 0.017151 0.005383 0.004035
# 3 -0.004480 -0.010085 0.022487 -0.008500 -0.004040 -0.010501
# 4 0.005109 0.017151 -0.008500 0.041687 0.002094 0.007849
# 5 0.002159 0.005383 -0.004040 0.002094 0.022225 0.005065
# 6 0.002590 0.004035 -0.010501 0.007849 0.005065 0.024357
#
#
# Mechanical properties :
#
#
# Convention : Reuss Voigt Hill
#
# Bulk Modulus (GPa) = 39.40959 56.42896 47.91927
# Shear Modulus (GPa) = 28.42387 44.12149 36.27268
#
# Velocity S-wave (km/s) = 3.30336 4.11566 3.73168
# Velocity P-wave (km/s) = 5.44787 6.65196 6.07980
#
# Compressibility (1/GPa) = 0.02537454
#
# Stress axis : x y z
#
# Youngs Moduli (GPa) = 102.76282 49.84993 44.47054
#
# Poissons Ratio (x) = -0.05547 0.19922
# Poissons Ratio (y) = -0.11435 0.44847
# Poissons Ratio (z) = 0.46036 0.50272
#
# Static dielectric constant tensor:
#      x y z
#    x 4.838460 0.114540 0.179480 
#    y 0.114540 5.136640 0.102100 
#    z 0.179480 0.102100 5.026230 
# 
# 
# High freq. dielectric constant tensor:
#      x y z
#    x 2.057090 0.003270 0.005220 
#    y 0.003270 2.070350 -0.005390 
#    z 0.005220 -0.005390 2.060290 
# 
# From -- ./inp_files/176452.got.cif
#   From: 2010.06.25/outbox.cif.g09.slc.cpg/sg2_89_cif.got.tgz:176452.got - 2010.06.27 13:26:56.
