data_PCOD8037775
_publ_section_title
;
Structure prediction by ZEFSAII (Michael W. Deem and Ramdas Pophale) SiO2 
 PCOD8037775
Probable space group: P -1
;
_chemical_formula_sum "Si O2"
_cell_formula_units_Z 12
_cell_length_a 7.824742
_cell_length_b 9.581298
_cell_length_c 15.523011
_cell_angle_alpha 28.316361
_cell_angle_beta 110.641073
_cell_angle_gamma 117.718442
_cell_volume 484.161299
_symmetry_space_group_name_H-M "P -1"
_symmetry_group_IT_number 2
_symmetry_cell_setting 'triclinic'
loop_
_space_group_symop_operation_xyz
x,y,z
-x,-y,-z
loop_
_atom_site_type_symbol
_atom_site_label
_atom_site_fract_x
_atom_site_fract_y
_atom_site_fract_z
Si Si1 0.905999 0.115784 0.501014
Si Si2 0.398585 0.104490 0.558816
Si Si3 0.213327 0.726199 0.886495
Si Si4 0.971503 0.787035 0.192650
Si Si5 0.757362 0.889966 0.775561
Si Si6 0.414815 0.198376 0.814432
O O1 0.017947 0.482456 0.337841
O O2 0.680798 0.038587 0.471451
O O3 0.895621 0.946864 0.683596
O O4 0.000000 0.000000 0.500000
O O5 0.424499 0.474450 0.365987
O O6 0.224212 0.926824 0.692420
O O7 0.594221 0.045338 0.651627
O O8 0.323211 0.974019 0.841855
O O9 0.331917 0.486289 0.021901
O O10 0.000000 0.500000 0.000000
O O11 0.746779 0.689402 0.230924
O O12 0.110940 0.953763 0.204662
O O13 0.000000 0.000000 0.000000
O O14 0.500000 0.000000 0.000000
#
# Coordination Sequence:
#
# PCOD8037775 Si02
#       6
#     2   2   2   2   2   2
#     4  12  28  48  79 114 158 206 265 326 399 471
#     4  12  28  49  80 116 158 210 265 330 396 471
#     4  12  26  49  79 117 157 206 262 325 399 479
#     4  12  29  50  77 116 162 211 262 328 401 468
#     4  12  26  51  81 113 162 206 268 326 397 477
#     4  12  29  50  77 115 165 206 269 324 397 472
#
# _framework density 24.785129000000001
#
# number of rings (size 3 to 8) (size 9 to 14) (size 15 to 20)
#    0.000    0.000    3.333    5.000    9.333    0.000 
#    0.000    0.000    0.000    0.000    0.000    0.000 
#    0.000    0.000    0.000    0.000    0.000    0.000 
#
# Total GULP energy -148778.353020 kJ/mol
# GULP energy per Si atom -12398.196085 kJ/mol
# Density = 2.472872 g / cm^3
# Si number density = 24.785129 Si / 1000 Ang^3
#
#
#
# Elastic Constant Matrix: (Units=GPa)
#
#
# Indices 1 2 3 4 5 6 
#
# 1 80.6572 20.2134 18.3064 3.7046 -4.2455 -15.0084
# 2 20.2134 194.3350 81.8524 7.7969 -6.7901 -18.8284
# 3 18.3064 81.8524 213.3007 -6.4871 -12.0888 -14.8754
# 4 3.7046 7.7969 -6.4871 54.0697 -3.1113 8.8086
# 5 -4.2455 -6.7901 -12.0888 -3.1113 36.1628 -1.6909
# 6 -15.0084 -18.8284 -14.8754 8.8086 -1.6909 32.6872
#
#
#
# Elastic Compliance Matrix: (Units=1/GPa)
#
#
# Indices 1 2 3 4 5 6 
#
# 1 0.014020 -0.000468 -0.000542 -0.001933 0.001516 0.006521
# 2 -0.000468 0.006524 -0.002283 -0.001643 0.000404 0.002967
# 3 -0.000542 -0.002283 0.005792 0.001008 0.001572 0.000881
# 4 -0.001933 -0.001643 0.001008 0.020154 0.001220 -0.006743
# 5 0.001516 0.000404 0.001572 0.001220 0.028668 0.002798
# 6 0.006521 0.002967 0.000881 -0.006743 0.002798 0.037659
#
#
# Mechanical properties :
#
#
# Convention : Reuss Voigt Hill
#
# Bulk Modulus (GPa) = 50.63283 81.00416 65.81850
# Shear Modulus (GPa) = 39.68679 49.11199 44.39939
#
# Velocity S-wave (km/s) = 4.00588 4.45624 4.23705
# Velocity P-wave (km/s) = 6.47064 7.69617 7.10986
#
# Compressibility (1/GPa) = 0.01975003
#
# Stress axis : x y z
#
# Youngs Moduli (GPa) = 71.32520 153.28765 172.64673
#
# Poissons Ratio (x) = 0.07170 0.09356
# Poissons Ratio (y) = 0.03336 0.39422
# Poissons Ratio (z) = 0.03865 0.35001
#
# Static dielectric constant tensor:
#      x y z
#    x 4.470160 0.121560 0.154740 
#    y 0.121560 4.614550 0.302070 
#    z 0.154740 0.302070 5.259410 
# 
# 
# High freq. dielectric constant tensor:
#      x y z
#    x 1.996560 0.002000 0.007260 
#    y 0.002000 2.003910 0.006860 
#    z 0.007260 0.006860 2.013970 
# 
# From -- ./inp_files/160066.got.cif
#   From: 2010.06.25/outbox.cif.g09.slc.cpg/sg2_81_cif.got.tgz:160066.got - 2010.06.27 13:26:56.
