data_PCOD8037287
_publ_section_title
;
Structure prediction by ZEFSAII (Michael W. Deem and Ramdas Pophale) SiO2 
 PCOD8037287
Probable space group: P -1
;
_chemical_formula_sum "Si O2"
_cell_formula_units_Z 16
_cell_length_a 8.185761
_cell_length_b 12.263836
_cell_length_c 9.173275
_cell_angle_alpha 57.448935
_cell_angle_beta 62.837600
_cell_angle_gamma 73.406442
_cell_volume 689.646419
_symmetry_space_group_name_H-M "P -1"
_symmetry_group_IT_number 2
_symmetry_cell_setting 'triclinic'
loop_
_space_group_symop_operation_xyz
x,y,z
-x,-y,-z
loop_
_atom_site_type_symbol
_atom_site_label
_atom_site_fract_x
_atom_site_fract_y
_atom_site_fract_z
Si Si1 0.218901 0.297699 0.028349
Si Si2 0.434120 0.872636 0.043331
Si Si3 0.319804 0.432767 0.174102
Si Si4 0.275923 0.724348 0.453915
Si Si5 0.920620 0.107357 0.347428
Si Si6 0.346139 0.000483 0.686625
Si Si7 0.073598 0.466387 0.717389
Si Si8 0.655047 0.707253 0.443434
O O1 0.410181 0.242945 0.924016
O O2 0.241113 0.337762 0.156275
O O3 0.080981 0.184329 0.156703
O O4 0.138396 0.422560 0.883398
O O5 0.388669 0.897990 0.873623
O O6 0.267067 0.819342 0.246829
O O7 0.500000 0.000000 0.000000
O O8 0.387495 0.344491 0.342962
O O9 0.148323 0.533663 0.210758
O O10 0.500000 0.500000 0.000000
O O11 0.221192 0.800223 0.570074
O O12 0.143325 0.609405 0.557606
O O13 0.485986 0.672439 0.433632
O O14 0.835143 0.040431 0.290752
O O15 0.000000 0.000000 0.500000
O O16 0.500000 0.000000 0.500000
O O17 0.316422 0.140062 0.673248
O O18 0.157914 0.364212 0.639858
#
# Coordination Sequence:
#
# PCOD8037287 Si02
#       8
#     2   2   2   2   2   2   2   2
#     4  12  26  48  73 105 150 192 254 309 371 453
#     4  12  24  48  73 113 149 196 246 307 380 450
#     4  12  28  46  74 107 146 192 253 307 373 449
#     4  12  25  47  78 103 157 197 241 309 380 448
#     4  12  26  47  74 108 150 200 253 308 370 442
#     4  12  24  46  78 111 148 196 255 306 375 449
#     4  12  27  50  70 111 148 201 246 306 389 444
#     4  12  25  48  73 108 153 191 243 314 376 447
#
# _framework density 23.200295000000001
#
# number of rings (size 3 to 8) (size 9 to 14) (size 15 to 20)
#    0.000    0.000    5.000    4.875    3.500    0.000 
#    2.250    3.125    0.000    0.000    0.000    0.000 
#    0.000    0.000    0.000    0.000    0.000    0.000 
#
# Total GULP energy -198466.168709 kJ/mol
# GULP energy per Si atom -12404.135544 kJ/mol
# Density = 2.314749 g / cm^3
# Si number density = 23.200295 Si / 1000 Ang^3
#
#
#
# Elastic Constant Matrix: (Units=GPa)
#
#
# Indices 1 2 3 4 5 6 
#
# 1 122.7951 24.2341 57.1166 -12.3670 1.5298 8.6090
# 2 24.2341 87.1349 28.3383 -7.4175 -13.8770 -4.1719
# 3 57.1166 28.3383 154.3875 -13.9387 14.2688 8.3380
# 4 -12.3670 -7.4175 -13.9387 36.6227 1.3727 1.8965
# 5 1.5298 -13.8770 14.2688 1.3727 46.6461 0.4245
# 6 8.6090 -4.1719 8.3380 1.8965 0.4245 37.6018
#
#
#
# Elastic Compliance Matrix: (Units=1/GPa)
#
#
# Indices 1 2 3 4 5 6 
#
# 1 0.010321 -0.001730 -0.003223 0.002005 0.000092 -0.001942
# 2 -0.001730 0.013682 -0.002351 0.000992 0.004796 0.002331
# 3 -0.003223 -0.002351 0.008661 0.001933 -0.003286 -0.001504
# 4 0.002005 0.000992 0.001933 0.029079 -0.001197 -0.002231
# 5 0.000092 0.004796 -0.003286 -0.001197 0.023893 0.001030
# 6 -0.001942 0.002331 -0.001504 -0.002231 0.001030 0.027732
#
#
# Mechanical properties :
#
#
# Convention : Reuss Voigt Hill
#
# Bulk Modulus (GPa) = 55.38539 64.85508 60.12023
# Shear Modulus (GPa) = 37.31464 41.14936 39.23200
#
# Velocity S-wave (km/s) = 4.01480 4.21605 4.11665
# Velocity P-wave (km/s) = 6.73914 7.19133 6.96890
#
# Compressibility (1/GPa) = 0.01805530
#
# Stress axis : x y z
#
# Youngs Moduli (GPa) = 96.88600 73.08874 115.46452
#
# Poissons Ratio (x) = 0.12644 0.37219
# Poissons Ratio (y) = 0.16761 0.27145
# Poissons Ratio (z) = 0.31231 0.17183
#
# Static dielectric constant tensor:
#      x y z
#    x 4.354660 -0.165860 0.087930 
#    y -0.165860 5.461560 1.243250 
#    z 0.087930 1.243250 5.527480 
# 
# 
# High freq. dielectric constant tensor:
#      x y z
#    x 1.917230 -0.004410 0.006880 
#    y -0.004410 1.922530 0.005800 
#    z 0.006880 0.005800 1.937760 
# 
# From -- ./inp_files/184846.got.cif
#   From: 2010.06.25/outbox.cif.g09.slc.cpg/sg2_93_cif.got.tgz:184846.got - 2010.06.27 13:26:56.
