data_PCOD8037183
_publ_section_title
;
Structure prediction by ZEFSAII (Michael W. Deem and Ramdas Pophale) SiO2 
 PCOD8037183
Probable space group: P -1
;
_chemical_formula_sum "Si O2"
_cell_formula_units_Z 16
_cell_length_a 14.425661
_cell_length_b 8.982903
_cell_length_c 17.004922
_cell_angle_alpha 147.707001
_cell_angle_beta 140.294806
_cell_angle_gamma 40.776408
_cell_volume 714.218749
_symmetry_space_group_name_H-M "P -1"
_symmetry_group_IT_number 2
_symmetry_cell_setting 'triclinic'
loop_
_space_group_symop_operation_xyz
x,y,z
-x,-y,-z
loop_
_atom_site_type_symbol
_atom_site_label
_atom_site_fract_x
_atom_site_fract_y
_atom_site_fract_z
Si Si1 0.635747 0.673838 0.847143
Si Si2 0.157971 0.979594 0.907536
Si Si3 0.021326 0.228046 0.677547
Si Si4 0.410578 0.629934 0.159159
Si Si5 0.871371 0.128359 0.692328
Si Si6 0.286815 0.304445 0.662065
Si Si7 0.141355 0.114279 0.133713
Si Si8 0.354558 0.151130 0.812818
O O1 0.611098 0.544672 0.856659
O O2 0.723379 0.413399 0.728870
O O3 0.471097 0.841569 0.777766
O O4 0.734960 0.896620 0.023991
O O5 0.190740 0.635747 0.765862
O O6 0.977265 0.119247 0.833917
O O7 0.196356 0.067964 0.058845
O O8 0.196235 0.220671 0.787794
O O9 0.980358 0.140155 0.696806
O O10 0.907609 0.546646 0.722126
O O11 0.000000 0.000000 0.500000
O O12 0.566021 0.711940 0.301623
O O13 0.275276 0.935521 0.199262
O O14 0.419229 0.420021 0.995313
O O15 0.817141 0.842242 0.521934
O O16 0.333729 0.129576 0.696342
O O17 0.000000 0.000000 0.000000
#
# Coordination Sequence:
#
# PCOD8037183 Si02
#       8
#     2   2   2   2   2   2   2   2
#     4  12  27  46  75 104 143 190 238 297 352 425
#     4  12  24  47  74 103 142 189 242 294 349 426
#     4  12  26  47  74 112 143 184 236 294 365 426
#     4  12  25  45  75 107 140 185 248 293 351 422
#     4  12  28  46  70 106 147 188 234 296 362 420
#     4  12  26  46  71 105 146 187 235 299 361 419
#     4  12  24  44  78 105 139 189 241 293 348 426
#     4  12  24  46  75 104 140 186 240 297 352 424
#
# _framework density 22.402099
#
# number of rings (size 3 to 8) (size 9 to 14) (size 15 to 20)
#    0.000    0.000    6.250    3.750    1.750    2.000 
#    2.250    0.000    0.000    0.000    0.000    0.000 
#    0.000    0.000    0.000    0.000    0.000    0.000 
#
# Total GULP energy -198508.244773 kJ/mol
# GULP energy per Si atom -12406.765298 kJ/mol
# Density = 2.235111 g / cm^3
# Si number density = 22.402099 Si / 1000 Ang^3
#
#
#
# Elastic Constant Matrix: (Units=GPa)
#
#
# Indices 1 2 3 4 5 6 
#
# 1 110.1762 42.1301 21.0113 -2.2905 18.2281 2.3244
# 2 42.1301 163.1368 40.3631 19.1248 3.0385 -10.9511
# 3 21.0113 40.3631 92.5209 18.8567 7.6426 4.3654
# 4 -2.2905 19.1248 18.8567 35.9100 -7.1547 -5.2362
# 5 18.2281 3.0385 7.6426 -7.1547 37.3066 3.4052
# 6 2.3244 -10.9511 4.3654 -5.2362 3.4052 36.3337
#
#
#
# Elastic Compliance Matrix: (Units=1/GPa)
#
#
# Indices 1 2 3 4 5 6 
#
# 1 0.011181 -0.002742 -0.001313 0.001855 -0.004552 -0.000690
# 2 -0.002742 0.007907 -0.002437 -0.002660 0.000464 0.002425
# 3 -0.001313 -0.002437 0.014051 -0.007241 -0.003145 -0.003088
# 4 0.001855 -0.002660 -0.007241 0.035246 0.007155 0.004358
# 5 -0.004552 0.000464 -0.003145 0.007155 0.031106 -0.001075
# 6 -0.000690 0.002425 -0.003088 0.004358 -0.001075 0.029397
#
#
# Mechanical properties :
#
#
# Convention : Reuss Voigt Hill
#
# Bulk Modulus (GPa) = 49.61344 63.64923 56.63134
# Shear Modulus (GPa) = 33.64939 39.39868 36.52403
#
# Velocity S-wave (km/s) = 3.87985 4.19824 4.04218
# Velocity P-wave (km/s) = 6.50122 7.20931 6.86440
#
# Compressibility (1/GPa) = 0.02015583
#
# Stress axis : x y z
#
# Youngs Moduli (GPa) = 89.43409 126.47134 71.16900
#
# Poissons Ratio (x) = 0.34676 0.09342
# Poissons Ratio (y) = 0.24521 0.17346
# Poissons Ratio (z) = 0.11739 0.30825
#
# Static dielectric constant tensor:
#      x y z
#    x 4.477340 0.067180 0.099200 
#    y 0.067180 6.462160 0.004220 
#    z 0.099200 0.004220 4.035670 
# 
# 
# High freq. dielectric constant tensor:
#      x y z
#    x 1.895290 -0.005290 0.011240 
#    y -0.005290 1.893990 0.009660 
#    z 0.011240 0.009660 1.873390 
# 
# From -- ./inp_files/274629.got.cif
#   From: 2010.06.25/outbox.cif.g09.slc.cpg/sg2_138_cif.got.tgz:274629.got - 2010.06.27 13:26:56.
