data_PCOD8037060
_publ_section_title
;
Structure prediction by ZEFSAII (Michael W. Deem and Ramdas Pophale) SiO2 
 PCOD8037060
Probable space group: P -1
;
_chemical_formula_sum "Si O2"
_cell_formula_units_Z 14
_cell_length_a 31.917949
_cell_length_b 12.085896
_cell_length_c 16.012552
_cell_angle_alpha 25.901500
_cell_angle_beta 16.706293
_cell_angle_gamma 18.802892
_cell_volume 570.622827
_symmetry_space_group_name_H-M "P -1"
_symmetry_group_IT_number 2
_symmetry_cell_setting 'triclinic'
loop_
_space_group_symop_operation_xyz
x,y,z
-x,-y,-z
loop_
_atom_site_type_symbol
_atom_site_label
_atom_site_fract_x
_atom_site_fract_y
_atom_site_fract_z
Si Si1 0.796874 0.501831 0.598056
Si Si2 0.177041 0.303412 0.044606
Si Si3 0.300363 0.723046 0.917270
Si Si4 0.623076 0.787576 0.558173
Si Si5 0.869637 0.253577 0.306375
Si Si6 0.825067 0.739835 0.735697
Si Si7 0.490357 0.774696 0.284113
O O1 0.709001 0.575135 0.624014
O O2 0.723372 0.843546 0.555079
O O3 0.741846 0.316510 0.881229
O O4 0.036071 0.253869 0.305443
O O5 0.158290 0.588474 0.837670
O O6 0.403605 0.935107 0.861072
O O7 0.105963 0.432771 0.187408
O O8 0.455027 0.343958 0.836305
O O9 0.394904 0.888382 0.624093
O O10 0.102030 0.952273 0.085039
O O11 0.770228 0.546103 0.367029
O O12 0.763268 0.107518 0.607517
O O13 0.000000 0.500000 0.500000
O O14 0.635140 0.806502 0.027917
O O15 0.500000 0.500000 0.500000
#
# Coordination Sequence:
#
# PCOD8037060 Si02
#       7
#     2   2   2   2   2   2   2
#     4  12  26  47  79 109 151 201 244 316 375 442
#     4  12  26  50  74 111 150 197 251 312 371 443
#     4  12  25  49  75 112 149 198 254 307 379 445
#     4  12  28  50  76 109 152 202 254 308 370 443
#     4  12  27  49  77 109 154 197 254 309 373 446
#     4  12  26  49  74 112 150 190 250 311 372 448
#     4  12  23  50  76 110 153 192 251 311 376 444
#
# _framework density 24.534593000000001
#
# number of rings (size 3 to 8) (size 9 to 14) (size 15 to 20)
#    0.000    0.000    7.143    1.286    2.000    2.857 
#    2.571    0.000    0.000    0.000    0.000    0.000 
#    0.000    0.000    0.000    0.000    0.000    0.000 
#
# Total GULP energy -173694.484065 kJ/mol
# GULP energy per Si atom -12406.748862 kJ/mol
# Density = 2.447875 g / cm^3
# Si number density = 24.534593 Si / 1000 Ang^3
#
#
#
# Elastic Constant Matrix: (Units=GPa)
#
#
# Indices 1 2 3 4 5 6 
#
# 1 114.5492 36.8637 45.0575 -15.1398 28.7530 -28.7596
# 2 36.8637 51.5206 12.5636 4.6864 16.5805 -17.0868
# 3 45.0575 12.5636 115.9725 -2.3368 6.0844 -26.6297
# 4 -15.1398 4.6864 -2.3368 42.2078 -8.5277 11.4683
# 5 28.7530 16.5805 6.0844 -8.5277 50.0242 -0.9762
# 6 -28.7596 -17.0868 -26.6297 11.4683 -0.9762 39.8588
#
#
#
# Elastic Compliance Matrix: (Units=1/GPa)
#
#
# Indices 1 2 3 4 5 6 
#
# 1 0.015564 -0.007509 -0.003940 0.004034 -0.005210 0.004091
# 2 -0.007509 0.032284 0.002684 -0.011441 -0.008402 0.013301
# 3 -0.003940 0.002684 0.011375 -0.002997 -0.000388 0.006760
# 4 0.004034 -0.011441 -0.002997 0.031108 0.006891 -0.012777
# 5 -0.005210 -0.008402 -0.000388 0.006891 0.026817 -0.008946
# 6 0.004091 0.013301 0.006760 -0.012777 -0.008946 0.041716
#
#
# Mechanical properties :
#
#
# Convention : Reuss Voigt Hill
#
# Bulk Modulus (GPa) = 23.98411 52.33466 38.15938
# Shear Modulus (GPa) = 26.27568 38.92199 32.59884
#
# Velocity S-wave (km/s) = 3.27611 3.98730 3.64907
# Velocity P-wave (km/s) = 4.90993 6.52498 5.77420
#
# Compressibility (1/GPa) = 0.04169427
#
# Stress axis : x y z
#
# Youngs Moduli (GPa) = 64.25029 30.97538 87.91362
#
# Poissons Ratio (x) = 0.23260 0.34634
# Poissons Ratio (y) = 0.48246 -0.23600
# Poissons Ratio (z) = 0.25311 -0.08315
#
# Static dielectric constant tensor:
#      x y z
#    x 4.559730 0.050630 0.020400 
#    y 0.050630 4.657750 0.041650 
#    z 0.020400 0.041650 5.030540 
# 
# 
# High freq. dielectric constant tensor:
#      x y z
#    x 1.978930 -0.006840 0.010920 
#    y -0.006840 1.972360 -0.000720 
#    z 0.010920 -0.000720 1.998050 
# 
# From -- ./inp_files/523333.got.cif
#   From: 2010.06.25/outbox.cif.g09.slc.cpg/sg2_262_cif.got.tgz:523333.got - 2010.06.27 13:26:56.
