data_PCOD8037390
_publ_section_title
;
Structure prediction by ZEFSAII (Michael W. Deem and Ramdas Pophale) SiO2 
 PCOD8037390
Probable space group: P -1
;
_chemical_formula_sum "Si O2"
_cell_formula_units_Z 16
_cell_length_a 12.605688
_cell_length_b 18.571310
_cell_length_c 9.263637
_cell_angle_alpha 150.573614
_cell_angle_beta 123.283616
_cell_angle_gamma 46.107904
_cell_volume 758.482255
_symmetry_space_group_name_H-M "P -1"
_symmetry_group_IT_number 2
_symmetry_cell_setting 'triclinic'
loop_
_space_group_symop_operation_xyz
x,y,z
-x,-y,-z
loop_
_atom_site_type_symbol
_atom_site_label
_atom_site_fract_x
_atom_site_fract_y
_atom_site_fract_z
Si Si1 0.056384 0.096966 0.806745
Si Si2 0.576774 0.543917 0.260063
Si Si3 0.373415 0.001840 0.319312
Si Si4 0.396048 0.938918 0.887162
Si Si5 0.098545 0.355775 0.705609
Si Si6 0.383970 0.655160 0.781550
Si Si7 0.941382 0.170427 0.162171
Si Si8 0.106226 0.531110 0.736353
O O1 0.233018 0.018638 0.830538
O O2 0.000000 0.000000 0.500000
O O3 0.966958 0.120996 0.928380
O O4 0.994490 0.266813 0.961532
O O5 0.471214 0.735083 0.576616
O O6 0.592388 0.404636 0.141888
O O7 0.735467 0.522579 0.309225
O O8 0.500000 0.500000 0.000000
O O9 0.234523 0.187216 0.588058
O O10 0.500000 0.000000 0.500000
O O11 0.382000 0.997597 0.144888
O O12 0.376940 0.834168 0.083254
O O13 0.500000 0.000000 0.000000
O O14 0.147611 0.436249 0.755819
O O15 0.009843 0.284850 0.436984
O O16 0.000000 0.500000 0.000000
O O17 0.500000 0.500000 0.500000
O O18 0.225395 0.697643 0.683102
O O19 0.000000 0.000000 0.000000
O O20 0.000000 0.500000 0.500000
#
# Coordination Sequence:
#
# PCOD8037390 Si02
#       8
#     2   2   2   2   2   2   2   2
#     4  12  26  46  76 109 141 196 246 305 372 436
#     4  12  27  45  73 111 146 191 241 307 366 439
#     4  12  28  49  71 108 151 194 246 303 370 440
#     4  12  26  48  74 108 154 193 243 308 369 437
#     4  12  28  47  74 107 143 196 246 305 365 435
#     4  12  26  48  75 105 146 195 244 298 371 442
#     4  12  25  49  73 103 150 190 244 307 364 433
#     4  12  24  49  72 102 147 189 248 298 366 443
#
# _framework density 21.094759
#
# number of rings (size 3 to 8) (size 9 to 14) (size 15 to 20)
#    0.000    0.000    6.250    2.250    7.000    2.000 
#    0.000    0.000    0.000    0.000    0.000    0.000 
#    0.000    0.000    0.000    0.000    0.000    0.000 
#
# Total GULP energy -198232.365671 kJ/mol
# GULP energy per Si atom -12389.522854 kJ/mol
# Density = 2.104675 g / cm^3
# Si number density = 21.094759 Si / 1000 Ang^3
#
#
#
# Elastic Constant Matrix: (Units=GPa)
#
#
# Indices 1 2 3 4 5 6 
#
# 1 138.7648 74.7981 53.4116 6.5700 -1.3504 -5.7092
# 2 74.7981 147.9580 78.9519 18.5940 1.3545 -12.0346
# 3 53.4116 78.9519 146.0864 10.3306 -6.3689 -0.9450
# 4 6.5700 18.5940 10.3306 55.6897 -2.4110 7.9374
# 5 -1.3504 1.3545 -6.3689 -2.4110 37.2636 6.4361
# 6 -5.7092 -12.0346 -0.9450 7.9374 6.4361 57.9727
#
#
#
# Elastic Compliance Matrix: (Units=1/GPa)
#
#
# Indices 1 2 3 4 5 6 
#
# 1 0.010101 -0.004503 -0.001285 0.000577 0.000361 -0.000080
# 2 -0.004503 0.012238 -0.004820 -0.003134 -0.002098 0.002680
# 3 -0.001285 -0.004820 0.009990 0.000170 0.002057 -0.001216
# 4 0.000577 -0.003134 0.000170 0.019488 0.002027 -0.003484
# 5 0.000361 -0.002098 0.002057 0.002027 0.028057 -0.003759
# 6 -0.000080 0.002680 -0.001216 -0.003484 -0.003759 0.018673
#
#
# Mechanical properties :
#
#
# Convention : Reuss Voigt Hill
#
# Bulk Modulus (GPa) = 89.98787 94.12583 92.05685
# Shear Modulus (GPa) = 40.49628 45.22836 42.86232
#
# Velocity S-wave (km/s) = 4.38623 4.63542 4.51254
# Velocity P-wave (km/s) = 8.27064 8.56544 8.41933
#
# Compressibility (1/GPa) = 0.01111261
#
# Stress axis : x y z
#
# Youngs Moduli (GPa) = 98.99698 81.71007 100.10050
#
# Poissons Ratio (x) = 0.36796 0.12863
# Poissons Ratio (y) = 0.44581 0.48251
# Poissons Ratio (z) = 0.12721 0.39386
#
# Static dielectric constant tensor:
#      x y z
#    x 5.301230 0.680230 -0.677710 
#    y 0.680230 4.672710 -0.242800 
#    z -0.677710 -0.242800 4.593300 
# 
# 
# High freq. dielectric constant tensor:
#      x y z
#    x 1.840750 -0.003060 0.008510 
#    y -0.003060 1.850990 0.012810 
#    z 0.008510 0.012810 1.843220 
# 
# From -- ./inp_files/280277.got.cif
#   From: 2010.06.25/outbox.cif.g09.slc.cpg/sg2_141_cif.got.tgz:280277.got - 2010.06.27 13:26:56.
