data_PCOD8037131
_publ_section_title
;
Structure prediction by ZEFSAII (Michael W. Deem and Ramdas Pophale) SiO2 
 PCOD8037131
Probable space group: P -1
;
_chemical_formula_sum "Si O2"
_cell_formula_units_Z 16
_cell_length_a 23.267576
_cell_length_b 8.892059
_cell_length_c 14.793741
_cell_angle_alpha 31.977723
_cell_angle_beta 151.757779
_cell_angle_gamma 128.996483
_cell_volume 676.680827
_symmetry_space_group_name_H-M "P -1"
_symmetry_group_IT_number 2
_symmetry_cell_setting 'triclinic'
loop_
_space_group_symop_operation_xyz
x,y,z
-x,-y,-z
loop_
_atom_site_type_symbol
_atom_site_label
_atom_site_fract_x
_atom_site_fract_y
_atom_site_fract_z
Si Si1 0.377041 0.667320 0.811676
Si Si2 0.941326 0.844225 0.071055
Si Si3 0.504747 0.649678 0.676222
Si Si4 0.783908 0.703968 0.258707
Si Si5 0.791882 0.110641 0.907965
Si Si6 0.213441 0.319613 0.180330
Si Si7 0.003054 0.703045 0.816949
Si Si8 0.267193 0.819290 0.901379
O O1 0.260110 0.575915 0.664583
O O2 0.323201 0.052698 0.535740
O O3 0.500000 0.500000 0.000000
O O4 0.422410 0.560558 0.029581
O O5 0.051112 0.467956 0.421552
O O6 0.795383 0.866429 0.826920
O O7 0.908732 0.984025 0.056146
O O8 0.000000 0.000000 0.000000
O O9 0.356500 0.653679 0.461029
O O10 0.500000 0.000000 0.500000
O O11 0.594022 0.435630 0.824865
O O12 0.716359 0.918629 0.146369
O O13 0.747733 0.881310 0.021178
O O14 0.863636 0.238534 0.014514
O O15 0.057068 0.461307 0.930515
O O16 0.242359 0.609811 0.048953
O O17 0.857091 0.009156 0.432411
O O18 0.000000 0.500000 0.000000
#
# Coordination Sequence:
#
# PCOD8037131 Si02
#       8
#     2   2   2   2   2   2   2   2
#     4  12  27  47  74 110 151 201 252 307 376 451
#     4  12  24  43  74 110 147 189 251 314 373 445
#     4  12  27  50  74 111 150 201 252 309 374 458
#     4  12  26  47  76 111 146 200 253 309 378 447
#     4  12  27  46  75 108 150 197 253 305 381 443
#     4  12  24  46  73 109 150 195 245 312 376 443
#     4  12  26  47  76 113 150 194 253 314 379 445
#     4  12  27  49  79 112 154 193 251 314 381 452
#
# _framework density 23.644825000000001
#
# number of rings (size 3 to 8) (size 9 to 14) (size 15 to 20)
#    0.000    0.000    5.000    5.250    1.750    1.500 
#    0.000    1.875    0.000    0.000    0.000    0.000 
#    0.000    0.000    0.000    0.000    0.000    0.000 
#
# Total GULP energy -198216.559380 kJ/mol
# GULP energy per Si atom -12388.534961 kJ/mol
# Density = 2.359101 g / cm^3
# Si number density = 23.644825 Si / 1000 Ang^3
#
#
#
# Elastic Constant Matrix: (Units=GPa)
#
#
# Indices 1 2 3 4 5 6 
#
# 1 142.4944 14.7479 41.2024 -10.1648 7.6033 -13.3893
# 2 14.7479 72.4399 37.9459 10.6311 -6.4207 -1.6038
# 3 41.2024 37.9459 144.0247 -7.3437 -3.9471 -4.3453
# 4 -10.1648 10.6311 -7.3437 35.3117 0.1367 -0.8443
# 5 7.6033 -6.4207 -3.9471 0.1367 49.4671 -5.0819
# 6 -13.3893 -1.6038 -4.3453 -0.8443 -5.0819 32.6836
#
#
#
# Elastic Compliance Matrix: (Units=1/GPa)
#
#
# Indices 1 2 3 4 5 6 
#
# 1 0.008183 -0.001072 -0.001885 0.002361 -0.001254 0.002915
# 2 -0.001072 0.017584 -0.004605 -0.006569 0.002094 -0.000033
# 3 -0.001885 -0.004605 0.008854 0.002691 0.000423 0.000314
# 4 0.002361 -0.006569 0.002691 0.031580 -0.000916 0.001676
# 5 -0.001254 0.002094 0.000423 -0.000916 0.021013 0.002889
# 6 0.002915 -0.000033 0.000314 0.001676 0.002889 0.032323
#
#
# Mechanical properties :
#
#
# Convention : Reuss Voigt Hill
#
# Bulk Modulus (GPa) = 51.28636 60.75016 56.01826
# Shear Modulus (GPa) = 35.42118 41.16333 38.29226
#
# Velocity S-wave (km/s) = 3.87467 4.17694 4.02864
# Velocity P-wave (km/s) = 6.46179 7.00079 6.73668
#
# Compressibility (1/GPa) = 0.01949836
#
# Stress axis : x y z
#
# Youngs Moduli (GPa) = 122.20545 56.87066 112.94477
#
# Poissons Ratio (x) = 0.06096 0.21286
# Poissons Ratio (y) = 0.13099 0.52007
# Poissons Ratio (z) = 0.23031 0.26187
#
# Static dielectric constant tensor:
#      x y z
#    x 3.831300 1.478470 -0.493930 
#    y 1.478470 -4.496260 2.742650 
#    z -0.493930 2.742650 3.596130 
# 
# 
# High freq. dielectric constant tensor:
#      x y z
#    x 1.954660 -0.011750 -0.008880 
#    y -0.011750 1.931180 0.004050 
#    z -0.008880 0.004050 1.948030 
# 
# From -- ./inp_files/207704.got.cif
#   From: 2010.06.25/outbox.cif.g09.slc.cpg/sg2_104_cif.got.tgz:207704.got - 2010.06.27 13:26:56.
