data_PCOD8037528
_publ_section_title
;
Structure prediction by ZEFSAII (Michael W. Deem and Ramdas Pophale) SiO2 
 PCOD8037528
Probable space group: P -1
;
_chemical_formula_sum "Si O2"
_cell_formula_units_Z 14
_cell_length_a 9.673667
_cell_length_b 12.935049
_cell_length_c 8.728996
_cell_angle_alpha 46.390453
_cell_angle_beta 114.914344
_cell_angle_gamma 127.958930
_cell_volume 623.541608
_symmetry_space_group_name_H-M "P -1"
_symmetry_group_IT_number 2
_symmetry_cell_setting 'triclinic'
loop_
_space_group_symop_operation_xyz
x,y,z
-x,-y,-z
loop_
_atom_site_type_symbol
_atom_site_label
_atom_site_fract_x
_atom_site_fract_y
_atom_site_fract_z
Si Si1 0.453665 0.772030 0.845062
Si Si2 0.069733 0.683523 0.788302
Si Si3 0.059650 0.184987 0.660604
Si Si4 0.273279 0.904388 0.206627
Si Si5 0.489473 0.752778 0.539555
Si Si6 0.184238 0.972183 0.775292
Si Si7 0.571371 0.572204 0.294728
O O1 0.262933 0.747256 0.749054
O O2 0.542623 0.784986 0.709649
O O3 0.554678 0.940619 0.808446
O O4 0.447413 0.629755 0.094708
O O5 0.949565 0.684465 0.592135
O O6 0.071500 0.807587 0.791974
O O7 0.000000 0.500000 0.000000
O O8 0.055193 0.036340 0.712535
O O9 0.234335 0.272927 0.755192
O O10 0.898945 0.112052 0.777495
O O11 0.312098 0.756896 0.409806
O O12 0.265086 0.920500 0.005072
O O13 0.658402 0.879465 0.393608
O O14 0.431225 0.565371 0.672929
O O15 0.500000 0.500000 0.500000
#
# Coordination Sequence:
#
# PCOD8037528 Si02
#       7
#     2   2   2   2   2   2   2
#     4  12  25  49  71 107 146 191 235 299 360 424
#     4  12  28  46  74 106 149 182 243 299 358 426
#     4  12  26  50  70 110 145 186 238 304 352 424
#     4  12  25  47  76 105 144 187 247 295 354 430
#     4  12  25  46  77 103 144 196 238 286 365 430
#     4  12  26  46  76 104 140 198 238 290 363 426
#     4  12  26  46  75 106 148 186 242 293 355 426
#
# _framework density 22.452389
#
# number of rings (size 3 to 8) (size 9 to 14) (size 15 to 20)
#    0.000    0.000    5.714    3.857    4.000    1.714 
#    0.000    0.000    0.000    0.000    0.000    0.000 
#    0.000    0.000    0.000    0.000    0.000    0.000 
#
# Total GULP energy -173676.222526 kJ/mol
# GULP energy per Si atom -12405.444466 kJ/mol
# Density = 2.240129 g / cm^3
# Si number density = 22.452389 Si / 1000 Ang^3
#
#
#
# Elastic Constant Matrix: (Units=GPa)
#
#
# Indices 1 2 3 4 5 6 
#
# 1 64.5820 2.1637 -12.5160 -3.4376 2.4832 3.9414
# 2 2.1637 87.6286 9.1765 -9.3502 1.5630 -12.5988
# 3 -12.5160 9.1765 86.1524 17.3907 5.5485 -0.6026
# 4 -3.4376 -9.3502 17.3907 44.0214 -4.3668 1.7015
# 5 2.4832 1.5630 5.5485 -4.3668 44.9410 -1.9427
# 6 3.9414 -12.5988 -0.6026 1.7015 -1.9427 28.8909
#
#
#
# Elastic Compliance Matrix: (Units=1/GPa)
#
#
# Indices 1 2 3 4 5 6 
#
# 1 0.016223 -0.001027 0.002525 0.000028 -0.001286 -0.002696
# 2 -0.001027 0.012805 -0.002175 0.003330 0.000442 0.005512
# 3 0.002525 -0.002175 0.013522 -0.005806 -0.002333 -0.000826
# 4 0.000028 0.003330 -0.005806 0.026030 0.003129 0.000004
# 5 -0.001286 0.000442 -0.002333 0.003129 0.022972 0.001680
# 6 -0.002696 0.005512 -0.000826 0.000004 0.001680 0.037480
#
#
# Mechanical properties :
#
#
# Convention : Reuss Voigt Hill
#
# Bulk Modulus (GPa) = 24.27414 26.22351 25.24883
# Shear Modulus (GPa) = 34.69365 39.53992 37.11678
#
# Velocity S-wave (km/s) = 3.93518 4.20105 4.07028
# Velocity P-wave (km/s) = 5.61092 5.93605 5.77577
#
# Compressibility (1/GPa) = 0.04119610
#
# Stress axis : x y z
#
# Youngs Moduli (GPa) = 61.63952 78.09543 73.95168
#
# Poissons Ratio (x) = 0.08018 -0.18669
# Poissons Ratio (y) = 0.06329 0.16085
# Poissons Ratio (z) = -0.15561 0.16986
#
# Static dielectric constant tensor:
#      x y z
#    x 4.110060 -0.258320 0.496820 
#    y -0.258320 3.902700 0.721960 
#    z 0.496820 0.721960 2.763490 
# 
# 
# High freq. dielectric constant tensor:
#      x y z
#    x 1.891890 -0.011470 0.008980 
#    y -0.011470 1.884000 0.005370 
#    z 0.008980 0.005370 1.906540 
# 
# From -- ./inp_files/156090.got.cif
#   From: 2010.06.25/outbox.cif.g09.slc.cpg/sg2_79_cif.got.tgz:156090.got - 2010.06.27 13:26:56.
