data_PCOD8037038
_publ_section_title
;
Structure prediction by ZEFSAII (Michael W. Deem and Ramdas Pophale) SiO2 
 PCOD8037038
Probable space group: P -1
;
_chemical_formula_sum "Si O2"
_cell_formula_units_Z 16
_cell_length_a 9.082182
_cell_length_b 9.299409
_cell_length_c 14.846757
_cell_angle_alpha 69.748967
_cell_angle_beta 38.973531
_cell_angle_gamma 68.613140
_cell_volume 730.159969
_symmetry_space_group_name_H-M "P -1"
_symmetry_group_IT_number 2
_symmetry_cell_setting 'triclinic'
loop_
_space_group_symop_operation_xyz
x,y,z
-x,-y,-z
loop_
_atom_site_type_symbol
_atom_site_label
_atom_site_fract_x
_atom_site_fract_y
_atom_site_fract_z
Si Si1 0.970787 0.329235 0.525922
Si Si2 0.070535 0.319154 0.990244
Si Si3 0.289239 0.129852 0.275719
Si Si4 0.839178 0.150630 0.998322
Si Si5 0.046366 0.835487 0.744159
Si Si6 0.483740 0.330324 0.508569
Si Si7 0.057618 0.180383 0.695089
Si Si8 0.555415 0.214619 0.684150
O O1 0.193223 0.238369 0.382638
O O2 0.904199 0.240717 0.667348
O O3 0.000000 0.500000 0.500000
O O4 0.732897 0.341020 0.576810
O O5 0.081485 0.210920 0.095975
O O6 0.335123 0.267651 0.840914
O O7 0.000000 0.500000 0.000000
O O8 0.874022 0.289892 0.017415
O O9 0.129845 0.174968 0.253432
O O10 0.282824 0.950445 0.337702
O O11 0.563781 0.139715 0.125693
O O12 0.914689 0.195821 0.852909
O O13 0.000000 0.000000 0.000000
O O14 0.280726 0.709495 0.652945
O O15 0.141373 0.998178 0.676583
O O16 0.500000 0.500000 0.500000
O O17 0.256371 0.294843 0.569020
O O18 0.469921 0.210705 0.623311
#
# Coordination Sequence:
#
# PCOD8037038 Si02
#       8
#     2   2   2   2   2   2   2   2
#     4  12  28  45  69 106 143 185 232 292 356 413
#     4  12  28  46  73 105 143 185 232 292 358 418
#     4  12  26  47  73 104 142 182 237 296 349 421
#     4  12  25  48  71 106 141 179 236 293 347 427
#     4  12  26  45  72 105 138 187 240 283 355 424
#     4  12  25  44  69 101 144 183 233 295 347 411
#     4  12  25  44  73 102 136 187 238 282 350 420
#     4  12  23  48  71  96 146 184 229 289 352 418
#
# _framework density 21.913004999999998
#
# number of rings (size 3 to 8) (size 9 to 14) (size 15 to 20)
#    0.000    0.000    6.250    3.000    5.250    1.000 
#    0.000    1.250    0.000    0.000    0.000    0.000 
#    0.000    0.000    0.000    0.000    0.000    0.000 
#
# Total GULP energy -198323.963018 kJ/mol
# GULP energy per Si atom -12395.247689 kJ/mol
# Density = 2.186313 g / cm^3
# Si number density = 21.913005 Si / 1000 Ang^3
#
#
#
# Elastic Constant Matrix: (Units=GPa)
#
#
# Indices 1 2 3 4 5 6 
#
# 1 87.8623 24.1504 37.6867 0.4592 4.7484 18.3612
# 2 24.1504 103.3916 11.0881 -5.8263 -2.4320 33.7899
# 3 37.6867 11.0881 109.6944 4.0515 2.7842 5.8141
# 4 0.4592 -5.8263 4.0515 25.5686 6.4960 1.8060
# 5 4.7484 -2.4320 2.7842 6.4960 49.2815 -10.1254
# 6 18.3612 33.7899 5.8141 1.8060 -10.1254 35.4402
#
#
#
# Elastic Compliance Matrix: (Units=1/GPa)
#
#
# Indices 1 2 3 4 5 6 
#
# 1 0.015326 -0.000578 -0.004792 0.001648 -0.003002 -0.007545
# 2 -0.000578 0.015022 -0.000645 0.005350 -0.002961 -0.015036
# 3 -0.004792 -0.000645 0.010809 -0.001983 0.000397 0.001539
# 4 0.001648 0.005350 -0.001983 0.043233 -0.007533 -0.009985
# 5 -0.003002 -0.002961 0.000397 -0.007533 0.023765 0.011487
# 6 -0.007545 -0.015036 0.001539 -0.009985 0.011487 0.049999
#
#
# Mechanical properties :
#
#
# Convention : Reuss Voigt Hill
#
# Bulk Modulus (GPa) = 34.33257 49.64429 41.98843
# Shear Modulus (GPa) = 27.79414 37.25961 32.52687
#
# Velocity S-wave (km/s) = 3.56530 4.12799 3.85692
# Velocity P-wave (km/s) = 5.71404 6.73979 6.24800
#
# Compressibility (1/GPa) = 0.02912686
#
# Stress axis : x y z
#
# Youngs Moduli (GPa) = 65.24890 66.56959 92.51264
#
# Poissons Ratio (x) = 0.03848 0.44330
# Poissons Ratio (y) = 0.03772 0.05970
# Poissons Ratio (z) = 0.31266 0.04296
#
# Static dielectric constant tensor:
#      x y z
#    x 4.220940 0.082700 0.013310 
#    y 0.082700 3.998240 -0.117210 
#    z 0.013310 -0.117210 3.868680 
# 
# 
# High freq. dielectric constant tensor:
#      x y z
#    x 1.881900 0.012870 0.006820 
#    y 0.012870 1.867110 -0.003340 
#    z 0.006820 -0.003340 1.870650 
# 
# From -- ./inp_files/205145.got.cif
#   From: 2010.06.25/outbox.cif.g09.slc.cpg/sg2_103_cif.got.tgz:205145.got - 2010.06.27 13:26:56.
