data_PCOD8037587
_publ_section_title
;
Structure prediction by ZEFSAII (Michael W. Deem and Ramdas Pophale) SiO2 
 PCOD8037587
Probable space group: P -1
;
_chemical_formula_sum "Si O2"
_cell_formula_units_Z 12
_cell_length_a 5.277963
_cell_length_b 9.625518
_cell_length_c 10.930079
_cell_angle_alpha 118.534531
_cell_angle_beta 95.515660
_cell_angle_gamma 75.276041
_cell_volume 471.603013
_symmetry_space_group_name_H-M "P -1"
_symmetry_group_IT_number 2
_symmetry_cell_setting 'triclinic'
loop_
_space_group_symop_operation_xyz
x,y,z
-x,-y,-z
loop_
_atom_site_type_symbol
_atom_site_label
_atom_site_fract_x
_atom_site_fract_y
_atom_site_fract_z
Si Si1 0.343407 0.705809 0.057626
Si Si2 0.563008 0.959528 0.800977
Si Si3 0.528925 0.830651 0.492413
Si Si4 0.932094 0.530514 0.368511
Si Si5 0.590854 0.453678 0.748529
Si Si6 0.213075 0.219330 0.040812
O O1 0.432120 0.579440 0.119775
O O2 0.314023 0.891985 0.179736
O O3 0.570392 0.673145 0.943367
O O4 0.071251 0.686541 0.979962
O O5 0.477808 0.857834 0.645474
O O6 0.774624 0.828671 0.835634
O O7 0.304319 0.043802 0.902690
O O8 0.825042 0.726170 0.434124
O O9 0.330324 0.726350 0.387770
O O10 0.500000 0.000000 0.500000
O O11 0.693717 0.450471 0.279333
O O12 0.000000 0.500000 0.500000
O O13 0.173259 0.464919 0.255532
#
# Coordination Sequence:
#
# PCOD8037587 Si02
#       6
#     2   2   2   2   2   2
#     4  10  17  32  48  74 105 136 179 209 261 310
#     4   9  18  31  46  74 111 140 172 207 268 310
#     4  10  20  35  52  87 111 137 170 223 268 318
#     4  10  22  39  53  78 110 144 179 212 266 325
#     4  10  21  34  58  77 106 142 177 218 266 319
#     4   9  19  29  47  68 111 145 168 209 260 317
#
# _framework density 25.445129999999999
#
# number of rings (size 3 to 8) (size 9 to 14) (size 15 to 20)
#    2.000    0.333    1.667    2.000    2.333    2.000 
#    0.000    0.000    0.000    0.000    0.000    7.000 
#    0.000    0.000    0.000    0.000    0.000    0.000 
#
# Total GULP energy -148714.964155 kJ/mol
# GULP energy per Si atom -12392.913680 kJ/mol
# Density = 2.538722 g / cm^3
# Si number density = 25.445130 Si / 1000 Ang^3
#
#
#
# Elastic Constant Matrix: (Units=GPa)
#
#
# Indices 1 2 3 4 5 6 
#
# 1 169.9213 28.5538 59.5773 -17.0150 7.0584 -6.2428
# 2 28.5538 93.3837 24.8249 -14.4749 3.0955 -1.1079
# 3 59.5773 24.8249 175.5017 -16.0090 -7.7503 -8.1117
# 4 -17.0150 -14.4749 -16.0090 46.2416 -3.3856 10.9723
# 5 7.0584 3.0955 -7.7503 -3.3856 41.1186 -3.2297
# 6 -6.2428 -1.1079 -8.1117 10.9723 -3.2297 36.4031
#
#
#
# Elastic Compliance Matrix: (Units=1/GPa)
#
#
# Indices 1 2 3 4 5 6 
#
# 1 0.007054 -0.001340 -0.002141 0.001291 -0.001393 0.000179
# 2 -0.001340 0.011878 -0.001025 0.003077 -0.000689 -0.001085
# 3 -0.002141 -0.001025 0.006803 0.001163 0.001896 0.000935
# 4 0.001291 0.003077 0.001163 0.025200 0.001299 -0.006906
# 5 -0.001393 -0.000689 0.001896 0.001299 0.025233 0.002010
# 6 0.000179 -0.001085 0.000935 -0.006906 0.002010 0.029936
#
#
# Mechanical properties :
#
#
# Convention : Reuss Voigt Hill
#
# Bulk Modulus (GPa) = 59.79555 73.85763 66.82659
# Shear Modulus (GPa) = 41.42833 46.47605 43.95219
#
# Velocity S-wave (km/s) = 4.03940 4.27842 4.16063
# Velocity P-wave (km/s) = 6.73101 7.31408 7.02859
#
# Compressibility (1/GPa) = 0.01672365
#
# Stress axis : x y z
#
# Youngs Moduli (GPa) = 141.75373 84.19192 146.99852
#
# Poissons Ratio (x) = 0.11278 0.31469
# Poissons Ratio (y) = 0.18989 0.15071
# Poissons Ratio (z) = 0.30347 0.08632
#
# Static dielectric constant tensor:
#      x y z
#    x 2.909630 -0.450580 1.240280 
#    y -0.450580 4.653270 0.688880 
#    z 1.240280 0.688880 3.749160 
# 
# 
# High freq. dielectric constant tensor:
#      x y z
#    x 1.986650 -0.009140 -0.001350 
#    y -0.009140 2.046790 0.026070 
#    z -0.001350 0.026070 2.045800 
# 
# From -- ./inp_files/131822.got.cif
#   From: 2010.06.25/outbox.cif.g09.slc.cpg/sg2_66_cif.got.tgz:131822.got - 2010.06.27 13:26:56.
