data_PCOD8037941
_publ_section_title
;
Structure prediction by ZEFSAII (Michael W. Deem and Ramdas Pophale) SiO2 
 PCOD8037941
Probable space group: P -1
;
_chemical_formula_sum "Si O2"
_cell_formula_units_Z 14
_cell_length_a 10.207691
_cell_length_b 9.104825
_cell_length_c 22.270994
_cell_angle_alpha 111.196864
_cell_angle_beta 30.681505
_cell_angle_gamma 123.574900
_cell_volume 847.715097
_symmetry_space_group_name_H-M "P -1"
_symmetry_group_IT_number 2
_symmetry_cell_setting 'triclinic'
loop_
_space_group_symop_operation_xyz
x,y,z
-x,-y,-z
loop_
_atom_site_type_symbol
_atom_site_label
_atom_site_fract_x
_atom_site_fract_y
_atom_site_fract_z
Si Si1 0.107195 0.181458 0.861108
Si Si2 0.462151 0.170605 0.924998
Si Si3 0.353519 0.736097 0.000482
Si Si4 0.370737 0.116020 0.636287
Si Si5 0.513793 0.558775 0.143711
Si Si6 0.936717 0.232924 0.364618
Si Si7 0.163706 0.987744 0.234438
O O1 0.321682 0.141660 0.728870
O O2 0.315015 0.325491 0.849331
O O3 0.950624 0.270087 0.897594
O O4 0.873033 0.995071 0.959072
O O5 0.611714 0.271269 0.943124
O O6 0.457979 0.313332 0.903175
O O7 0.672762 0.095389 0.803175
O O8 0.340567 0.559836 0.950536
O O9 0.634404 0.923280 0.892235
O O10 0.719290 0.244121 0.501160
O O11 0.260228 0.901713 0.632983
O O12 0.163752 0.166977 0.683809
O O13 0.163582 0.433071 0.279457
O O14 0.127402 0.145543 0.306291
#
# Coordination Sequence:
#
# PCOD8037941 Si02
#       7
#     2   2   2   2   2   2   2
#     4  11  19  32  50  73  96 129 155 192 240 283
#     4  11  18  32  51  71  98 128 154 192 239 288
#     4  10  17  33  51  69  92 130 167 187 223 286
#     4   9  15  32  58  66  87 124 180 187 215 282
#     4  11  22  29  45  78 107 115 149 205 249 269
#     4   8  17  33  51  73  86 128 166 199 218 275
#     4   8  14  30  54  70  83 121 171 193 213 276
#
# _framework density 16.514982
#
# number of rings (size 3 to 8) (size 9 to 14) (size 15 to 20)
#    0.857    1.429    2.857    2.143    0.000    0.571 
#    0.000    0.714    0.000    0.857    0.000    0.000 
#    0.000    0.000    0.000    0.000    0.000    0.000 
#
# Total GULP energy -173455.221042 kJ/mol
# GULP energy per Si atom -12389.658646 kJ/mol
# Density = 1.647739 g / cm^3
# Si number density = 16.514982 Si / 1000 Ang^3
#
#
#
# Elastic Constant Matrix: (Units=GPa)
#
#
# Indices 1 2 3 4 5 6 
#
# 1 70.8449 37.4271 42.0824 -3.1593 4.7169 11.0537
# 2 37.4271 80.4672 51.3955 -2.9647 4.5904 5.4524
# 3 42.0824 51.3955 122.3490 4.1615 -11.4703 0.9612
# 4 -3.1593 -2.9647 4.1615 25.2387 -1.9669 -3.3584
# 5 4.7169 4.5904 -11.4703 -1.9669 11.3037 4.8117
# 6 11.0537 5.4524 0.9612 -3.3584 4.8117 25.5507
#
#
#
# Elastic Compliance Matrix: (Units=1/GPa)
#
#
# Indices 1 2 3 4 5 6 
#
# 1 0.022547 -0.005118 -0.006665 0.001636 -0.011219 -0.006084
# 2 -0.005118 0.021245 -0.008698 0.002247 -0.015443 0.001211
# 3 -0.006665 -0.008698 0.016341 -0.002856 0.022615 -0.000509
# 4 0.001636 0.002247 -0.002856 0.041186 0.000901 0.004164
# 5 -0.011219 -0.015443 0.022615 0.000901 0.129770 -0.017021
# 6 -0.006084 0.001211 -0.000509 0.004164 -0.017021 0.045283
#
#
# Mechanical properties :
#
#
# Convention : Reuss Voigt Hill
#
# Bulk Modulus (GPa) = 52.15987 59.49679 55.82833
# Shear Modulus (GPa) = 15.44526 21.93568 18.69047
#
# Velocity S-wave (km/s) = 3.06147 3.64844 3.36777
# Velocity P-wave (km/s) = 6.64445 7.33841 7.00004
#
# Compressibility (1/GPa) = 0.01917183
#
# Stress axis : x y z
#
# Youngs Moduli (GPa) = 44.35121 47.07025 61.19613
#
# Poissons Ratio (x) = 0.24089 0.40788
# Poissons Ratio (y) = 0.22697 0.53228
# Poissons Ratio (z) = 0.29561 0.40941
#
# Static dielectric constant tensor:
#      x y z
#    x 2.894960 -0.048420 -0.225850 
#    y -0.048420 3.095830 0.173600 
#    z -0.225850 0.173600 3.123270 
# 
# 
# High freq. dielectric constant tensor:
#      x y z
#    x 1.605200 0.004320 -0.018140 
#    y 0.004320 1.628430 0.014060 
#    z -0.018140 0.014060 1.631240 
# 
# From -- ./inp_files/171173.got.cif
#   From: 2010.06.25/outbox.cif.g09.slc.cpg/sg2_86_cif.got.tgz:171173.got - 2010.06.27 13:26:56.
