data_PCOD8037680
_publ_section_title
;
Structure prediction by ZEFSAII (Michael W. Deem and Ramdas Pophale) SiO2 
 PCOD8037680
Probable space group: P -1
;
_chemical_formula_sum "Si O2"
_cell_formula_units_Z 16
_cell_length_a 9.049285
_cell_length_b 21.485714
_cell_length_c 5.761111
_cell_angle_alpha 119.708421
_cell_angle_beta 129.541439
_cell_angle_gamma 55.529632
_cell_volume 695.835396
_symmetry_space_group_name_H-M "P -1"
_symmetry_group_IT_number 2
_symmetry_cell_setting 'triclinic'
loop_
_space_group_symop_operation_xyz
x,y,z
-x,-y,-z
loop_
_atom_site_type_symbol
_atom_site_label
_atom_site_fract_x
_atom_site_fract_y
_atom_site_fract_z
Si Si1 0.885713 0.002982 0.636492
Si Si2 0.758517 0.858405 0.256877
Si Si3 0.129525 0.651469 0.817751
Si Si4 0.312769 0.256785 0.338391
Si Si5 0.432461 0.848528 0.244218
Si Si6 0.524673 0.358401 0.523039
Si Si7 0.173651 0.756787 0.699262
Si Si8 0.891675 0.497020 0.640901
O O1 0.690453 0.083463 0.575060
O O2 0.806335 0.933783 0.404164
O O3 0.000000 0.000000 0.500000
O O4 0.000000 0.000000 0.000000
O O5 0.565195 0.882314 0.280500
O O6 0.960137 0.785911 0.401554
O O7 0.686412 0.825693 0.897855
O O8 0.120839 0.733295 0.856515
O O9 0.142629 0.583459 0.527223
O O10 0.909555 0.673945 0.768873
O O11 0.329835 0.617685 0.114510
O O12 0.412571 0.233297 0.648263
O O13 0.468040 0.285905 0.409446
O O14 0.257442 0.826055 0.898109
O O15 0.662225 0.325692 0.373696
O O16 0.326093 0.433776 0.423913
O O17 0.000000 0.500000 0.500000
O O18 0.000000 0.500000 0.000000
#
# Coordination Sequence:
#
# PCOD8037680 Si02
#       8
#     2   2   2   2   2   2   2   2
#     4  12  31  51  78 111 158 204 258 312 379 460
#     4  12  27  48  76 109 153 202 253 317 386 450
#     4  12  27  48  76 109 153 202 253 317 386 450
#     4  12  26  44  78 112 148 196 262 314 378 452
#     4  12  27  48  76 109 153 202 253 317 386 450
#     4  12  27  48  76 109 153 202 253 317 386 450
#     4  12  26  44  78 112 148 196 262 314 378 452
#     4  12  31  51  78 111 158 204 258 312 379 460
#
# _framework density 22.993945
#
# number of rings (size 3 to 8) (size 9 to 14) (size 15 to 20)
#    0.000    0.000    7.500    0.750   14.000    1.000 
#    0.000    0.000    0.000    0.000    0.000    0.000 
#    0.000    0.000    0.000    0.000    0.000    0.000 
#
# Total GULP energy -198215.116986 kJ/mol
# GULP energy per Si atom -12388.444812 kJ/mol
# Density = 2.294161 g / cm^3
# Si number density = 22.993945 Si / 1000 Ang^3
#
#
#
# Elastic Constant Matrix: (Units=GPa)
#
#
# Indices 1 2 3 4 5 6 
#
# 1 117.6313 26.9526 28.3659 5.5035 -2.1876 -6.9534
# 2 26.9526 96.3404 30.1257 12.7066 1.7531 -16.5425
# 3 28.3659 30.1257 123.2612 8.6339 2.1043 -3.4642
# 4 5.5035 12.7066 8.6339 48.8515 1.2923 2.0046
# 5 -2.1876 1.7531 2.1043 1.2923 34.4045 2.4073
# 6 -6.9534 -16.5425 -3.4642 2.0046 2.4073 47.0949
#
#
#
# Elastic Compliance Matrix: (Units=1/GPa)
#
#
# Indices 1 2 3 4 5 6 
#
# 1 0.009419 -0.002000 -0.001656 -0.000291 0.000775 0.000539
# 2 -0.002000 0.012776 -0.002332 -0.002836 -0.000822 0.004183
# 3 -0.001656 -0.002332 0.009118 -0.000792 -0.000491 -0.000334
# 4 -0.000291 -0.002836 -0.000792 0.021475 -0.000493 -0.001986
# 5 0.000775 -0.000822 -0.000491 -0.000493 0.029324 -0.001688
# 6 0.000539 0.004183 -0.000334 -0.001986 -0.001688 0.022929
#
#
# Mechanical properties :
#
#
# Convention : Reuss Voigt Hill
#
# Bulk Modulus (GPa) = 51.71739 56.45793 54.08766
# Shear Modulus (GPa) = 40.49778 42.85610 41.67694
#
# Velocity S-wave (km/s) = 4.20126 4.32186 4.26199
# Velocity P-wave (km/s) = 6.78784 7.03643 6.91325
#
# Compressibility (1/GPa) = 0.01933586
#
# Stress axis : x y z
#
# Youngs Moduli (GPa) = 106.17102 78.27196 109.66809
#
# Poissons Ratio (x) = 0.15657 0.18165
# Poissons Ratio (y) = 0.21238 0.25574
# Poissons Ratio (z) = 0.17586 0.18253
#
# Static dielectric constant tensor:
#      x y z
#    x 4.308970 -0.088730 0.160640 
#    y -0.088730 4.066800 0.030300 
#    z 0.160640 0.030300 4.278040 
# 
# 
# High freq. dielectric constant tensor:
#      x y z
#    x 1.918740 -0.008970 0.015490 
#    y -0.008970 1.915480 0.007150 
#    z 0.015490 0.007150 1.916620 
# 
# From -- ./inp_files/47714.got.cif
#   From: 2010.06.25/outbox.cif.g09.slc.cpg/sg2_24_cif.got.tgz:47714.got - 2010.06.27 13:26:56.
