data_PCOD8037096
_publ_section_title
;
Structure prediction by ZEFSAII (Michael W. Deem and Ramdas Pophale) SiO2 
 PCOD8037096
Probable space group: P -1
;
_chemical_formula_sum "Si O2"
_cell_formula_units_Z 14
_cell_length_a 15.526871
_cell_length_b 9.146082
_cell_length_c 11.188883
_cell_angle_alpha 128.348040
_cell_angle_beta 149.889267
_cell_angle_gamma 39.963745
_cell_volume 507.504004
_symmetry_space_group_name_H-M "P -1"
_symmetry_group_IT_number 2
_symmetry_cell_setting 'triclinic'
loop_
_space_group_symop_operation_xyz
x,y,z
-x,-y,-z
loop_
_atom_site_type_symbol
_atom_site_label
_atom_site_fract_x
_atom_site_fract_y
_atom_site_fract_z
Si Si1 0.738181 0.868479 0.378028
Si Si2 0.413470 0.807213 0.043261
Si Si3 0.554347 0.592317 0.723972
Si Si4 0.393078 0.388433 0.579594
Si Si5 0.927679 0.236424 0.474033
Si Si6 0.023105 0.205471 0.129709
Si Si7 0.805309 0.756235 0.878179
O O1 0.559519 0.137779 0.287013
O O2 0.609510 0.750613 0.164246
O O3 0.903823 0.781365 0.423335
O O4 0.871520 0.793052 0.620555
O O5 0.471517 0.784583 0.240415
O O6 0.235126 0.087738 0.974071
O O7 0.304648 0.675599 0.818937
O O8 0.500000 0.500000 0.500000
O O9 0.469907 0.546414 0.719015
O O10 0.805272 0.455277 0.971068
O O11 0.145625 0.561565 0.416448
O O12 0.394501 0.255850 0.395746
O O13 0.000000 0.000000 0.500000
O O14 0.173663 0.138543 0.164234
O O15 0.000000 0.000000 0.000000
O O16 0.000000 0.500000 0.000000
#
# Coordination Sequence:
#
# PCOD8037096 Si02
#       7
#     2   2   2   2   2   2   2
#     4  12  26  49  74 106 151 199 250 309 374 449
#     4  12  27  48  77 111 148 193 255 312 374 447
#     4  12  24  42  73 110 147 193 249 306 377 443
#     4  12  25  48  72 106 150 193 243 312 372 441
#     4  12  27  51  75 105 152 199 251 305 378 452
#     4  12  24  42  71 110 149 192 246 308 373 445
#     4  12  25  45  73 111 147 188 244 312 372 436
#
# _framework density 27.585988
#
# number of rings (size 3 to 8) (size 9 to 14) (size 15 to 20)
#    0.000    0.000    4.286    6.857    0.000    1.143 
#    2.571    0.000    0.000    0.000    0.000    0.000 
#    0.000    0.000    0.000    0.000    0.000    0.000 
#
# Total GULP energy -173516.319665 kJ/mol
# GULP energy per Si atom -12394.022833 kJ/mol
# Density = 2.752320 g / cm^3
# Si number density = 27.585988 Si / 1000 Ang^3
#
#
#
# Elastic Constant Matrix: (Units=GPa)
#
#
# Indices 1 2 3 4 5 6 
#
# 1 144.0433 1.1011 11.2600 10.0004 45.5949 5.7855
# 2 1.1011 47.4686 7.3836 -3.6603 13.2435 -3.2008
# 3 11.2600 7.3836 93.6632 0.4205 31.6863 9.4184
# 4 10.0004 -3.6603 0.4205 53.9694 5.8924 3.7433
# 5 45.5949 13.2435 31.6863 5.8924 33.4773 -1.0842
# 6 5.7855 -3.2008 9.4184 3.7433 -1.0842 50.4823
#
#
#
# Elastic Compliance Matrix: (Units=1/GPa)
#
#
# Indices 1 2 3 4 5 6 
#
# 1 0.018633 0.008746 0.010934 0.001702 -0.039635 -0.004598
# 2 0.008746 0.028499 0.007230 0.003714 -0.030731 -0.001480
# 3 0.010934 0.007230 0.023035 0.003114 -0.040303 -0.006189
# 4 0.001702 0.003714 0.003114 0.019718 -0.010277 -0.002223
# 5 -0.039635 -0.030731 -0.040303 -0.010277 0.136412 0.013805
# 6 -0.004598 -0.001480 -0.006189 -0.002223 0.013805 0.021858
#
#
# Mechanical properties :
#
#
# Convention : Reuss Voigt Hill
#
# Bulk Modulus (GPa) = 8.06529 36.07384 22.06957
# Shear Modulus (GPa) = 21.21663 45.28117 33.24890
#
# Velocity S-wave (km/s) = 2.77629 4.05588 3.47548
# Velocity P-wave (km/s) = 3.63416 5.91936 4.91151
#
# Compressibility (1/GPa) = 0.12398814
#
# Stress axis : x y z
#
# Youngs Moduli (GPa) = 53.66758 35.08844 43.41228
#
# Poissons Ratio (x) = -0.30689 -0.47466
# Poissons Ratio (y) = -0.46938 -0.31389
# Poissons Ratio (z) = -0.58679 -0.25371
#
# Static dielectric constant tensor:
#      x y z
#    x 5.358300 0.201690 0.290430 
#    y 0.201690 5.122030 -0.137620 
#    z 0.290430 -0.137620 5.498320 
# 
# 
# High freq. dielectric constant tensor:
#      x y z
#    x 2.123960 0.009500 0.003980 
#    y 0.009500 2.135080 -0.009530 
#    z 0.003980 -0.009530 2.119980 
# 
# From -- ./inp_files/226453.got.cif
#   From: 2010.06.25/outbox.cif.g09.slc.cpg/sg2_114_cif.got.tgz:226453.got - 2010.06.27 13:26:56.
