data_PCOD8037513
_publ_section_title
;
Structure prediction by ZEFSAII (Michael W. Deem and Ramdas Pophale) SiO2 
 PCOD8037513
Probable space group: P -1
;
_chemical_formula_sum "Si O2"
_cell_formula_units_Z 16
_cell_length_a 9.246833
_cell_length_b 12.886598
_cell_length_c 27.533629
_cell_angle_alpha 27.615132
_cell_angle_beta 153.901243
_cell_angle_gamma 143.747761
_cell_volume 668.111161
_symmetry_space_group_name_H-M "P -1"
_symmetry_group_IT_number 2
_symmetry_cell_setting 'triclinic'
loop_
_space_group_symop_operation_xyz
x,y,z
-x,-y,-z
loop_
_atom_site_type_symbol
_atom_site_label
_atom_site_fract_x
_atom_site_fract_y
_atom_site_fract_z
Si Si1 0.397075 0.796207 0.426181
Si Si2 0.633464 0.618023 0.079100
Si Si3 0.399188 0.918606 0.803668
Si Si4 0.373911 0.616967 0.285941
Si Si5 0.626895 0.237715 0.956970
Si Si6 0.660449 0.853490 0.813413
Si Si7 0.752152 0.046884 0.514927
Si Si8 0.281634 0.462715 0.675497
O O1 0.583392 0.564684 0.582755
O O2 0.006019 0.730050 0.341705
O O3 0.452474 0.917552 0.340604
O O4 0.552532 0.982787 0.432461
O O5 0.538037 0.723399 0.057438
O O6 0.611148 0.350421 0.187661
O O7 0.001165 0.689686 0.143313
O O8 0.399178 0.714550 0.926574
O O9 0.702687 0.909750 0.860248
O O10 0.407195 0.154420 0.736120
O O11 0.066709 0.896284 0.680032
O O12 0.498882 0.503387 0.321143
O O13 0.524024 0.411925 0.813494
O O14 0.021135 0.240858 0.077627
O O15 0.500000 0.000000 0.000000
O O16 0.873472 0.308733 0.447838
O O17 0.500000 0.000000 0.500000
#
# Coordination Sequence:
#
# PCOD8037513 Si02
#       8
#     2   2   2   2   2   2   2   2
#     4  12  26  48  75 110 153 190 251 300 366 447
#     4  12  28  48  75 108 146 193 249 307 366 440
#     4  12  27  48  74 108 150 194 249 302 367 438
#     4  12  25  47  76 108 147 194 247 304 364 438
#     4  12  25  46  75 103 144 191 243 298 372 436
#     4  12  28  47  73 109 149 194 241 309 369 433
#     4  12  26  43  77 111 143 196 243 300 369 428
#     4  12  25  48  76 109 151 195 245 304 366 439
#
# _framework density 23.948111000000001
#
# number of rings (size 3 to 8) (size 9 to 14) (size 15 to 20)
#    0.000    0.000    3.750    6.000    3.500    3.500 
#    0.000    0.000    0.000    0.000    0.000    0.000 
#    0.000    0.000    0.000    0.000    0.000    0.000 
#
# Total GULP energy -198383.117382 kJ/mol
# GULP energy per Si atom -12398.944836 kJ/mol
# Density = 2.389360 g / cm^3
# Si number density = 23.948111 Si / 1000 Ang^3
#
#
#
# Elastic Constant Matrix: (Units=GPa)
#
#
# Indices 1 2 3 4 5 6 
#
# 1 116.7786 32.8084 48.4977 -1.8556 -8.0823 -7.1051
# 2 32.8084 103.6896 26.6392 -3.9454 -4.9556 2.0482
# 3 48.4977 26.6392 122.3463 -2.0181 -22.1283 4.7617
# 4 -1.8556 -3.9454 -2.0181 42.8936 3.8858 -1.2737
# 5 -8.0823 -4.9556 -22.1283 3.8858 44.4196 -6.6694
# 6 -7.1051 2.0482 4.7617 -1.2737 -6.6694 32.5052
#
#
#
# Elastic Compliance Matrix: (Units=1/GPa)
#
#
# Indices 1 2 3 4 5 6 
#
# 1 0.011131 -0.002558 -0.003933 0.000134 0.000254 0.003228
# 2 -0.002558 0.010837 -0.001317 0.000806 -0.000140 -0.001046
# 3 -0.003933 -0.001317 0.010859 -0.000218 0.004343 -0.001485
# 4 0.000134 0.000806 -0.000218 0.023578 -0.001977 0.000529
# 5 0.000254 -0.000140 0.004343 -0.001977 0.025570 0.004597
# 6 0.003228 -0.001046 -0.001485 0.000529 0.004597 0.032717
#
#
# Mechanical properties :
#
#
# Convention : Reuss Voigt Hill
#
# Bulk Modulus (GPa) = 58.10232 62.07837 60.09034
# Shear Modulus (GPa) = 36.75261 39.62163 38.18712
#
# Velocity S-wave (km/s) = 3.92175 4.07194 3.99755
# Velocity P-wave (km/s) = 6.69486 6.93440 6.81568
#
# Compressibility (1/GPa) = 0.01721102
#
# Stress axis : x y z
#
# Youngs Moduli (GPa) = 89.83653 92.28053 92.08975
#
# Poissons Ratio (x) = 0.23607 0.36219
# Poissons Ratio (y) = 0.22982 0.12126
# Poissons Ratio (z) = 0.35332 0.12151
#
# Static dielectric constant tensor:
#      x y z
#    x 3.870790 -0.563900 0.243050 
#    y -0.563900 4.616070 -0.746680 
#    z 0.243050 -0.746680 4.515460 
# 
# 
# High freq. dielectric constant tensor:
#      x y z
#    x 1.949190 0.000970 -0.004450 
#    y 0.000970 1.957330 -0.007190 
#    z -0.004450 -0.007190 1.959530 
# 
# From -- ./inp_files/617047.got.cif
#   From: 2010.06.25/outbox.cif.g09.slc.cpg/sg2_309_cif.got.tgz:617047.got - 2010.06.27 13:26:56.
