data_PCOD8037552
_publ_section_title
;
Structure prediction by ZEFSAII (Michael W. Deem and Ramdas Pophale) SiO2 
 PCOD8037552
Probable space group: P -1
;
_chemical_formula_sum "Si O2"
_cell_formula_units_Z 14
_cell_length_a 16.530597
_cell_length_b 16.331247
_cell_length_c 8.245977
_cell_angle_alpha 73.907846
_cell_angle_beta 114.568267
_cell_angle_gamma 162.548653
_cell_volume 545.832918
_symmetry_space_group_name_H-M "P -1"
_symmetry_group_IT_number 2
_symmetry_cell_setting 'triclinic'
loop_
_space_group_symop_operation_xyz
x,y,z
-x,-y,-z
loop_
_atom_site_type_symbol
_atom_site_label
_atom_site_fract_x
_atom_site_fract_y
_atom_site_fract_z
Si Si1 0.352017 0.290903 0.596391
Si Si2 0.295724 0.805923 0.679217
Si Si3 0.070062 0.818008 0.258521
Si Si4 0.228652 0.287677 0.994916
Si Si5 0.142364 0.565269 0.207681
Si Si6 0.395330 0.137736 0.677307
Si Si7 0.541473 0.852206 0.922908
O O1 0.500000 0.500000 0.500000
O O2 0.595028 0.502970 0.828261
O O3 0.364398 0.209382 0.569758
O O4 0.000000 0.000000 0.500000
O O5 0.503922 0.919320 0.860784
O O6 0.000000 0.500000 0.500000
O O7 0.129278 0.706429 0.739955
O O8 0.545003 0.098772 0.637033
O O9 0.804411 0.506536 0.163777
O O10 0.212173 0.921673 0.495106
O O11 0.302781 0.035005 0.177723
O O12 0.956189 0.809420 0.200276
O O13 0.500000 0.500000 0.000000
O O14 0.000000 0.000000 0.000000
O O15 0.247518 0.573620 0.201907
O O16 0.000000 0.500000 0.000000
O O17 0.276861 0.010782 0.834072
#
# Coordination Sequence:
#
# PCOD8037552 Si02
#       7
#     2   2   2   2   2   2   2
#     4  12  28  49  76 113 148 199 250 312 389 453
#     4  12  25  47  73 108 153 196 257 312 376 451
#     4  12  27  48  73 115 147 203 257 314 384 455
#     4  12  25  48  74 107 149 187 249 322 374 452
#     4  12  26  46  73 110 148 199 250 310 379 448
#     4  12  28  50  81 109 160 200 258 316 388 457
#     4  12  27  47  77 110 156 201 256 316 378 453
#
# _framework density 25.648875
#
# number of rings (size 3 to 8) (size 9 to 14) (size 15 to 20)
#    0.000    0.000    2.857    6.857    2.000    3.429 
#    0.000    0.000    0.000    0.000    0.000    0.000 
#    0.000    0.000    0.000    0.000    0.000    0.000 
#
# Total GULP energy -173488.497338 kJ/mol
# GULP energy per Si atom -12392.035524 kJ/mol
# Density = 2.559050 g / cm^3
# Si number density = 25.648875 Si / 1000 Ang^3
#
#
#
# Elastic Constant Matrix: (Units=GPa)
#
#
# Indices 1 2 3 4 5 6 
#
# 1 164.0637 30.0032 25.0128 -3.4995 29.5333 12.6208
# 2 30.0032 107.1766 10.5877 -1.6619 6.6308 13.4853
# 3 25.0128 10.5877 141.3297 -11.6664 -13.6818 8.9966
# 4 -3.4995 -1.6619 -11.6664 39.1806 -2.0241 -4.4982
# 5 29.5333 6.6308 -13.6818 -2.0241 56.0032 -1.3015
# 6 12.6208 13.4853 8.9966 -4.4982 -1.3015 50.1320
#
#
#
# Elastic Compliance Matrix: (Units=1/GPa)
#
#
# Indices 1 2 3 4 5 6 
#
# 1 0.007454 -0.001514 -0.001544 -0.000225 -0.004168 -0.001321
# 2 -0.001514 0.010115 -0.000408 -0.000119 -0.000557 -0.002292
# 3 -0.001544 -0.000408 0.007884 0.002266 0.002856 -0.000639
# 4 -0.000225 -0.000119 0.002266 0.026502 0.001693 0.002104
# 5 -0.004168 -0.000557 0.002856 0.001693 0.020911 0.001381
# 6 -0.001321 -0.002292 -0.000639 0.002104 0.001381 0.021236
#
#
# Mechanical properties :
#
#
# Convention : Reuss Voigt Hill
#
# Bulk Modulus (GPa) = 53.98761 60.41971 57.20366
# Shear Modulus (GPa) = 46.63892 52.19424 49.41658
#
# Velocity S-wave (km/s) = 4.26885 4.51594 4.39413
# Velocity P-wave (km/s) = 6.73735 7.12736 6.93510
#
# Compressibility (1/GPa) = 0.01852277
#
# Stress axis : x y z
#
# Youngs Moduli (GPa) = 134.14759 98.85930 126.84510
#
# Poissons Ratio (x) = 0.14965 0.19584
# Poissons Ratio (y) = 0.20306 0.05172
# Poissons Ratio (z) = 0.20711 0.04031
#
# Static dielectric constant tensor:
#      x y z
#    x 4.859950 0.279570 -0.029690 
#    y 0.279570 5.097190 -0.003040 
#    z -0.029690 -0.003040 5.054650 
# 
# 
# High freq. dielectric constant tensor:
#      x y z
#    x 2.046360 -0.006110 0.004980 
#    y -0.006110 2.027940 0.007220 
#    z 0.004980 0.007220 2.040690 
# 
# From -- ./inp_files/313189.got.cif
#   From: 2010.06.25/outbox.cif.g09.slc.cpg/sg2_157_cif.got.tgz:313189.got - 2010.06.27 13:26:56.
