data_PCOD8037373
_publ_section_title
;
Structure prediction by ZEFSAII (Michael W. Deem and Ramdas Pophale) SiO2 
 PCOD8037373
Probable space group: P -1
;
_chemical_formula_sum "Si O2"
_cell_formula_units_Z 16
_cell_length_a 8.056178
_cell_length_b 14.133642
_cell_length_c 10.931008
_cell_angle_alpha 33.312662
_cell_angle_beta 88.556712
_cell_angle_gamma 78.471422
_cell_volume 646.092593
_symmetry_space_group_name_H-M "P -1"
_symmetry_group_IT_number 2
_symmetry_cell_setting 'triclinic'
loop_
_space_group_symop_operation_xyz
x,y,z
-x,-y,-z
loop_
_atom_site_type_symbol
_atom_site_label
_atom_site_fract_x
_atom_site_fract_y
_atom_site_fract_z
Si Si1 0.697502 0.487917 0.991740
Si Si2 0.938596 0.340297 0.837274
Si Si3 0.604156 0.994342 0.129178
Si Si4 0.803846 0.457582 0.289260
Si Si5 0.561049 0.398031 0.733929
Si Si6 0.386854 0.097419 0.514540
Si Si7 0.981923 0.817722 0.246936
Si Si8 0.116298 0.890495 0.724767
O O1 0.811861 0.430034 0.174434
O O2 0.782408 0.322289 0.077571
O O3 0.500000 0.500000 0.000000
O O4 0.699938 0.686153 0.734469
O O5 0.726022 0.449038 0.731627
O O6 0.055238 0.444486 0.786986
O O7 0.991322 0.322228 0.714360
O O8 0.988069 0.139311 0.120307
O O9 0.511503 0.945681 0.307984
O O10 0.791957 0.838444 0.282924
O O11 0.637672 0.184913 0.935719
O O12 0.500000 0.000000 0.000000
O O13 0.601652 0.565727 0.209431
O O14 0.867699 0.263423 0.566052
O O15 0.500000 0.500000 0.500000
O O16 0.500000 0.000000 0.500000
O O17 0.239359 0.004259 0.638033
O O18 0.000000 0.000000 0.000000
O O19 0.000000 0.000000 0.500000
#
# Coordination Sequence:
#
# PCOD8037373 Si02
#       8
#     2   2   2   2   2   2   2   2
#     4  12  28  51  80 115 155 215 268 326 402 482
#     4  12  26  50  78 110 161 205 261 329 407 473
#     4  12  28  46  78 115 155 205 269 327 403 478
#     4  12  28  48  79 113 155 205 269 326 398 482
#     4  12  24  48  75 111 156 209 258 326 405 482
#     4  12  26  54  80 114 163 210 266 332 400 485
#     4  12  25  48  73 113 155 200 254 330 399 473
#     4  12  28  49  78 114 155 207 265 328 401 479
#
# _framework density 24.764251000000002
#
# number of rings (size 3 to 8) (size 9 to 14) (size 15 to 20)
#    0.000    0.000    5.000    3.375    7.000    4.000 
#    0.000    0.000    0.000    0.000    0.000    0.000 
#    0.000    0.000    0.000    0.000    0.000    0.000 
#
# Total GULP energy -198327.927654 kJ/mol
# GULP energy per Si atom -12395.495478 kJ/mol
# Density = 2.470789 g / cm^3
# Si number density = 24.764251 Si / 1000 Ang^3
#
#
#
# Elastic Constant Matrix: (Units=GPa)
#
#
# Indices 1 2 3 4 5 6 
#
# 1 129.5821 39.0456 27.7385 -5.7451 5.4065 2.1090
# 2 39.0456 109.2796 57.3633 21.1007 5.3768 6.0341
# 3 27.7385 57.3633 180.4159 16.2396 0.3151 9.0330
# 4 -5.7451 21.1007 16.2396 59.9544 10.0522 2.8623
# 5 5.4065 5.3768 0.3151 10.0522 45.4396 -0.5083
# 6 2.1090 6.0341 9.0330 2.8623 -0.5083 38.8344
#
#
#
# Elastic Compliance Matrix: (Units=1/GPa)
#
#
# Indices 1 2 3 4 5 6 
#
# 1 0.008991 -0.003331 -0.000534 0.002381 -0.001199 -0.000038
# 2 -0.003331 0.012813 -0.003172 -0.003891 -0.000246 -0.000789
# 3 -0.000534 -0.003172 0.006754 -0.000812 0.000560 -0.000982
# 4 0.002381 -0.003891 -0.000812 0.019219 -0.004078 -0.000806
# 5 -0.001199 -0.000246 0.000560 -0.004078 0.023084 0.000576
# 6 -0.000038 -0.000789 -0.000982 -0.000806 0.000576 0.026170
#
#
# Mechanical properties :
#
#
# Convention : Reuss Voigt Hill
#
# Bulk Modulus (GPa) = 69.03309 74.17471 71.60390
# Shear Modulus (GPa) = 43.12844 48.52104 45.82474
#
# Velocity S-wave (km/s) = 4.17773 4.43122 4.30634
# Velocity P-wave (km/s) = 7.15597 7.49655 7.32824
#
# Compressibility (1/GPa) = 0.01448581
#
# Stress axis : x y z
#
# Youngs Moduli (GPa) = 111.21828 78.04706 148.05116
#
# Poissons Ratio (x) = 0.25999 0.07900
# Poissons Ratio (y) = 0.37049 0.46955
# Poissons Ratio (z) = 0.05935 0.24753
#
# Static dielectric constant tensor:
#      x y z
#    x 4.362150 -0.048790 0.132230 
#    y -0.048790 4.976100 0.198860 
#    z 0.132230 0.198860 5.220280 
# 
# 
# High freq. dielectric constant tensor:
#      x y z
#    x 1.976510 0.004970 -0.001320 
#    y 0.004970 2.003440 0.019690 
#    z -0.001320 0.019690 2.010100 
# 
# From -- ./inp_files/398153.got.cif
#   From: 2010.06.25/outbox.cif.g09.slc.cpg/sg2_200_cif.got.tgz:398153.got - 2010.06.27 13:26:56.
