data_PCOD8037742
_publ_section_title
;
Structure prediction by ZEFSAII (Michael W. Deem and Ramdas Pophale) SiO2 
 PCOD8037742
Probable space group: P -1
;
_chemical_formula_sum "Si O2"
_cell_formula_units_Z 12
_cell_length_a 12.894453
_cell_length_b 9.465560
_cell_length_c 8.669592
_cell_angle_alpha 76.762216
_cell_angle_beta 62.682746
_cell_angle_gamma 33.968119
_cell_volume 500.192026
_symmetry_space_group_name_H-M "P -1"
_symmetry_group_IT_number 2
_symmetry_cell_setting 'triclinic'
loop_
_space_group_symop_operation_xyz
x,y,z
-x,-y,-z
loop_
_atom_site_type_symbol
_atom_site_label
_atom_site_fract_x
_atom_site_fract_y
_atom_site_fract_z
Si Si1 0.700173 0.139930 0.521850
Si Si2 0.333562 0.770729 0.135915
Si Si3 0.889353 0.465224 0.547327
Si Si4 0.534284 0.064059 0.106951
Si Si5 0.315741 0.344191 0.692859
Si Si6 0.090809 0.848251 0.815921
O O1 0.602631 0.298186 0.710630
O O2 0.552556 0.164887 0.547861
O O3 0.716021 0.253818 0.358153
O O4 0.940052 0.837226 0.464370
O O5 0.500000 0.500000 0.000000
O O6 0.327160 0.941397 0.032458
O O7 0.098280 0.951747 0.229662
O O8 0.692136 0.643659 0.750614
O O9 0.810417 0.541749 0.407242
O O10 0.000000 0.500000 0.500000
O O11 0.662202 0.838182 0.203653
O O12 0.500000 0.000000 0.000000
O O13 0.185779 0.587142 0.835203
O O14 0.000000 0.000000 0.000000
#
# Coordination Sequence:
#
# PCOD8037742 Si02
#       6
#     2   2   2   2   2   2
#     4  12  26  52  75 109 155 199 258 314 385 453
#     4  12  26  49  78 110 153 205 252 317 381 455
#     4  12  26  48  76 110 150 203 252 310 384 452
#     4  12  27  49  77 113 156 197 257 320 382 456
#     4  12  27  49  77 113 152 199 257 315 386 455
#     4  12  29  47  77 114 151 202 258 318 384 460
#
# _framework density 23.990787000000001
#
# number of rings (size 3 to 8) (size 9 to 14) (size 15 to 20)
#    0.000    0.000    5.000    3.500    7.000    0.667 
#    0.000    0.000    0.000    0.000    0.000    0.000 
#    0.000    0.000    0.000    0.000    0.000    0.000 
#
# Total GULP energy -148884.284136 kJ/mol
# GULP energy per Si atom -12407.023678 kJ/mol
# Density = 2.393618 g / cm^3
# Si number density = 23.990787 Si / 1000 Ang^3
#
#
#
# Elastic Constant Matrix: (Units=GPa)
#
#
# Indices 1 2 3 4 5 6 
#
# 1 128.0034 34.8481 47.5123 -11.1247 5.2240 0.5577
# 2 34.8481 111.5314 29.8613 6.5089 8.3547 8.5555
# 3 47.5123 29.8613 132.3797 2.6938 6.0367 20.2230
# 4 -11.1247 6.5089 2.6938 43.7097 12.6588 -0.9191
# 5 5.2240 8.3547 6.0367 12.6588 41.9434 1.6195
# 6 0.5577 8.5555 20.2230 -0.9191 1.6195 43.3483
#
#
#
# Elastic Compliance Matrix: (Units=1/GPa)
#
#
# Indices 1 2 3 4 5 6 
#
# 1 0.010121 -0.002517 -0.003390 0.003622 -0.001445 0.002079
# 2 -0.002517 0.010348 -0.001121 -0.001864 -0.000966 -0.001490
# 3 -0.003390 -0.001121 0.009714 -0.001331 -0.000185 -0.004288
# 4 0.003622 -0.001864 -0.001331 0.026502 -0.007956 0.001801
# 5 -0.001445 -0.000966 -0.000185 -0.007956 0.026676 -0.000870
# 6 0.002079 -0.001490 -0.004288 0.001801 -0.000870 0.025408
#
#
# Mechanical properties :
#
#
# Convention : Reuss Voigt Hill
#
# Bulk Modulus (GPa) = 62.00990 66.26198 64.13594
# Shear Modulus (GPa) = 39.00160 43.11312 41.05736
#
# Velocity S-wave (km/s) = 4.03636 4.24378 4.14137
# Velocity P-wave (km/s) = 6.90119 7.18976 7.04695
#
# Compressibility (1/GPa) = 0.01612646
#
# Stress axis : x y z
#
# Youngs Moduli (GPa) = 98.80934 96.63471 102.94146
#
# Poissons Ratio (x) = 0.24324 0.34897
# Poissons Ratio (y) = 0.24872 0.11542
# Poissons Ratio (z) = 0.33496 0.10834
#
# Static dielectric constant tensor:
#      x y z
#    x 4.671130 0.146090 -0.218750 
#    y 0.146090 4.701320 0.092970 
#    z -0.218750 0.092970 4.476090 
# 
# 
# High freq. dielectric constant tensor:
#      x y z
#    x 1.965510 -0.000440 0.000430 
#    y -0.000440 1.971470 0.010760 
#    z 0.000430 0.010760 1.950690 
# 
# From -- ./inp_files/166585.got.cif
#   From: 2010.06.25/outbox.cif.g09.slc.cpg/sg2_84_cif.got.tgz:166585.got - 2010.06.27 13:26:56.
