data_PCOD8037177
_publ_section_title
;
Structure prediction by ZEFSAII (Michael W. Deem and Ramdas Pophale) SiO2 
 PCOD8037177
Probable space group: P -1
;
_chemical_formula_sum "Si O2"
_cell_formula_units_Z 16
_cell_length_a 9.227821
_cell_length_b 9.740173
_cell_length_c 16.339174
_cell_angle_alpha 64.181187
_cell_angle_beta 32.340687
_cell_angle_gamma 66.041760
_cell_volume 704.976644
_symmetry_space_group_name_H-M "P -1"
_symmetry_group_IT_number 2
_symmetry_cell_setting 'triclinic'
loop_
_space_group_symop_operation_xyz
x,y,z
-x,-y,-z
loop_
_atom_site_type_symbol
_atom_site_label
_atom_site_fract_x
_atom_site_fract_y
_atom_site_fract_z
Si Si1 0.494004 0.684973 0.447000
Si Si2 0.434702 0.110826 0.112302
Si Si3 0.085079 0.658816 0.947622
Si Si4 0.520073 0.779293 0.228898
Si Si5 0.168059 0.597364 0.337482
Si Si6 0.032621 0.158856 0.742642
Si Si7 0.453228 0.396856 0.126512
Si Si8 0.884177 0.161845 0.271904
O O1 0.500000 0.500000 0.500000
O O2 0.409596 0.741145 0.381540
O O3 0.791234 0.745297 0.304520
O O4 0.277246 0.768674 0.590843
O O5 0.356717 0.234326 0.187771
O O6 0.211641 0.141891 0.138294
O O7 0.405007 0.946394 0.209919
O O8 0.736192 0.133469 0.928760
O O9 0.292375 0.633704 0.928509
O O10 0.200198 0.731632 0.792310
O O11 0.000000 0.500000 0.000000
O O12 0.844793 0.770807 0.072067
O O13 0.435591 0.646365 0.242619
O O14 0.994797 0.749889 0.352866
O O15 0.218396 0.492451 0.261693
O O16 0.000000 0.500000 0.500000
O O17 0.199926 0.002675 0.675601
O O18 0.500000 0.500000 0.000000
#
# Coordination Sequence:
#
# PCOD8037177 Si02
#       8
#     2   2   2   2   2   2   2   2
#     4  12  30  49  73 111 159 198 250 316 375 446
#     4  12  26  47  79 114 148 195 258 317 367 446
#     4  12  24  44  76 106 144 194 252 300 369 448
#     4  12  26  49  74 108 151 196 249 311 375 442
#     4  12  27  47  73 106 151 199 246 304 378 452
#     4  12  25  50  77 108 153 199 251 312 378 445
#     4  12  27  45  73 111 149 192 249 309 369 444
#     4  12  27  48  78 109 153 202 248 308 386 444
#
# _framework density 22.695788
#
# number of rings (size 3 to 8) (size 9 to 14) (size 15 to 20)
#    0.000    0.000    5.000    4.500    7.000    2.500 
#    0.000    0.000    0.000    0.000    0.000    0.000 
#    0.000    0.000    0.000    0.000    0.000    0.000 
#
# Total GULP energy -198375.198705 kJ/mol
# GULP energy per Si atom -12398.449919 kJ/mol
# Density = 2.264413 g / cm^3
# Si number density = 22.695788 Si / 1000 Ang^3
#
#
#
# Elastic Constant Matrix: (Units=GPa)
#
#
# Indices 1 2 3 4 5 6 
#
# 1 126.4226 48.0053 27.6229 -15.4106 16.9587 -6.4357
# 2 48.0053 149.8877 52.7867 -12.7923 17.9978 11.2640
# 3 27.6229 52.7867 119.2533 -5.2939 28.8128 -5.6089
# 4 -15.4106 -12.7923 -5.2939 38.0125 0.3318 5.7376
# 5 16.9587 17.9978 28.8128 0.3318 47.1904 -5.3464
# 6 -6.4357 11.2640 -5.6089 5.7376 -5.3464 47.3760
#
#
#
# Elastic Compliance Matrix: (Units=1/GPa)
#
#
# Indices 1 2 3 4 5 6 
#
# 1 0.009663 -0.002551 -0.000410 0.002826 -0.002123 0.001289
# 2 -0.002551 0.009196 -0.003310 0.002104 -0.000957 -0.003288
# 3 -0.000410 -0.003310 0.011307 0.000122 -0.005330 0.001454
# 4 0.002826 0.002104 0.000122 0.028785 -0.002534 -0.003874
# 5 -0.002123 -0.000957 -0.005330 -0.002534 0.025878 0.002535
# 6 0.001289 -0.003288 0.001454 -0.003874 0.002535 0.022992
#
#
# Mechanical properties :
#
#
# Convention : Reuss Voigt Hill
#
# Bulk Modulus (GPa) = 56.73901 72.48816 64.61359
# Shear Modulus (GPa) = 39.60798 44.32569 41.96684
#
# Velocity S-wave (km/s) = 4.18205 4.42411 4.30478
# Velocity P-wave (km/s) = 6.95511 7.62269 7.29654
#
# Compressibility (1/GPa) = 0.01762456
#
# Stress axis : x y z
#
# Youngs Moduli (GPa) = 103.48540 108.74493 88.44029
#
# Poissons Ratio (x) = 0.27743 0.03626
# Poissons Ratio (y) = 0.26402 0.29270
# Poissons Ratio (z) = 0.04243 0.35990
#
# Static dielectric constant tensor:
#      x y z
#    x 4.357880 0.096610 0.009080 
#    y 0.096610 4.519980 -0.028510 
#    z 0.009080 -0.028510 3.913780 
# 
# 
# High freq. dielectric constant tensor:
#      x y z
#    x 1.909890 0.001300 0.009490 
#    y 0.001300 1.920800 -0.001780 
#    z 0.009490 -0.001780 1.887090 
# 
# From -- ./inp_files/494569.got.cif
#   From: 2010.06.25/outbox.cif.g09.slc.cpg/sg2_248_cif.got.tgz:494569.got - 2010.06.27 13:26:56.
