data_PCOD8037658
_publ_section_title
;
Structure prediction by ZEFSAII (Michael W. Deem and Ramdas Pophale) SiO2 
 PCOD8037658
Probable space group: P -1
;
_chemical_formula_sum "Si O2"
_cell_formula_units_Z 16
_cell_length_a 9.316012
_cell_length_b 9.133150
_cell_length_c 11.607834
_cell_angle_alpha 131.823696
_cell_angle_beta 80.435764
_cell_angle_gamma 90.085258
_cell_volume 717.690016
_symmetry_space_group_name_H-M "P -1"
_symmetry_group_IT_number 2
_symmetry_cell_setting 'triclinic'
loop_
_space_group_symop_operation_xyz
x,y,z
-x,-y,-z
loop_
_atom_site_type_symbol
_atom_site_label
_atom_site_fract_x
_atom_site_fract_y
_atom_site_fract_z
Si Si1 0.917427 0.010890 0.898730
Si Si2 0.661107 0.529350 0.532331
Si Si3 0.657863 0.057228 0.547677
Si Si4 0.632776 0.824621 0.882289
Si Si5 0.883237 0.195877 0.441130
Si Si6 0.635765 0.482695 0.891503
Si Si7 0.840115 0.692649 0.409770
Si Si8 0.143082 0.545338 0.948305
O O1 0.784557 0.905441 0.901728
O O2 0.017922 0.891204 0.724548
O O3 0.861642 0.233175 0.982193
O O4 0.000000 0.000000 0.000000
O O5 0.500000 0.500000 0.500000
O O6 0.621614 0.732699 0.711140
O O7 0.746864 0.363186 0.516111
O O8 0.777770 0.536465 0.418487
O O9 0.791287 0.031627 0.420964
O O10 0.643497 0.279317 0.712870
O O11 0.500000 0.000000 0.500000
O O12 0.728504 0.898974 0.550607
O O13 0.627161 0.667607 0.903261
O O14 0.500000 0.000000 0.000000
O O15 0.991539 0.281983 0.565227
O O16 0.500000 0.500000 0.000000
O O17 0.761235 0.489444 0.969429
O O18 0.818960 0.611763 0.242014
O O19 0.000000 0.500000 0.000000
#
# Coordination Sequence:
#
# PCOD8037658 Si02
#       8
#     2   2   2   2   2   2   2   2
#     4  12  27  46  78 114 151 204 254 315 387 457
#     4  12  28  48  77 109 148 200 259 316 386 458
#     4  12  26  46  75 111 152 201 257 309 385 458
#     4  12  29  51  76 110 153 199 256 319 389 463
#     4  12  25  50  74 108 153 198 259 316 381 460
#     4  12  27  48  75 105 153 199 250 316 384 456
#     4  12  26  46  77 108 150 200 253 317 379 459
#     4  12  26  47  73 112 153 195 249 309 382 455
#
# _framework density 22.293748000000001
#
# number of rings (size 3 to 8) (size 9 to 14) (size 15 to 20)
#    0.000    0.000    2.500    6.750    8.750    1.000 
#    0.000    0.000    0.000    0.000    0.000    0.000 
#    0.000    0.000    0.000    0.000    0.000    0.000 
#
# Total GULP energy -198244.732302 kJ/mol
# GULP energy per Si atom -12390.295769 kJ/mol
# Density = 2.224301 g / cm^3
# Si number density = 22.293748 Si / 1000 Ang^3
#
#
#
# Elastic Constant Matrix: (Units=GPa)
#
#
# Indices 1 2 3 4 5 6 
#
# 1 205.2473 54.6581 56.2188 -0.3521 17.6110 8.1604
# 2 54.6581 124.9373 48.9560 4.0382 7.7780 5.2581
# 3 56.2188 48.9560 141.8944 -0.8853 6.2930 -1.3083
# 4 -0.3521 4.0382 -0.8853 41.0217 -0.4253 -10.2866
# 5 17.6110 7.7780 6.2930 -0.4253 43.2869 -4.6182
# 6 8.1604 5.2581 -1.3083 -10.2866 -4.6182 55.7895
#
#
#
# Elastic Compliance Matrix: (Units=1/GPa)
#
#
# Indices 1 2 3 4 5 6 
#
# 1 0.006022 -0.001811 -0.001682 -0.000059 -0.001979 -0.000924
# 2 -0.001811 0.009996 -0.002714 -0.001330 -0.000790 -0.001051
# 3 -0.001682 -0.002714 0.008662 0.000647 0.000007 0.000825
# 4 -0.000059 -0.001330 0.000647 0.025781 0.000954 0.004982
# 5 -0.001979 -0.000790 0.000007 0.000954 0.024330 0.002554
# 6 -0.000924 -0.001051 0.000825 0.004982 0.002554 0.019308
#
#
# Mechanical properties :
#
#
# Convention : Reuss Voigt Hill
#
# Bulk Modulus (GPa) = 81.53484 87.97164 84.75324
# Shear Modulus (GPa) = 45.20731 48.83603 47.02167
#
# Velocity S-wave (km/s) = 4.50800 4.68543 4.59757
# Velocity P-wave (km/s) = 7.98426 8.29560 8.14142
#
# Compressibility (1/GPa) = 0.01226470
#
# Stress axis : x y z
#
# Youngs Moduli (GPa) = 166.06615 100.03574 115.45099
#
# Poissons Ratio (x) = 0.18120 0.19419
# Poissons Ratio (y) = 0.30080 0.31336
# Poissons Ratio (z) = 0.27932 0.27152
#
# Static dielectric constant tensor:
#      x y z
#    x 4.206220 0.064030 -0.028680 
#    y 0.064030 4.185990 -0.144600 
#    z -0.028680 -0.144600 4.094240 
# 
# 
# High freq. dielectric constant tensor:
#      x y z
#    x 1.903500 0.004880 -0.001240 
#    y 0.004880 1.903390 -0.003930 
#    z -0.001240 -0.003930 1.888350 
# 
# From -- ./inp_files/383499.got.cif
#   From: 2010.06.25/outbox.cif.g09.slc.cpg/sg2_192_cif.got.tgz:383499.got - 2010.06.27 13:26:56.
