data_PCOD8037116
_publ_section_title
;
Structure prediction by ZEFSAII (Michael W. Deem and Ramdas Pophale) SiO2 
 PCOD8037116
Probable space group: P -1
;
_chemical_formula_sum "Si O2"
_cell_formula_units_Z 16
_cell_length_a 14.301199
_cell_length_b 13.787304
_cell_length_c 9.072245
_cell_angle_alpha 87.666035
_cell_angle_beta 112.872958
_cell_angle_gamma 148.718132
_cell_volume 678.661296
_symmetry_space_group_name_H-M "P -1"
_symmetry_group_IT_number 2
_symmetry_cell_setting 'triclinic'
loop_
_space_group_symop_operation_xyz
x,y,z
-x,-y,-z
loop_
_atom_site_type_symbol
_atom_site_label
_atom_site_fract_x
_atom_site_fract_y
_atom_site_fract_z
Si Si1 0.526371 0.794520 0.384120
Si Si2 0.367404 0.454883 0.309573
Si Si3 0.596906 0.258419 0.150612
Si Si4 0.096885 0.499374 0.953964
Si Si5 0.906910 0.073555 0.217255
Si Si6 0.043132 0.255433 0.601068
Si Si7 0.240581 0.270121 0.928815
Si Si8 0.424068 0.026645 0.354620
O O1 0.567678 0.715167 0.394255
O O2 0.471007 0.784339 0.516239
O O3 0.772318 0.066456 0.467838
O O4 0.304571 0.621814 0.152743
O O5 0.500000 0.500000 0.500000
O O6 0.125071 0.300576 0.230818
O O7 0.284362 0.322806 0.124977
O O8 0.771232 0.355356 0.130205
O O9 0.534659 0.125733 0.249784
O O10 0.747535 0.480457 0.294847
O O11 0.339719 0.076188 0.938298
O O12 0.872086 0.229830 0.809354
O O13 0.000000 0.500000 0.000000
O O14 0.029123 0.182598 0.446543
O O15 0.875200 0.934852 0.159077
O O16 0.078685 0.215066 0.764416
O O17 0.500000 0.500000 0.000000
O O18 0.500000 0.000000 0.500000
#
# Coordination Sequence:
#
# PCOD8037116 Si02
#       8
#     2   2   2   2   2   2   2   2
#     4  12  25  48  75 106 155 198 254 322 385 455
#     4  12  27  45  72 113 157 206 259 313 381 464
#     4  12  27  47  80 110 153 199 259 316 394 470
#     4  12  26  53  77 114 151 194 254 327 396 467
#     4  12  25  45  71 109 153 203 258 315 382 454
#     4  12  24  46  74 108 151 204 256 315 384 455
#     4  12  24  43  71 104 157 199 258 312 372 452
#     4  12  28  50  76 111 149 199 258 324 393 463
#
# _framework density 23.575827
#
# number of rings (size 3 to 8) (size 9 to 14) (size 15 to 20)
#    0.000    0.000    5.000    5.250    3.500    1.000 
#    0.000    0.000    0.000    0.000    0.000    0.000 
#    0.000    0.000    0.000    0.000    0.000    0.000 
#
# Total GULP energy -198293.193617 kJ/mol
# GULP energy per Si atom -12393.324601 kJ/mol
# Density = 2.352217 g / cm^3
# Si number density = 23.575827 Si / 1000 Ang^3
#
#
#
# Elastic Constant Matrix: (Units=GPa)
#
#
# Indices 1 2 3 4 5 6 
#
# 1 104.5089 33.2575 49.5477 -13.2587 -14.6794 8.3611
# 2 33.2575 120.6607 57.1664 -12.0065 8.0360 21.1045
# 3 49.5477 57.1664 166.9382 -10.0577 -8.2381 3.8724
# 4 -13.2587 -12.0065 -10.0577 44.5432 7.0591 -0.9055
# 5 -14.6794 8.0360 -8.2381 7.0591 50.7362 -2.8103
# 6 8.3611 21.1045 3.8724 -0.9055 -2.8103 48.1318
#
#
#
# Elastic Compliance Matrix: (Units=1/GPa)
#
#
# Indices 1 2 3 4 5 6 
#
# 1 0.012208 -0.001968 -0.002657 0.001997 0.003089 -0.000826
# 2 -0.001968 0.011700 -0.003351 0.002277 -0.003543 -0.004682
# 3 -0.002657 -0.003351 0.007948 -0.000052 0.001135 0.001357
# 4 0.001997 0.002277 -0.000052 0.024133 -0.003209 -0.001075
# 5 0.003089 -0.003543 0.001135 -0.003209 0.021914 0.002145
# 6 -0.000826 -0.004682 0.001357 -0.001075 0.002145 0.022969
#
#
# Mechanical properties :
#
#
# Convention : Reuss Voigt Hill
#
# Bulk Modulus (GPa) = 62.88706 74.67233 68.77969
# Shear Modulus (GPa) = 40.94121 45.49132 43.21626
#
# Velocity S-wave (km/s) = 4.17175 4.39746 4.28609
# Velocity P-wave (km/s) = 7.06660 7.58456 7.33016
#
# Compressibility (1/GPa) = 0.01590152
#
# Stress axis : x y z
#
# Youngs Moduli (GPa) = 81.91257 85.47355 125.81860
#
# Poissons Ratio (x) = 0.16825 0.33436
# Poissons Ratio (y) = 0.16124 0.42164
# Poissons Ratio (z) = 0.21768 0.28644
#
# Static dielectric constant tensor:
#      x y z
#    x 3.956190 0.290300 -0.200940 
#    y 0.290300 4.454470 0.205320 
#    z -0.200940 0.205320 4.399370 
# 
# 
# High freq. dielectric constant tensor:
#      x y z
#    x 1.927290 0.015330 -0.011830 
#    y 0.015330 1.939940 0.013210 
#    z -0.011830 0.013210 1.960450 
# 
# From -- ./inp_files/315321.got.cif
#   From: 2010.06.25/outbox.cif.g09.slc.cpg/sg2_158_cif.got.tgz:315321.got - 2010.06.27 13:26:56.
