data_PCOD8037171
_publ_section_title
;
Structure prediction by ZEFSAII (Michael W. Deem and Ramdas Pophale) SiO2 
 PCOD8037171
Probable space group: P -1
;
_chemical_formula_sum "Si O2"
_cell_formula_units_Z 12
_cell_length_a 12.475301
_cell_length_b 9.324276
_cell_length_c 9.724956
_cell_angle_alpha 62.597784
_cell_angle_beta 144.322449
_cell_angle_gamma 99.041185
_cell_volume 531.967109
_symmetry_space_group_name_H-M "P -1"
_symmetry_group_IT_number 2
_symmetry_cell_setting 'triclinic'
loop_
_space_group_symop_operation_xyz
x,y,z
-x,-y,-z
loop_
_atom_site_type_symbol
_atom_site_label
_atom_site_fract_x
_atom_site_fract_y
_atom_site_fract_z
Si Si1 0.444436 0.933114 0.283305
Si Si2 0.027964 0.503072 0.190393
Si Si3 0.621203 0.196669 0.290324
Si Si4 0.013945 0.149808 0.856015
Si Si5 0.398074 0.410147 0.207035
Si Si6 0.527201 0.711152 0.210542
O O1 0.524745 0.768739 0.543707
O O2 0.413878 0.869792 0.128803
O O3 0.609715 0.016140 0.413829
O O4 0.232443 0.088389 0.041128
O O5 0.037026 0.683256 0.171622
O O6 0.233885 0.336613 0.520662
O O7 0.000000 0.500000 0.000000
O O8 0.843210 0.481201 0.082820
O O9 0.843180 0.191766 0.542363
O O10 0.459241 0.363156 0.132744
O O11 0.569159 0.221047 0.066320
O O12 0.000000 0.000000 0.000000
O O13 0.498790 0.537874 0.309321
#
# Coordination Sequence:
#
# PCOD8037171 Si02
#       6
#     2   2   2   2   2   2
#     4  12  25  46  72 104 138 186 231 280 341 418
#     4  12  26  43  72 104 135 182 236 282 339 412
#     4  12  26  46  71 104 144 180 225 292 349 400
#     4  12  25  43  73 102 136 184 234 279 343 414
#     4  12  24  44  75 100 137 185 236 279 340 414
#     4  12  28  45  70 107 144 175 231 293 343 400
#
# _framework density 22.557784000000002
#
# number of rings (size 3 to 8) (size 9 to 14) (size 15 to 20)
#    0.000    0.000    6.667    3.000    2.333    2.667 
#    0.000    0.000    0.000    0.000    0.000    0.000 
#    0.000    0.000    0.000    0.000    0.000    0.000 
#
# Total GULP energy -148859.033467 kJ/mol
# GULP energy per Si atom -12404.919456 kJ/mol
# Density = 2.250644 g / cm^3
# Si number density = 22.557784 Si / 1000 Ang^3
#
#
#
# Elastic Constant Matrix: (Units=GPa)
#
#
# Indices 1 2 3 4 5 6 
#
# 1 80.7128 34.1120 41.0462 8.6374 3.0619 -10.5478
# 2 34.1120 123.8751 23.2175 14.6519 4.0034 -18.2155
# 3 41.0462 23.2175 121.3200 21.5745 3.5711 -6.7592
# 4 8.6374 14.6519 21.5745 35.3594 -3.6356 -3.2237
# 5 3.0619 4.0034 3.5711 -3.6356 25.0671 13.4595
# 6 -10.5478 -18.2155 -6.7592 -3.2237 13.4595 47.0205
#
#
#
# Elastic Compliance Matrix: (Units=1/GPa)
#
#
# Indices 1 2 3 4 5 6 
#
# 1 0.016596 -0.003281 -0.004843 0.000266 -0.002041 0.002358
# 2 -0.003281 0.010090 0.000144 -0.003500 -0.003928 0.004078
# 3 -0.004843 0.000144 0.010985 -0.005739 -0.002259 0.000802
# 4 0.000266 -0.003500 -0.005739 0.033741 0.007249 -0.001883
# 5 -0.002041 -0.003928 -0.002259 0.007249 0.050943 -0.016390
# 6 0.002358 0.004078 0.000802 -0.001883 -0.016390 0.028054
#
#
# Mechanical properties :
#
#
# Convention : Reuss Voigt Hill
#
# Bulk Modulus (GPa) = 46.05788 58.07326 52.06557
# Shear Modulus (GPa) = 28.80082 36.65821 32.72952
#
# Velocity S-wave (km/s) = 3.57705 4.03560 3.81323
# Velocity P-wave (km/s) = 6.12556 6.89310 6.52063
#
# Compressibility (1/GPa) = 0.02171181
#
# Stress axis : x y z
#
# Youngs Moduli (GPa) = 60.25411 99.11114 91.03141
#
# Poissons Ratio (x) = 0.32521 0.44086
# Poissons Ratio (y) = 0.19771 -0.01314
# Poissons Ratio (z) = 0.29180 -0.01431
#
# Static dielectric constant tensor:
#      x y z
#    x 5.406470 -0.222130 1.052130 
#    y -0.222130 4.480180 0.099270 
#    z 1.052130 0.099270 4.519060 
# 
# 
# High freq. dielectric constant tensor:
#      x y z
#    x 1.892010 -0.008360 0.012650 
#    y -0.008360 1.911840 0.013480 
#    z 0.012650 0.013480 1.882850 
# 
# From -- ./inp_files/148535.got.cif
#   From: 2010.06.25/outbox.cif.g09.slc.cpg/sg2_75_cif.got.tgz:148535.got - 2010.06.27 13:26:56.
