data_PCOD8037933
_publ_section_title
;
Structure prediction by ZEFSAII (Michael W. Deem and Ramdas Pophale) SiO2 
 PCOD8037933
Probable space group: P -1
;
_chemical_formula_sum "Si O2"
_cell_formula_units_Z 16
_cell_length_a 20.235238
_cell_length_b 11.873539
_cell_length_c 14.813343
_cell_angle_alpha 30.951094
_cell_angle_beta 30.724631
_cell_angle_gamma 26.161520
_cell_volume 740.950576
_symmetry_space_group_name_H-M "P -1"
_symmetry_group_IT_number 2
_symmetry_cell_setting 'triclinic'
loop_
_space_group_symop_operation_xyz
x,y,z
-x,-y,-z
loop_
_atom_site_type_symbol
_atom_site_label
_atom_site_fract_x
_atom_site_fract_y
_atom_site_fract_z
Si Si1 0.970599 0.947112 0.225960
Si Si2 0.899894 0.885187 0.681771
Si Si3 0.878180 0.761939 0.157737
Si Si4 0.713793 0.560078 0.874684
Si Si5 0.812918 0.760384 0.042404
Si Si6 0.302037 0.870436 0.719933
Si Si7 0.761166 0.964558 0.607468
Si Si8 0.497050 0.861832 0.341603
O O1 0.149874 0.660874 0.203123
O O2 0.857176 0.969069 0.265896
O O3 0.905021 0.945913 0.401082
O O4 0.981904 0.196784 0.029962
O O5 0.031408 0.564021 0.720930
O O6 0.765440 0.045694 0.649243
O O7 0.792305 0.948323 0.854010
O O8 0.000000 0.000000 0.500000
O O9 0.778471 0.897596 0.087198
O O10 0.744310 0.924957 0.282259
O O11 0.790905 0.670676 0.772416
O O12 0.568367 0.818526 0.808630
O O13 0.648696 0.424375 0.103474
O O14 0.692814 0.673688 0.229343
O O15 0.000000 0.500000 0.000000
O O16 0.453440 0.809881 0.526898
O O17 0.587441 0.192783 0.603166
#
# Coordination Sequence:
#
# PCOD8037933 Si02
#       8
#     2   2   2   2   2   2   2   2
#     4  10  17  32  61  93 129 155 191 242 312 373
#     4  11  22  38  62  86 116 164 213 252 291 354
#     4  10  21  36  61  86 118 166 202 240 305 368
#     4   9  18  33  57  97 128 154 191 248 303 373
#     4  10  23  45  58  78 119 165 213 256 295 365
#     4  10  19  35  63  95 128 155 190 248 314 373
#     4   9  19  33  60  91 124 154 204 247 301 352
#     4   9  22  38  61  92 124 154 200 260 310 362
#
# _framework density 21.593883999999999
#
# number of rings (size 3 to 8) (size 9 to 14) (size 15 to 20)
#    0.750    1.500    0.000    4.125    1.750    1.000 
#    4.500    2.500    0.000    9.750    0.000    0.000 
#    0.000    0.000    0.000    0.000    0.000    0.000 
#
# Total GULP energy -198281.204460 kJ/mol
# GULP energy per Si atom -12392.575279 kJ/mol
# Density = 2.154474 g / cm^3
# Si number density = 21.593884 Si / 1000 Ang^3
#
#
#
# Elastic Constant Matrix: (Units=GPa)
#
#
# Indices 1 2 3 4 5 6 
#
# 1 134.4959 25.0858 51.1711 30.0977 11.6828 16.7241
# 2 25.0858 53.4171 44.2120 1.2925 -7.0348 -4.4821
# 3 51.1711 44.2120 153.7270 24.3754 5.9925 1.9939
# 4 30.0977 1.2925 24.3754 37.7086 1.7979 -8.6302
# 5 11.6828 -7.0348 5.9925 1.7979 40.8511 2.3975
# 6 16.7241 -4.4821 1.9939 -8.6302 2.3975 24.1508
#
#
#
# Elastic Compliance Matrix: (Units=1/GPa)
#
#
# Indices 1 2 3 4 5 6 
#
# 1 0.014969 -0.009076 0.000509 -0.015722 -0.004212 -0.017292
# 2 -0.009076 0.033108 -0.009598 0.016099 0.007929 0.018188
# 3 0.000509 -0.009598 0.010550 -0.008056 -0.002662 -0.005620
# 4 -0.015722 0.016099 -0.008056 0.050912 0.004314 0.032305
# 5 -0.004212 0.007929 -0.002662 0.004314 0.027046 0.003465
# 6 -0.017292 0.018188 -0.005620 0.032305 0.003465 0.068421
#
#
# Mechanical properties :
#
#
# Convention : Reuss Voigt Hill
#
# Bulk Modulus (GPa) = 44.85084 64.73086 54.79085
# Shear Modulus (GPa) = 20.09892 35.28682 27.69287
#
# Velocity S-wave (km/s) = 3.05416 4.04680 3.58500
# Velocity P-wave (km/s) = 5.76649 7.20257 6.52417
#
# Compressibility (1/GPa) = 0.02229613
#
# Stress axis : x y z
#
# Youngs Moduli (GPa) = 66.80536 30.20413 94.78560
#
# Poissons Ratio (x) = 0.27414 -0.04826
# Poissons Ratio (y) = 0.60635 0.90978
# Poissons Ratio (z) = -0.03401 0.28991
#
# Static dielectric constant tensor:
#      x y z
#    x 4.166350 0.114960 0.268330 
#    y 0.114960 3.429040 0.026540 
#    z 0.268330 0.026540 4.244080 
# 
# 
# High freq. dielectric constant tensor:
#      x y z
#    x 1.844920 0.003100 0.010340 
#    y 0.003100 1.812230 0.001510 
#    z 0.010340 0.001510 1.859210 
# 
# From -- ./inp_files/541051.got.cif
#   From: 2010.06.25/outbox.cif.g09.slc.cpg/sg2_271_cif.got.tgz:541051.got - 2010.06.27 13:26:56.
