data_PCOD8037135
_publ_section_title
;
Structure prediction by ZEFSAII (Michael W. Deem and Ramdas Pophale) SiO2 
 PCOD8037135
Probable space group: P -1
;
_chemical_formula_sum "Si O2"
_cell_formula_units_Z 16
_cell_length_a 14.035356
_cell_length_b 13.874982
_cell_length_c 11.426687
_cell_angle_alpha 117.910835
_cell_angle_beta 148.806944
_cell_angle_gamma 44.644242
_cell_volume 747.061242
_symmetry_space_group_name_H-M "P -1"
_symmetry_group_IT_number 2
_symmetry_cell_setting 'triclinic'
loop_
_space_group_symop_operation_xyz
x,y,z
-x,-y,-z
loop_
_atom_site_type_symbol
_atom_site_label
_atom_site_fract_x
_atom_site_fract_y
_atom_site_fract_z
Si Si1 0.018754 0.363657 0.434921
Si Si2 0.437422 0.951205 0.165897
Si Si3 0.141565 0.431954 0.989148
Si Si4 0.026497 0.915298 0.092501
Si Si5 0.166435 0.613317 0.499152
Si Si6 0.140018 0.057011 0.679281
Si Si7 0.747822 0.398591 0.937498
Si Si8 0.403395 0.892294 0.636915
O O1 0.882327 0.361105 0.399253
O O2 0.000000 0.500000 0.500000
O O3 0.310324 0.218230 0.650380
O O4 0.879503 0.373693 0.182216
O O5 0.477696 0.064195 0.299023
O O6 0.342947 0.974165 0.947629
O O7 0.244354 0.982736 0.075088
O O8 0.960866 0.445458 0.715128
O O9 0.218819 0.518539 0.072957
O O10 0.392786 0.262861 0.173271
O O11 0.000000 0.500000 0.000000
O O12 0.125248 0.757478 0.073812
O O13 0.215329 0.891693 0.369675
O O14 0.000000 0.000000 0.000000
O O15 0.458255 0.490869 0.708399
O O16 0.051497 0.765969 0.401641
O O17 0.269054 0.018552 0.667276
O O18 0.000000 0.000000 0.500000
#
# Coordination Sequence:
#
# PCOD8037135 Si02
#       8
#     2   2   2   2   2   2   2   2
#     4  12  27  47  76 105 142 195 237 296 361 421
#     4  12  26  48  75 105 147 185 246 295 355 430
#     4  12  26  45  74 106 146 192 236 295 360 427
#     4  12  30  48  71 104 145 200 240 290 352 428
#     4  12  26  49  75 108 148 184 238 301 364 422
#     4  12  24  43  78 111 137 184 236 301 363 414
#     4  12  29  47  73 108 147 191 243 291 357 433
#     4  12  24  46  73 106 143 184 242 296 363 422
#
# _framework density 21.417252999999999
#
# number of rings (size 3 to 8) (size 9 to 14) (size 15 to 20)
#    0.000    0.000    5.000    4.500    3.500    4.000 
#    0.000    0.000    0.000    0.000    0.000    0.000 
#    0.000    0.000    0.000    0.000    0.000    0.000 
#
# Total GULP energy -198519.812224 kJ/mol
# GULP energy per Si atom -12407.488264 kJ/mol
# Density = 2.136851 g / cm^3
# Si number density = 21.417253 Si / 1000 Ang^3
#
#
#
# Elastic Constant Matrix: (Units=GPa)
#
#
# Indices 1 2 3 4 5 6 
#
# 1 186.2167 69.0019 25.4506 -61.7633 43.0783 -2.5587
# 2 69.0019 153.5898 51.5710 -31.0747 19.5823 11.1009
# 3 25.4506 51.5710 156.7659 26.3721 -8.1786 6.2022
# 4 -61.7633 -31.0747 26.3721 115.3703 -35.8558 6.0295
# 5 43.0783 19.5823 -8.1786 -35.8558 57.5107 1.0577
# 6 -2.5587 11.1009 6.2022 6.0295 1.0577 44.3339
#
#
#
# Elastic Compliance Matrix: (Units=1/GPa)
#
#
# Indices 1 2 3 4 5 6 
#
# 1 0.008231 -0.002259 -0.001311 0.002864 -0.003814 0.000926
# 2 -0.002259 0.009104 -0.002879 0.001818 -0.000642 -0.002239
# 3 -0.001311 -0.002879 0.008102 -0.002920 0.001296 -0.000122
# 4 0.002864 0.001818 -0.002920 0.012989 0.004951 -0.001766
# 5 -0.003814 -0.000642 0.001296 0.004951 0.023762 -0.001481
# 6 0.000926 -0.002239 -0.000122 -0.001766 -0.001481 0.023463
#
#
# Mechanical properties :
#
#
# Convention : Reuss Voigt Hill
#
# Bulk Modulus (GPa) = 79.74147 87.62437 83.68292
# Shear Modulus (GPa) = 48.67148 66.81291 57.74219
#
# Velocity S-wave (km/s) = 4.77228 5.59138 5.19799
# Velocity P-wave (km/s) = 8.22675 9.09321 8.67081
#
# Compressibility (1/GPa) = 0.01254053
#
# Stress axis : x y z
#
# Youngs Moduli (GPa) = 121.48801 109.84105 123.41941
#
# Poissons Ratio (x) = 0.24814 0.16175
# Poissons Ratio (y) = 0.27445 0.35532
# Poissons Ratio (z) = 0.15921 0.31623
#
# Static dielectric constant tensor:
#      x y z
#    x 4.310300 0.058010 0.307940 
#    y 0.058010 4.027830 0.222870 
#    z 0.307940 0.222870 4.413640 
# 
# 
# High freq. dielectric constant tensor:
#      x y z
#    x 1.855760 0.005010 0.003930 
#    y 0.005010 1.857000 0.002160 
#    z 0.003930 0.002160 1.858530 
# 
# From -- ./inp_files/455850.got.cif
#   From: 2010.06.25/outbox.cif.g09.slc.cpg/sg2_228_cif.got.tgz:455850.got - 2010.06.27 13:26:56.
