data_PCOD8037559
_publ_section_title
;
Structure prediction by ZEFSAII (Michael W. Deem and Ramdas Pophale) SiO2 
 PCOD8037559
Probable space group: P -1
;
_chemical_formula_sum "Si O2"
_cell_formula_units_Z 16
_cell_length_a 18.783918
_cell_length_b 9.304515
_cell_length_c 21.856645
_cell_angle_alpha 145.409803
_cell_angle_beta 160.529479
_cell_angle_gamma 33.577067
_cell_volume 689.291463
_symmetry_space_group_name_H-M "P -1"
_symmetry_group_IT_number 2
_symmetry_cell_setting 'triclinic'
loop_
_space_group_symop_operation_xyz
x,y,z
-x,-y,-z
loop_
_atom_site_type_symbol
_atom_site_label
_atom_site_fract_x
_atom_site_fract_y
_atom_site_fract_z
Si Si1 0.538577 0.853825 0.415764
Si Si2 0.098726 0.238496 0.028452
Si Si3 0.450675 0.814841 0.577166
Si Si4 0.075380 0.204987 0.484467
Si Si5 0.311709 0.026616 0.906229
Si Si6 0.618956 0.686934 0.128785
Si Si7 0.986833 0.278805 0.213542
Si Si8 0.134945 0.629556 0.987742
O O1 0.374308 0.678147 0.209099
O O2 0.794216 0.658275 0.559904
O O3 0.500000 0.000000 0.500000
O O4 0.512368 0.071016 0.418325
O O5 0.368374 0.145740 0.213406
O O6 0.000000 0.500000 0.000000
O O7 0.028626 0.282638 0.057531
O O8 0.019839 0.993746 0.853456
O O9 0.500000 0.500000 0.500000
O O10 0.205955 0.981295 0.462624
O O11 0.233691 0.192808 0.665967
O O12 0.000000 0.500000 0.500000
O O13 0.851200 0.145697 0.304525
O O14 0.161553 0.324392 0.894164
O O15 0.500000 0.000000 0.000000
O O16 0.426451 0.931670 0.031001
O O17 0.770399 0.522565 0.138800
O O18 0.500000 0.500000 0.000000
O O19 0.991535 0.223965 0.124550
#
# Coordination Sequence:
#
# PCOD8037559 Si02
#       8
#     2   2   2   2   2   2   2   2
#     4  12  26  46  77 110 147 203 251 308 389 462
#     4  12  26  45  75 109 148 195 250 318 380 458
#     4  12  27  48  77 113 154 194 260 321 384 454
#     4  12  28  51  81 114 157 204 262 321 385 463
#     4  12  29  50  76 115 153 201 257 322 381 461
#     4  12  27  46  80 109 149 205 258 309 386 456
#     4  12  25  47  74 106 148 198 250 308 385 454
#     4  12  27  50  73 109 160 194 252 320 390 457
#
# _framework density 23.212242
#
# number of rings (size 3 to 8) (size 9 to 14) (size 15 to 20)
#    0.000    0.000    5.000    4.125    7.000    1.500 
#    0.000    0.000    0.000    0.000    0.000    0.000 
#    0.000    0.000    0.000    0.000    0.000    0.000 
#
# Total GULP energy -198449.360936 kJ/mol
# GULP energy per Si atom -12403.085059 kJ/mol
# Density = 2.315941 g / cm^3
# Si number density = 23.212242 Si / 1000 Ang^3
#
#
#
# Elastic Constant Matrix: (Units=GPa)
#
#
# Indices 1 2 3 4 5 6 
#
# 1 94.8053 24.5165 29.6159 1.0217 4.6097 12.4905
# 2 24.5165 121.1483 30.1150 2.6814 5.3243 11.5536
# 3 29.6159 30.1150 173.5987 0.0904 2.3300 22.4690
# 4 1.0217 2.6814 0.0904 42.6953 3.2375 -2.8852
# 5 4.6097 5.3243 2.3300 3.2375 41.7895 -7.9296
# 6 12.4905 11.5536 22.4690 -2.8852 -7.9296 43.4080
#
#
#
# Elastic Compliance Matrix: (Units=1/GPa)
#
#
# Indices 1 2 3 4 5 6 
#
# 1 0.011832 -0.001744 -0.001371 -0.000229 -0.001466 -0.002514
# 2 -0.001744 0.009087 -0.001053 -0.000548 -0.001172 -0.001622
# 3 -0.001371 -0.001053 0.006552 -0.000060 -0.000613 -0.002833
# 4 -0.000229 -0.000548 -0.000060 0.023676 -0.001441 0.001553
# 5 -0.001466 -0.001172 -0.000613 -0.001441 0.025450 0.005604
# 6 -0.002514 -0.001622 -0.002833 0.001553 0.005604 0.026786
#
#
# Mechanical properties :
#
#
# Convention : Reuss Voigt Hill
#
# Bulk Modulus (GPa) = 52.25967 62.00522 57.13245
# Shear Modulus (GPa) = 42.33795 45.93221 44.13508
#
# Velocity S-wave (km/s) = 4.27541 4.45319 4.36520
# Velocity P-wave (km/s) = 6.85090 7.29462 7.07624
#
# Compressibility (1/GPa) = 0.01913521
#
# Stress axis : x y z
#
# Youngs Moduli (GPa) = 84.51520 110.04209 152.62998
#
# Poissons Ratio (x) = 0.19197 0.20922
# Poissons Ratio (y) = 0.14743 0.16069
# Poissons Ratio (z) = 0.11585 0.11586
#
# Static dielectric constant tensor:
#      x y z
#    x 3.987250 0.154140 0.461590 
#    y 0.154140 3.810940 -0.379930 
#    z 0.461590 -0.379930 4.302970 
# 
# 
# High freq. dielectric constant tensor:
#      x y z
#    x 1.921900 0.003590 0.004940 
#    y 0.003590 1.927790 -0.008520 
#    z 0.004940 -0.008520 1.934490 
# 
# From -- ./inp_files/226555.got.cif
#   From: 2010.06.25/outbox.cif.g09.slc.cpg/sg2_114_cif.got.tgz:226555.got - 2010.06.27 13:26:56.
