data_PCOD8037450
_publ_section_title
;
Structure prediction by ZEFSAII (Michael W. Deem and Ramdas Pophale) SiO2 
 PCOD8037450
Probable space group: P -1
;
_chemical_formula_sum "Si O2"
_cell_formula_units_Z 14
_cell_length_a 23.776501
_cell_length_b 14.484499
_cell_length_c 6.712050
_cell_angle_alpha 117.631420
_cell_angle_beta 61.400089
_cell_angle_gamma 162.298808
_cell_volume 616.820589
_symmetry_space_group_name_H-M "P -1"
_symmetry_group_IT_number 2
_symmetry_cell_setting 'triclinic'
loop_
_space_group_symop_operation_xyz
x,y,z
-x,-y,-z
loop_
_atom_site_type_symbol
_atom_site_label
_atom_site_fract_x
_atom_site_fract_y
_atom_site_fract_z
Si Si1 0.662045 0.629340 0.352063
Si Si2 0.142130 0.621856 0.350291
Si Si3 0.930856 0.105647 0.051023
Si Si4 0.366452 0.053272 0.060813
Si Si5 0.674937 0.792199 0.858115
Si Si6 0.155855 0.275101 0.658030
Si Si7 0.519000 0.909668 0.449991
O O1 0.482909 0.284400 0.272221
O O2 0.623002 0.666846 0.603102
O O3 0.812354 0.784804 0.349595
O O4 0.739256 0.782951 0.162267
O O5 0.000000 0.500000 0.500000
O O6 0.021670 0.333581 0.259010
O O7 0.224463 0.762697 0.129699
O O8 0.296556 0.837992 0.478939
O O9 0.080216 0.241803 0.914267
O O10 0.865957 0.038249 0.871150
O O11 0.278489 0.013759 0.043926
O O12 0.482811 0.160164 0.818884
O O13 0.500000 0.500000 0.000000
O O14 0.337138 0.601097 0.573591
O O15 0.000000 0.000000 0.500000
O O16 0.500000 0.000000 0.500000
#
# Coordination Sequence:
#
# PCOD8037450 Si02
#       7
#     2   2   2   2   2   2   2
#     4  12  25  45  74 106 141 187 236 294 361 426
#     4  12  29  49  72 105 147 191 243 293 360 430
#     4  12  27  44  73 106 143 188 238 296 355 426
#     4  12  26  46  76 102 142 192 236 294 361 422
#     4  12  25  44  73 106 142 180 240 298 355 421
#     4  12  25  47  73 107 144 184 241 298 357 424
#     4  12  29  49  74 106 148 192 243 296 355 428
#
# _framework density 22.697037000000002
#
# number of rings (size 3 to 8) (size 9 to 14) (size 15 to 20)
#    0.000    0.000    4.286    5.143    6.000    5.714 
#    0.000    0.000    0.000    0.000    0.000    0.000 
#    0.000    0.000    0.000    0.000    0.000    0.000 
#
# Total GULP energy -173563.397302 kJ/mol
# GULP energy per Si atom -12397.385522 kJ/mol
# Density = 2.264538 g / cm^3
# Si number density = 22.697037 Si / 1000 Ang^3
#
#
#
# Elastic Constant Matrix: (Units=GPa)
#
#
# Indices 1 2 3 4 5 6 
#
# 1 114.0905 17.6406 26.1940 0.4578 -3.0778 -3.8973
# 2 17.6406 79.8689 20.3327 5.1190 5.7002 6.7992
# 3 26.1940 20.3327 127.0263 -8.8750 -18.8722 -0.3898
# 4 0.4578 5.1190 -8.8750 46.2902 0.5634 2.7263
# 5 -3.0778 5.7002 -18.8722 0.5634 47.8940 3.7693
# 6 -3.8973 6.7992 -0.3898 2.7263 3.7693 33.8997
#
#
#
# Elastic Compliance Matrix: (Units=1/GPa)
#
#
# Indices 1 2 3 4 5 6 
#
# 1 0.009477 -0.001772 -0.001680 -0.000306 0.000048 0.001445
# 2 -0.001772 0.014037 -0.002387 -0.001807 -0.002497 -0.002623
# 3 -0.001680 -0.002387 0.009312 0.002031 0.003837 -0.000197
# 4 -0.000306 -0.001807 0.002031 0.022275 0.000855 -0.001536
# 5 0.000048 -0.002497 0.003837 0.000855 0.022844 -0.002058
# 6 0.001445 -0.002623 -0.000197 -0.001536 -0.002058 0.030541
#
#
# Mechanical properties :
#
#
# Convention : Reuss Voigt Hill
#
# Bulk Modulus (GPa) = 47.28717 49.92446 48.60581
# Shear Modulus (GPa) = 39.30400 42.73800 41.02100
#
# Velocity S-wave (km/s) = 4.16586 4.34404 4.25588
# Velocity P-wave (km/s) = 6.63464 6.87056 6.75363
#
# Compressibility (1/GPa) = 0.02114739
#
# Stress axis : x y z
#
# Youngs Moduli (GPa) = 105.52266 71.24053 107.38494
#
# Poissons Ratio (x) = 0.12625 0.18044
# Poissons Ratio (y) = 0.18700 0.25630
# Poissons Ratio (z) = 0.17731 0.17003
#
# Static dielectric constant tensor:
#      x y z
#    x 5.042680 -0.043640 0.082500 
#    y -0.043640 3.911710 0.182640 
#    z 0.082500 0.182640 4.069630 
# 
# 
# High freq. dielectric constant tensor:
#      x y z
#    x 1.924060 0.002920 -0.000400 
#    y 0.002920 1.898140 0.002650 
#    z -0.000400 0.002650 1.904810 
# 
# From -- ./inp_files/77960.got.cif
#   From: 2010.06.25/outbox.cif.g09.slc.cpg/sg2_39_cif.got.tgz:77960.got - 2010.06.27 13:26:56.
