data_PCOD8037078
_publ_section_title
;
Structure prediction by ZEFSAII (Michael W. Deem and Ramdas Pophale) SiO2 
 PCOD8037078
Probable space group: P -1
;
_chemical_formula_sum "Si O2"
_cell_formula_units_Z 14
_cell_length_a 5.086964
_cell_length_b 5.040204
_cell_length_c 29.423404
_cell_angle_alpha 99.844232
_cell_angle_beta 100.000465
_cell_angle_gamma 59.957562
_cell_volume 639.992933
_symmetry_space_group_name_H-M "P -1"
_symmetry_group_IT_number 2
_symmetry_cell_setting 'triclinic'
loop_
_space_group_symop_operation_xyz
x,y,z
-x,-y,-z
loop_
_atom_site_type_symbol
_atom_site_label
_atom_site_fract_x
_atom_site_fract_y
_atom_site_fract_z
Si Si1 0.751802 0.172006 0.872553
Si Si2 0.317394 0.716614 0.695958
Si Si3 0.006124 0.406514 0.730986
Si Si4 0.707927 0.342575 0.410815
Si Si5 0.600609 0.966218 0.553672
Si Si6 0.818981 0.322017 0.980565
Si Si7 0.937006 0.519503 0.162441
O O1 0.780077 0.299200 0.925433
O O2 0.408319 0.246346 0.854939
O O3 0.853455 0.334288 0.842196
O O4 0.963116 0.805396 0.867988
O O5 0.664930 0.479365 0.711681
O O6 0.269105 0.779109 0.642922
O O7 0.109232 0.571732 0.701609
O O8 0.221073 0.039854 0.726886
O O9 0.027893 0.535281 0.784343
O O10 0.575774 0.708184 0.416613
O O11 0.476465 0.273594 0.430563
O O12 0.037776 0.167620 0.438711
O O13 0.500000 0.000000 0.500000
O O14 0.500000 0.500000 0.000000
O O15 0.000000 0.500000 0.000000
O O16 0.000000 0.000000 0.000000
#
# Coordination Sequence:
#
# PCOD8037078 Si02
#       7
#     2   2   2   2   2   2   2
#     4  12  24  43  65  94 126 165 207 256 308 367
#     4  12  24  42  66  94 127 165 208 260 313 372
#     4  12  24  43  65  94 126 165 207 256 313 372
#     4  12  24  42  64  94 126 165 211 260 313 372
#     4  12  24  42  64  92 127 168 211 260 313 372
#     4  12  25  43  66  94 127 165 208 256 309 367
#     4  12  25  43  66  94 127 165 208 256 309 372
#
# _framework density 21.875240000000002
#
# number of rings (size 3 to 8) (size 9 to 14) (size 15 to 20)
#    0.000    0.000    0.000   12.000    0.000    0.000 
#    0.000    0.000    0.000    0.000    0.000    0.000 
#    0.000    0.000    0.000    0.000    0.000    0.000 
#
# Total GULP energy -173769.271655 kJ/mol
# GULP energy per Si atom -12412.090833 kJ/mol
# Density = 2.182545 g / cm^3
# Si number density = 21.875240 Si / 1000 Ang^3
#
#
#
# Elastic Constant Matrix: (Units=GPa)
#
#
# Indices 1 2 3 4 5 6 
#
# 1 106.1049 42.2786 30.0000 6.3854 -0.5233 -0.7643
# 2 42.2786 109.5522 10.2454 3.3559 -6.1458 4.7068
# 3 30.0000 10.2454 91.6191 -4.2287 1.7086 -4.9736
# 4 6.3854 3.3559 -4.2287 34.6239 -1.1555 1.0643
# 5 -0.5233 -6.1458 1.7086 -1.1555 35.1478 -1.0579
# 6 -0.7643 4.7068 -4.9736 1.0643 -1.0579 34.1053
#
#
#
# Elastic Compliance Matrix: (Units=1/GPa)
#
#
# Indices 1 2 3 4 5 6 
#
# 1 0.012342 -0.004397 -0.003626 -0.002321 -0.000473 0.000412
# 2 -0.004397 0.010988 0.000087 -0.000136 0.001801 -0.001542
# 3 -0.003626 0.000087 0.012286 0.002094 -0.000518 0.001617
# 4 -0.002321 -0.000136 0.002094 0.029625 0.000795 -0.000628
# 5 -0.000473 0.001801 -0.000518 0.000795 0.028827 0.000535
# 6 0.000412 -0.001542 0.001617 -0.000628 0.000535 0.029815
#
#
# Mechanical properties :
#
#
# Convention : Reuss Voigt Hill
#
# Bulk Modulus (GPa) = 50.64278 52.48045 51.56162
# Shear Modulus (GPa) = 34.16809 35.75888 34.96348
#
# Velocity S-wave (km/s) = 3.95644 4.04750 4.00223
# Velocity P-wave (km/s) = 6.63869 6.77391 6.70664
#
# Compressibility (1/GPa) = 0.01974615
#
# Stress axis : x y z
#
# Youngs Moduli (GPa) = 81.02312 91.00590 81.39203
#
# Poissons Ratio (x) = 0.40017 0.29509
# Poissons Ratio (y) = 0.35627 -0.00712
# Poissons Ratio (z) = 0.29375 -0.00796
#
# Static dielectric constant tensor:
#      x y z
#    x 4.182460 -0.044340 -0.051530 
#    y -0.044340 4.077240 0.073960 
#    z -0.051530 0.073960 4.110740 
# 
# 
# High freq. dielectric constant tensor:
#      x y z
#    x 1.878260 -0.001740 -0.000560 
#    y -0.001740 1.876250 0.001980 
#    z -0.000560 0.001980 1.876990 
# 
# From -- ./inp_files/14528.got.cif
#   From: 2010.06.25/outbox.cif.g09.slc.cpg/sg2_8_cif.got.tgz:14528.got - 2010.06.27 13:26:56.
