data_PCOD8037453
_publ_section_title
;
Structure prediction by ZEFSAII (Michael W. Deem and Ramdas Pophale) SiO2 
 PCOD8037453
Probable space group: P -1
;
_chemical_formula_sum "Si O2"
_cell_formula_units_Z 16
_cell_length_a 8.895995
_cell_length_b 19.641351
_cell_length_c 11.598507
_cell_angle_alpha 138.367905
_cell_angle_beta 140.084851
_cell_angle_gamma 70.092032
_cell_volume 723.740798
_symmetry_space_group_name_H-M "P -1"
_symmetry_group_IT_number 2
_symmetry_cell_setting 'triclinic'
loop_
_space_group_symop_operation_xyz
x,y,z
-x,-y,-z
loop_
_atom_site_type_symbol
_atom_site_label
_atom_site_fract_x
_atom_site_fract_y
_atom_site_fract_z
Si Si1 0.959879 0.272162 0.716906
Si Si2 0.247985 0.510667 0.326535
Si Si3 0.283240 0.244494 0.668127
Si Si4 0.885283 0.727832 0.628253
Si Si5 0.137592 0.510672 0.716144
Si Si6 0.575043 0.755501 0.690151
Si Si7 0.039999 0.908781 0.338733
Si Si8 0.497658 0.908777 0.296392
O O1 0.625697 0.197219 0.402936
O O2 0.130871 0.282988 0.717212
O O3 0.022516 0.206867 0.771903
O O4 0.060281 0.407118 0.990908
O O5 0.500000 0.500000 0.500000
O O6 0.377986 0.641753 0.512343
O O7 0.065587 0.499997 0.315585
O O8 0.108687 0.197219 0.385926
O O9 0.310842 0.138920 0.605860
O O10 0.579677 0.358243 0.945319
O O11 0.793057 0.592877 0.362425
O O12 0.671592 0.717003 0.585245
O O13 0.193817 0.793125 0.944431
O O14 0.000000 0.500000 0.500000
O O15 0.845214 0.861076 0.050185
O O16 0.000000 0.000000 0.500000
O O17 0.364826 0.000007 0.614830
O O18 0.500000 0.000000 0.500000
#
# Coordination Sequence:
#
# PCOD8037453 Si02
#       8
#     2   2   2   2   2   2   2   2
#     4  12  27  47  75 107 145 185 237 294 356 424
#     4  12  25  44  75 107 145 184 232 291 361 426
#     4  12  27  47  75 108 143 187 236 294 358 420
#     4  12  27  47  75 107 145 185 237 294 356 424
#     4  12  25  44  75 107 145 184 232 291 361 426
#     4  12  27  47  75 108 143 187 236 294 358 420
#     4  12  28  49  72 102 143 190 242 290 350 418
#     4  12  28  49  72 102 143 190 242 290 350 418
#
# _framework density 22.107362999999999
#
# number of rings (size 3 to 8) (size 9 to 14) (size 15 to 20)
#    0.000    0.000    5.000    4.500    7.000    2.000 
#    0.000    0.000    0.000    0.000    0.000    0.000 
#    0.000    0.000    0.000    0.000    0.000    0.000 
#
# Total GULP energy -198414.862014 kJ/mol
# GULP energy per Si atom -12400.928876 kJ/mol
# Density = 2.205705 g / cm^3
# Si number density = 22.107363 Si / 1000 Ang^3
#
#
#
# Elastic Constant Matrix: (Units=GPa)
#
#
# Indices 1 2 3 4 5 6 
#
# 1 211.5278 37.0300 37.3774 0.8615 -0.0470 -1.6793
# 2 37.0300 79.7991 33.7807 -11.1765 -5.4217 -0.2727
# 3 37.3774 33.7807 74.6595 3.2373 -0.8873 -4.7219
# 4 0.8615 -11.1765 3.2373 42.0310 0.0365 1.0319
# 5 -0.0470 -5.4217 -0.8873 0.0365 40.3919 3.9498
# 6 -1.6793 -0.2727 -4.7219 1.0319 3.9498 37.8499
#
#
#
# Elastic Compliance Matrix: (Units=1/GPa)
#
#
# Indices 1 2 3 4 5 6 
#
# 1 0.005371 -0.001784 -0.001864 -0.000442 -0.000277 0.000034
# 2 -0.001784 0.017292 -0.007208 0.005218 0.002277 -0.001234
# 3 -0.001864 -0.007208 0.017866 -0.003310 -0.000796 0.002268
# 4 -0.000442 0.005218 -0.003310 0.025471 0.000718 -0.001164
# 5 -0.000277 0.002277 -0.000796 0.000718 0.025314 -0.002756
# 6 0.000034 -0.001234 0.002268 -0.001164 -0.002756 0.027015
#
#
# Mechanical properties :
#
#
# Convention : Reuss Voigt Hill
#
# Bulk Modulus (GPa) = 53.14219 64.70694 58.92456
# Shear Modulus (GPa) = 34.17306 41.24110 37.70708
#
# Velocity S-wave (km/s) = 3.93590 4.32382 4.13441
# Velocity P-wave (km/s) = 6.68921 7.36615 7.03583
#
# Compressibility (1/GPa) = 0.01881744
#
# Stress axis : x y z
#
# Youngs Moduli (GPa) = 186.17942 57.83036 55.97199
#
# Poissons Ratio (x) = 0.10317 0.10432
# Poissons Ratio (y) = 0.33214 0.40345
# Poissons Ratio (z) = 0.34701 0.41685
#
# Static dielectric constant tensor:
#      x y z
#    x 4.137790 -0.002030 0.003790 
#    y -0.002030 3.881910 0.064980 
#    z 0.003790 0.064980 3.923490 
# 
# 
# High freq. dielectric constant tensor:
#      x y z
#    x 1.893720 0.001160 0.001840 
#    y 0.001160 1.878340 -0.004910 
#    z 0.001840 -0.004910 1.875250 
# 
# From -- ./inp_files/283119.got.cif
#   From: 2010.06.25/outbox.cif.g09.slc.cpg/sg2_142_cif.got.tgz:283119.got - 2010.06.27 13:26:56.
