data_PCOD8037635
_publ_section_title
;
Structure prediction by ZEFSAII (Michael W. Deem and Ramdas Pophale) SiO2 
 PCOD8037635
Probable space group: P -1
;
_chemical_formula_sum "Si O2"
_cell_formula_units_Z 16
_cell_length_a 16.638324
_cell_length_b 11.825641
_cell_length_c 8.541908
_cell_angle_alpha 39.834263
_cell_angle_beta 41.907012
_cell_angle_gamma 40.150054
_cell_volume 641.885417
_symmetry_space_group_name_H-M "P -1"
_symmetry_group_IT_number 2
_symmetry_cell_setting 'triclinic'
loop_
_space_group_symop_operation_xyz
x,y,z
-x,-y,-z
loop_
_atom_site_type_symbol
_atom_site_label
_atom_site_fract_x
_atom_site_fract_y
_atom_site_fract_z
Si Si1 0.720454 0.541374 0.299257
Si Si2 0.296587 0.005917 0.853079
Si Si3 0.852984 0.976725 0.405465
Si Si4 0.847696 0.665994 0.513895
Si Si5 0.639875 0.956075 0.934251
Si Si6 0.471973 0.670202 0.738984
Si Si7 0.729933 0.396848 0.108321
Si Si8 0.909236 0.158492 0.587337
O O1 0.746182 0.723361 0.009347
O O2 0.605792 0.642515 0.487749
O O3 0.682100 0.453639 0.295812
O O4 0.851952 0.373257 0.365528
O O5 0.202109 0.237408 0.690969
O O6 0.378799 0.988144 0.913622
O O7 0.407065 0.884472 0.689368
O O8 0.206826 0.890086 0.127506
O O9 0.819845 0.866203 0.432016
O O10 0.997721 0.830034 0.420834
O O11 0.862120 0.180712 0.131586
O O12 0.724224 0.057930 0.624836
O O13 0.000000 0.500000 0.500000
O O14 0.752242 0.568830 0.808127
O O15 0.500000 0.000000 0.000000
O O16 0.383271 0.644594 0.761212
O O17 0.500000 0.500000 0.000000
O O18 0.000000 0.000000 0.500000
#
# Coordination Sequence:
#
# PCOD8037635 Si02
#       8
#     2   2   2   2   2   2   2   2
#     4  12  27  48  80 113 150 215 261 322 396 476
#     4  12  28  51  76 122 160 208 265 334 403 460
#     4  12  26  52  78 114 161 206 263 326 396 473
#     4  12  30  48  78 120 161 209 260 331 404 475
#     4  12  29  50  80 115 159 207 268 329 390 476
#     4  12  28  47  76 113 155 203 265 328 397 465
#     4  12  26  51  77 112 157 209 264 316 397 479
#     4  12  25  48  81 110 153 204 261 325 392 474
#
# _framework density 24.926570000000002
#
# number of rings (size 3 to 8) (size 9 to 14) (size 15 to 20)
#    0.000    0.000    6.250    1.875    7.000    2.000 
#    0.000    0.000    0.000    0.000    0.000    0.000 
#    0.000    0.000    0.000    0.000    0.000    0.000 
#
# Total GULP energy -198317.517848 kJ/mol
# GULP energy per Si atom -12394.844865 kJ/mol
# Density = 2.486984 g / cm^3
# Si number density = 24.926570 Si / 1000 Ang^3
#
#
#
# Elastic Constant Matrix: (Units=GPa)
#
#
# Indices 1 2 3 4 5 6 
#
# 1 145.3709 27.3333 25.1682 -4.8590 10.4875 -7.1994
# 2 27.3333 123.0153 25.2787 -16.3835 6.7987 -0.2066
# 3 25.1682 25.2787 77.9453 -19.1929 9.2355 -2.9170
# 4 -4.8590 -16.3835 -19.1929 47.5407 -4.3806 4.3126
# 5 10.4875 6.7987 9.2355 -4.3806 34.5995 -9.6774
# 6 -7.1994 -0.2066 -2.9170 4.3126 -9.6774 47.4471
#
#
#
# Elastic Compliance Matrix: (Units=1/GPa)
#
#
# Indices 1 2 3 4 5 6 
#
# 1 0.007584 -0.001286 -0.002006 -0.000677 -0.001372 0.000804
# 2 -0.001286 0.009151 -0.001935 0.002226 -0.000788 -0.000637
# 3 -0.002006 -0.001935 0.015698 0.005255 -0.002638 -0.000363
# 4 -0.000677 0.002226 0.005255 0.024100 0.000920 -0.001773
# 5 -0.001372 -0.000788 -0.002638 0.000920 0.031991 0.006067
# 6 0.000804 -0.000637 -0.000363 -0.001773 0.006067 0.022572
#
#
# Mechanical properties :
#
#
# Convention : Reuss Voigt Hill
#
# Bulk Modulus (GPa) = 45.49660 55.76577 50.63118
# Shear Modulus (GPa) = 38.79703 43.82089 41.30896
#
# Velocity S-wave (km/s) = 3.94947 4.19740 4.07532
# Velocity P-wave (km/s) = 6.25217 6.77580 6.51924
#
# Compressibility (1/GPa) = 0.02197967
#
# Stress axis : x y z
#
# Youngs Moduli (GPa) = 131.85359 109.27254 63.70309
#
# Poissons Ratio (x) = 0.14052 0.12779
# Poissons Ratio (y) = 0.16956 0.12326
# Poissons Ratio (z) = 0.26450 0.21143
#
# Static dielectric constant tensor:
#      x y z
#    x 4.560340 0.208410 -0.284830 
#    y 0.208410 4.127050 0.658100 
#    z -0.284830 0.658100 3.488760 
# 
# 
# High freq. dielectric constant tensor:
#      x y z
#    x 2.007110 0.002590 0.013650 
#    y 0.002590 1.998470 -0.019470 
#    z 0.013650 -0.019470 1.998030 
# 
# From -- ./inp_files/332682.got.cif
#   From: 2010.06.25/outbox.cif.g09.slc.cpg/sg2_167_cif.got.tgz:332682.got - 2010.06.27 13:26:56.
