data_PCOD8037801
_publ_section_title
;
Structure prediction by ZEFSAII (Michael W. Deem and Ramdas Pophale) SiO2 
 PCOD8037801
Probable space group: P -1
;
_chemical_formula_sum "Si O2"
_cell_formula_units_Z 12
_cell_length_a 15.932412
_cell_length_b 8.338790
_cell_length_c 15.923711
_cell_angle_alpha 46.042676
_cell_angle_beta 18.600128
_cell_angle_gamma 46.833218
_cell_volume 482.563726
_symmetry_space_group_name_H-M "P -1"
_symmetry_group_IT_number 2
_symmetry_cell_setting 'triclinic'
loop_
_space_group_symop_operation_xyz
x,y,z
-x,-y,-z
loop_
_atom_site_type_symbol
_atom_site_label
_atom_site_fract_x
_atom_site_fract_y
_atom_site_fract_z
Si Si1 0.754804 0.119830 0.740955
Si Si2 0.464374 0.902884 0.362227
Si Si3 0.503005 0.572430 0.872400
Si Si4 0.085854 0.149536 0.171525
Si Si5 0.149927 0.552998 0.070090
Si Si6 0.412176 0.245385 0.520008
O O1 0.692394 0.392428 0.699957
O O2 0.826420 0.092069 0.782547
O O3 0.000000 0.000000 0.500000
O O4 0.500000 0.000000 0.000000
O O5 0.422626 0.175697 0.306103
O O6 0.542009 0.757477 0.423344
O O7 0.197647 0.820441 0.612283
O O8 0.698649 0.801999 0.117260
O O9 0.500000 0.500000 0.000000
O O10 0.212768 0.569710 0.104634
O O11 0.079507 0.308252 0.201666
O O12 0.896530 0.721266 0.223964
O O13 0.409884 0.591461 0.755549
O O14 0.500000 0.000000 0.500000
#
# Coordination Sequence:
#
# PCOD8037801 Si02
#       6
#     2   2   2   2   2   2
#     4  12  27  47  76 109 153 204 251 307 381 458
#     4  12  28  48  78 114 152 196 257 317 372 447
#     4  12  28  51  80 118 151 202 259 318 382 458
#     4  12  27  48  76 113 155 196 252 315 383 448
#     4  12  28  49  80 109 151 205 249 308 388 451
#     4  12  27  48  79 112 152 196 256 314 374 449
#
# _framework density 24.867180000000001
#
# number of rings (size 3 to 8) (size 9 to 14) (size 15 to 20)
#    0.000    0.000    5.000    3.500    4.667    6.000 
#    0.000    0.000    0.000    0.000    0.000    0.000 
#    0.000    0.000    0.000    0.000    0.000    0.000 
#
# Total GULP energy -148668.341808 kJ/mol
# GULP energy per Si atom -12389.028484 kJ/mol
# Density = 2.481058 g / cm^3
# Si number density = 24.867180 Si / 1000 Ang^3
#
#
#
# Elastic Constant Matrix: (Units=GPa)
#
#
# Indices 1 2 3 4 5 6 
#
# 1 222.5943 35.8982 75.1990 5.4524 -27.6655 -31.4525
# 2 35.8982 98.0690 24.7001 12.5467 -4.6314 2.5980
# 3 75.1990 24.7001 155.7967 19.4570 -25.3399 -8.5960
# 4 5.4524 12.5467 19.4570 46.5507 -1.8302 -4.7413
# 5 -27.6655 -4.6314 -25.3399 -1.8302 39.1191 -0.1910
# 6 -31.4525 2.5980 -8.5960 -4.7413 -0.1910 51.9804
#
#
#
# Elastic Compliance Matrix: (Units=1/GPa)
#
#
# Indices 1 2 3 4 5 6 
#
# 1 0.006426 -0.001895 -0.002270 0.001201 0.002924 0.003728
# 2 -0.001895 0.011468 -0.000773 -0.002785 -0.000624 -0.002104
# 3 -0.002270 -0.000773 0.008610 -0.002995 0.003739 -0.000170
# 4 0.001201 -0.002785 -0.002995 0.023588 -0.000304 0.002521
# 5 0.002924 -0.000624 0.003739 -0.000304 0.029977 0.002501
# 6 0.003728 -0.002104 -0.000170 0.002521 0.002501 0.021810
#
#
# Mechanical properties :
#
#
# Convention : Reuss Voigt Hill
#
# Bulk Modulus (GPa) = 60.14301 83.11717 71.63009
# Shear Modulus (GPa) = 42.62708 50.24088 46.43398
#
# Velocity S-wave (km/s) = 4.14477 4.49973 4.32589
# Velocity P-wave (km/s) = 6.86613 7.77777 7.33612
#
# Compressibility (1/GPa) = 0.01662704
#
# Stress axis : x y z
#
# Youngs Moduli (GPa) = 155.62796 87.20089 116.14964
#
# Poissons Ratio (x) = 0.16523 0.26364
# Poissons Ratio (y) = 0.29488 0.08982
# Poissons Ratio (z) = 0.35325 0.06744
#
# Static dielectric constant tensor:
#      x y z
#    x 5.158110 -0.127550 -0.997900 
#    y -0.127550 4.655810 0.232160 
#    z -0.997900 0.232160 5.856460 
# 
# 
# High freq. dielectric constant tensor:
#      x y z
#    x 2.015750 -0.010660 -0.004380 
#    y -0.010660 2.008940 0.008340 
#    z -0.004380 0.008340 1.986020 
# 
# From -- ./inp_files/488058.got.cif
#   From: 2010.06.25/outbox.cif.g09.slc.cpg/sg2_245_cif.got.tgz:488058.got - 2010.06.27 13:26:56.
