data_PCOD8037147
_publ_section_title
;
Structure prediction by ZEFSAII (Michael W. Deem and Ramdas Pophale) SiO2 
 PCOD8037147
Probable space group: P -1
;
_chemical_formula_sum "Si O2"
_cell_formula_units_Z 10
_cell_length_a 12.453752
_cell_length_b 11.171843
_cell_length_c 12.208878
_cell_angle_alpha 39.323464
_cell_angle_beta 157.748336
_cell_angle_gamma 138.351334
_cell_volume 404.141133
_symmetry_space_group_name_H-M "P -1"
_symmetry_group_IT_number 2
_symmetry_cell_setting 'triclinic'
loop_
_space_group_symop_operation_xyz
x,y,z
-x,-y,-z
loop_
_atom_site_type_symbol
_atom_site_label
_atom_site_fract_x
_atom_site_fract_y
_atom_site_fract_z
Si Si1 0.748756 0.881184 0.287742
Si Si2 0.124928 0.511209 0.232019
Si Si3 0.959384 0.904009 0.228089
Si Si4 0.537923 0.295238 0.226311
Si Si5 0.366090 0.294922 0.307010
O O1 0.724207 0.669953 0.463005
O O2 0.793566 0.868503 0.210171
O O3 0.000000 0.000000 0.500000
O O4 0.500000 0.000000 0.000000
O O5 0.393259 0.678449 0.387411
O O6 0.000000 0.500000 0.000000
O O7 0.843114 0.539642 0.016954
O O8 0.159674 0.742571 0.509358
O O9 0.147707 0.107648 0.258222
O O10 0.709960 0.874856 0.922127
O O11 0.543618 0.292237 0.365086
O O12 0.500000 0.500000 0.000000
#
# Coordination Sequence:
#
# PCOD8037147 Si02
#       5
#     2   2   2   2   2
#     4  12  26  47  71 102 140 186 237 292 351 419
#     4  12  26  46  71 103 142 189 238 293 353 421
#     4  12  25  44  70 103 140 185 234 292 353 419
#     4  12  24  44  71 103 140 186 234 289 352 423
#     4  12  25  45  70 105 144 186 235 294 354 422
#
# _framework density 24.743831
#
# number of rings (size 3 to 8) (size 9 to 14) (size 15 to 20)
#    0.000    0.000    0.000   10.800    0.000    3.200 
#    0.000    0.000    0.000    0.000    0.000    0.000 
#    0.000    0.000    0.000    0.000    0.000    0.000 
#
# Total GULP energy -123972.161093 kJ/mol
# GULP energy per Si atom -12397.216109 kJ/mol
# Density = 2.468751 g / cm^3
# Si number density = 24.743831 Si / 1000 Ang^3
#
#
#
# Elastic Constant Matrix: (Units=GPa)
#
#
# Indices 1 2 3 4 5 6 
#
# 1 169.0893 59.9218 82.8470 -16.2075 16.2552 -9.3049
# 2 59.9218 94.8044 30.8599 14.6490 -19.1898 -3.9336
# 3 82.8470 30.8599 161.9918 5.9056 18.0272 -15.2192
# 4 -16.2075 14.6490 5.9056 60.0616 -13.6309 -4.5456
# 5 16.2552 -19.1898 18.0272 -13.6309 57.8134 -3.2237
# 6 -9.3049 -3.9336 -15.2192 -4.5456 -3.2237 36.1027
#
#
#
# Elastic Compliance Matrix: (Units=1/GPa)
#
#
# Indices 1 2 3 4 5 6 
#
# 1 0.011197 -0.007019 -0.004147 0.004490 -0.003089 0.000662
# 2 -0.007019 0.017113 -0.000249 -0.004534 0.006661 -0.000025
# 3 -0.004147 -0.000249 0.008859 -0.002239 -0.002086 0.002171
# 4 0.004490 -0.004534 -0.002239 0.020008 0.002787 0.002488
# 5 -0.003089 0.006661 -0.002086 0.002787 0.021759 0.001344
# 6 0.000662 -0.000025 0.002171 0.002488 0.001344 0.029215
#
#
# Mechanical properties :
#
#
# Convention : Reuss Voigt Hill
#
# Bulk Modulus (GPa) = 69.73599 85.90476 77.82038
# Shear Modulus (GPa) = 36.82947 47.61265 42.22106
#
# Velocity S-wave (km/s) = 3.86220 4.39136 4.13525
# Velocity P-wave (km/s) = 6.93781 7.77850 7.37015
#
# Compressibility (1/GPa) = 0.01433980
#
# Stress axis : x y z
#
# Youngs Moduli (GPa) = 89.30842 58.43440 112.87826
#
# Poissons Ratio (x) = 0.41015 0.46811
# Poissons Ratio (y) = 0.62686 0.02808
# Poissons Ratio (z) = 0.37037 0.01454
#
# Static dielectric constant tensor:
#      x y z
#    x 5.121560 -0.221030 0.424260 
#    y -0.221030 4.857470 0.206910 
#    z 0.424260 0.206910 5.039590 
# 
# 
# High freq. dielectric constant tensor:
#      x y z
#    x 1.992470 -0.022550 0.012690 
#    y -0.022550 1.995990 0.008550 
#    z 0.012690 0.008550 2.010720 
# 
# From -- ./inp_files/76522.got.cif
#   From: 2010.06.25/outbox.cif.g09.slc.cpg/sg2_39_cif.got.tgz:76522.got - 2010.06.27 13:26:56.
