data_PCOD8037769
_publ_section_title
;
Structure prediction by ZEFSAII (Michael W. Deem and Ramdas Pophale) SiO2 
 PCOD8037769
Probable space group: P -1
;
_chemical_formula_sum "Si O2"
_cell_formula_units_Z 14
_cell_length_a 8.748867
_cell_length_b 17.751309
_cell_length_c 12.987841
_cell_angle_alpha 142.157227
_cell_angle_beta 50.453513
_cell_angle_gamma 150.207124
_cell_volume 606.981844
_symmetry_space_group_name_H-M "P -1"
_symmetry_group_IT_number 2
_symmetry_cell_setting 'triclinic'
loop_
_space_group_symop_operation_xyz
x,y,z
-x,-y,-z
loop_
_atom_site_type_symbol
_atom_site_label
_atom_site_fract_x
_atom_site_fract_y
_atom_site_fract_z
Si Si1 0.796230 0.232921 0.335783
Si Si2 0.379931 0.310841 0.807819
Si Si3 0.268896 0.069847 0.027358
Si Si4 0.500318 0.422200 0.651048
Si Si5 0.798860 0.472859 0.142067
Si Si6 0.253325 0.093535 0.299995
Si Si7 0.671507 0.197684 0.590624
O O1 0.594822 0.225852 0.342037
O O2 0.690698 0.185892 0.448187
O O3 0.161535 0.435862 0.390968
O O4 0.724889 0.070164 0.139862
O O5 0.499409 0.354954 0.688550
O O6 0.508527 0.251034 0.747003
O O7 0.500000 0.500000 0.000000
O O8 0.004337 0.120752 0.771227
O O9 0.600944 0.276166 0.071762
O O10 0.220051 0.075778 0.173581
O O11 0.000000 0.000000 0.000000
O O12 0.422081 0.528648 0.815355
O O13 0.229478 0.225807 0.486833
O O14 0.992224 0.634849 0.321335
O O15 0.000000 0.500000 0.000000
O O16 0.500000 0.000000 0.500000
#
# Coordination Sequence:
#
# PCOD8037769 Si02
#       7
#     2   2   2   2   2   2   2
#     4  12  27  49  76 109 149 193 247 304 372 446
#     4  12  28  47  76 109 152 197 249 305 367 443
#     4  12  28  48  73 109 149 193 244 306 368 440
#     4  12  26  49  76 109 149 194 248 303 371 445
#     4  12  28  47  76 108 149 195 246 308 374 435
#     4  12  28  48  77 105 150 197 245 299 374 440
#     4  12  28  47  78 111 150 195 253 309 368 439
#
# _framework density 23.06494
#
# number of rings (size 3 to 8) (size 9 to 14) (size 15 to 20)
#    0.000    0.000    2.857    5.571   14.000    1.143 
#    0.000    0.000    0.000    0.000    0.000    0.000 
#    0.000    0.000    0.000    0.000    0.000    0.000 
#
# Total GULP energy -173607.698076 kJ/mol
# GULP energy per Si atom -12400.549863 kJ/mol
# Density = 2.301244 g / cm^3
# Si number density = 23.064940 Si / 1000 Ang^3
#
#
#
# Elastic Constant Matrix: (Units=GPa)
#
#
# Indices 1 2 3 4 5 6 
#
# 1 105.9927 32.6719 36.5537 -8.5042 4.9720 -9.7652
# 2 32.6719 154.4365 61.0079 14.2697 2.1214 -16.0142
# 3 36.5537 61.0079 151.3313 9.7790 4.3661 -18.1278
# 4 -8.5042 14.2697 9.7790 49.5072 -5.7589 -0.4845
# 5 4.9720 2.1214 4.3661 -5.7589 46.7964 -0.1170
# 6 -9.7652 -16.0142 -18.1278 -0.4845 -0.1170 38.9834
#
#
#
# Elastic Compliance Matrix: (Units=1/GPa)
#
#
# Indices 1 2 3 4 5 6 
#
# 1 0.010988 -0.001653 -0.002006 0.002705 -0.000570 0.001173
# 2 -0.001653 0.008219 -0.002560 -0.002156 -0.000219 0.001745
# 3 -0.002006 -0.002560 0.008515 -0.001338 -0.000624 0.002387
# 4 0.002705 -0.002156 -0.001338 0.021849 0.002623 -0.000551
# 5 -0.000570 -0.000219 -0.000624 0.002623 0.021820 -0.000425
# 6 0.001173 0.001745 0.002387 -0.000551 -0.000425 0.027764
#
#
# Mechanical properties :
#
#
# Convention : Reuss Voigt Hill
#
# Bulk Modulus (GPa) = 65.42180 74.69191 70.05686
# Shear Modulus (GPa) = 42.85030 45.82586 44.33808
#
# Velocity S-wave (km/s) = 4.31491 4.46221 4.38918
# Velocity P-wave (km/s) = 7.29728 7.68128 7.49174
#
# Compressibility (1/GPa) = 0.01528542
#
# Stress axis : x y z
#
# Youngs Moduli (GPa) = 91.01215 121.66874 117.44306
#
# Poissons Ratio (x) = 0.20108 0.23555
# Poissons Ratio (y) = 0.15042 0.30061
# Poissons Ratio (z) = 0.18254 0.31142
#
# Static dielectric constant tensor:
#      x y z
#    x 4.133670 -0.026460 0.054970 
#    y -0.026460 4.305860 0.114260 
#    z 0.054970 0.114260 4.013770 
# 
# 
# High freq. dielectric constant tensor:
#      x y z
#    x 1.917910 -0.005980 -0.007420 
#    y -0.005980 1.922920 0.011800 
#    z -0.007420 0.011800 1.936240 
# 
# From -- ./inp_files/157329.got.cif
#   From: 2010.06.25/outbox.cif.g09.slc.cpg/sg2_79_cif.got.tgz:157329.got - 2010.06.27 13:26:56.
