data_PCOD8037551
_publ_section_title
;
Structure prediction by ZEFSAII (Michael W. Deem and Ramdas Pophale) SiO2 
 PCOD8037551
Probable space group: P -1
;
_chemical_formula_sum "Si O2"
_cell_formula_units_Z 16
_cell_length_a 20.547881
_cell_length_b 12.151246
_cell_length_c 17.886651
_cell_angle_alpha 31.906547
_cell_angle_beta 28.947525
_cell_angle_gamma 19.532493
_cell_volume 714.572133
_symmetry_space_group_name_H-M "P -1"
_symmetry_group_IT_number 2
_symmetry_cell_setting 'triclinic'
loop_
_space_group_symop_operation_xyz
x,y,z
-x,-y,-z
loop_
_atom_site_type_symbol
_atom_site_label
_atom_site_fract_x
_atom_site_fract_y
_atom_site_fract_z
Si Si1 0.419232 0.710414 0.751104
Si Si2 0.696245 0.147734 0.042465
Si Si3 0.654581 0.617065 0.061096
Si Si4 0.821724 0.390255 0.457160
Si Si5 0.343145 0.265902 0.728615
Si Si6 0.816772 0.815242 0.553462
Si Si7 0.988845 0.573467 0.267072
Si Si8 0.849320 0.248145 0.228451
O O1 0.348483 0.819595 0.844239
O O2 0.453151 0.431226 0.853454
O O3 0.644663 0.554969 0.603468
O O4 0.227900 0.054250 0.697610
O O5 0.725051 0.888985 0.125396
O O6 0.500000 0.500000 0.000000
O O7 0.906482 0.032267 0.883111
O O8 0.687616 0.486057 0.185851
O O9 0.878489 0.408101 0.918851
O O10 0.500000 0.000000 0.000000
O O11 0.701840 0.546191 0.408661
O O12 0.934190 0.469762 0.319031
O O13 0.000000 0.000000 0.500000
O O14 0.193592 0.531163 0.791884
O O15 0.592904 0.977561 0.664901
O O16 0.000000 0.500000 0.500000
O O17 0.873178 0.697899 0.650054
O O18 0.799139 0.083053 0.407389
#
# Coordination Sequence:
#
# PCOD8037551 Si02
#       8
#     2   2   2   2   2   2   2   2
#     4  12  27  47  74 106 144 185 248 298 353 431
#     4  12  29  44  73 105 143 193 239 295 360 424
#     4  12  26  46  74 105 143 189 236 296 361 423
#     4  12  26  46  74 105 143 189 236 296 361 423
#     4  12  26  49  72 108 147 188 238 296 359 430
#     4  12  27  44  76 106 145 187 241 296 360 421
#     4  12  25  47  73 106 140 189 238 294 355 424
#     4  12  26  49  72 108 147 188 238 296 359 430
#
# _framework density 22.391022
#
# number of rings (size 3 to 8) (size 9 to 14) (size 15 to 20)
#    0.000    0.000    2.500    6.750   10.500    0.000 
#    0.000    0.000    0.000    0.000    0.000    0.000 
#    0.000    0.000    0.000    0.000    0.000    0.000 
#
# Total GULP energy -198547.472316 kJ/mol
# GULP energy per Si atom -12409.217020 kJ/mol
# Density = 2.234006 g / cm^3
# Si number density = 22.391022 Si / 1000 Ang^3
#
#
#
# Elastic Constant Matrix: (Units=GPa)
#
#
# Indices 1 2 3 4 5 6 
#
# 1 116.7975 22.4103 29.9655 -9.1282 12.4630 0.3907
# 2 22.4103 107.2787 7.3825 -13.6348 11.7658 -7.7613
# 3 29.9655 7.3825 84.2401 -9.5301 5.8340 -2.9087
# 4 -9.1282 -13.6348 -9.5301 50.6925 3.3412 -3.4074
# 5 12.4630 11.7658 5.8340 3.3412 37.5945 -3.1660
# 6 0.3907 -7.7613 -2.9087 -3.4074 -3.1660 47.8897
#
#
#
# Elastic Compliance Matrix: (Units=1/GPa)
#
#
# Indices 1 2 3 4 5 6 
#
# 1 0.010007 -0.001529 -0.003172 0.000916 -0.002481 -0.000621
# 2 -0.001529 0.010436 0.000216 0.002880 -0.002903 0.001730
# 3 -0.003172 0.000216 0.013337 0.002137 -0.001196 0.000944
# 4 0.000916 0.002880 0.002137 0.021412 -0.003280 0.001896
# 5 -0.002481 -0.002903 -0.001196 -0.003280 0.028905 0.001155
# 6 -0.000621 0.001730 0.000944 0.001896 0.001155 0.021435
#
#
# Mechanical properties :
#
#
# Convention : Reuss Voigt Hill
#
# Bulk Modulus (GPa) = 40.30480 47.53699 43.92089
# Shear Modulus (GPa) = 40.72609 43.80586 42.26597
#
# Velocity S-wave (km/s) = 4.26943 4.42792 4.34940
# Velocity P-wave (km/s) = 6.50720 6.88611 6.69933
#
# Compressibility (1/GPa) = 0.02481094
#
# Stress axis : x y z
#
# Youngs Moduli (GPa) = 99.92741 95.82647 74.97763
#
# Poissons Ratio (x) = 0.14648 0.23781
# Poissons Ratio (y) = 0.15275 -0.01618
# Poissons Ratio (z) = 0.31694 -0.02068
#
# Static dielectric constant tensor:
#      x y z
#    x 4.016420 0.119820 -0.312390 
#    y 0.119820 3.926960 0.183110 
#    z -0.312390 0.183110 3.697310 
# 
# 
# High freq. dielectric constant tensor:
#      x y z
#    x 1.893740 -0.001240 -0.000800 
#    y -0.001240 1.900720 -0.004340 
#    z -0.000800 -0.004340 1.893510 
# 
# From -- ./inp_files/570756.got.cif
#   From: 2010.06.25/outbox.cif.g09.slc.cpg/sg2_286_cif.got.tgz:570756.got - 2010.06.27 13:26:56.
