data_PCOD8037594
_publ_section_title
;
Structure prediction by ZEFSAII (Michael W. Deem and Ramdas Pophale) SiO2 
 PCOD8037594
Probable space group: P -1
;
_chemical_formula_sum "Si O2"
_cell_formula_units_Z 16
_cell_length_a 7.777471
_cell_length_b 19.531239
_cell_length_c 6.762425
_cell_angle_alpha 132.567731
_cell_angle_beta 77.446871
_cell_angle_gamma 96.692801
_cell_volume 737.788486
_symmetry_space_group_name_H-M "P -1"
_symmetry_group_IT_number 2
_symmetry_cell_setting 'triclinic'
loop_
_space_group_symop_operation_xyz
x,y,z
-x,-y,-z
loop_
_atom_site_type_symbol
_atom_site_label
_atom_site_fract_x
_atom_site_fract_y
_atom_site_fract_z
Si Si1 0.054045 0.596061 0.580561
Si Si2 0.618655 0.074829 0.027587
Si Si3 0.222727 0.321184 0.476013
Si Si4 0.854137 0.939677 0.505685
Si Si5 0.557922 0.403826 0.699393
Si Si6 0.014398 0.260653 0.774217
Si Si7 0.595241 0.839759 0.111988
Si Si8 0.638855 0.240163 0.647481
O O1 0.259164 0.592058 0.458586
O O2 0.000000 0.500000 0.500000
O O3 0.933767 0.615114 0.455832
O O4 0.011172 0.678420 0.905006
O O5 0.543704 0.117878 0.926679
O O6 0.794129 0.011996 0.830846
O O7 0.654617 0.154932 0.327813
O O8 0.500000 0.000000 0.000000
O O9 0.403719 0.376120 0.533465
O O10 0.166153 0.299983 0.673748
O O11 0.256302 0.225628 0.160601
O O12 0.928566 0.843569 0.386859
O O13 0.696232 0.921756 0.355501
O O14 0.000000 0.000000 0.500000
O O15 0.562775 0.329998 0.729687
O O16 0.500000 0.500000 0.000000
O O17 0.832722 0.261900 0.707694
O O18 0.489501 0.779860 0.178693
#
# Coordination Sequence:
#
# PCOD8037594 Si02
#       8
#     2   2   2   2   2   2   2   2
#     4  12  29  51  78 112 149 191 246 302 369 445
#     4  12  26  47  71 105 143 194 250 299 365 431
#     4  12  26  49  81 106 152 195 243 304 368 437
#     4  12  27  42  72 105 144 193 246 299 366 431
#     4  12  28  50  79 113 147 193 245 301 373 441
#     4  12  27  49  73 110 150 191 243 308 364 435
#     4  12  25  48  71 104 147 196 245 306 365 429
#     4  12  27  47  75 105 150 193 244 307 366 439
#
# _framework density 21.686433000000001
#
# number of rings (size 3 to 8) (size 9 to 14) (size 15 to 20)
#    0.000    0.000    5.000    4.125    8.750    2.000 
#    0.000    0.000    0.000    0.000    0.000    0.000 
#    0.000    0.000    0.000    0.000    0.000    0.000 
#
# Total GULP energy -198421.657648 kJ/mol
# GULP energy per Si atom -12401.353603 kJ/mol
# Density = 2.163707 g / cm^3
# Si number density = 21.686433 Si / 1000 Ang^3
#
#
#
# Elastic Constant Matrix: (Units=GPa)
#
#
# Indices 1 2 3 4 5 6 
#
# 1 123.4615 38.7413 39.9120 -0.0801 -8.0443 24.5279
# 2 38.7413 137.7304 55.4997 5.3200 -16.5952 23.1107
# 3 39.9120 55.4997 115.8820 2.3392 -24.1898 -3.2694
# 4 -0.0801 5.3200 2.3392 36.3130 1.9909 -11.3754
# 5 -8.0443 -16.5952 -24.1898 1.9909 49.1554 -3.1132
# 6 24.5279 23.1107 -3.2694 -11.3754 -3.1132 37.5764
#
#
#
# Elastic Compliance Matrix: (Units=1/GPa)
#
#
# Indices 1 2 3 4 5 6 
#
# 1 0.011041 -0.000059 -0.004101 -0.002256 -0.000663 -0.008265
# 2 -0.000059 0.011041 -0.005265 -0.003932 0.000758 -0.008338
# 3 -0.004101 -0.005265 0.013740 0.002174 0.004742 0.008161
# 4 -0.002256 -0.003932 0.002174 0.032345 -0.001064 0.013783
# 5 -0.000663 0.000758 0.004742 -0.001064 0.022992 0.001962
# 6 -0.008265 -0.008338 0.008161 0.013783 0.001962 0.042181
#
#
# Mechanical properties :
#
#
# Convention : Reuss Voigt Hill
#
# Bulk Modulus (GPa) = 58.92047 71.70889 65.31468
# Shear Modulus (GPa) = 31.67625 40.80369 36.23997
#
# Velocity S-wave (km/s) = 3.82599 4.34237 4.09233
# Velocity P-wave (km/s) = 6.83709 7.63411 7.24657
#
# Compressibility (1/GPa) = 0.01697203
#
# Stress axis : x y z
#
# Youngs Moduli (GPa) = 90.56944 90.57073 72.78249
#
# Poissons Ratio (x) = 0.00537 0.29845
# Poissons Ratio (y) = 0.00537 0.38321
# Poissons Ratio (z) = 0.37138 0.47687
#
# Static dielectric constant tensor:
#      x y z
#    x 4.307920 0.054990 -0.032260 
#    y 0.054990 3.919030 0.007450 
#    z -0.032260 0.007450 4.206210 
# 
# 
# High freq. dielectric constant tensor:
#      x y z
#    x 1.870330 0.002440 -0.006630 
#    y 0.002440 1.866380 0.002280 
#    z -0.006630 0.002280 1.868480 
# 
# From -- ./inp_files/49287.got.cif
#   From: 2010.06.25/outbox.cif.g09.slc.cpg/sg2_25_cif.got.tgz:49287.got - 2010.06.27 13:26:56.
