data_PCOD8037389
_publ_section_title
;
Structure prediction by ZEFSAII (Michael W. Deem and Ramdas Pophale) SiO2 
 PCOD8037389
Probable space group: P -1
;
_chemical_formula_sum "Si O2"
_cell_formula_units_Z 14
_cell_length_a 9.195014
_cell_length_b 21.044657
_cell_length_c 20.036130
_cell_angle_alpha 159.699280
_cell_angle_beta 32.344131
_cell_angle_gamma 151.833707
_cell_volume 631.096594
_symmetry_space_group_name_H-M "P -1"
_symmetry_group_IT_number 2
_symmetry_cell_setting 'triclinic'
loop_
_space_group_symop_operation_xyz
x,y,z
-x,-y,-z
loop_
_atom_site_type_symbol
_atom_site_label
_atom_site_fract_x
_atom_site_fract_y
_atom_site_fract_z
Si Si1 0.148872 0.070063 0.584914
Si Si2 0.323255 0.504891 0.008637
Si Si3 0.342813 0.053988 0.751581
Si Si4 0.671117 0.385820 0.187321
Si Si5 0.688600 0.999867 0.136603
Si Si6 0.384985 0.169096 0.215777
Si Si7 0.435382 0.257736 0.435762
O O1 0.234562 0.309280 0.801098
O O2 0.459876 0.051206 0.458281
O O3 0.000000 0.000000 0.500000
O O4 0.901392 0.924161 0.591529
O O5 0.500000 0.500000 0.000000
O O6 0.538068 0.712087 0.088501
O O7 0.033837 0.522255 0.167692
O O8 0.410656 0.067340 0.816549
O O9 0.979490 0.920647 0.745851
O O10 0.584810 0.351749 0.265472
O O11 0.513672 0.512932 0.338638
O O12 0.568467 0.164925 0.975123
O O13 0.700260 0.220843 0.332729
O O14 0.000000 0.000000 0.000000
O O15 0.464382 0.265550 0.352816
O O16 0.500000 0.000000 0.000000
#
# Coordination Sequence:
#
# PCOD8037389 Si02
#       7
#     2   2   2   2   2   2   2
#     4  12  25  46  71 106 145 185 235 299 361 421
#     4  12  27  45  74 108 142 188 240 293 359 429
#     4  12  26  44  76 103 140 185 240 290 358 430
#     4  12  25  45  73 101 141 188 236 290 360 417
#     4  12  25  48  70 103 142 188 236 293 355 431
#     4  12  24  49  70 100 146 190 232 297 352 423
#     4  12  25  44  73 100 144 183 237 294 354 422
#
# _framework density 22.183609000000001
#
# number of rings (size 3 to 8) (size 9 to 14) (size 15 to 20)
#    0.000    0.000    7.143    2.143    4.000    2.857 
#    5.143    0.000    0.000    0.000    0.000    0.000 
#    0.000    0.000    0.000    0.000    0.000    0.000 
#
# Total GULP energy -173595.666220 kJ/mol
# GULP energy per Si atom -12399.690444 kJ/mol
# Density = 2.213312 g / cm^3
# Si number density = 22.183609 Si / 1000 Ang^3
#
#
#
# Elastic Constant Matrix: (Units=GPa)
#
#
# Indices 1 2 3 4 5 6 
#
# 1 119.6854 23.0187 38.2457 -2.7237 -11.4667 -19.3617
# 2 23.0187 69.2694 38.5225 -12.2488 -7.8940 -15.1624
# 3 38.2457 38.5225 140.2609 -5.2761 -33.2624 -7.1408
# 4 -2.7237 -12.2488 -5.2761 43.1467 2.6679 -12.8455
# 5 -11.4667 -7.8940 -33.2624 2.6679 45.4508 -4.1682
# 6 -19.3617 -15.1624 -7.1408 -12.8455 -4.1682 42.5575
#
#
#
# Elastic Compliance Matrix: (Units=1/GPa)
#
#
# Indices 1 2 3 4 5 6 
#
# 1 0.010013 -0.000902 -0.001891 0.001393 0.001313 0.004466
# 2 -0.000902 0.020560 -0.004606 0.007730 0.000298 0.008504
# 3 -0.001891 -0.004606 0.010367 -0.000651 0.006316 -0.000340
# 4 0.001393 0.007730 -0.000651 0.028935 0.000626 0.012074
# 5 0.001313 0.000298 0.006316 0.000626 0.027396 0.004636
# 6 0.004466 0.008504 -0.000340 0.012074 0.004636 0.032601
#
#
# Mechanical properties :
#
#
# Convention : Reuss Voigt Hill
#
# Bulk Modulus (GPa) = 38.25523 58.75437 48.50480
# Shear Modulus (GPa) = 32.59779 41.52627 37.06203
#
# Velocity S-wave (km/s) = 3.83750 4.33128 4.09185
# Velocity P-wave (km/s) = 6.07598 7.18027 6.65108
#
# Compressibility (1/GPa) = 0.02614022
#
# Stress axis : x y z
#
# Youngs Moduli (GPa) = 99.86941 48.63747 96.46425
#
# Poissons Ratio (x) = 0.04387 0.18245
# Poissons Ratio (y) = 0.09009 0.44435
# Poissons Ratio (z) = 0.18889 0.22404
#
# Static dielectric constant tensor:
#      x y z
#    x 3.923900 -0.865860 0.592370 
#    y -0.865860 -5.078910 10.467870 
#    z 0.592370 10.467870 -8.095670 
# 
# 
# High freq. dielectric constant tensor:
#      x y z
#    x 1.874000 -0.014650 -0.015280 
#    y -0.014650 1.880160 -0.014540 
#    z -0.015280 -0.014540 1.896680 
# 
# From -- ./inp_files/349677.got.cif
#   From: 2010.06.25/outbox.cif.g09.slc.cpg/sg2_175_cif.got.tgz:349677.got - 2010.06.27 13:26:56.
