data_PCOD8037254
_publ_section_title
;
Structure prediction by ZEFSAII (Michael W. Deem and Ramdas Pophale) SiO2 
 PCOD8037254
Probable space group: P -1
;
_chemical_formula_sum "Si O2"
_cell_formula_units_Z 14
_cell_length_a 11.219992
_cell_length_b 17.751194
_cell_length_c 9.112555
_cell_angle_alpha 50.163763
_cell_angle_beta 71.215246
_cell_angle_gamma 32.201694
_cell_volume 626.160036
_symmetry_space_group_name_H-M "P -1"
_symmetry_group_IT_number 2
_symmetry_cell_setting 'triclinic'
loop_
_space_group_symop_operation_xyz
x,y,z
-x,-y,-z
loop_
_atom_site_type_symbol
_atom_site_label
_atom_site_fract_x
_atom_site_fract_y
_atom_site_fract_z
Si Si1 0.980291 0.431814 0.967769
Si Si2 0.857677 0.121753 0.551469
Si Si3 0.193506 0.611664 0.693968
Si Si4 0.695579 0.608722 0.566755
Si Si5 0.800381 0.191510 0.946345
Si Si6 0.559236 0.860838 0.070245
Si Si7 0.995525 0.254361 0.712450
O O1 0.259549 0.242582 0.012331
O O2 0.754186 0.604660 0.715572
O O3 0.000000 0.500000 0.000000
O O4 0.928698 0.361933 0.151517
O O5 0.839125 0.249892 0.436560
O O6 0.565391 0.278019 0.477454
O O7 0.000000 0.000000 0.500000
O O8 0.063125 0.917857 0.817763
O O9 0.035364 0.687933 0.515050
O O10 0.494648 0.366730 0.854677
O O11 0.681144 0.706632 0.335898
O O12 0.945897 0.374270 0.701145
O O13 0.778225 0.319692 0.746638
O O14 0.000000 0.000000 0.000000
O O15 0.500000 0.000000 0.000000
O O16 0.284034 0.008356 0.929104
#
# Coordination Sequence:
#
# PCOD8037254 Si02
#       7
#     2   2   2   2   2   2   2
#     4  12  30  50  73 106 156 196 240 312 368 436
#     4  12  27  43  75 110 153 189 238 314 376 438
#     4  12  28  47  73 117 152 188 243 309 382 431
#     4  12  26  50  76 107 145 195 254 303 366 439
#     4  12  24  46  73 112 146 190 245 299 373 443
#     4  12  28  49  77 105 141 202 260 291 356 449
#     4  12  25  46  79 107 145 194 248 305 361 442
#
# _framework density 22.358498999999998
#
# number of rings (size 3 to 8) (size 9 to 14) (size 15 to 20)
#    0.000    0.000    5.714    3.429    8.000    2.857 
#    0.000    0.000    0.000    0.000    0.000    0.000 
#    0.000    0.000    0.000    0.000    0.000    0.000 
#
# Total GULP energy -173536.321845 kJ/mol
# GULP energy per Si atom -12395.451560 kJ/mol
# Density = 2.230761 g / cm^3
# Si number density = 22.358499 Si / 1000 Ang^3
#
#
#
# Elastic Constant Matrix: (Units=GPa)
#
#
# Indices 1 2 3 4 5 6 
#
# 1 92.8643 40.2072 40.8424 8.7923 -4.5384 7.2471
# 2 40.2072 134.3734 60.3072 18.2926 -13.7609 13.1006
# 3 40.8424 60.3072 145.6380 17.6072 16.6956 -6.6284
# 4 8.7923 18.2926 17.6072 45.1302 2.5489 -0.7830
# 5 -4.5384 -13.7609 16.6956 2.5489 42.0726 8.3540
# 6 7.2471 13.1006 -6.6284 -0.7830 8.3540 44.0072
#
#
#
# Elastic Compliance Matrix: (Units=1/GPa)
#
#
# Indices 1 2 3 4 5 6 
#
# 1 0.013471 -0.001883 -0.003344 -0.000759 0.002746 -0.002696
# 2 -0.001883 0.011939 -0.005102 -0.002970 0.006977 -0.005390
# 3 -0.003344 -0.005102 0.011134 -0.001117 -0.007399 0.005131
# 4 -0.000759 -0.002970 -0.001117 0.024112 -0.002414 0.001728
# 5 0.002746 0.006977 -0.007399 -0.002414 0.031342 -0.009636
# 6 -0.002696 -0.005390 0.005131 0.001728 -0.009636 0.027405
#
#
# Mechanical properties :
#
#
# Convention : Reuss Voigt Hill
#
# Bulk Modulus (GPa) = 62.94711 72.84325 67.89518
# Shear Modulus (GPa) = 34.39859 41.67660 38.03760
#
# Velocity S-wave (km/s) = 3.92663 4.32211 4.12911
# Velocity P-wave (km/s) = 6.98374 7.58669 7.29145
#
# Compressibility (1/GPa) = 0.01588635
#
# Stress axis : x y z
#
# Youngs Moduli (GPa) = 74.23587 83.75687 89.81844
#
# Poissons Ratio (x) = 0.15769 0.30034
# Poissons Ratio (y) = 0.13976 0.45826
# Poissons Ratio (z) = 0.24823 0.42733
#
# Static dielectric constant tensor:
#      x y z
#    x 4.125570 -0.146980 0.263930 
#    y -0.146980 4.382920 -0.028010 
#    z 0.263930 -0.028010 4.246420 
# 
# 
# High freq. dielectric constant tensor:
#      x y z
#    x 1.892020 -0.004420 0.006490 
#    y -0.004420 1.893650 0.005800 
#    z 0.006490 0.005800 1.896640 
# 
# From -- ./inp_files/26890.got.cif
#   From: 2010.06.25/outbox.cif.g09.slc.cpg/sg2_14_cif.got.tgz:26890.got - 2010.06.27 13:26:56.
