data_PCOD8037978
_publ_section_title
;
Structure prediction by ZEFSAII (Michael W. Deem and Ramdas Pophale) SiO2 
 PCOD8037978
Probable space group: P -1
;
_chemical_formula_sum "Si O2"
_cell_formula_units_Z 14
_cell_length_a 27.000000
_cell_length_b 12.000000
_cell_length_c 12.000000
_cell_angle_alpha 40.000000
_cell_angle_beta 30.000000
_cell_angle_gamma 20.000000
_cell_volume 638.438402
_symmetry_space_group_name_H-M "P -1"
_symmetry_group_IT_number 2
_symmetry_cell_setting 'triclinic'
loop_
_space_group_symop_operation_xyz
x,y,z
-x,-y,-z
loop_
_atom_site_type_symbol
_atom_site_label
_atom_site_fract_x
_atom_site_fract_y
_atom_site_fract_z
Si Si1 0.357472 0.860386 0.768793
Si Si2 0.357331 0.237522 0.396088
Si Si3 0.727066 0.868785 0.041469
Si Si4 0.452263 0.684601 0.347268
Si Si5 0.061101 0.458106 0.531829
Si Si6 0.766250 0.457067 0.833512
Si Si7 0.968472 0.262951 0.178374
O O1 0.505418 0.489079 0.717827
O O2 0.421501 0.944925 0.523628
O O3 0.350867 0.883384 0.899211
O O4 0.133292 0.161677 0.945409
O O5 0.308391 0.332245 0.291249
O O6 0.159115 0.581597 0.582893
O O7 0.532699 0.106544 0.174825
O O8 0.820016 0.553509 0.151527
O O9 0.888008 0.712604 0.766056
O O10 0.500000 0.500000 0.500000
O O11 0.236876 0.061694 0.513931
O O12 0.585165 0.655954 0.103874
O O13 0.126591 0.553687 0.302388
O O14 0.000000 0.500000 0.500000
O O15 0.928812 0.068868 0.796775
#
# Coordination Sequence:
#
# PCOD8037978 Si02
#       7
#     2   2   2   2   2   2   2
#     4  10  21  40  68  94 123 167 213 257 306 370
#     4  11  21  38  65  96 127 162 206 262 312 363
#     4  11  23  41  63  94 129 166 210 255 307 374
#     4  11  24  44  67  92 124 168 211 253 311 377
#     4  12  26  43  63  93 129 165 206 261 316 368
#     4  11  23  42  63  90 124 165 208 258 314 372
#     4  10  20  38  65  95 124 163 207 256 311 368
#
# _framework density 21.928505000000001
#
# number of rings (size 3 to 8) (size 9 to 14) (size 15 to 20)
#    0.000    1.143    0.000    9.429    0.000    4.571 
#    0.000    6.429    0.000    0.000    0.000    0.000 
#    0.000    0.000    0.000    0.000    0.000    0.000 
#
# Total GULP energy -173461.122232 kJ/mol
# GULP energy per Si atom -12390.080159 kJ/mol
# Density = 2.187860 g / cm^3
# Si number density = 21.928505 Si / 1000 Ang^3
#
#
#
# Elastic Constant Matrix: (Units=GPa)
#
#
# Indices 1 2 3 4 5 6 
#
# 1 89.6942 2.5145 53.4327 -9.0573 -8.0334 19.6808
# 2 2.5145 7.2478 43.9262 -3.9229 -20.5140 27.7146
# 3 53.4327 43.9262 137.7717 13.5624 19.3452 4.3584
# 4 -9.0573 -3.9229 13.5624 35.7120 -4.3766 9.5747
# 5 -8.0334 -20.5140 19.3452 -4.3766 33.7880 5.0450
# 6 19.6808 27.7146 4.3584 9.5747 5.0450 25.6773
#
#
#
# Elastic Compliance Matrix: (Units=1/GPa)
#
#
# Indices 1 2 3 4 5 6 
#
# 1 0.011696 -0.009860 -0.001243 0.001556 -0.002562 0.001811
# 2 -0.009860 -0.002923 0.007045 -0.011282 -0.012016 0.016084
# 3 -0.001243 0.007045 0.005343 0.000953 0.002295 -0.008364
# 4 0.001556 -0.011282 0.000953 0.025771 -0.003986 0.001996
# 5 -0.002562 -0.012016 0.002295 -0.003986 0.017996 0.012494
# 6 0.001811 0.016084 -0.008364 0.001996 0.012494 0.018416
#
#
# Mechanical properties :
#
#
# Convention : Reuss Voigt Hill
#
# Bulk Modulus (GPa) = 166.67214 48.27340 107.47277
# Shear Modulus (GPa) = 57.85999 28.02483 42.94241
#
# Velocity S-wave (km/s) = 5.14228 3.57880 4.43006
# Velocity P-wave (km/s) = 10.55601 6.25611 8.67665
#
# Compressibility (1/GPa) = 0.00599980
#
# Stress axis : x y z
#
# Youngs Moduli (GPa) = 85.49777 -342.05701 187.16312
#
# Poissons Ratio (x) = -3.37255 0.23270
# Poissons Ratio (y) = 0.84297 -1.31856
# Poissons Ratio (z) = 0.10630 2.40979
#
# Static dielectric constant tensor:
#      x y z
#    x 3.957040 0.105630 0.356380 
#    y 0.105630 3.646190 0.634390 
#    z 0.356380 0.634390 3.198360 
# 
# 
# High freq. dielectric constant tensor:
#      x y z
#    x 1.852170 0.014020 0.005050 
#    y 0.014020 1.866010 0.010880 
#    z 0.005050 0.010880 1.887850 
# 
# From -- ./inp_files/439521.got.cif
#   From: 2010.06.25/outbox.ucp.g09.slc.cvg/sg2_220_cif.got.tgz:439521.got - 2010.06.28 11:54:26.
