data_PCOD8037708
_publ_section_title
;
Structure prediction by ZEFSAII (Michael W. Deem and Ramdas Pophale) SiO2 
 PCOD8037708
Probable space group: P -1
;
_chemical_formula_sum "Si O2"
_cell_formula_units_Z 10
_cell_length_a 10.042257
_cell_length_b 4.901887
_cell_length_c 20.499917
_cell_angle_alpha 95.129700
_cell_angle_beta 154.563840
_cell_angle_gamma 89.143395
_cell_volume 426.553933
_symmetry_space_group_name_H-M "P -1"
_symmetry_group_IT_number 2
_symmetry_cell_setting 'triclinic'
loop_
_space_group_symop_operation_xyz
x,y,z
-x,-y,-z
loop_
_atom_site_type_symbol
_atom_site_label
_atom_site_fract_x
_atom_site_fract_y
_atom_site_fract_z
Si Si1 0.319902 0.328991 0.748333
Si Si2 0.695886 0.781089 0.110505
Si Si3 0.609377 0.160321 0.616983
Si Si4 0.373993 0.662467 0.584437
Si Si5 0.354734 0.159330 0.159864
O O1 0.255106 0.210913 0.790005
O O2 0.576439 0.613459 0.863868
O O3 0.001822 0.405757 0.577502
O O4 0.426806 0.077248 0.750646
O O5 0.018491 0.804984 0.214995
O O6 0.500000 0.500000 0.000000
O O7 0.500000 0.000000 0.000000
O O8 0.507277 0.542616 0.420963
O O9 0.500000 0.000000 0.500000
O O10 0.466091 0.979234 0.610209
O O11 0.552102 0.646155 0.731491
O O12 0.000000 0.000000 0.000000
#
# Coordination Sequence:
#
# PCOD8037708 Si02
#       5
#     2   2   2   2   2
#     4  12  26  49  74 103 147 191 240 292 359 426
#     4  12  28  45  73 107 148 187 234 296 360 426
#     4  12  26  47  74 108 143 187 238 292 360 427
#     4  12  26  47  77 104 146 187 240 294 353 433
#     4  12  28  47  74 107 144 189 243 299 356 417
#
# _framework density 23.443693
#
# number of rings (size 3 to 8) (size 9 to 14) (size 15 to 20)
#    0.000    0.000    2.000    7.200   11.200    0.000 
#    0.000    0.000    0.000    0.000    0.000    0.000 
#    0.000    0.000    0.000    0.000    0.000    0.000 
#
# Total GULP energy -124015.470308 kJ/mol
# GULP energy per Si atom -12401.547031 kJ/mol
# Density = 2.339033 g / cm^3
# Si number density = 23.443693 Si / 1000 Ang^3
#
#
#
# Elastic Constant Matrix: (Units=GPa)
#
#
# Indices 1 2 3 4 5 6 
#
# 1 94.6854 35.5237 48.6890 -0.4447 12.1034 -14.7981
# 2 35.5237 144.3056 42.5920 3.5181 16.3027 -9.3867
# 3 48.6890 42.5920 136.2974 3.3532 15.0444 -14.1931
# 4 -0.4447 3.5181 3.3532 42.1100 3.1972 6.0822
# 5 12.1034 16.3027 15.0444 3.1972 47.0650 3.1522
# 6 -14.7981 -9.3867 -14.1931 6.0822 3.1522 59.9400
#
#
#
# Elastic Compliance Matrix: (Units=1/GPa)
#
#
# Indices 1 2 3 4 5 6 
#
# 1 0.013893 -0.001915 -0.003939 0.000434 -0.001831 0.002250
# 2 -0.001915 0.008123 -0.001581 -0.000518 -0.001819 0.000573
# 3 -0.003939 -0.001581 0.009548 -0.000727 -0.001522 0.001195
# 4 0.000434 -0.000518 -0.000727 0.024311 -0.001181 -0.002551
# 5 -0.001831 -0.001819 -0.001522 -0.001181 0.023062 -0.002190
# 6 0.002250 0.000573 0.001195 -0.002551 -0.002190 0.017985
#
#
# Mechanical properties :
#
#
# Convention : Reuss Voigt Hill
#
# Bulk Modulus (GPa) = 59.90003 69.87755 64.88879
# Shear Modulus (GPa) = 42.60505 46.38860 44.49683
#
# Velocity S-wave (km/s) = 4.26765 4.45311 4.36136
# Velocity P-wave (km/s) = 7.06327 7.50410 7.28702
#
# Compressibility (1/GPa) = 0.01669448
#
# Stress axis : x y z
#
# Youngs Moduli (GPa) = 71.98006 123.10370 104.72994
#
# Poissons Ratio (x) = 0.23573 0.41251
# Poissons Ratio (y) = 0.13783 0.16560
# Poissons Ratio (z) = 0.28352 0.19465
#
# Static dielectric constant tensor:
#      x y z
#    x 4.548760 0.322550 0.031210 
#    y 0.322550 4.560590 0.092710 
#    z 0.031210 0.092710 4.247450 
# 
# 
# High freq. dielectric constant tensor:
#      x y z
#    x 1.937970 0.003520 0.008720 
#    y 0.003520 1.948230 0.008500 
#    z 0.008720 0.008500 1.931760 
# 
# From -- ./inp_files/16403.got.cif
#   From: 2010.06.25/outbox.cif.g09.slc.cpg/sg2_9_cif.got.tgz:16403.got - 2010.06.27 13:26:56.
