data_PCOD8037652
_publ_section_title
;
Structure prediction by ZEFSAII (Michael W. Deem and Ramdas Pophale) SiO2 
 PCOD8037652
Probable space group: P -1
;
_chemical_formula_sum "Si O2"
_cell_formula_units_Z 12
_cell_length_a 5.439776
_cell_length_b 8.942473
_cell_length_c 20.997672
_cell_angle_alpha 31.793207
_cell_angle_beta 90.170342
_cell_angle_gamma 78.793871
_cell_volume 499.163519
_symmetry_space_group_name_H-M "P -1"
_symmetry_group_IT_number 2
_symmetry_cell_setting 'triclinic'
loop_
_space_group_symop_operation_xyz
x,y,z
-x,-y,-z
loop_
_atom_site_type_symbol
_atom_site_label
_atom_site_fract_x
_atom_site_fract_y
_atom_site_fract_z
Si Si1 0.983482 0.205028 0.639379
Si Si2 0.997001 0.247061 0.287949
Si Si3 0.493986 0.263700 0.357499
Si Si4 0.285024 0.844947 0.223857
Si Si5 0.491928 0.291627 0.134686
Si Si6 0.984077 0.244337 0.965080
O O1 0.000000 0.500000 0.500000
O O2 0.860498 0.304535 0.672874
O O3 0.833573 0.060381 0.641419
O O4 0.243011 0.896683 0.759270
O O5 0.771751 0.170133 0.354046
O O6 0.851052 0.553144 0.133651
O O7 0.218501 0.336267 0.293484
O O8 0.488472 0.566868 0.285015
O O9 0.500000 0.000000 0.500000
O O10 0.414976 0.020345 0.205082
O O11 0.085558 0.089247 0.088460
O O12 0.308495 0.506792 0.111221
O O13 0.500000 0.500000 0.000000
O O14 0.000000 0.000000 0.000000
#
# Coordination Sequence:
#
# PCOD8037652 Si02
#       6
#     2   2   2   2   2   2
#     4  12  28  49  78 110 154 204 260 324 394 472
#     4  12  27  51  76 114 156 205 265 325 389 476
#     4  12  29  50  78 112 160 210 262 325 395 471
#     4  12  27  46  76 111 152 202 259 326 392 466
#     4  12  26  48  78 110 155 207 259 326 395 467
#     4  12  25  49  76 114 152 203 265 322 397 465
#
# _framework density 24.040219
#
# number of rings (size 3 to 8) (size 9 to 14) (size 15 to 20)
#    0.000    0.000    5.000    4.000    7.000    1.333 
#    0.000    0.000    0.000    0.000    0.000    0.000 
#    0.000    0.000    0.000    0.000    0.000    0.000 
#
# Total GULP energy -148666.278348 kJ/mol
# GULP energy per Si atom -12388.856529 kJ/mol
# Density = 2.398550 g / cm^3
# Si number density = 24.040219 Si / 1000 Ang^3
#
#
#
# Elastic Constant Matrix: (Units=GPa)
#
#
# Indices 1 2 3 4 5 6 
#
# 1 78.5013 26.5155 18.5543 8.4819 -13.1072 -3.4641
# 2 26.5155 143.7169 37.1557 -10.3737 -13.6630 8.3316
# 3 18.5543 37.1557 170.3676 17.9061 -29.4762 -2.0646
# 4 8.4819 -10.3737 17.9061 52.5671 -7.7214 -15.0398
# 5 -13.1072 -13.6630 -29.4762 -7.7214 39.1739 -4.0811
# 6 -3.4641 8.3316 -2.0646 -15.0398 -4.0811 28.0732
#
#
#
# Elastic Compliance Matrix: (Units=1/GPa)
#
#
# Indices 1 2 3 4 5 6 
#
# 1 0.014531 -0.002518 -0.000189 -0.001589 0.003760 0.002222
# 2 -0.002518 0.008189 -0.001576 0.002309 0.001131 -0.001456
# 3 -0.000189 -0.001576 0.007222 -0.001903 0.004510 0.000612
# 4 -0.001589 0.002309 -0.001903 0.024864 0.005101 0.013041
# 5 0.003760 0.001131 0.004510 0.005101 0.032401 0.007903
# 6 0.002222 -0.001456 0.000612 0.013041 0.007903 0.044507
#
#
# Mechanical properties :
#
#
# Convention : Reuss Voigt Hill
#
# Bulk Modulus (GPa) = 46.78369 61.89296 54.33832
# Shear Modulus (GPa) = 33.91975 44.65353 39.28664
#
# Velocity S-wave (km/s) = 3.76035 4.31449 4.04692
# Velocity P-wave (km/s) = 6.19326 7.11486 6.67000
#
# Compressibility (1/GPa) = 0.02137497
#
# Stress axis : x y z
#
# Youngs Moduli (GPa) = 68.81646 122.11761 138.47224
#
# Poissons Ratio (x) = 0.30752 0.02616
# Poissons Ratio (y) = 0.17330 0.21828
# Poissons Ratio (z) = 0.01300 0.19250
#
# Static dielectric constant tensor:
#      x y z
#    x 3.073690 -1.591920 -0.513220 
#    y -1.591920 2.557870 -0.265620 
#    z -0.513220 -0.265620 4.554690 
# 
# 
# High freq. dielectric constant tensor:
#      x y z
#    x 1.931250 0.008900 -0.015840 
#    y 0.008900 1.984610 0.005630 
#    z -0.015840 0.005630 1.981810 
# 
# From -- ./inp_files/21997.got.cif
#   From: 2010.06.25/outbox.cif.g09.slc.cpg/sg2_11_cif.got.tgz:21997.got - 2010.06.27 13:26:56.
