data_PCOD8037580
_publ_section_title
;
Structure prediction by ZEFSAII (Michael W. Deem and Ramdas Pophale) SiO2 
 PCOD8037580
Probable space group: P -1
;
_chemical_formula_sum "Si O2"
_cell_formula_units_Z 16
_cell_length_a 14.610532
_cell_length_b 8.390929
_cell_length_c 8.791842
_cell_angle_alpha 83.866078
_cell_angle_beta 139.355104
_cell_angle_gamma 107.100549
_cell_volume 659.231404
_symmetry_space_group_name_H-M "P -1"
_symmetry_group_IT_number 2
_symmetry_cell_setting 'triclinic'
loop_
_space_group_symop_operation_xyz
x,y,z
-x,-y,-z
loop_
_atom_site_type_symbol
_atom_site_label
_atom_site_fract_x
_atom_site_fract_y
_atom_site_fract_z
Si Si1 0.847192 0.857205 0.871214
Si Si2 0.098352 0.145381 0.503980
Si Si3 0.384772 0.724850 0.640310
Si Si4 0.308420 0.286275 0.012784
Si Si5 0.321535 0.061121 0.584305
Si Si6 0.383624 0.653459 0.974363
Si Si7 0.845638 0.499826 0.861634
Si Si8 0.905308 0.374407 0.263552
O O1 0.821677 0.817608 0.023078
O O2 0.704783 0.907210 0.629790
O O3 0.832293 0.681095 0.787177
O O4 0.000000 0.000000 0.000000
O O5 0.163626 0.064625 0.456228
O O6 0.994328 0.258272 0.314424
O O7 0.240472 0.259913 0.762791
O O8 0.000000 0.000000 0.500000
O O9 0.554530 0.785448 0.789284
O O10 0.369509 0.602432 0.781280
O O11 0.282988 0.640512 0.377832
O O12 0.342141 0.880157 0.641359
O O13 0.371699 0.491760 0.084457
O O14 0.460631 0.202279 0.817003
O O15 0.251171 0.730056 0.842448
O O16 0.850289 0.472671 0.050998
O O17 0.000000 0.500000 0.000000
O O18 0.000000 0.500000 0.500000
#
# Coordination Sequence:
#
# PCOD8037580 Si02
#       8
#     2   2   2   2   2   2   2   2
#     4  12  27  51  74 112 155 197 257 327 393 462
#     4  12  26  47  76 111 152 206 260 318 384 454
#     4  12  28  48  77 113 157 202 260 314 387 461
#     4  12  27  48  77 111 152 202 257 319 391 463
#     4  12  28  48  76 111 158 208 257 318 384 461
#     4  12  25  49  78 111 156 199 260 321 383 462
#     4  12  26  47  79 111 152 202 254 318 392 458
#     4  12  25  47  79 115 150 200 258 317 388 467
#
# _framework density 24.270686999999999
#
# number of rings (size 3 to 8) (size 9 to 14) (size 15 to 20)
#    0.000    0.000    3.750    5.250    5.250    2.500 
#    0.000    0.000    0.000    0.000    0.000    0.000 
#    0.000    0.000    0.000    0.000    0.000    0.000 
#
# Total GULP energy -198294.575715 kJ/mol
# GULP energy per Si atom -12393.410982 kJ/mol
# Density = 2.421545 g / cm^3
# Si number density = 24.270687 Si / 1000 Ang^3
#
#
#
# Elastic Constant Matrix: (Units=GPa)
#
#
# Indices 1 2 3 4 5 6 
#
# 1 137.2365 47.9309 42.5264 -1.2816 16.5264 -0.1851
# 2 47.9309 129.2664 35.1524 -4.1945 6.5612 1.6727
# 3 42.5264 35.1524 146.1082 -2.1290 -1.5627 7.6964
# 4 -1.2816 -4.1945 -2.1290 33.1462 -3.9857 3.6573
# 5 16.5264 6.5612 -1.5627 -3.9857 47.7710 -9.2039
# 6 -0.1851 1.6727 7.6964 3.6573 -9.2039 40.8878
#
#
#
# Elastic Compliance Matrix: (Units=1/GPa)
#
#
# Indices 1 2 3 4 5 6 
#
# 1 0.009228 -0.002725 -0.002064 -0.000465 -0.002939 -0.000078
# 2 -0.002725 0.009176 -0.001389 0.000958 -0.000339 -0.000288
# 3 -0.002064 -0.001389 0.007863 0.000504 0.000961 -0.001261
# 4 -0.000465 0.000958 0.000504 0.030830 0.002154 -0.002409
# 5 -0.002939 -0.000339 0.000961 0.002154 0.023139 0.004836
# 6 -0.000078 -0.000288 -0.001261 -0.002409 0.004836 0.026010
#
#
# Mechanical properties :
#
#
# Convention : Reuss Voigt Hill
#
# Bulk Modulus (GPa) = 71.88892 73.75893 72.82392
# Shear Modulus (GPa) = 40.57130 43.49444 42.03287
#
# Velocity S-wave (km/s) = 4.09298 4.23786 4.16605
# Velocity P-wave (km/s) = 7.21253 7.37578 7.29461
#
# Compressibility (1/GPa) = 0.01391035
#
# Stress axis : x y z
#
# Youngs Moduli (GPa) = 108.37003 108.97859 127.17253
#
# Poissons Ratio (x) = 0.29697 0.26252
# Poissons Ratio (y) = 0.29532 0.17665
# Poissons Ratio (z) = 0.22371 0.15137
#
# Static dielectric constant tensor:
#      x y z
#    x 4.363230 -0.157100 -0.011930 
#    y -0.157100 4.435570 -0.401870 
#    z -0.011930 -0.401870 4.950060 
# 
# 
# High freq. dielectric constant tensor:
#      x y z
#    x 1.978670 -0.000430 0.005050 
#    y -0.000430 1.957340 -0.010800 
#    z 0.005050 -0.010800 1.978180 
# 
# From -- ./inp_files/298628.got.cif
#   From: 2010.06.25/outbox.cif.g09.slc.cpg/sg2_150_cif.got.tgz:298628.got - 2010.06.27 13:26:56.
