data_PCOD8037333
_publ_section_title
;
Structure prediction by ZEFSAII (Michael W. Deem and Ramdas Pophale) SiO2 
 PCOD8037333
Probable space group: P -1
;
_chemical_formula_sum "Si O2"
_cell_formula_units_Z 14
_cell_length_a 11.648712
_cell_length_b 15.206527
_cell_length_c 8.990223
_cell_angle_alpha 131.433539
_cell_angle_beta 59.259939
_cell_angle_gamma 151.550430
_cell_volume 557.519215
_symmetry_space_group_name_H-M "P -1"
_symmetry_group_IT_number 2
_symmetry_cell_setting 'triclinic'
loop_
_space_group_symop_operation_xyz
x,y,z
-x,-y,-z
loop_
_atom_site_type_symbol
_atom_site_label
_atom_site_fract_x
_atom_site_fract_y
_atom_site_fract_z
Si Si1 0.325188 0.276767 0.937047
Si Si2 0.919014 0.158386 0.129122
Si Si3 0.734671 0.523393 0.173478
Si Si4 0.224934 0.830939 0.478608
Si Si5 0.023008 0.591633 0.831055
Si Si6 0.819389 0.016013 0.546297
Si Si7 0.521482 0.213240 0.206911
O O1 0.242400 0.119675 0.695120
O O2 0.500000 0.500000 0.000000
O O3 0.475467 0.338213 0.048600
O O4 0.078176 0.158186 0.020362
O O5 0.857480 0.128671 0.308363
O O6 0.051835 0.369981 0.204734
O O7 0.668674 0.963083 0.988391
O O8 0.681214 0.439807 0.285186
O O9 0.891697 0.764802 0.341071
O O10 0.905101 0.549872 0.015021
O O11 0.076658 0.607392 0.370552
O O12 0.500000 0.000000 0.500000
O O13 0.193862 0.860056 0.366882
O O14 0.315006 0.782318 0.865204
O O15 0.625033 0.851527 0.622435
#
# Coordination Sequence:
#
# PCOD8037333 Si02
#       7
#     2   2   2   2   2   2   2
#     4  12  28  53  81 110 163 207 268 317 384 471
#     4  12  27  48  78 115 151 215 255 324 394 460
#     4  12  27  52  80 115 160 208 259 326 388 465
#     4  12  27  46  78 117 160 198 261 326 394 469
#     4  12  24  47  78 117 155 200 260 325 398 463
#     4  12  28  52  77 119 154 209 262 325 388 462
#     4  12  26  47  81 113 156 200 263 324 399 459
#
# _framework density 25.111242000000001
#
# number of rings (size 3 to 8) (size 9 to 14) (size 15 to 20)
#    0.000    0.000    4.286    4.714    4.000    4.571 
#    0.000    2.143    0.000    0.000    0.000    0.000 
#    0.000    0.000    0.000    0.000    0.000    0.000 
#
# Total GULP energy -173534.678065 kJ/mol
# GULP energy per Si atom -12395.334148 kJ/mol
# Density = 2.505409 g / cm^3
# Si number density = 25.111242 Si / 1000 Ang^3
#
#
#
# Elastic Constant Matrix: (Units=GPa)
#
#
# Indices 1 2 3 4 5 6 
#
# 1 119.7152 44.1014 42.0175 -9.2272 2.4993 9.8004
# 2 44.1014 131.9217 59.5749 -25.1603 -2.6913 1.0311
# 3 42.0175 59.5749 145.9256 -0.9830 4.3585 10.8858
# 4 -9.2272 -25.1603 -0.9830 38.5966 0.0173 15.4594
# 5 2.4993 -2.6913 4.3585 0.0173 28.8240 0.0405
# 6 9.8004 1.0311 10.8858 15.4594 0.0405 49.2804
#
#
#
# Elastic Compliance Matrix: (Units=1/GPa)
#
#
# Indices 1 2 3 4 5 6 
#
# 1 0.010140 -0.002232 -0.001814 0.001774 -0.000811 -0.002125
# 2 -0.002232 0.011599 -0.004006 0.007423 0.001880 -0.001244
# 3 -0.001814 -0.004006 0.009099 -0.002500 -0.001590 -0.000780
# 4 0.001774 0.007423 -0.002500 0.035559 0.000912 -0.011112
# 5 -0.000811 0.001880 -0.001590 0.000912 0.035179 0.000158
# 6 -0.002125 -0.001244 -0.000780 -0.011112 0.000158 0.024399
#
#
# Mechanical properties :
#
#
# Convention : Reuss Voigt Hill
#
# Bulk Modulus (GPa) = 67.86732 76.54999 72.20866
# Shear Modulus (GPa) = 34.01592 40.13145 37.07369
#
# Velocity S-wave (km/s) = 3.68449 4.00202 3.84654
# Velocity P-wave (km/s) = 6.72205 7.20454 6.96748
#
# Compressibility (1/GPa) = 0.01473463
#
# Stress axis : x y z
#
# Youngs Moduli (GPa) = 98.62254 86.21082 109.89802
#
# Poissons Ratio (x) = 0.19244 0.19930
# Poissons Ratio (y) = 0.22015 0.44027
# Poissons Ratio (z) = 0.17886 0.34537
#
# Static dielectric constant tensor:
#      x y z
#    x 5.410890 -0.050480 0.148210 
#    y -0.050480 5.039700 0.161940 
#    z 0.148210 0.161940 4.225420 
# 
# 
# High freq. dielectric constant tensor:
#      x y z
#    x 2.008860 -0.002720 0.010780 
#    y -0.002720 2.025040 0.009400 
#    z 0.010780 0.009400 1.997900 
# 
# From -- ./inp_files/274316.got.cif
#   From: 2010.06.25/outbox.cif.g09.slc.cpg/sg2_138_cif.got.tgz:274316.got - 2010.06.27 13:26:56.
