data_PCOD8037620
_publ_section_title
;
Structure prediction by ZEFSAII (Michael W. Deem and Ramdas Pophale) SiO2 
 PCOD8037620
Probable space group: P -1
;
_chemical_formula_sum "Si O2"
_cell_formula_units_Z 14
_cell_length_a 9.009565
_cell_length_b 8.926131
_cell_length_c 11.527549
_cell_angle_alpha 118.884718
_cell_angle_beta 114.707586
_cell_angle_gamma 108.597258
_cell_volume 557.359078
_symmetry_space_group_name_H-M "P -1"
_symmetry_group_IT_number 2
_symmetry_cell_setting 'triclinic'
loop_
_space_group_symop_operation_xyz
x,y,z
-x,-y,-z
loop_
_atom_site_type_symbol
_atom_site_label
_atom_site_fract_x
_atom_site_fract_y
_atom_site_fract_z
Si Si1 0.333135 0.737898 0.507101
Si Si2 0.791656 0.699786 0.589639
Si Si3 0.179670 0.976702 0.647747
Si Si4 0.561221 0.844791 0.974170
Si Si5 0.420636 0.393118 0.727299
Si Si6 0.220389 0.013081 0.138823
Si Si7 0.843877 0.509249 0.875776
O O1 0.231957 0.510983 0.459494
O O2 0.584438 0.935877 0.701708
O O3 0.288736 0.691650 0.337976
O O4 0.199950 0.811788 0.527914
O O5 0.577527 0.621593 0.421188
O O6 0.845049 0.851810 0.774128
O O7 0.952100 0.829618 0.582304
O O8 0.353816 0.118314 0.856792
O O9 0.223247 0.159750 0.639076
O O10 0.382944 0.570898 0.807491
O O11 0.725080 0.914620 0.950027
O O12 0.500000 0.000000 0.000000
O O13 0.655714 0.479431 0.876738
O O14 0.007834 0.753903 0.963707
O O15 0.000000 0.500000 0.000000
#
# Coordination Sequence:
#
# PCOD8037620 Si02
#       7
#     2   2   2   2   2   2   2
#     4  12  25  51  79 111 157 201 264 325 383 462
#     4  12  25  49  79 112 150 208 263 318 393 462
#     4  12  27  46  75 113 160 206 251 324 394 462
#     4  12  25  48  77 112 155 205 263 316 387 463
#     4  12  26  49  76 114 160 203 256 327 389 462
#     4  12  25  49  80 108 150 205 259 319 384 460
#     4  12  29  47  79 117 156 207 260 318 394 466
#
# _framework density 25.118455999999998
#
# number of rings (size 3 to 8) (size 9 to 14) (size 15 to 20)
#    0.000    0.000    4.286    5.143    2.000    4.000 
#    2.571    0.000    0.000    0.000    0.000    0.000 
#    0.000    0.000    0.000    0.000    0.000    0.000 
#
# Total GULP energy -173491.263701 kJ/mol
# GULP energy per Si atom -12392.233122 kJ/mol
# Density = 2.506129 g / cm^3
# Si number density = 25.118456 Si / 1000 Ang^3
#
#
#
# Elastic Constant Matrix: (Units=GPa)
#
#
# Indices 1 2 3 4 5 6 
#
# 1 113.8223 35.4430 28.5768 15.6811 -11.9196 -7.8075
# 2 35.4430 101.3031 45.9681 -21.0773 7.6831 -7.7734
# 3 28.5768 45.9681 -26.1708 60.1124 -73.5284 9.9264
# 4 15.6811 -21.0773 60.1124 7.1042 36.3518 0.2243
# 5 -11.9196 7.6831 -73.5284 36.3518 13.6763 7.3620
# 6 -7.8075 -7.7734 9.9264 0.2243 7.3620 36.1066
#
#
#
# Elastic Compliance Matrix: (Units=1/GPa)
#
#
# Indices 1 2 3 4 5 6 
#
# 1 0.011634 -0.003027 -0.004019 -0.004530 0.000740 0.002846
# 2 -0.003027 0.009659 0.001960 -0.000510 0.003764 0.000122
# 3 -0.004019 0.001960 0.004739 0.010575 -0.007030 -0.000382
# 4 -0.004530 -0.000510 0.010575 0.018105 0.008178 -0.005777
# 5 0.000740 0.003764 -0.007030 0.008178 0.011887 0.000429
# 6 0.002846 0.000122 -0.000382 -0.005777 0.000429 0.028391
#
#
# Mechanical properties :
#
#
# Convention : Reuss Voigt Hill
#
# Bulk Modulus (GPa) = 63.05515 45.43674 54.24594
# Shear Modulus (GPa) = 50.06362 16.64186 33.35274
#
# Velocity S-wave (km/s) = 4.46926 2.57677 3.64788
# Velocity P-wave (km/s) = 7.19653 5.19435 6.27580
#
# Compressibility (1/GPa) = 0.01585913
#
# Stress axis : x y z
#
# Youngs Moduli (GPa) = 85.95366 103.53290 211.03371
#
# Poissons Ratio (x) = 0.31339 0.84820
# Poissons Ratio (y) = 0.26018 -0.41363
# Poissons Ratio (z) = 0.34547 -0.20293
#
# Static dielectric constant tensor:
#      x y z
#    x 4.512670 -0.021090 -0.187370 
#    y -0.021090 4.500880 0.146300 
#    z -0.187370 0.146300 4.768150 
# 
# 
# High freq. dielectric constant tensor:
#      x y z
#    x 1.996630 -0.005780 -0.001130 
#    y -0.005780 2.014980 -0.006390 
#    z -0.001130 -0.006390 2.024260 
# 
# From -- ./inp_files/256665.got.cif
#   From: 2010.06.25/outbox.cif.g09.slc.cpg/sg2_129_cif.got.tgz:256665.got - 2010.06.27 13:26:56.
