data_PCOD8037803
_publ_section_title
;
Structure prediction by ZEFSAII (Michael W. Deem and Ramdas Pophale) SiO2 
 PCOD8037803
Probable space group: P -1
;
_chemical_formula_sum "Si O2"
_cell_formula_units_Z 16
_cell_length_a 17.662168
_cell_length_b 9.207507
_cell_length_c 17.854107
_cell_angle_alpha 153.141653
_cell_angle_beta 149.342490
_cell_angle_gamma 33.533252
_cell_volume 640.724834
_symmetry_space_group_name_H-M "P -1"
_symmetry_group_IT_number 2
_symmetry_cell_setting 'triclinic'
loop_
_space_group_symop_operation_xyz
x,y,z
-x,-y,-z
loop_
_atom_site_type_symbol
_atom_site_label
_atom_site_fract_x
_atom_site_fract_y
_atom_site_fract_z
Si Si1 0.900727 0.896342 0.279289
Si Si2 0.574722 0.257049 0.222661
Si Si3 0.400727 0.896342 0.279288
Si Si4 0.671620 0.339383 0.044501
Si Si5 0.050257 0.424107 0.592223
Si Si6 0.550257 0.424107 0.592223
Si Si7 0.925278 0.742952 0.777339
Si Si8 0.171620 0.339383 0.044500
O O1 0.995614 0.630382 0.296902
O O2 0.758734 0.159922 0.321491
O O3 0.828210 0.722505 0.072456
O O4 0.019765 0.075957 0.428066
O O5 0.495613 0.630381 0.296900
O O6 0.541147 0.272225 0.290270
O O7 0.500000 0.000000 0.000000
O O8 0.328209 0.722508 0.072456
O O9 0.519766 0.075956 0.428066
O O10 0.258734 0.159922 0.321492
O O11 0.750000 0.000001 0.000001
O O12 0.500000 0.500000 0.000000
O O13 0.767320 0.607426 0.262127
O O14 0.000000 0.500000 0.500000
O O15 0.958853 0.727776 0.709730
O O16 0.500000 0.500000 0.500000
O O17 0.732680 0.392575 0.737873
O O18 0.000000 0.000000 0.000000
O O19 0.000000 0.500000 0.000000
#
# Coordination Sequence:
#
# PCOD8037803 Si02
#       8
#     2   2   2   2   2   2   2   2
#     4  12  27  51  79 111 154 203 258 312 379 458
#     4  12  27  52  79 111 154 204 254 315 382 453
#     4  12  27  51  79 111 154 203 258 312 379 458
#     4  12  27  48  77 115 157 198 253 318 383 450
#     4  12  28  50  81 117 154 203 255 319 383 454
#     4  12  28  50  81 117 154 203 255 319 383 454
#     4  12  27  52  79 111 154 204 254 315 382 453
#     4  12  27  48  77 115 157 198 253 318 383 450
#
# _framework density 24.971719
#
# number of rings (size 3 to 8) (size 9 to 14) (size 15 to 20)
#    0.000    0.000    5.000    3.750    0.000    3.000 
#    0.000    0.000    0.000    0.000    0.000    0.000 
#    0.000    0.000    0.000    0.000    0.000    0.000 
#
# Total GULP energy -198522.963558 kJ/mol
# GULP energy per Si atom -12407.685222 kJ/mol
# Density = 2.491488 g / cm^3
# Si number density = 24.971719 Si / 1000 Ang^3
#
#
#
# Elastic Constant Matrix: (Units=GPa)
#
#
# Indices 1 2 3 4 5 6 
#
# 1 185.7871 83.8217 75.3644 -19.3554 -10.4815 -7.7206
# 2 83.8217 179.1580 42.4805 -11.5574 12.3635 -17.9177
# 3 75.3644 42.4805 171.6480 -17.9491 14.3196 3.2081
# 4 -19.3554 -11.5574 -17.9491 40.0491 2.9059 6.6231
# 5 -10.4815 12.3635 14.3196 2.9059 72.9190 -6.1517
# 6 -7.7206 -17.9177 3.2081 6.6231 -6.1517 43.2197
#
#
#
# Elastic Compliance Matrix: (Units=1/GPa)
#
#
# Indices 1 2 3 4 5 6 
#
# 1 0.008317 -0.003218 -0.002892 0.001554 0.002285 0.000454
# 2 -0.003218 0.007516 -0.000349 0.000180 -0.001479 0.002329
# 3 -0.002892 -0.000349 0.007644 0.002394 -0.002113 -0.001896
# 4 0.001554 0.000180 0.002394 0.027686 -0.001745 -0.004317
# 5 0.002285 -0.001479 -0.002113 -0.001745 0.014976 0.002351
# 6 0.000454 0.002329 -0.001896 -0.004317 0.002351 0.025321
#
#
# Mechanical properties :
#
#
# Convention : Reuss Voigt Hill
#
# Bulk Modulus (GPa) = 94.69095 104.43624 99.56360
# Shear Modulus (GPa) = 46.34029 53.56599 49.95314
#
# Velocity S-wave (km/s) = 4.31247 4.63651 4.47742
# Velocity P-wave (km/s) = 7.92453 8.40093 8.16620
#
# Compressibility (1/GPa) = 0.01056067
#
# Stress axis : x y z
#
# Youngs Moduli (GPa) = 120.23548 133.04283 130.81997
#
# Poissons Ratio (x) = 0.42808 0.37833
# Poissons Ratio (y) = 0.38687 0.04563
# Poissons Ratio (z) = 0.34772 0.04641
#
# Static dielectric constant tensor:
#      x y z
#    x 5.112130 0.082350 0.108280 
#    y 0.082350 4.397760 -0.021490 
#    z 0.108280 -0.021490 5.146840 
# 
# 
# High freq. dielectric constant tensor:
#      x y z
#    x 2.015060 0.000980 -0.001940 
#    y 0.000980 1.983370 -0.008920 
#    z -0.001940 -0.008920 2.027970 
# 
# From -- ./inp_files/575622.got.cif
#   From: 2010.06.25/outbox.cif.g09.slc.cpg/sg2_288_cif.got.tgz:575622.got - 2010.06.27 13:26:56.
