data_PCOD8037972
_publ_section_title
;
Structure prediction by ZEFSAII (Michael W. Deem and Ramdas Pophale) SiO2 
 PCOD8037972
Probable space group: P -1
;
_chemical_formula_sum "Si O2"
_cell_formula_units_Z 16
_cell_length_a 9.000000
_cell_length_b 30.000000
_cell_length_c 15.000000
_cell_angle_alpha 20.000000
_cell_angle_beta 50.000000
_cell_angle_gamma 40.000000
_cell_volume 833.890543
_symmetry_space_group_name_H-M "P -1"
_symmetry_group_IT_number 2
_symmetry_cell_setting 'triclinic'
loop_
_space_group_symop_operation_xyz
x,y,z
-x,-y,-z
loop_
_atom_site_type_symbol
_atom_site_label
_atom_site_fract_x
_atom_site_fract_y
_atom_site_fract_z
Si Si1 0.589710 0.508489 0.721458
Si Si2 0.844071 0.714405 0.049301
Si Si3 0.176927 0.013958 0.522343
Si Si4 0.351871 0.801560 0.697617
Si Si5 0.501208 0.606231 0.376073
Si Si6 0.245414 0.895003 0.163869
Si Si7 0.002824 0.914633 0.929863
Si Si8 0.658525 0.929820 0.893449
O O1 0.588844 0.499568 0.632008
O O2 0.389567 0.698611 0.470299
O O3 0.862216 0.439051 0.781215
O O4 0.508599 0.396125 0.997915
O O5 0.686483 0.651499 0.205156
O O6 0.755182 0.859927 0.737015
O O7 0.792238 0.796798 0.012268
O O8 0.930488 0.115880 0.366834
O O9 0.377168 0.843946 0.710070
O O10 0.138608 0.969247 0.717438
O O11 0.438286 0.883778 0.445093
O O12 0.500000 0.500000 0.500000
O O13 0.214993 0.767835 0.187668
O O14 0.419682 0.945570 0.980605
O O15 0.185471 0.933084 0.219502
O O16 0.000000 0.000000 0.000000
O O17 0.858264 0.866719 0.015414
#
# Coordination Sequence:
#
# PCOD8037972 Si02
#       8
#     2   2   2   2   2   2   2   2
#     4  11  21  38  61  85 119 154 195 241 291 344
#     4  10  20  38  62  91 113 153 193 244 303 335
#     4   8  16  34  60  84 118 146 190 242 291 348
#     4   8  16  34  61  90 109 146 194 244 297 331
#     4  12  23  34  58  90 123 143 193 252 289 343
#     4  12  24  41  57  82 121 166 197 230 286 353
#     4  11  22  38  58  87 118 158 195 232 289 350
#     4  10  20  40  66  85 115 155 197 241 289 352
#
# _framework density 19.187169999999998
#
# number of rings (size 3 to 8) (size 9 to 14) (size 15 to 20)
#    0.000    1.750    2.500    4.500    1.750    0.500 
#    0.000    7.500    0.000    0.000    0.000    0.000 
#    0.000    0.000    0.000    0.000    0.000    0.000 
#
# Total GULP energy -198243.336263 kJ/mol
# GULP energy per Si atom -12390.208516 kJ/mol
# Density = 1.914350 g / cm^3
# Si number density = 19.187170 Si / 1000 Ang^3
#
#
#
# Elastic Constant Matrix: (Units=GPa)
#
#
# Indices 1 2 3 4 5 6 
#
# 1 105.1526 25.0072 45.3547 -5.4595 -17.7659 -11.1350
# 2 25.0072 64.0721 32.1450 -9.6454 -5.9679 1.5686
# 3 45.3547 32.1450 128.3162 -8.9813 -24.9700 -12.2021
# 4 -5.4595 -9.6454 -8.9813 32.4164 0.3945 -3.2328
# 5 -17.7659 -5.9679 -24.9700 0.3945 34.7847 -3.4164
# 6 -11.1350 1.5686 -12.2021 -3.2328 -3.4164 31.9227
#
#
#
# Elastic Compliance Matrix: (Units=1/GPa)
#
#
# Indices 1 2 3 4 5 6 
#
# 1 0.012544 -0.003316 -0.002231 0.000877 0.004645 0.004271
# 2 -0.003316 0.019452 -0.004094 0.003769 -0.001680 -0.003476
# 3 -0.002231 -0.004094 0.011542 0.001996 0.006890 0.004774
# 4 0.000877 0.003769 0.001996 0.033089 0.002595 0.004512
# 5 0.004645 -0.001680 0.006890 0.002595 0.036585 0.008515
# 6 0.004271 -0.003476 0.004774 0.004512 0.008515 0.036179
#
#
# Mechanical properties :
#
#
# Convention : Reuss Voigt Hill
#
# Bulk Modulus (GPa) = 41.23082 55.83940 48.53511
# Shear Modulus (GPa) = 28.28694 32.82703 30.55698
#
# Velocity S-wave (km/s) = 3.84378 4.14077 3.99504
# Velocity P-wave (km/s) = 6.42144 7.21297 6.82868
#
# Compressibility (1/GPa) = 0.02425370
#
# Stress axis : x y z
#
# Youngs Moduli (GPa) = 79.72058 51.40899 86.63957
#
# Poissons Ratio (x) = 0.17048 0.19333
# Poissons Ratio (y) = 0.26437 0.35474
# Poissons Ratio (z) = 0.17789 0.21049
#
# Static dielectric constant tensor:
#      x y z
#    x 3.673160 -0.076600 -0.170900 
#    y -0.076600 3.360710 0.036600 
#    z -0.170900 0.036600 3.896340 
# 
# 
# High freq. dielectric constant tensor:
#      x y z
#    x 1.757910 -0.000780 -0.012160 
#    y -0.000780 1.720670 0.004300 
#    z -0.012160 0.004300 1.763180 
# 
# From -- ./inp_files/345144.got.cif
#   From: 2010.06.25/outbox.ucp.g09.slc.cvg/sg2_173_cif.got.tgz:345144.got - 2010.06.28 11:54:26.
