data_PCOD8037164
_publ_section_title
;
Structure prediction by ZEFSAII (Michael W. Deem and Ramdas Pophale) SiO2 
 PCOD8037164
Probable space group: P -1
;
_chemical_formula_sum "Si O2"
_cell_formula_units_Z 12
_cell_length_a 16.260632
_cell_length_b 16.740890
_cell_length_c 9.787280
_cell_angle_alpha 137.198279
_cell_angle_beta 43.346321
_cell_angle_gamma 162.581468
_cell_volume 537.053254
_symmetry_space_group_name_H-M "P -1"
_symmetry_group_IT_number 2
_symmetry_cell_setting 'triclinic'
loop_
_space_group_symop_operation_xyz
x,y,z
-x,-y,-z
loop_
_atom_site_type_symbol
_atom_site_label
_atom_site_fract_x
_atom_site_fract_y
_atom_site_fract_z
Si Si1 0.344334 0.481583 0.133285
Si Si2 0.493097 0.896923 0.760866
Si Si3 0.232437 0.233640 0.406553
Si Si4 0.109802 0.355077 0.539748
Si Si5 0.213947 0.016608 0.952567
Si Si6 0.747506 0.216667 0.369124
O O1 0.197954 0.416477 0.353876
O O2 0.561165 0.768727 0.171476
O O3 0.500000 0.500000 0.000000
O O4 0.098356 0.222539 0.006806
O O5 0.325965 0.638245 0.701105
O O6 0.321129 0.784903 0.694669
O O7 0.801058 0.132880 0.641448
O O8 0.500000 0.000000 0.000000
O O9 0.500000 0.500000 0.500000
O O10 0.128806 0.247441 0.454688
O O11 0.313052 0.190560 0.169432
O O12 0.000000 0.000000 0.500000
O O13 0.191907 0.864820 0.842165
O O14 0.000000 0.500000 0.500000
O O15 0.500000 0.000000 0.500000
#
# Coordination Sequence:
#
# PCOD8037164 Si02
#       6
#     2   2   2   2   2   2
#     4  12  24  44  73 111 141 180 237 295 372 427
#     4  12  28  49  74 107 145 198 247 300 362 437
#     4  12  28  46  71 107 146 191 237 295 366 431
#     4  12  26  47  77 103 146 185 241 303 361 434
#     4  12  26  45  74 107 144 187 238 300 360 435
#     4  12  26  48  73 105 145 192 245 298 359 428
#
# _framework density 22.344152999999999
#
# number of rings (size 3 to 8) (size 9 to 14) (size 15 to 20)
#    0.000    0.000    1.667    9.000    7.000    0.000 
#    0.000    0.000    0.000    0.000    0.000    0.000 
#    0.000    0.000    0.000    0.000    0.000    0.000 
#
# Total GULP energy -148839.921273 kJ/mol
# GULP energy per Si atom -12403.326773 kJ/mol
# Density = 2.229330 g / cm^3
# Si number density = 22.344153 Si / 1000 Ang^3
#
#
#
# Elastic Constant Matrix: (Units=GPa)
#
#
# Indices 1 2 3 4 5 6 
#
# 1 96.8409 50.6333 69.1131 0.2606 -6.7626 2.2322
# 2 50.6333 175.5748 57.4793 2.8796 -14.0256 7.7267
# 3 69.1131 57.4793 160.9930 14.9252 -21.3985 5.0697
# 4 0.2606 2.8796 14.9252 48.8257 -1.5999 -2.0206
# 5 -6.7626 -14.0256 -21.3985 -1.5999 30.3038 2.1502
# 6 2.2322 7.7267 5.0697 -2.0206 2.1502 50.1831
#
#
#
# Elastic Compliance Matrix: (Units=1/GPa)
#
#
# Indices 1 2 3 4 5 6 
#
# 1 0.016228 -0.002795 -0.006459 0.002004 -0.002165 0.000534
# 2 -0.002795 0.007034 -0.001013 -0.000065 0.001980 -0.000944
# 3 -0.006459 -0.001013 0.010354 -0.002936 0.005314 -0.000949
# 4 0.002004 -0.000065 -0.002936 0.021398 -0.000605 0.001105
# 5 -0.002165 0.001980 0.005314 -0.000605 0.037321 -0.002369
# 6 0.000534 -0.000944 -0.000949 0.001105 -0.002369 0.020290
#
#
# Mechanical properties :
#
#
# Convention : Reuss Voigt Hill
#
# Bulk Modulus (GPa) = 76.43420 87.54002 81.98711
# Shear Modulus (GPa) = 36.35842 42.94137 39.64990
#
# Velocity S-wave (km/s) = 4.03823 4.38861 4.21706
# Velocity P-wave (km/s) = 7.48499 8.05872 7.77715
#
# Compressibility (1/GPa) = 0.01308315
#
# Stress axis : x y z
#
# Youngs Moduli (GPa) = 61.62032 142.16978 96.57873
#
# Poissons Ratio (x) = 0.39733 0.62383
# Poissons Ratio (y) = 0.17221 0.09780
# Poissons Ratio (z) = 0.39803 0.14396
#
# Static dielectric constant tensor:
#      x y z
#    x 5.107710 0.864680 -0.059570 
#    y 0.864680 5.526860 0.212280 
#    z -0.059570 0.212280 4.159950 
# 
# 
# High freq. dielectric constant tensor:
#      x y z
#    x 1.886140 0.000350 -0.010660 
#    y 0.000350 1.908760 0.005660 
#    z -0.010660 0.005660 1.895620 
# 
# From -- ./inp_files/196021.got.cif
#   From: 2010.06.25/outbox.cif.g09.slc.cpg/sg2_99_cif.got.tgz:196021.got - 2010.06.27 13:26:56.
