data_PCOD8037679
_publ_section_title
;
Structure prediction by ZEFSAII (Michael W. Deem and Ramdas Pophale) SiO2 
 PCOD8037679
Probable space group: P -1
;
_chemical_formula_sum "Si O2"
_cell_formula_units_Z 12
_cell_length_a 4.706417
_cell_length_b 12.710688
_cell_length_c 9.887336
_cell_angle_alpha 108.378345
_cell_angle_beta 64.198391
_cell_angle_gamma 95.140600
_cell_volume 504.565139
_symmetry_space_group_name_H-M "P -1"
_symmetry_group_IT_number 2
_symmetry_cell_setting 'triclinic'
loop_
_space_group_symop_operation_xyz
x,y,z
-x,-y,-z
loop_
_atom_site_type_symbol
_atom_site_label
_atom_site_fract_x
_atom_site_fract_y
_atom_site_fract_z
Si Si1 0.804510 0.920837 0.367134
Si Si2 0.739052 0.211335 0.302162
Si Si3 0.253815 0.536210 0.180804
Si Si4 0.704230 0.934156 0.821744
Si Si5 0.294961 0.779161 0.369898
Si Si6 0.606250 0.447655 0.315511
O O1 0.639833 0.823333 0.277775
O O2 0.500000 0.000000 0.500000
O O3 0.996547 0.130940 0.566440
O O4 0.046649 0.982016 0.250679
O O5 0.507830 0.114015 0.272701
O O6 0.698138 0.244150 0.480808
O O7 0.670576 0.316374 0.263316
O O8 0.100084 0.166961 0.185283
O O9 0.251215 0.668240 0.251083
O O10 0.321989 0.469952 0.278940
O O11 0.899123 0.505252 0.207281
O O12 0.500000 0.500000 0.000000
O O13 0.500000 0.000000 0.000000
O O14 0.500000 0.500000 0.500000
#
# Coordination Sequence:
#
# PCOD8037679 Si02
#       6
#     2   2   2   2   2   2
#     4  12  26  44  74 105 140 188 242 297 353 426
#     4  12  26  45  77 104 141 193 244 293 353 439
#     4  12  28  49  74 112 151 185 238 312 364 423
#     4  12  28  47  68 106 147 186 238 300 362 419
#     4  12  26  44  77 106 140 190 248 290 360 431
#     4  12  26  47  79 108 144 192 248 293 362 439
#
# _framework density 23.782857
#
# number of rings (size 3 to 8) (size 9 to 14) (size 15 to 20)
#    0.000    0.000    3.333    6.000    2.333    4.000 
#    0.000    0.000    0.000    0.000    0.000    0.000 
#    0.000    0.000    0.000    0.000    0.000    0.000 
#
# Total GULP energy -148815.925827 kJ/mol
# GULP energy per Si atom -12401.327152 kJ/mol
# Density = 2.372873 g / cm^3
# Si number density = 23.782857 Si / 1000 Ang^3
#
#
#
# Elastic Constant Matrix: (Units=GPa)
#
#
# Indices 1 2 3 4 5 6 
#
# 1 114.7149 26.5934 21.8433 2.0829 -2.9686 -0.0595
# 2 26.5934 118.1364 43.6730 8.1757 -5.0036 12.5540
# 3 21.8433 43.6730 114.6400 -6.2285 -24.4741 8.3180
# 4 2.0829 8.1757 -6.2285 28.2614 4.7137 -0.9069
# 5 -2.9686 -5.0036 -24.4741 4.7137 36.0988 -4.7195
# 6 -0.0595 12.5540 8.3180 -0.9069 -4.7195 58.8215
#
#
#
# Elastic Compliance Matrix: (Units=1/GPa)
#
#
# Indices 1 2 3 4 5 6 
#
# 1 0.009346 -0.001678 -0.001241 -0.000430 -0.000181 0.000522
# 2 -0.001678 0.010769 -0.004103 -0.003759 -0.001181 -0.001872
# 3 -0.001241 -0.004103 0.012233 0.002761 0.007232 -0.000233
# 4 -0.000430 -0.003759 0.002761 0.037721 -0.003517 0.000711
# 5 -0.000181 -0.001181 0.007232 -0.003517 0.033125 0.001833
# 6 0.000522 -0.001872 -0.000233 0.000711 0.001833 0.017592
#
#
# Mechanical properties :
#
#
# Convention : Reuss Voigt Hill
#
# Bulk Modulus (GPa) = 54.63739 59.07896 56.85818
# Shear Modulus (GPa) = 35.47804 41.66179 38.56992
#
# Velocity S-wave (km/s) = 3.86651 4.18994 4.03147
# Velocity P-wave (km/s) = 6.55412 6.94999 6.75496
#
# Compressibility (1/GPa) = 0.01830248
#
# Stress axis : x y z
#
# Youngs Moduli (GPa) = 106.99650 92.86313 81.74307
#
# Poissons Ratio (x) = 0.15586 0.10147
# Poissons Ratio (y) = 0.17958 0.33540
# Poissons Ratio (z) = 0.13282 0.38103
#
# Static dielectric constant tensor:
#      x y z
#    x 4.682000 -0.249310 0.241460 
#    y -0.249310 4.370350 0.565570 
#    z 0.241460 0.565570 3.844840 
# 
# 
# High freq. dielectric constant tensor:
#      x y z
#    x 1.976190 0.004190 -0.004170 
#    y 0.004190 1.956890 0.011240 
#    z -0.004170 0.011240 1.917810 
# 
# From -- ./inp_files/367133.got.cif
#   From: 2010.06.25/outbox.cif.g09.slc.cpg/sg2_184_cif.got.tgz:367133.got - 2010.06.27 13:26:56.
