data_PCOD8037117
_publ_section_title
;
Structure prediction by ZEFSAII (Michael W. Deem and Ramdas Pophale) SiO2 
 PCOD8037117
Probable space group: P -1
;
_chemical_formula_sum "Si O2"
_cell_formula_units_Z 16
_cell_length_a 8.615816
_cell_length_b 9.061964
_cell_length_c 23.754538
_cell_angle_alpha 149.540166
_cell_angle_beta 128.182927
_cell_angle_gamma 49.552403
_cell_volume 707.080839
_symmetry_space_group_name_H-M "P -1"
_symmetry_group_IT_number 2
_symmetry_cell_setting 'triclinic'
loop_
_space_group_symop_operation_xyz
x,y,z
-x,-y,-z
loop_
_atom_site_type_symbol
_atom_site_label
_atom_site_fract_x
_atom_site_fract_y
_atom_site_fract_z
Si Si1 0.480458 0.272478 0.272515
Si Si2 0.195244 0.882693 0.277817
Si Si3 0.530605 0.326654 0.117246
Si Si4 0.477971 0.286526 0.475795
Si Si5 0.617099 0.590503 0.108476
Si Si6 0.959960 0.439457 0.770606
Si Si7 0.127514 0.219888 0.615427
Si Si8 0.170795 0.753449 0.747576
O O1 0.474074 0.555424 0.404839
O O2 0.253378 0.298128 0.204376
O O3 0.633716 0.287735 0.261928
O O4 0.558327 0.957150 0.220043
O O5 0.357271 0.565477 0.193218
O O6 0.100208 0.834610 0.301216
O O7 0.266735 0.190433 0.400121
O O8 0.011388 0.948854 0.211995
O O9 0.527970 0.462287 0.099707
O O10 0.753384 0.256048 0.173755
O O11 0.500000 0.000000 0.000000
O O12 0.500000 0.500000 0.500000
O O13 0.631983 0.953498 0.391078
O O14 0.869712 0.456398 0.118885
O O15 0.500000 0.500000 0.000000
O O16 0.079044 0.331906 0.704568
O O17 0.076038 0.469008 0.635478
O O18 0.000000 0.000000 0.500000
#
# Coordination Sequence:
#
# PCOD8037117 Si02
#       8
#     2   2   2   2   2   2   2   2
#     4  12  26  47  75 108 150 191 249 302 364 446
#     4  12  27  47  76 108 150 197 241 300 372 437
#     4  12  27  51  76 105 145 188 248 306 367 440
#     4  12  25  44  74 110 151 197 245 298 370 441
#     4  12  28  51  76 108 146 189 248 309 370 441
#     4  12  25  47  75 108 147 192 246 300 372 434
#     4  12  24  43  71 107 149 193 241 297 365 438
#     4  12  26  47  70 107 149 192 244 302 367 437
#
# _framework density 22.628249
#
# number of rings (size 3 to 8) (size 9 to 14) (size 15 to 20)
#    0.000    0.000    6.250    3.000    3.500    2.500 
#    0.000    0.000    0.000    0.000    0.000    0.000 
#    0.000    0.000    0.000    0.000    0.000    0.000 
#
# Total GULP energy -198296.111995 kJ/mol
# GULP energy per Si atom -12393.507000 kJ/mol
# Density = 2.257675 g / cm^3
# Si number density = 22.628249 Si / 1000 Ang^3
#
#
#
# Elastic Constant Matrix: (Units=GPa)
#
#
# Indices 1 2 3 4 5 6 
#
# 1 112.6772 53.5578 57.6805 0.9775 24.4042 14.8848
# 2 53.5578 153.7754 44.7874 -3.2124 9.6833 2.5511
# 3 57.6805 44.7874 95.0234 -0.0399 14.7150 -1.1739
# 4 0.9775 -3.2124 -0.0399 43.8835 1.4055 11.9031
# 5 24.4042 9.6833 14.7150 1.4055 24.3534 0.5428
# 6 14.8848 2.5511 -1.1739 11.9031 0.5428 51.2915
#
#
#
# Elastic Compliance Matrix: (Units=1/GPa)
#
#
# Indices 1 2 3 4 5 6 
#
# 1 0.017244 -0.003038 -0.007300 0.001160 -0.011612 -0.005166
# 2 -0.003038 0.008126 -0.002148 0.000548 0.001074 0.000290
# 3 -0.007300 -0.002148 0.016261 -0.000678 -0.001679 0.002773
# 4 0.001160 0.000548 -0.000678 0.024513 -0.002251 -0.006044
# 5 -0.011612 0.001074 -0.001679 -0.002251 0.053344 0.003236
# 6 -0.005166 0.000290 0.002773 -0.006044 0.003236 0.022413
#
#
# Mechanical properties :
#
#
# Convention : Reuss Voigt Hill
#
# Bulk Modulus (GPa) = 60.03215 74.83637 67.43426
# Shear Modulus (GPa) = 28.99792 37.60238 33.30015
#
# Velocity S-wave (km/s) = 3.58368 4.08087 3.84033
# Velocity P-wave (km/s) = 6.61143 7.43966 7.03774
#
# Compressibility (1/GPa) = 0.01665774
#
# Stress axis : x y z
#
# Youngs Moduli (GPa) = 57.99257 123.06389 61.49543
#
# Poissons Ratio (x) = 0.37391 0.44892
# Poissons Ratio (y) = 0.17620 0.13210
# Poissons Ratio (z) = 0.42335 0.26435
#
# Static dielectric constant tensor:
#      x y z
#    x 4.444170 -0.213180 0.403490 
#    y -0.213180 4.290720 -0.250070 
#    z 0.403490 -0.250070 4.071080 
# 
# 
# High freq. dielectric constant tensor:
#      x y z
#    x 1.906680 0.008470 0.024460 
#    y 0.008470 1.917490 -0.005240 
#    z 0.024460 -0.005240 1.877670 
# 
# From -- ./inp_files/245877.got.cif
#   From: 2010.06.25/outbox.cif.g09.slc.cpg/sg2_123_cif.got.tgz:245877.got - 2010.06.27 13:26:56.
