data_PCOD8037687
_publ_section_title
;
Structure prediction by ZEFSAII (Michael W. Deem and Ramdas Pophale) SiO2 
 PCOD8037687
Probable space group: P -1
;
_chemical_formula_sum "Si O2"
_cell_formula_units_Z 14
_cell_length_a 9.518514
_cell_length_b 8.883519
_cell_length_c 16.379139
_cell_angle_alpha 120.655616
_cell_angle_beta 63.085165
_cell_angle_gamma 149.665890
_cell_volume 601.469003
_symmetry_space_group_name_H-M "P -1"
_symmetry_group_IT_number 2
_symmetry_cell_setting 'triclinic'
loop_
_space_group_symop_operation_xyz
x,y,z
-x,-y,-z
loop_
_atom_site_type_symbol
_atom_site_label
_atom_site_fract_x
_atom_site_fract_y
_atom_site_fract_z
Si Si1 0.851260 0.254572 0.629011
Si Si2 0.670287 0.640520 0.686048
Si Si3 0.625970 0.270552 0.487196
Si Si4 0.559354 0.327570 0.784218
Si Si5 0.863824 0.658102 0.267698
Si Si6 0.237963 0.737994 0.940038
Si Si7 0.940025 0.126938 0.093571
O O1 0.636840 0.217887 0.689385
O O2 0.101984 0.543320 0.583322
O O3 0.981504 0.304818 0.691799
O O4 0.638603 0.916129 0.552285
O O5 0.736770 0.533339 0.583877
O O6 0.586549 0.510832 0.764011
O O7 0.416540 0.508567 0.671956
O O8 0.936541 0.008324 0.726772
O O9 0.500000 0.000000 0.500000
O O10 0.759989 0.527491 0.864407
O O11 0.245557 0.048848 0.823900
O O12 0.757965 0.430106 0.163036
O O13 0.209062 0.883075 0.933303
O O14 0.000000 0.500000 0.000000
O O15 0.500000 0.000000 0.000000
O O16 0.000000 0.000000 0.000000
#
# Coordination Sequence:
#
# PCOD8037687 Si02
#       7
#     2   2   2   2   2   2   2
#     4  12  26  47  78 102 150 197 240 299 363 434
#     4  12  28  45  75 108 148 192 244 300 358 431
#     4  12  26  45  76 111 145 190 252 301 357 420
#     4  12  26  48  75 104 147 193 241 293 363 431
#     4  12  28  48  71 109 148 193 239 296 374 432
#     4  12  28  48  76 105 146 190 237 302 366 432
#     4  12  28  48  75 109 141 187 245 300 360 433
#
# _framework density 23.276344000000002
#
# number of rings (size 3 to 8) (size 9 to 14) (size 15 to 20)
#    0.000    0.000    2.857    6.000   10.000    3.429 
#    0.000    0.000    0.000    0.000    0.000    0.000 
#    0.000    0.000    0.000    0.000    0.000    0.000 
#
# Total GULP energy -173614.302077 kJ/mol
# GULP energy per Si atom -12401.021577 kJ/mol
# Density = 2.322337 g / cm^3
# Si number density = 23.276344 Si / 1000 Ang^3
#
#
#
# Elastic Constant Matrix: (Units=GPa)
#
#
# Indices 1 2 3 4 5 6 
#
# 1 79.8775 33.4898 53.6198 16.0513 -6.9128 0.2070
# 2 33.4898 136.0191 60.0152 2.0517 -7.8199 1.5934
# 3 53.6198 60.0152 131.6436 -0.8948 -5.9159 -10.0260
# 4 16.0513 2.0517 -0.8948 53.3663 8.4332 2.2519
# 5 -6.9128 -7.8199 -5.9159 8.4332 40.1268 3.1895
# 6 0.2070 1.5934 -10.0260 2.2519 3.1895 44.7764
#
#
#
# Elastic Compliance Matrix: (Units=1/GPa)
#
#
# Indices 1 2 3 4 5 6 
#
# 1 0.019650 -0.001229 -0.007453 -0.006478 0.003539 -0.001642
# 2 -0.001229 0.009438 -0.003846 -0.000194 0.001202 -0.001267
# 3 -0.007453 -0.003846 0.012583 0.002629 -0.000964 0.002925
# 4 -0.006478 -0.000194 0.002629 0.021579 -0.005295 -0.000082
# 5 0.003539 0.001202 -0.000964 -0.005295 0.026889 -0.001924
# 6 -0.001642 -0.001267 0.002925 -0.000082 -0.001924 0.023182
#
#
# Mechanical properties :
#
#
# Convention : Reuss Voigt Hill
#
# Bulk Modulus (GPa) = 60.18967 71.30998 65.74983
# Shear Modulus (GPa) = 34.74260 41.01491 37.87876
#
# Velocity S-wave (km/s) = 3.86763 4.20227 4.03842
# Velocity P-wave (km/s) = 6.77197 7.36534 7.07488
#
# Compressibility (1/GPa) = 0.01661415
#
# Stress axis : x y z
#
# Youngs Moduli (GPa) = 50.89067 105.95016 79.47318
#
# Poissons Ratio (x) = 0.13022 0.59234
# Poissons Ratio (y) = 0.06255 0.30566
# Poissons Ratio (z) = 0.37931 0.40749
#
# Static dielectric constant tensor:
#      x y z
#    x 4.524520 0.332250 0.398330 
#    y 0.332250 4.647210 0.563410 
#    z 0.398330 0.563410 5.196140 
# 
# 
# High freq. dielectric constant tensor:
#      x y z
#    x 1.928050 0.010930 0.008380 
#    y 0.010930 1.939020 0.003810 
#    z 0.008380 0.003810 1.933200 
# 
# From -- ./inp_files/312868.got.cif
#   From: 2010.06.25/outbox.cif.g09.slc.cpg/sg2_157_cif.got.tgz:312868.got - 2010.06.27 13:26:56.
