data_PCOD8037684
_publ_section_title
;
Structure prediction by ZEFSAII (Michael W. Deem and Ramdas Pophale) SiO2 
 PCOD8037684
Probable space group: P -1
;
_chemical_formula_sum "Si O2"
_cell_formula_units_Z 12
_cell_length_a 9.690430
_cell_length_b 8.389912
_cell_length_c 14.986033
_cell_angle_alpha 99.683377
_cell_angle_beta 67.107724
_cell_angle_gamma 149.858112
_cell_volume 525.043773
_symmetry_space_group_name_H-M "P -1"
_symmetry_group_IT_number 2
_symmetry_cell_setting 'triclinic'
loop_
_space_group_symop_operation_xyz
x,y,z
-x,-y,-z
loop_
_atom_site_type_symbol
_atom_site_label
_atom_site_fract_x
_atom_site_fract_y
_atom_site_fract_z
Si Si1 0.705801 0.336762 0.728095
Si Si2 0.373907 0.842910 0.614391
Si Si3 0.576627 0.924261 0.036841
Si Si4 0.409030 0.408197 0.274281
Si Si5 0.192776 0.341455 0.958516
Si Si6 0.738424 0.641016 0.386768
O O1 0.647153 0.458473 0.717482
O O2 0.069341 0.662874 0.693973
O O3 0.631554 0.135503 0.651087
O O4 0.493561 0.099481 0.845406
O O5 0.295195 0.581400 0.618554
O O6 0.500000 0.000000 0.500000
O O7 0.356514 0.565546 0.027837
O O8 0.948547 0.236696 0.966105
O O9 0.500000 0.000000 0.000000
O O10 0.524810 0.426711 0.158640
O O11 0.679818 0.648919 0.302618
O O12 0.096055 0.027968 0.356951
O O13 0.000000 0.000000 0.000000
O O14 0.500000 0.500000 0.500000
#
# Coordination Sequence:
#
# PCOD8037684 Si02
#       6
#     2   2   2   2   2   2
#     4  12  26  46  73 105 143 188 235 289 362 418
#     4  12  27  48  74 103 143 183 235 296 361 425
#     4  12  28  46  72 105 150 188 238 293 352 424
#     4  12  26  45  75 104 142 187 240 289 354 421
#     4  12  26  48  72 105 145 192 240 288 351 421
#     4  12  27  48  74 105 140 183 238 298 354 424
#
# _framework density 22.855238
#
# number of rings (size 3 to 8) (size 9 to 14) (size 15 to 20)
#    0.000    0.000    1.667    8.000    9.333    0.000 
#    0.000    0.000    0.000    0.000    0.000    0.000 
#    0.000    0.000    0.000    0.000    0.000    0.000 
#
# Total GULP energy -148925.357388 kJ/mol
# GULP energy per Si atom -12410.446449 kJ/mol
# Density = 2.280322 g / cm^3
# Si number density = 22.855238 Si / 1000 Ang^3
#
#
#
# Elastic Constant Matrix: (Units=GPa)
#
#
# Indices 1 2 3 4 5 6 
#
# 1 126.9413 13.1494 26.6355 -15.7572 5.0285 -8.5369
# 2 13.1494 91.6969 36.7670 -4.1397 -7.8934 0.7599
# 3 26.6355 36.7670 128.2329 -1.7695 -2.9431 -15.0816
# 4 -15.7572 -4.1397 -1.7695 44.4165 7.9958 1.4271
# 5 5.0285 -7.8934 -2.9431 7.9958 36.0371 -7.1127
# 6 -8.5369 0.7599 -15.0816 1.4271 -7.1127 44.1542
#
#
#
# Elastic Compliance Matrix: (Units=1/GPa)
#
#
# Indices 1 2 3 4 5 6 
#
# 1 0.008824 -0.000678 -0.001553 0.003361 -0.002107 0.000739
# 2 -0.000678 0.012659 -0.003575 0.000433 0.002238 -0.001224
# 3 -0.001553 -0.003575 0.009536 -0.000791 0.001021 0.003208
# 4 0.003361 0.000433 -0.000791 0.024886 -0.006244 -0.001438
# 5 -0.002107 0.002238 0.001021 -0.006244 0.031009 0.005100
# 6 0.000739 -0.001224 0.003208 -0.001438 0.005100 0.024776
#
#
# Mechanical properties :
#
#
# Convention : Reuss Voigt Hill
#
# Bulk Modulus (GPa) = 51.53328 55.55278 53.54303
# Shear Modulus (GPa) = 38.52947 42.94284 40.73615
#
# Velocity S-wave (km/s) = 4.11031 4.33934 4.22638
# Velocity P-wave (km/s) = 6.71735 7.03318 6.87708
#
# Compressibility (1/GPa) = 0.01940494
#
# Stress axis : x y z
#
# Youngs Moduli (GPa) = 113.32470 78.99772 104.86663
#
# Poissons Ratio (x) = 0.05358 0.16291
# Poissons Ratio (y) = 0.07686 0.37492
# Poissons Ratio (z) = 0.17604 0.28243
#
# Static dielectric constant tensor:
#      x y z
#    x 4.421170 0.198770 -0.036400 
#    y 0.198770 4.209540 0.164410 
#    z -0.036400 0.164410 4.323670 
# 
# 
# High freq. dielectric constant tensor:
#      x y z
#    x 1.923870 0.005050 -0.001720 
#    y 0.005050 1.913790 0.004040 
#    z -0.001720 0.004040 1.911960 
# 
# From -- ./inp_files/382623.got.cif
#   From: 2010.06.25/outbox.cif.g09.slc.cpg/sg2_192_cif.got.tgz:382623.got - 2010.06.27 13:26:56.
