data_PCOD8037468
_publ_section_title
;
Structure prediction by ZEFSAII (Michael W. Deem and Ramdas Pophale) SiO2 
 PCOD8037468
Probable space group: P -1
;
_chemical_formula_sum "Si O2"
_cell_formula_units_Z 14
_cell_length_a 8.493858
_cell_length_b 9.013112
_cell_length_c 23.701356
_cell_angle_alpha 40.354254
_cell_angle_beta 147.815216
_cell_angle_gamma 127.851609
_cell_volume 623.223553
_symmetry_space_group_name_H-M "P -1"
_symmetry_group_IT_number 2
_symmetry_cell_setting 'triclinic'
loop_
_space_group_symop_operation_xyz
x,y,z
-x,-y,-z
loop_
_atom_site_type_symbol
_atom_site_label
_atom_site_fract_x
_atom_site_fract_y
_atom_site_fract_z
Si Si1 0.164829 0.496208 0.297902
Si Si2 0.989124 0.271162 0.027175
Si Si3 0.287847 0.563255 0.600006
Si Si4 0.799578 0.115218 0.719827
Si Si5 0.281762 0.304500 0.986301
Si Si6 0.417738 0.145575 0.841756
Si Si7 0.791116 0.960448 0.500017
O O1 0.454942 0.441566 0.365530
O O2 0.239277 0.635078 0.336138
O O3 0.055749 0.253897 0.355431
O O4 0.915372 0.645111 0.143631
O O5 0.657334 0.186502 0.951556
O O6 0.216654 0.078178 0.180782
O O7 0.000000 0.500000 0.000000
O O8 0.078873 0.308850 0.978846
O O9 0.365601 0.387785 0.724643
O O10 0.000000 0.500000 0.500000
O O11 0.232764 0.818812 0.532208
O O12 0.536528 0.095447 0.601708
O O13 0.113620 0.071043 0.796357
O O14 0.500000 0.500000 0.000000
O O15 0.457416 0.054180 0.105576
O O16 0.000000 0.000000 0.500000
#
# Coordination Sequence:
#
# PCOD8037468 Si02
#       7
#     2   2   2   2   2   2   2
#     4  12  26  48  71 105 146 185 241 291 357 421
#     4  12  25  45  71 106 145 184 234 289 357 425
#     4  12  26  46  75 101 141 188 238 298 352 420
#     4  12  26  45  75 105 144 188 237 297 355 419
#     4  12  28  44  74 108 144 189 234 294 357 427
#     4  12  25  48  71 109 145 184 240 287 360 422
#     4  12  28  49  73 104 142 190 244 293 354 423
#
# _framework density 22.463847000000001
#
# number of rings (size 3 to 8) (size 9 to 14) (size 15 to 20)
#    0.000    0.000    2.857    6.857    8.000    0.000 
#    0.000    0.000    0.000    0.000    0.000    0.000 
#    0.000    0.000    0.000    0.000    0.000    0.000 
#
# Total GULP energy -173715.627554 kJ/mol
# GULP energy per Si atom -12408.259111 kJ/mol
# Density = 2.241272 g / cm^3
# Si number density = 22.463847 Si / 1000 Ang^3
#
#
#
# Elastic Constant Matrix: (Units=GPa)
#
#
# Indices 1 2 3 4 5 6 
#
# 1 109.6082 35.6183 31.5553 6.9248 10.9853 0.7124
# 2 35.6183 158.7883 35.2198 -7.2285 10.6816 -23.6639
# 3 31.5553 35.2198 73.9036 -20.5837 -8.2840 -6.0531
# 4 6.9248 -7.2285 -20.5837 48.6051 8.2614 0.9573
# 5 10.9853 10.6816 -8.2840 8.2614 39.1645 -5.0107
# 6 0.7124 -23.6639 -6.0531 0.9573 -5.0107 47.0807
#
#
#
# Elastic Compliance Matrix: (Units=1/GPa)
#
#
# Indices 1 2 3 4 5 6 
#
# 1 0.011992 -0.001594 -0.006006 -0.003827 -0.003656 -0.002066
# 2 -0.001594 0.007974 -0.002940 0.000441 -0.002003 0.003432
# 3 -0.006006 -0.002940 0.020501 0.008165 0.005311 0.001648
# 4 -0.003827 0.000441 0.008165 0.025063 -0.002536 0.000550
# 5 -0.003656 -0.002003 0.005311 -0.002536 0.029133 0.002883
# 6 -0.002066 0.003432 0.001648 0.000550 0.002883 0.023504
#
#
# Mechanical properties :
#
#
# Convention : Reuss Voigt Hill
#
# Bulk Modulus (GPa) = 51.58009 60.78746 56.18377
# Shear Modulus (GPa) = 34.31530 42.96383 38.63957
#
# Velocity S-wave (km/s) = 3.91267 4.37805 4.15188
# Velocity P-wave (km/s) = 6.58963 7.25777 6.93175
#
# Compressibility (1/GPa) = 0.01938733
#
# Stress axis : x y z
#
# Youngs Moduli (GPa) = 83.38888 125.41354 48.77806
#
# Poissons Ratio (x) = 0.19992 0.29294
# Poissons Ratio (y) = 0.13293 0.14341
# Poissons Ratio (z) = 0.50080 0.36872
#
# Static dielectric constant tensor:
#      x y z
#    x 4.146580 0.096800 -0.082020 
#    y 0.096800 4.259170 -0.113920 
#    z -0.082020 -0.113920 4.483820 
# 
# 
# High freq. dielectric constant tensor:
#      x y z
#    x 1.895460 0.000920 -0.001600 
#    y 0.000920 1.905170 -0.006920 
#    z -0.001600 -0.006920 1.899420 
# 
# From -- ./inp_files/188814.got.cif
#   From: 2010.06.25/outbox.cif.g09.slc.cpg/sg2_95_cif.got.tgz:188814.got - 2010.06.27 13:26:56.
