data_PCOD8037807
_publ_section_title
;
Structure prediction by ZEFSAII (Michael W. Deem and Ramdas Pophale) SiO2 
 PCOD8037807
Probable space group: P -1
;
_chemical_formula_sum "Si O2"
_cell_formula_units_Z 14
_cell_length_a 14.008207
_cell_length_b 7.974639
_cell_length_c 12.956727
_cell_angle_alpha 34.518802
_cell_angle_beta 40.826567
_cell_angle_gamma 42.213371
_cell_volume 508.699980
_symmetry_space_group_name_H-M "P -1"
_symmetry_group_IT_number 2
_symmetry_cell_setting 'triclinic'
loop_
_space_group_symop_operation_xyz
x,y,z
-x,-y,-z
loop_
_atom_site_type_symbol
_atom_site_label
_atom_site_fract_x
_atom_site_fract_y
_atom_site_fract_z
Si Si1 0.793343 0.273037 0.112687
Si Si2 0.259801 0.143196 0.791660
Si Si3 0.452154 0.426903 0.369777
Si Si4 0.283940 0.991318 0.343285
Si Si5 0.032213 0.248452 0.266174
Si Si6 0.932626 0.867105 0.379859
Si Si7 0.452522 0.747817 0.002015
O O1 0.633146 0.323601 0.275016
O O2 0.799784 0.138561 0.058237
O O3 0.921150 0.001998 0.206465
O O4 0.833768 0.590460 0.929858
O O5 0.386216 0.143361 0.597003
O O6 0.131371 0.481052 0.727496
O O7 0.333227 0.056729 0.890258
O O8 0.382114 0.618786 0.223871
O O9 0.391006 0.645043 0.408900
O O10 0.109232 0.041306 0.411141
O O11 0.238506 0.045674 0.472843
O O12 0.386008 0.208493 0.113308
O O13 0.042097 0.030041 0.269036
O O14 0.000000 0.500000 0.500000
O O15 0.500000 0.500000 0.000000
#
# Coordination Sequence:
#
# PCOD8037807 Si02
#       7
#     2   2   2   2   2   2   2
#     4  12  27  50  80 119 162 213 271 337 406 490
#     4  12  27  51  84 120 167 213 272 336 406 490
#     4  12  27  50  81 117 168 210 270 333 408 486
#     4  12  27  51  78 115 166 207 275 337 406 486
#     4  12  27  53  77 117 165 212 274 339 405 486
#     4  12  29  49  82 117 159 217 275 338 417 480
#     4  12  27  49  81 121 161 216 271 330 409 489
#
# _framework density 27.521134
#
# number of rings (size 3 to 8) (size 9 to 14) (size 15 to 20)
#    0.000    0.000    4.286    3.857    6.000    3.429 
#    0.000    0.000    0.000    0.000    0.000    0.000 
#    0.000    0.000    0.000    0.000    0.000    0.000 
#
# Total GULP energy -173537.351664 kJ/mol
# GULP energy per Si atom -12395.525119 kJ/mol
# Density = 2.745849 g / cm^3
# Si number density = 27.521134 Si / 1000 Ang^3
#
#
#
# Elastic Constant Matrix: (Units=GPa)
#
#
# Indices 1 2 3 4 5 6 
#
# 1 156.6671 42.6542 50.2396 -10.0919 -4.0725 -17.0997
# 2 42.6542 114.1436 10.8447 -13.2549 -13.3288 1.4493
# 3 50.2396 10.8447 94.5409 -5.4521 -1.5222 1.8969
# 4 -10.0919 -13.2549 -5.4521 40.7593 2.7484 1.8536
# 5 -4.0725 -13.3288 -1.5222 2.7484 59.2152 -9.8217
# 6 -17.0997 1.4493 1.8969 1.8536 -9.8217 44.3861
#
#
#
# Elastic Compliance Matrix: (Units=1/GPa)
#
#
# Indices 1 2 3 4 5 6 
#
# 1 0.009098 -0.002905 -0.004543 0.000492 0.000476 0.003879
# 2 -0.002905 0.010328 0.000565 0.002646 0.001819 -0.001188
# 3 -0.004543 0.000565 0.013025 0.000931 -0.000297 -0.002430
# 4 0.000492 0.002646 0.000931 0.025744 -0.000736 -0.001175
# 5 0.000476 0.001819 -0.000297 -0.000736 0.018046 0.004161
# 6 0.003879 -0.001188 -0.002430 -0.001175 0.004161 0.025136
#
#
# Mechanical properties :
#
#
# Convention : Reuss Voigt Hill
#
# Bulk Modulus (GPa) = 53.52330 63.64761 58.58546
# Shear Modulus (GPa) = 41.19552 46.31298 43.75425
#
# Velocity S-wave (km/s) = 3.87314 4.10666 3.99161
# Velocity P-wave (km/s) = 6.28426 6.75746 6.52515
#
# Compressibility (1/GPa) = 0.01868345
#
# Stress axis : x y z
#
# Youngs Moduli (GPa) = 109.91171 96.82812 76.77685
#
# Poissons Ratio (x) = 0.28127 0.34883
# Poissons Ratio (y) = 0.31927 -0.04336
# Poissons Ratio (z) = 0.49938 -0.05468
#
# Static dielectric constant tensor:
#      x y z
#    x 5.579940 -0.153150 -0.185090 
#    y -0.153150 4.814990 -0.167800 
#    z -0.185090 -0.167800 5.850950 
# 
# 
# High freq. dielectric constant tensor:
#      x y z
#    x 2.116620 -0.007810 -0.012880 
#    y -0.007810 2.112250 -0.006880 
#    z -0.012880 -0.006880 2.136750 
# 
# From -- ./inp_files/529217.got.cif
#   From: 2010.06.25/outbox.cif.g09.slc.cpg/sg2_265_cif.got.tgz:529217.got - 2010.06.27 13:26:56.
