data_PCOD8037292
_publ_section_title
;
Structure prediction by ZEFSAII (Michael W. Deem and Ramdas Pophale) SiO2 
 PCOD8037292
Probable space group: P -1
;
_chemical_formula_sum "Si O2"
_cell_formula_units_Z 16
_cell_length_a 15.585547
_cell_length_b 9.078960
_cell_length_c 9.166954
_cell_angle_alpha 74.443022
_cell_angle_beta 77.067349
_cell_angle_gamma 134.769337
_cell_volume 707.456785
_symmetry_space_group_name_H-M "P -1"
_symmetry_group_IT_number 2
_symmetry_cell_setting 'triclinic'
loop_
_space_group_symop_operation_xyz
x,y,z
-x,-y,-z
loop_
_atom_site_type_symbol
_atom_site_label
_atom_site_fract_x
_atom_site_fract_y
_atom_site_fract_z
Si Si1 0.146054 0.966484 0.986798
Si Si2 0.989542 0.181370 0.219777
Si Si3 0.765166 0.309064 0.655779
Si Si4 0.234924 0.000147 0.432070
Si Si5 0.038661 0.912208 0.344805
Si Si6 0.469464 0.853763 0.412651
Si Si7 0.243722 0.771617 0.995274
Si Si8 0.546197 0.469932 0.351461
O O1 0.320942 0.263350 0.862160
O O2 0.074874 0.949319 0.879177
O O3 0.045142 0.881411 0.180827
O O4 0.137748 0.771534 0.026572
O O5 0.872178 0.132526 0.351739
O O6 0.151213 0.490816 0.058014
O O7 0.005896 0.046809 0.342093
O O8 0.808137 0.219693 0.571106
O O9 0.639066 0.224245 0.641882
O O10 0.698974 0.166167 0.876155
O O11 0.909864 0.623284 0.544671
O O12 0.197960 0.089253 0.312942
O O13 0.409253 0.250021 0.348457
O O14 0.391052 0.596663 0.583747
O O15 0.500000 0.000000 0.500000
O O16 0.620832 0.018646 0.226413
O O17 0.500000 0.500000 0.500000
#
# Coordination Sequence:
#
# PCOD8037292 Si02
#       8
#     2   2   2   2   2   2   2   2
#     4  12  26  46  71 105 140 187 231 286 354 415
#     4  12  26  44  73 107 139 180 239 292 346 410
#     4  12  26  48  72 101 146 185 232 286 347 426
#     4  12  24  47  71 102 142 188 229 285 352 414
#     4  12  27  45  73 106 142 183 234 290 349 415
#     4  12  27  46  72 106 138 185 232 287 349 409
#     4  12  26  47  71 105 142 185 230 286 354 418
#     4  12  25  47  73 102 141 183 236 290 348 415
#
# _framework density 22.616222
#
# number of rings (size 3 to 8) (size 9 to 14) (size 15 to 20)
#    0.000    0.000    6.250    3.375    3.500    0.500 
#    2.250    0.000    0.000    0.000    0.000    0.000 
#    0.000    0.000    0.000    0.000    0.000    0.000 
#
# Total GULP energy -198471.931207 kJ/mol
# GULP energy per Si atom -12404.495700 kJ/mol
# Density = 2.256475 g / cm^3
# Si number density = 22.616222 Si / 1000 Ang^3
#
#
#
# Elastic Constant Matrix: (Units=GPa)
#
#
# Indices 1 2 3 4 5 6 
#
# 1 107.1970 23.9178 3.0427 -5.6140 21.4111 -1.6936
# 2 23.9178 88.0172 14.7295 -7.5694 10.4556 -3.9360
# 3 3.0427 14.7295 81.3931 3.9654 4.5392 -3.1123
# 4 -5.6140 -7.5694 3.9654 36.9508 -2.7273 6.8472
# 5 21.4111 10.4556 4.5392 -2.7273 39.8701 7.7720
# 6 -1.6936 -3.9360 -3.1123 6.8472 7.7720 45.8555
#
#
#
# Elastic Compliance Matrix: (Units=1/GPa)
#
#
# Indices 1 2 3 4 5 6 
#
# 1 0.010975 -0.002287 0.000325 0.000558 -0.005504 0.001081
# 2 -0.002287 0.012805 -0.002201 0.002213 -0.001895 0.000856
# 3 0.000325 -0.002201 0.012906 -0.002128 -0.001458 0.001264
# 4 0.000558 0.002213 -0.002128 0.028851 0.002237 -0.004621
# 5 -0.005504 -0.001895 -0.001458 0.002237 0.030000 -0.005883
# 6 0.001081 0.000856 0.001264 -0.004621 -0.005883 0.023694
#
#
# Mechanical properties :
#
#
# Convention : Reuss Voigt Hill
#
# Bulk Modulus (GPa) = 35.26194 39.99857 37.63026
# Shear Modulus (GPa) = 36.49365 40.19642 38.34504
#
# Velocity S-wave (km/s) = 4.02133 4.22041 4.12207
# Velocity P-wave (km/s) = 6.09809 6.43998 6.27137
#
# Compressibility (1/GPa) = 0.02835919
#
# Stress axis : x y z
#
# Youngs Moduli (GPa) = 91.11468 78.09525 77.48561
#
# Poissons Ratio (x) = 0.17858 -0.02515
# Poissons Ratio (y) = 0.20835 0.17056
# Poissons Ratio (z) = -0.02958 0.17190
#
# Static dielectric constant tensor:
#      x y z
#    x 4.482340 0.439630 0.165580 
#    y 0.439630 4.673490 0.157100 
#    z 0.165580 0.157100 4.089760 
# 
# 
# High freq. dielectric constant tensor:
#      x y z
#    x 1.903720 -0.005450 0.012870 
#    y -0.005450 1.899520 0.015170 
#    z 0.012870 0.015170 1.895600 
# 
# From -- ./inp_files/205020.got.cif
#   From: 2010.06.25/outbox.cif.g09.slc.cpg/sg2_103_cif.got.tgz:205020.got - 2010.06.27 13:26:56.
