data_PCOD8037309
_publ_section_title
;
Structure prediction by ZEFSAII (Michael W. Deem and Ramdas Pophale) SiO2 
 PCOD8037309
Probable space group: P -1
;
_chemical_formula_sum "Si O2"
_cell_formula_units_Z 14
_cell_length_a 12.537107
_cell_length_b 10.686214
_cell_length_c 5.371483
_cell_angle_alpha 61.054793
_cell_angle_beta 70.564222
_cell_angle_gamma 56.871464
_cell_volume 525.085650
_symmetry_space_group_name_H-M "P -1"
_symmetry_group_IT_number 2
_symmetry_cell_setting 'triclinic'
loop_
_space_group_symop_operation_xyz
x,y,z
-x,-y,-z
loop_
_atom_site_type_symbol
_atom_site_label
_atom_site_fract_x
_atom_site_fract_y
_atom_site_fract_z
Si Si1 0.997278 0.813457 0.276769
Si Si2 0.307846 0.297322 0.004047
Si Si3 0.534682 0.201294 0.252216
Si Si4 0.935303 0.392015 0.075932
Si Si5 0.249452 0.028018 0.405140
Si Si6 0.229835 0.827333 0.194574
Si Si7 0.406118 0.469770 0.425785
O O1 0.008912 0.706597 0.127984
O O2 0.091232 0.899290 0.090660
O O3 0.844127 0.924756 0.324406
O O4 0.049252 0.721692 0.591135
O O5 0.415603 0.192476 0.225808
O O6 0.211872 0.478725 0.997837
O O7 0.233811 0.190004 0.116326
O O8 0.375821 0.325109 0.683282
O O9 0.482804 0.389688 0.189378
O O10 0.599343 0.075410 0.549019
O O11 0.655472 0.149957 0.029962
O O12 0.000000 0.500000 0.000000
O O13 0.202939 0.918604 0.390055
O O14 0.275456 0.634598 0.347152
O O15 0.500000 0.500000 0.500000
#
# Coordination Sequence:
#
# PCOD8037309 Si02
#       7
#     2   2   2   2   2   2   2
#     4  12  29  50  85 116 159 214 272 329 395 477
#     4  12  27  47  81 110 155 203 269 329 400 468
#     4  12  27  45  77 111 157 204 268 321 407 469
#     4  12  27  52  84 117 157 208 275 332 395 469
#     4  12  29  49  73 115 165 207 260 328 408 479
#     4  12  27  49  77 113 157 211 265 331 395 476
#     4  12  24  47  74 107 147 198 265 321 391 465
#
# _framework density 26.662316000000001
#
# number of rings (size 3 to 8) (size 9 to 14) (size 15 to 20)
#    0.000    0.000    5.714    2.571    6.000    4.000 
#    0.000    0.000    0.000    0.000    0.000    0.000 
#    0.000    0.000    0.000    0.000    0.000    0.000 
#
# Total GULP energy -173453.008070 kJ/mol
# GULP energy per Si atom -12389.500576 kJ/mol
# Density = 2.660163 g / cm^3
# Si number density = 26.662316 Si / 1000 Ang^3
#
#
#
# Elastic Constant Matrix: (Units=GPa)
#
#
# Indices 1 2 3 4 5 6 
#
# 1 120.4907 46.3697 13.0912 10.5216 9.5749 -16.4700
# 2 46.3697 143.8892 21.9736 26.7301 19.3089 -15.8251
# 3 13.0912 21.9736 55.3262 4.9940 -1.0464 5.5456
# 4 10.5216 26.7301 4.9940 39.0660 5.8550 0.3285
# 5 9.5749 19.3089 -1.0464 5.8550 46.8125 -4.1746
# 6 -16.4700 -15.8251 5.5456 0.3285 -4.1746 49.0888
#
#
#
# Elastic Compliance Matrix: (Units=1/GPa)
#
#
# Indices 1 2 3 4 5 6 
#
# 1 0.009888 -0.002419 -0.001595 -0.000717 -0.000734 0.002660
# 2 -0.002419 0.009840 -0.003163 -0.005286 -0.002749 0.002520
# 3 -0.001595 -0.003163 0.020130 -0.000215 0.001780 -0.003676
# 4 -0.000717 -0.005286 -0.000215 0.029693 -0.001593 -0.002254
# 5 -0.000734 -0.002749 0.001780 -0.001593 0.022941 0.000628
# 6 0.002660 0.002520 -0.003676 -0.002254 0.000628 0.022560
#
#
# Mechanical properties :
#
#
# Convention : Reuss Voigt Hill
#
# Bulk Modulus (GPa) = 39.20888 53.61946 46.41417
# Shear Modulus (GPa) = 36.25619 42.87825 39.56722
#
# Velocity S-wave (km/s) = 3.69159 4.01458 3.85647
# Velocity P-wave (km/s) = 5.73656 6.45317 6.10539
#
# Compressibility (1/GPa) = 0.02550442
#
# Stress axis : x y z
#
# Youngs Moduli (GPa) = 101.13211 101.62175 49.67728
#
# Poissons Ratio (x) = 0.24580 0.07923
# Poissons Ratio (y) = 0.24462 0.15714
# Poissons Ratio (z) = 0.16129 0.32146
#
# Static dielectric constant tensor:
#      x y z
#    x 4.953860 -0.528590 -0.005340 
#    y -0.528590 5.385370 -0.363360 
#    z -0.005340 -0.363360 4.944210 
# 
# 
# High freq. dielectric constant tensor:
#      x y z
#    x 2.085280 -0.025880 -0.010250 
#    y -0.025880 2.092690 -0.011040 
#    z -0.010250 -0.011040 2.069110 
# 
# From -- ./inp_files/68345.got.cif
#   From: 2010.06.25/outbox.cif.g09.slc.cpg/sg2_35_cif.got.tgz:68345.got - 2010.06.27 13:26:56.
