data_PCOD8037398
_publ_section_title
;
Structure prediction by ZEFSAII (Michael W. Deem and Ramdas Pophale) SiO2 
 PCOD8037398
Probable space group: P -1
;
_chemical_formula_sum "Si O2"
_cell_formula_units_Z 16
_cell_length_a 14.650539
_cell_length_b 12.446569
_cell_length_c 18.249162
_cell_angle_alpha 30.503469
_cell_angle_beta 151.332271
_cell_angle_gamma 129.950592
_cell_volume 716.290316
_symmetry_space_group_name_H-M "P -1"
_symmetry_group_IT_number 2
_symmetry_cell_setting 'triclinic'
loop_
_space_group_symop_operation_xyz
x,y,z
-x,-y,-z
loop_
_atom_site_type_symbol
_atom_site_label
_atom_site_fract_x
_atom_site_fract_y
_atom_site_fract_z
Si Si1 0.157985 0.579458 0.526649
Si Si2 0.015651 0.743937 0.652709
Si Si3 0.486747 0.919080 0.426456
Si Si4 0.342921 0.255972 0.707333
Si Si5 0.486118 0.409377 0.123404
Si Si6 0.966193 0.919180 0.909685
Si Si7 0.077194 0.428222 0.014375
Si Si8 0.415972 0.594839 0.464974
O O1 0.239066 0.424442 0.603144
O O2 0.352497 0.549353 0.733852
O O3 0.000000 0.500000 0.500000
O O4 0.017824 0.851554 0.242364
O O5 0.832693 0.758192 0.460800
O O6 0.244197 0.555863 0.893732
O O7 0.986882 0.659944 0.762592
O O8 0.000000 0.000000 0.500000
O O9 0.662746 0.726687 0.718602
O O10 0.514775 0.764665 0.463082
O O11 0.546749 0.129739 0.326819
O O12 0.256513 0.016629 0.244757
O O13 0.478687 0.362685 0.696295
O O14 0.500000 0.000000 0.000000
O O15 0.500000 0.500000 0.000000
O O16 0.013223 0.748723 0.972584
O O17 0.158571 0.764892 0.191420
O O18 0.000000 0.500000 0.000000
O O19 0.500000 0.500000 0.500000
#
# Coordination Sequence:
#
# PCOD8037398 Si02
#       8
#     2   2   2   2   2   2   2   2
#     4  12  28  47  76 112 149 198 253 316 381 454
#     4  12  28  48  75 106 155 202 251 312 386 454
#     4  12  25  46  81 106 147 198 256 316 370 445
#     4  12  28  49  72 109 157 201 248 314 386 455
#     4  12  27  48  76 111 149 198 257 311 381 455
#     4  12  24  49  75 107 147 196 261 310 372 448
#     4  12  26  46  77 112 151 194 257 315 377 448
#     4  12  28  46  75 112 150 200 254 315 379 452
#
# _framework density 22.337312000000001
#
# number of rings (size 3 to 8) (size 9 to 14) (size 15 to 20)
#    0.000    0.000    5.000    3.750    8.750    1.000 
#    0.000    0.000    0.000    0.000    0.000    0.000 
#    0.000    0.000    0.000    0.000    0.000    0.000 
#
# Total GULP energy -198425.946743 kJ/mol
# GULP energy per Si atom -12401.621671 kJ/mol
# Density = 2.228647 g / cm^3
# Si number density = 22.337312 Si / 1000 Ang^3
#
#
#
# Elastic Constant Matrix: (Units=GPa)
#
#
# Indices 1 2 3 4 5 6 
#
# 1 147.2326 66.3635 48.2660 -19.1475 -32.4333 -1.1532
# 2 66.3635 179.8782 61.0480 -18.5568 -22.8446 -9.8523
# 3 48.2660 61.0480 151.8535 -7.2577 -29.3320 5.8697
# 4 -19.1475 -18.5568 -7.2577 52.4839 2.8626 1.1691
# 5 -32.4333 -22.8446 -29.3320 2.8626 29.5390 4.6957
# 6 -1.1532 -9.8523 5.8697 1.1691 4.6957 41.1425
#
#
#
# Elastic Compliance Matrix: (Units=1/GPa)
#
#
# Indices 1 2 3 4 5 6 
#
# 1 0.010270 -0.002322 -0.000419 0.002404 0.009039 -0.001308
# 2 -0.002322 0.007481 -0.002148 0.001422 0.000660 0.001917
# 3 -0.000419 -0.002148 0.009103 0.000005 0.007341 -0.002663
# 4 0.002404 0.001422 0.000005 0.020342 0.001833 -0.000380
# 5 0.009039 0.000660 0.007341 0.001833 0.052461 -0.006676
# 6 -0.001308 0.001917 -0.002663 -0.000380 -0.006676 0.025881
#
#
# Mechanical properties :
#
#
# Convention : Reuss Voigt Hill
#
# Bulk Modulus (GPa) = 58.56644 92.25771 75.41208
# Shear Modulus (GPa) = 35.45902 44.85219 40.15561
#
# Velocity S-wave (km/s) = 3.98858 4.48588 4.24452
# Velocity P-wave (km/s) = 6.89114 8.25969 7.60626
#
# Compressibility (1/GPa) = 0.01707462
#
# Stress axis : x y z
#
# Youngs Moduli (GPa) = 97.37479 133.67974 109.85236
#
# Poissons Ratio (x) = 0.31045 0.04605
# Poissons Ratio (y) = 0.22614 0.23594
# Poissons Ratio (z) = 0.04082 0.28712
#
# Static dielectric constant tensor:
#      x y z
#    x 3.919880 -0.082530 -0.224950 
#    y -0.082530 4.602500 0.011470 
#    z -0.224950 0.011470 4.665380 
# 
# 
# High freq. dielectric constant tensor:
#      x y z
#    x 1.881010 -0.009250 -0.004190 
#    y -0.009250 1.906830 -0.000680 
#    z -0.004190 -0.000680 1.898010 
# 
# From -- ./inp_files/314495.got.cif
#   From: 2010.06.25/outbox.cif.g09.slc.cpg/sg2_158_cif.got.tgz:314495.got - 2010.06.27 13:26:56.
