data_PCOD8037820
_publ_section_title
;
Structure prediction by ZEFSAII (Michael W. Deem and Ramdas Pophale) SiO2 
 PCOD8037820
Probable space group: P -1
;
_chemical_formula_sum "Si O2"
_cell_formula_units_Z 10
_cell_length_a 10.984328
_cell_length_b 5.019879
_cell_length_c 8.113081
_cell_angle_alpha 91.888970
_cell_angle_beta 109.043964
_cell_angle_gamma 114.753039
_cell_volume 376.449600
_symmetry_space_group_name_H-M "P -1"
_symmetry_group_IT_number 2
_symmetry_cell_setting 'triclinic'
loop_
_space_group_symop_operation_xyz
x,y,z
-x,-y,-z
loop_
_atom_site_type_symbol
_atom_site_label
_atom_site_fract_x
_atom_site_fract_y
_atom_site_fract_z
Si Si1 0.919561 0.373931 0.134691
Si Si2 0.165398 0.576042 0.494961
Si Si3 0.604925 0.329250 0.991218
Si Si4 0.419488 0.670666 0.395160
Si Si5 0.777560 0.855235 0.266114
O O1 0.014839 0.534645 0.345396
O O2 0.873387 0.022132 0.147191
O O3 0.773740 0.404772 0.077749
O O4 0.000000 0.500000 0.000000
O O5 0.255561 0.545157 0.380545
O O6 0.144715 0.304241 0.601213
O O7 0.245278 0.899462 0.627901
O O8 0.570923 0.367620 0.792750
O O9 0.384423 0.395120 0.877842
O O10 0.500000 0.000000 0.000000
O O11 0.500000 0.500000 0.500000
O O12 0.500000 0.000000 0.500000
#
# Coordination Sequence:
#
# PCOD8037820 Si02
#       5
#     2   2   2   2   2
#     4  12  28  53  85 125 168 214 275 345 405 494
#     4  12  27  52  84 124 163 216 275 336 416 484
#     4  12  30  55  83 122 167 223 277 338 413 488
#     4  12  29  52  79 116 166 217 270 335 407 488
#     4  12  28  52  84 123 166 213 274 343 408 492
#
# _framework density 26.563981999999999
#
# number of rings (size 3 to 8) (size 9 to 14) (size 15 to 20)
#    0.000    0.000    4.000    3.600    8.400    3.200 
#    0.000    1.000    0.000    0.000    0.000    0.000 
#    0.000    0.000    0.000    0.000    0.000    0.000 
#
# Total GULP energy -123931.753669 kJ/mol
# GULP energy per Si atom -12393.175367 kJ/mol
# Density = 2.650352 g / cm^3
# Si number density = 26.563982 Si / 1000 Ang^3
#
#
#
# Elastic Constant Matrix: (Units=GPa)
#
#
# Indices 1 2 3 4 5 6 
#
# 1 111.0848 71.4572 54.0714 -6.3321 -20.5204 -3.5303
# 2 71.4572 209.6413 105.9457 -3.4540 -18.2468 -5.4674
# 3 54.0714 105.9457 236.8672 -14.1306 -13.8013 -0.6226
# 4 -6.3321 -3.4540 -14.1306 63.4159 8.8945 -1.7218
# 5 -20.5204 -18.2468 -13.8013 8.8945 37.0582 -3.2263
# 6 -3.5303 -5.4674 -0.6226 -1.7218 -3.2263 51.8814
#
#
#
# Elastic Compliance Matrix: (Units=1/GPa)
#
#
# Indices 1 2 3 4 5 6 
#
# 1 0.012607 -0.003279 -0.001109 0.000156 0.004987 0.000814
# 2 -0.003279 0.007223 -0.002458 -0.000610 0.001020 0.000552
# 3 -0.001109 -0.002458 0.005634 0.001003 0.000013 -0.000233
# 4 0.000156 -0.000610 0.001003 0.016512 -0.003780 0.000271
# 5 0.004987 0.001020 0.000013 -0.003780 0.031358 0.002272
# 6 0.000814 0.000552 -0.000233 0.000271 0.002272 0.019536
#
#
# Mechanical properties :
#
#
# Convention : Reuss Voigt Hill
#
# Bulk Modulus (GPa) = 84.94242 113.39356 99.16799
# Shear Modulus (GPa) = 45.25456 52.21236 48.73346
#
# Velocity S-wave (km/s) = 4.13195 4.43824 4.28783
# Velocity P-wave (km/s) = 7.40338 8.30925 7.86936
#
# Compressibility (1/GPa) = 0.01177268
#
# Stress axis : x y z
#
# Youngs Moduli (GPa) = 79.31951 138.45198 177.48625
#
# Poissons Ratio (x) = 0.45394 0.19691
# Poissons Ratio (y) = 0.26006 0.43619
# Poissons Ratio (z) = 0.08800 0.34026
#
# Static dielectric constant tensor:
#      x y z
#    x 5.788550 0.154770 -0.321040 
#    y 0.154770 5.363080 0.086700 
#    z -0.321040 0.086700 5.642190 
# 
# 
# High freq. dielectric constant tensor:
#      x y z
#    x 2.096110 0.002140 0.011860 
#    y 0.002140 2.081020 -0.003110 
#    z 0.011860 -0.003110 2.093850 
# 
# From -- ./inp_files/228181.got.cif
#   From: 2010.06.25/outbox.cif.g09.slc.cpg/sg2_115_cif.got.tgz:228181.got - 2010.06.27 13:26:56.
