data_PCOD8037257
_publ_section_title
;
Structure prediction by ZEFSAII (Michael W. Deem and Ramdas Pophale) SiO2 
 PCOD8037257
Probable space group: P -1
;
_chemical_formula_sum "Si O2"
_cell_formula_units_Z 16
_cell_length_a 8.374645
_cell_length_b 9.850717
_cell_length_c 18.350684
_cell_angle_alpha 151.015599
_cell_angle_beta 89.067582
_cell_angle_gamma 90.567166
_cell_volume 733.448213
_symmetry_space_group_name_H-M "P -1"
_symmetry_group_IT_number 2
_symmetry_cell_setting 'triclinic'
loop_
_space_group_symop_operation_xyz
x,y,z
-x,-y,-z
loop_
_atom_site_type_symbol
_atom_site_label
_atom_site_fract_x
_atom_site_fract_y
_atom_site_fract_z
Si Si1 0.312875 0.045661 0.849259
Si Si2 0.094964 0.293200 0.850746
Si Si3 0.773744 0.735773 0.790237
Si Si4 0.280037 0.621111 0.884655
Si Si5 0.184152 0.036647 0.370844
Si Si6 0.396877 0.265245 0.351629
Si Si7 0.359608 0.522434 0.187576
Si Si8 0.868534 0.413379 0.281896
O O1 0.192168 0.071644 0.794911
O O2 0.490336 0.997918 0.794111
O O3 0.268828 0.776503 0.771363
O O4 0.307361 0.323647 0.028344
O O5 0.218061 0.474725 0.888857
O O6 0.976923 0.129080 0.721899
O O7 0.000000 0.500000 0.000000
O O8 0.685853 0.605613 0.659367
O O9 0.737738 0.549882 0.773302
O O10 0.962910 0.739840 0.777435
O O11 0.707233 0.048055 0.948432
O O12 0.453761 0.499449 0.806885
O O13 0.160304 0.555449 0.789098
O O14 0.255456 0.159245 0.353849
O O15 0.134862 0.280329 0.540486
O O16 0.316019 0.839272 0.315328
O O17 0.500000 0.500000 0.500000
#
# Coordination Sequence:
#
# PCOD8037257 Si02
#       8
#     2   2   2   2   2   2   2   2
#     4  12  24  46  74 104 139 187 235 289 351 414
#     4  12  26  43  71 103 144 182 230 289 350 414
#     4  12  26  45  75 105 138 187 240 286 347 421
#     4  12  25  47  73 104 139 187 238 291 347 413
#     4  12  28  48  68 108 144 186 234 289 352 418
#     4  12  26  46  72 104 143 182 230 290 355 413
#     4  12  26  46  76 106 138 183 243 290 342 419
#     4  12  27  46  72 103 145 186 234 289 351 416
#
# _framework density 21.814764
#
# number of rings (size 3 to 8) (size 9 to 14) (size 15 to 20)
#    0.000    0.000    5.000    5.250    1.750    4.500 
#    0.000    0.000    0.000    0.000    0.000    0.000 
#    0.000    0.000    0.000    0.000    0.000    0.000 
#
# Total GULP energy -198567.714088 kJ/mol
# GULP energy per Si atom -12410.482131 kJ/mol
# Density = 2.176511 g / cm^3
# Si number density = 21.814764 Si / 1000 Ang^3
#
#
#
# Elastic Constant Matrix: (Units=GPa)
#
#
# Indices 1 2 3 4 5 6 
#
# 1 95.5861 19.1382 7.4899 -8.1023 -2.4896 -15.8021
# 2 19.1382 107.2250 30.4840 -8.9100 -1.2847 -4.4819
# 3 7.4899 30.4840 74.1433 -10.1305 0.4730 -5.3210
# 4 -8.1023 -8.9100 -10.1305 33.0289 -4.8917 2.5838
# 5 -2.4896 -1.2847 0.4730 -4.8917 32.9143 1.7460
# 6 -15.8021 -4.4819 -5.3210 2.5838 1.7460 46.9018
#
#
#
# Elastic Compliance Matrix: (Units=1/GPa)
#
#
# Indices 1 2 3 4 5 6 
#
# 1 0.011616 -0.001754 0.000110 0.002270 0.000955 0.003598
# 2 -0.001754 0.010931 -0.004146 0.001338 0.000558 -0.000111
# 3 0.000110 -0.004146 0.015769 0.003664 0.000100 0.001224
# 4 0.002270 0.001338 0.003664 0.033134 0.005133 -0.000708
# 5 0.000955 0.000558 0.000100 0.005133 0.031294 -0.001061
# 6 0.003598 -0.000111 0.001224 -0.000708 -0.001061 0.022740
#
#
# Mechanical properties :
#
#
# Convention : Reuss Voigt Hill
#
# Bulk Modulus (GPa) = 37.40214 43.46429 40.43321
# Shear Modulus (GPa) = 34.25214 37.22516 35.73865
#
# Velocity S-wave (km/s) = 3.96679 4.13537 4.05196
# Velocity P-wave (km/s) = 6.17763 6.53981 6.36130
#
# Compressibility (1/GPa) = 0.02673644
#
# Stress axis : x y z
#
# Youngs Moduli (GPa) = 86.08445 91.48129 63.41673
#
# Poissons Ratio (x) = 0.16048 -0.00698
# Poissons Ratio (y) = 0.15101 0.26292
# Poissons Ratio (z) = -0.00947 0.37927
#
# Static dielectric constant tensor:
#      x y z
#    x 3.437300 -0.278550 -0.869520 
#    y -0.278550 4.056680 -0.402520 
#    z -0.869520 -0.402520 2.804940 
# 
# 
# High freq. dielectric constant tensor:
#      x y z
#    x 1.873800 -0.003530 -0.003170 
#    y -0.003530 1.871620 -0.008340 
#    z -0.003170 -0.008340 1.855570 
# 
# From -- ./inp_files/186719.got.cif
#   From: 2010.06.25/outbox.cif.g09.slc.cpg/sg2_94_cif.got.tgz:186719.got - 2010.06.27 13:26:56.
