data_PCOD8037042
_publ_section_title
;
Structure prediction by ZEFSAII (Michael W. Deem and Ramdas Pophale) SiO2 
 PCOD8037042
Probable space group: P -1
;
_chemical_formula_sum "Si O2"
_cell_formula_units_Z 16
_cell_length_a 18.837027
_cell_length_b 9.712032
_cell_length_c 13.187643
_cell_angle_alpha 42.262967
_cell_angle_beta 154.457451
_cell_angle_gamma 128.336710
_cell_volume 690.191548
_symmetry_space_group_name_H-M "P -1"
_symmetry_group_IT_number 2
_symmetry_cell_setting 'triclinic'
loop_
_space_group_symop_operation_xyz
x,y,z
-x,-y,-z
loop_
_atom_site_type_symbol
_atom_site_label
_atom_site_fract_x
_atom_site_fract_y
_atom_site_fract_z
Si Si1 0.581485 0.861159 0.898875
Si Si2 0.729451 0.855621 0.888744
Si Si3 0.755968 0.183808 0.571637
Si Si4 0.876851 0.703084 0.696649
Si Si5 0.884783 0.596880 0.538665
Si Si6 0.923144 0.113087 0.625092
Si Si7 0.754779 0.413664 0.087625
Si Si8 0.507586 0.841809 0.189996
O O1 0.605866 0.952036 0.767493
O O2 0.426772 0.734818 0.756686
O O3 0.537312 0.042926 0.824550
O O4 0.750894 0.708686 0.225829
O O5 0.737976 0.031620 0.722617
O O6 0.675295 0.649896 0.882502
O O7 0.912077 0.783358 0.211754
O O8 0.849507 0.364573 0.634440
O O9 0.865534 0.058717 0.692582
O O10 0.854337 0.715512 0.540485
O O11 0.695663 0.715166 0.509048
O O12 0.960512 0.900981 0.725803
O O13 0.000000 0.500000 0.000000
O O14 0.072312 0.600049 0.742826
O O15 0.782341 0.279970 0.299084
O O16 0.619768 0.320054 0.897827
O O17 0.500000 0.000000 0.000000
#
# Coordination Sequence:
#
# PCOD8037042 Si02
#       8
#     2   2   2   2   2   2   2   2
#     4  12  25  46  76 106 146 199 254 305 364 443
#     4  12  27  45  72 110 152 197 245 310 376 430
#     4  12  26  47  71 105 154 199 243 310 372 436
#     4  12  28  48  79 110 146 194 246 307 375 442
#     4  12  26  46  76 111 148 199 251 301 373 445
#     4  12  23  48  76 100 153 195 251 298 374 443
#     4  12  26  46  76 114 147 191 255 308 361 449
#     4  12  25  51  76 110 147 195 247 305 371 448
#
# _framework density 23.18197
#
# number of rings (size 3 to 8) (size 9 to 14) (size 15 to 20)
#    0.000    0.000    6.250    3.000    5.250    1.000 
#    2.250    1.250    0.000    0.000    0.000    0.000 
#    0.000    0.000    0.000    0.000    0.000    0.000 
#
# Total GULP energy -198441.784022 kJ/mol
# GULP energy per Si atom -12402.611501 kJ/mol
# Density = 2.312921 g / cm^3
# Si number density = 23.181970 Si / 1000 Ang^3
#
#
#
# Elastic Constant Matrix: (Units=GPa)
#
#
# Indices 1 2 3 4 5 6 
#
# 1 162.3892 68.4222 23.6350 -7.9692 7.9428 -16.9821
# 2 68.4222 154.4319 38.7630 2.0950 1.2443 0.1987
# 3 23.6350 38.7630 74.7609 -4.3875 25.8772 6.9836
# 4 -7.9692 2.0950 -4.3875 42.0028 8.5464 3.3909
# 5 7.9428 1.2443 25.8772 8.5464 36.5574 3.0005
# 6 -16.9821 0.1987 6.9836 3.3909 3.0005 36.4170
#
#
#
# Elastic Compliance Matrix: (Units=1/GPa)
#
#
# Indices 1 2 3 4 5 6 
#
# 1 0.008352 -0.003663 -0.000197 0.001898 -0.002319 0.003967
# 2 -0.003663 0.009513 -0.005651 -0.002746 0.005183 -0.000848
# 3 -0.000197 -0.005651 0.023085 0.006475 -0.017319 -0.003664
# 4 0.001898 -0.002746 0.006475 0.027409 -0.011148 -0.001975
# 5 -0.002319 0.005183 -0.017319 -0.011148 0.042568 -0.000258
# 6 0.003967 -0.000848 -0.003664 -0.001975 -0.000258 0.030222
#
#
# Mechanical properties :
#
#
# Convention : Reuss Voigt Hill
#
# Bulk Modulus (GPa) = 45.60358 72.58025 59.09192
# Shear Modulus (GPa) = 29.85427 40.37955 35.11691
#
# Velocity S-wave (km/s) = 3.59252 4.17808 3.89631
# Velocity P-wave (km/s) = 6.07643 7.39270 6.76664
#
# Compressibility (1/GPa) = 0.02192810
#
# Stress axis : x y z
#
# Youngs Moduli (GPa) = 119.73851 105.11833 43.31804
#
# Poissons Ratio (x) = 0.38503 0.00855
# Poissons Ratio (y) = 0.43858 0.24477
# Poissons Ratio (z) = 0.02363 0.59398
#
# Static dielectric constant tensor:
#      x y z
#    x 4.351040 -0.010670 0.177840 
#    y -0.010670 4.311640 0.374970 
#    z 0.177840 0.374970 4.333320 
# 
# 
# High freq. dielectric constant tensor:
#      x y z
#    x 1.930570 -0.005690 0.007270 
#    y -0.005690 1.920400 0.018570 
#    z 0.007270 0.018570 1.921420 
# 
# From -- ./inp_files/298056.got.cif
#   From: 2010.06.25/outbox.cif.g09.slc.cpg/sg2_150_cif.got.tgz:298056.got - 2010.06.27 13:26:56.
