data_PCOD8037605
_publ_section_title
;
Structure prediction by ZEFSAII (Michael W. Deem and Ramdas Pophale) SiO2 
 PCOD8037605
Probable space group: P -1
;
_chemical_formula_sum "Si O2"
_cell_formula_units_Z 16
_cell_length_a 8.641583
_cell_length_b 18.069119
_cell_length_c 9.536899
_cell_angle_alpha 127.258309
_cell_angle_beta 137.109361
_cell_angle_gamma 78.522640
_cell_volume 719.771185
_symmetry_space_group_name_H-M "P -1"
_symmetry_group_IT_number 2
_symmetry_cell_setting 'triclinic'
loop_
_space_group_symop_operation_xyz
x,y,z
-x,-y,-z
loop_
_atom_site_type_symbol
_atom_site_label
_atom_site_fract_x
_atom_site_fract_y
_atom_site_fract_z
Si Si1 0.106731 0.761147 0.309113
Si Si2 0.791005 0.017307 0.464261
Si Si3 0.797401 0.342721 0.256500
Si Si4 0.628861 0.569792 0.293363
Si Si5 0.550163 0.574469 0.748160
Si Si6 0.556424 0.274069 0.721594
Si Si7 0.739697 0.154951 0.191361
Si Si8 0.136037 0.070443 0.301584
O O1 0.133703 0.861463 0.356492
O O2 0.225332 0.703550 0.222836
O O3 0.256936 0.795068 0.596230
O O4 0.811708 0.680951 0.042552
O O5 0.799097 0.990435 0.602237
O O6 0.000000 0.000000 0.500000
O O7 0.520538 0.948409 0.130482
O O8 0.679555 0.394413 0.347134
O O9 0.774594 0.236159 0.185141
O O10 0.087420 0.418059 0.496978
O O11 0.654523 0.326775 0.996756
O O12 0.448152 0.502538 0.219968
O O13 0.629250 0.681506 0.413806
O O14 0.500000 0.500000 0.000000
O O15 0.500000 0.500000 0.500000
O O16 0.401694 0.151758 0.505457
O O17 0.974062 0.126264 0.318777
O O18 0.000000 0.000000 0.000000
#
# Coordination Sequence:
#
# PCOD8037605 Si02
#       8
#     2   2   2   2   2   2   2   2
#     4  12  28  47  73 110 151 192 246 301 366 437
#     4  12  26  47  76 105 151 194 237 298 367 432
#     4  12  25  49  76 103 148 188 241 306 359 432
#     4  12  26  47  77 101 140 193 243 297 362 425
#     4  12  28  48  73 110 146 192 245 303 368 430
#     4  12  27  48  72 109 144 190 244 298 362 431
#     4  12  25  48  74 108 147 194 239 303 366 431
#     4  12  27  46  74 110 147 192 245 293 360 440
#
# _framework density 22.229289000000001
#
# number of rings (size 3 to 8) (size 9 to 14) (size 15 to 20)
#    0.000    0.000    5.000    4.500    7.000    2.500 
#    0.000    0.000    0.000    0.000    0.000    0.000 
#    0.000    0.000    0.000    0.000    0.000    0.000 
#
# Total GULP energy -198423.408982 kJ/mol
# GULP energy per Si atom -12401.463061 kJ/mol
# Density = 2.217869 g / cm^3
# Si number density = 22.229289 Si / 1000 Ang^3
#
#
#
# Elastic Constant Matrix: (Units=GPa)
#
#
# Indices 1 2 3 4 5 6 
#
# 1 128.6068 47.5956 43.5099 1.3551 -2.8918 0.0309
# 2 47.5956 130.5511 54.9413 -2.9173 1.5810 19.0327
# 3 43.5099 54.9413 130.0426 10.0312 -2.7041 10.8459
# 4 1.3551 -2.9173 10.0312 36.2437 4.7771 3.8308
# 5 -2.8918 1.5810 -2.7041 4.7771 46.6169 1.7606
# 6 0.0309 19.0327 10.8459 3.8308 1.7606 43.2216
#
#
#
# Elastic Compliance Matrix: (Units=1/GPa)
#
#
# Indices 1 2 3 4 5 6 
#
# 1 0.009566 -0.002875 -0.002103 -0.000266 0.000529 0.001789
# 2 -0.002875 0.010836 -0.003485 0.002487 -0.000849 -0.004081
# 3 -0.002103 -0.003485 0.010187 -0.003060 0.000922 -0.000786
# 4 -0.000266 0.002487 -0.003060 0.029363 -0.003182 -0.002800
# 5 0.000529 -0.000849 0.000922 -0.003182 0.021910 -0.000468
# 6 0.001789 -0.004081 -0.000786 -0.002800 -0.000468 0.025397
#
#
# Mechanical properties :
#
#
# Convention : Reuss Voigt Hill
#
# Bulk Modulus (GPa) = 73.20483 75.69934 74.45209
# Shear Modulus (GPa) = 38.83817 41.42669 40.13243
#
# Velocity S-wave (km/s) = 4.18444 4.32164 4.25359
# Velocity P-wave (km/s) = 7.50661 7.68309 7.59536
#
# Compressibility (1/GPa) = 0.01366030
#
# Stress axis : x y z
#
# Youngs Moduli (GPa) = 104.54071 92.28892 98.16716
#
# Poissons Ratio (x) = 0.26536 0.20649
# Poissons Ratio (y) = 0.30059 0.34211
# Poissons Ratio (z) = 0.21989 0.32163
#
# Static dielectric constant tensor:
#      x y z
#    x 2.401260 4.006280 -0.484970 
#    y 4.006280 -4.534490 1.162890 
#    z -0.484970 1.162890 3.916600 
# 
# 
# High freq. dielectric constant tensor:
#      x y z
#    x 1.889480 0.007780 0.000460 
#    y 0.007780 1.893990 0.002730 
#    z 0.000460 0.002730 1.881270 
# 
# From -- ./inp_files/38620.got.cif
#   From: 2010.06.25/outbox.cif.g09.slc.cpg/sg2_20_cif.got.tgz:38620.got - 2010.06.27 13:26:56.
