data_PCOD8037573
_publ_section_title
;
Structure prediction by ZEFSAII (Michael W. Deem and Ramdas Pophale) SiO2 
 PCOD8037573
Probable space group: P -1
;
_chemical_formula_sum "Si O2"
_cell_formula_units_Z 14
_cell_length_a 5.171417
_cell_length_b 9.417289
_cell_length_c 17.996755
_cell_angle_alpha 41.398998
_cell_angle_beta 88.380688
_cell_angle_gamma 90.747176
_cell_volume 578.589545
_symmetry_space_group_name_H-M "P -1"
_symmetry_group_IT_number 2
_symmetry_cell_setting 'triclinic'
loop_
_space_group_symop_operation_xyz
x,y,z
-x,-y,-z
loop_
_atom_site_type_symbol
_atom_site_label
_atom_site_fract_x
_atom_site_fract_y
_atom_site_fract_z
Si Si1 0.169423 0.790400 0.445151
Si Si2 0.646237 0.582832 0.587426
Si Si3 0.963711 0.866599 0.978060
Si Si4 0.667605 0.291556 0.075802
Si Si5 0.710364 0.106854 0.757259
Si Si6 0.805367 0.416804 0.174761
Si Si7 0.284486 0.249830 0.317110
O O1 0.431577 0.665898 0.500799
O O2 0.129734 0.856550 0.334220
O O3 0.928825 0.633220 0.531360
O O4 0.186009 0.001331 0.413508
O O5 0.593462 0.328160 0.698156
O O6 0.624165 0.694241 0.623096
O O7 0.210081 0.739865 0.994801
O O8 0.896377 0.031228 0.850181
O O9 0.750158 0.672754 0.071841
O O10 0.000000 0.000000 0.000000
O O11 0.880756 0.330570 0.125265
O O12 0.512744 0.072782 0.184648
O O13 0.500000 0.500000 0.000000
O O14 0.536774 0.291798 0.247682
O O15 0.041399 0.385831 0.241363
#
# Coordination Sequence:
#
# PCOD8037573 Si02
#       7
#     2   2   2   2   2   2   2
#     4  12  26  49  73 109 145 201 259 314 371 455
#     4  12  28  48  74 110 151 195 259 319 380 437
#     4  12  29  47  77 114 158 195 249 319 390 462
#     4  12  26  49  76 110 153 207 257 305 377 468
#     4  12  28  46  77 105 152 201 248 314 384 450
#     4  12  25  47  76 114 150 198 252 303 380 472
#     4  12  25  47  79 108 151 197 251 317 381 445
#
# _framework density 24.196771999999999
#
# number of rings (size 3 to 8) (size 9 to 14) (size 15 to 20)
#    0.000    0.000    2.857    6.429    6.000    0.571 
#    0.000    0.000    0.000    0.000    0.000    0.000 
#    0.000    0.000    0.000    0.000    0.000    0.000 
#
# Total GULP energy -173633.025627 kJ/mol
# GULP energy per Si atom -12402.358973 kJ/mol
# Density = 2.414170 g / cm^3
# Si number density = 24.196772 Si / 1000 Ang^3
#
#
#
# Elastic Constant Matrix: (Units=GPa)
#
#
# Indices 1 2 3 4 5 6 
#
# 1 105.3687 37.0713 42.7693 0.9518 6.8616 4.2010
# 2 37.0713 153.8882 51.9479 -6.1729 6.7504 6.6911
# 3 42.7693 51.9479 131.7031 -19.9770 15.0625 9.7755
# 4 0.9518 -6.1729 -19.9770 49.0895 4.3273 0.4296
# 5 6.8616 6.7504 15.0625 4.3273 36.4515 -3.4519
# 6 4.2010 6.6911 9.7755 0.4296 -3.4519 30.3370
#
#
#
# Elastic Compliance Matrix: (Units=1/GPa)
#
#
# Indices 1 2 3 4 5 6 
#
# 1 0.011458 -0.001708 -0.003264 -0.001737 -0.000302 -0.000168
# 2 -0.001708 0.007771 -0.002429 0.000044 -0.000187 -0.000717
# 3 -0.003264 -0.002429 0.011049 0.004665 -0.004352 -0.003134
# 4 -0.001737 0.000044 0.004665 0.022724 -0.004506 -0.002107
# 5 -0.000302 -0.000187 -0.004352 -0.004506 0.030332 0.005000
# 6 -0.000168 -0.000717 -0.003134 -0.002107 0.005000 0.034753
#
#
# Mechanical properties :
#
#
# Convention : Reuss Voigt Hill
#
# Bulk Modulus (GPa) = 64.61466 72.72633 68.67049
# Shear Modulus (GPa) = 36.21953 40.45371 38.33662
#
# Velocity S-wave (km/s) = 3.87314 4.09328 3.98473
# Velocity P-wave (km/s) = 6.83838 7.24302 7.04361
#
# Compressibility (1/GPa) = 0.01547637
#
# Stress axis : x y z
#
# Youngs Moduli (GPa) = 87.27447 128.68785 90.50716
#
# Poissons Ratio (x) = 0.21974 0.29541
# Poissons Ratio (y) = 0.14903 0.21986
# Poissons Ratio (z) = 0.28485 0.31261
#
# Static dielectric constant tensor:
#      x y z
#    x 4.199000 0.144000 -0.093660 
#    y 0.144000 4.590080 -0.052720 
#    z -0.093660 -0.052720 4.699620 
# 
# 
# High freq. dielectric constant tensor:
#      x y z
#    x 1.950700 0.010860 -0.002890 
#    y 0.010860 1.977790 -0.005970 
#    z -0.002890 -0.005970 1.980630 
# 
# From -- ./inp_files/81358.got.cif
#   From: 2010.06.25/outbox.cif.g09.slc.cpg/sg2_41_cif.got.tgz:81358.got - 2010.06.27 13:26:56.
