data_PCOD8037388
_publ_section_title
;
Structure prediction by ZEFSAII (Michael W. Deem and Ramdas Pophale) SiO2 
 PCOD8037388
Probable space group: P -1
;
_chemical_formula_sum "Si O2"
_cell_formula_units_Z 12
_cell_length_a 9.462958
_cell_length_b 11.520427
_cell_length_c 9.411570
_cell_angle_alpha 57.495927
_cell_angle_beta 139.456921
_cell_angle_gamma 99.556329
_cell_volume 504.522596
_symmetry_space_group_name_H-M "P -1"
_symmetry_group_IT_number 2
_symmetry_cell_setting 'triclinic'
loop_
_space_group_symop_operation_xyz
x,y,z
-x,-y,-z
loop_
_atom_site_type_symbol
_atom_site_label
_atom_site_fract_x
_atom_site_fract_y
_atom_site_fract_z
Si Si1 0.060329 0.858152 0.812156
Si Si2 0.426854 0.395326 0.117985
Si Si3 0.482496 0.648539 0.463588
Si Si4 0.952487 0.646524 0.682119
Si Si5 0.742797 0.916399 0.158800
Si Si6 0.521461 0.063802 0.326257
O O1 0.117863 0.718287 0.838659
O O2 0.094456 0.008385 0.697557
O O3 0.241517 0.793221 0.128236
O O4 0.774727 0.928740 0.563148
O O5 0.562477 0.359205 0.397563
O O6 0.504443 0.233722 0.204904
O O7 0.500000 0.500000 0.000000
O O8 0.139606 0.476212 0.885730
O O9 0.500000 0.500000 0.500000
O O10 0.737080 0.653771 0.615796
O O11 0.852033 0.737522 0.399088
O O12 0.691984 0.933923 0.939994
O O13 0.500000 0.000000 0.000000
O O14 0.500000 0.000000 0.500000
#
# Coordination Sequence:
#
# PCOD8037388 Si02
#       6
#     2   2   2   2   2   2
#     4  12  24  48  80 104 146 195 251 302 364 447
#     4  12  29  49  73 115 156 191 243 319 381 429
#     4  12  27  47  80 107 142 202 255 292 371 450
#     4  12  26  48  79 111 146 194 255 309 359 452
#     4  12  25  44  78 109 140 194 252 293 369 445
#     4  12  29  49  72 111 156 190 244 312 378 438
#
# _framework density 23.784862
#
# number of rings (size 3 to 8) (size 9 to 14) (size 15 to 20)
#    0.000    0.000    5.000    4.000    7.000    4.667 
#    0.000    0.000    0.000    0.000    0.000    0.000 
#    0.000    0.000    0.000    0.000    0.000    0.000 
#
# Total GULP energy -148664.900206 kJ/mol
# GULP energy per Si atom -12388.741684 kJ/mol
# Density = 2.373073 g / cm^3
# Si number density = 23.784862 Si / 1000 Ang^3
#
#
#
# Elastic Constant Matrix: (Units=GPa)
#
#
# Indices 1 2 3 4 5 6 
#
# 1 85.5063 17.5022 31.2552 9.9441 -18.4775 10.7301
# 2 17.5022 124.7263 17.3495 2.4408 -1.8613 3.5346
# 3 31.2552 17.3495 123.1373 -2.6990 -4.1531 -8.7164
# 4 9.9441 2.4408 -2.6990 47.0185 -6.6432 -0.2931
# 5 -18.4775 -1.8613 -4.1531 -6.6432 40.3501 -4.7575
# 6 10.7301 3.5346 -8.7164 -0.2931 -4.7575 37.8399
#
#
#
# Elastic Compliance Matrix: (Units=1/GPa)
#
#
# Indices 1 2 3 4 5 6 
#
# 1 0.015507 -0.001366 -0.003928 -0.002661 0.005667 -0.004483
# 2 -0.001366 0.008351 -0.000898 -0.000264 -0.000454 -0.000659
# 3 -0.003928 -0.000898 0.009506 0.001411 -0.000232 0.003369
# 4 -0.002661 -0.000264 0.001411 0.022329 0.002782 0.001627
# 5 0.005667 -0.000454 -0.000232 0.002782 0.028019 0.001926
# 6 -0.004483 -0.000659 0.003369 0.001627 0.001926 0.028791
#
#
# Mechanical properties :
#
#
# Convention : Reuss Voigt Hill
#
# Bulk Modulus (GPa) = 47.66219 51.73153 49.69686
# Shear Modulus (GPa) = 37.91325 42.85923 40.38624
#
# Velocity S-wave (km/s) = 3.99683 4.24955 4.12513
# Velocity P-wave (km/s) = 6.43288 6.77312 6.60519
#
# Compressibility (1/GPa) = 0.02098099
#
# Stress axis : x y z
#
# Youngs Moduli (GPa) = 64.48619 119.74380 105.19512
#
# Poissons Ratio (x) = 0.16356 0.41322
# Poissons Ratio (y) = 0.08808 0.09443
# Poissons Ratio (z) = 0.25331 0.10749
#
# Static dielectric constant tensor:
#      x y z
#    x 4.226560 -0.035250 -0.440020 
#    y -0.035250 1.818380 -1.195480 
#    z -0.440020 -1.195480 3.747720 
# 
# 
# High freq. dielectric constant tensor:
#      x y z
#    x 1.926730 0.004000 -0.011090 
#    y 0.004000 1.954940 -0.011030 
#    z -0.011090 -0.011030 1.970120 
# 
# From -- ./inp_files/26308.got.cif
#   From: 2010.06.25/outbox.cif.g09.slc.cpg/sg2_14_cif.got.tgz:26308.got - 2010.06.27 13:26:56.
