data_PCOD8037339
_publ_section_title
;
Structure prediction by ZEFSAII (Michael W. Deem and Ramdas Pophale) SiO2 
 PCOD8037339
Probable space group: P -1
;
_chemical_formula_sum "Si O2"
_cell_formula_units_Z 10
_cell_length_a 9.190046
_cell_length_b 18.991894
_cell_length_c 12.732057
_cell_angle_alpha 18.237733
_cell_angle_beta 33.712934
_cell_angle_gamma 35.330667
_cell_volume 381.727716
_symmetry_space_group_name_H-M "P -1"
_symmetry_group_IT_number 2
_symmetry_cell_setting 'triclinic'
loop_
_space_group_symop_operation_xyz
x,y,z
-x,-y,-z
loop_
_atom_site_type_symbol
_atom_site_label
_atom_site_fract_x
_atom_site_fract_y
_atom_site_fract_z
Si Si1 0.971026 0.769331 0.279212
Si Si2 0.660923 0.631734 0.293886
Si Si3 0.824824 0.305063 0.360701
Si Si4 0.366001 0.867372 0.481923
Si Si5 0.753247 0.087604 0.272899
O O1 0.060253 0.534286 0.621514
O O2 0.673382 0.780194 0.403933
O O3 0.166387 0.731635 0.114139
O O4 0.000000 0.000000 0.000000
O O5 0.500000 0.500000 0.500000
O O6 0.477494 0.667133 0.457367
O O7 0.714509 0.866789 0.876235
O O8 0.806816 0.269591 0.296291
O O9 0.983662 0.095122 0.624431
O O10 0.000000 0.500000 0.000000
O O11 0.302167 0.815459 0.714569
O O12 0.500000 0.000000 0.500000
#
# Coordination Sequence:
#
# PCOD8037339 Si02
#       5
#     2   2   2   2   2
#     4  12  24  48  79 118 157 200 257 320 389 472
#     4  12  24  48  81 112 156 208 251 321 397 459
#     4  12  27  50  75 113 161 208 263 321 383 458
#     4  12  27  51  79 116 157 208 258 318 388 469
#     4  12  24  47  80 112 159 199 253 326 387 461
#
# _framework density 26.196684999999999
#
# number of rings (size 3 to 8) (size 9 to 14) (size 15 to 20)
#    0.000    0.000    6.000    3.600    0.000    0.800 
#    7.200    4.000    0.000    0.000    0.000    0.000 
#    0.000    0.000    0.000    0.000    0.000    0.000 
#
# Total GULP energy -123966.137112 kJ/mol
# GULP energy per Si atom -12396.613711 kJ/mol
# Density = 2.613706 g / cm^3
# Si number density = 26.196685 Si / 1000 Ang^3
#
#
#
# Elastic Constant Matrix: (Units=GPa)
#
#
# Indices 1 2 3 4 5 6 
#
# 1 194.2900 60.4924 59.1553 -20.8093 -4.3832 7.3412
# 2 60.4924 125.8109 37.5129 5.7442 10.2894 -1.1416
# 3 59.1553 37.5129 74.2897 7.1234 -0.1990 13.0664
# 4 -20.8093 5.7442 7.1234 37.8146 3.8364 17.6435
# 5 -4.3832 10.2894 -0.1990 3.8364 45.1248 -7.1958
# 6 7.3412 -1.1416 13.0664 17.6435 -7.1958 72.3263
#
#
#
# Elastic Compliance Matrix: (Units=1/GPa)
#
#
# Indices 1 2 3 4 5 6 
#
# 1 0.008594 -0.002768 -0.005844 0.006876 0.000620 -0.001476
# 2 -0.002768 0.010534 -0.003099 -0.003032 -0.002183 0.001530
# 3 -0.005844 -0.003099 0.020541 -0.005873 0.000460 -0.001688
# 4 0.006876 -0.003032 -0.005873 0.036241 -0.003157 -0.008840
# 5 0.000620 -0.002183 0.000460 -0.003157 0.023455 0.002923
# 6 -0.001476 0.001530 -0.001688 -0.008840 0.002923 0.016752
#
#
# Mechanical properties :
#
#
# Convention : Reuss Voigt Hill
#
# Bulk Modulus (GPa) = 61.55121 78.74576 70.14848
# Shear Modulus (GPa) = 34.49336 46.86849 40.68093
#
# Velocity S-wave (km/s) = 3.63258 4.23436 3.94496
# Velocity P-wave (km/s) = 6.41413 7.35059 6.89827
#
# Compressibility (1/GPa) = 0.01624664
#
# Stress axis : x y z
#
# Youngs Moduli (GPa) = 116.35653 94.92797 48.68420
#
# Poissons Ratio (x) = 0.26275 0.28450
# Poissons Ratio (y) = 0.32207 0.15090
# Poissons Ratio (z) = 0.67997 0.29423
#
# Static dielectric constant tensor:
#      x y z
#    x 4.976820 0.204780 0.116940 
#    y 0.204780 4.101570 0.145060 
#    z 0.116940 0.145060 4.504250 
# 
# 
# High freq. dielectric constant tensor:
#      x y z
#    x 2.073320 -0.008070 0.008130 
#    y -0.008070 2.067390 0.007920 
#    z 0.008130 0.007920 2.040800 
# 
# From -- ./inp_files/144149.got.cif
#   From: 2010.06.25/outbox.cif.g09.slc.cpg/sg2_73_cif.got.tgz:144149.got - 2010.06.27 13:26:56.
