data_PCOD8037144
_publ_section_title
;
Structure prediction by ZEFSAII (Michael W. Deem and Ramdas Pophale) SiO2 
 PCOD8037144
Probable space group: P -1
;
_chemical_formula_sum "Si O2"
_cell_formula_units_Z 14
_cell_length_a 8.393635
_cell_length_b 18.301457
_cell_length_c 8.069693
_cell_angle_alpha 122.998019
_cell_angle_beta 55.330885
_cell_angle_gamma 144.292880
_cell_volume 586.144747
_symmetry_space_group_name_H-M "P -1"
_symmetry_group_IT_number 2
_symmetry_cell_setting 'triclinic'
loop_
_space_group_symop_operation_xyz
x,y,z
-x,-y,-z
loop_
_atom_site_type_symbol
_atom_site_label
_atom_site_fract_x
_atom_site_fract_y
_atom_site_fract_z
Si Si1 0.680170 0.871372 0.488650
Si Si2 0.594824 0.251111 0.817818
Si Si3 0.027137 0.511611 0.695673
Si Si4 0.924321 0.873005 0.857563
Si Si5 0.726115 0.129721 0.117040
Si Si6 0.990962 0.681821 0.093907
Si Si7 0.653435 0.704257 0.504813
O O1 0.607435 0.868979 0.337463
O O2 0.440440 0.838414 0.697420
O O3 0.629175 0.752904 0.410959
O O4 0.000000 0.000000 0.500000
O O5 0.723307 0.230376 0.856828
O O6 0.850165 0.378446 0.724131
O O7 0.380324 0.247597 0.028498
O O8 0.356459 0.601419 0.651086
O O9 0.000000 0.500000 0.500000
O O10 0.916502 0.564741 0.910640
O O11 0.888879 0.831215 0.635665
O O12 0.153783 0.884414 0.816662
O O13 0.000000 0.000000 0.000000
O O14 0.970061 0.235853 0.974858
O O15 0.500000 0.000000 0.000000
O O16 0.747152 0.638434 0.307625
#
# Coordination Sequence:
#
# PCOD8037144 Si02
#       7
#     2   2   2   2   2   2   2
#     4  12  24  45  71 105 148 191 243 305 369 435
#     4  12  24  47  73 106 145 196 240 303 367 432
#     4  12  26  50  74 104 153 190 248 308 361 443
#     4  12  26  46  76 109 152 190 242 307 367 438
#     4  12  24  44  70 107 146 191 244 300 362 439
#     4  12  26  46  75 109 146 193 248 298 373 434
#     4  12  25  47  71 109 146 193 245 300 369 432
#
# _framework density 23.884882999999999
#
# number of rings (size 3 to 8) (size 9 to 14) (size 15 to 20)
#    0.000    0.000    4.286    6.429    0.000    1.143 
#    2.571    4.286    0.000    0.000    0.000    0.000 
#    0.000    0.000    0.000    0.000    0.000    0.000 
#
# Total GULP energy -173533.659775 kJ/mol
# GULP energy per Si atom -12395.261413 kJ/mol
# Density = 2.383052 g / cm^3
# Si number density = 23.884883 Si / 1000 Ang^3
#
#
#
# Elastic Constant Matrix: (Units=GPa)
#
#
# Indices 1 2 3 4 5 6 
#
# 1 119.4238 27.7568 41.0208 8.9702 3.0020 13.8700
# 2 27.7568 88.1469 30.8690 -2.8123 -10.2987 7.1377
# 3 41.0208 30.8690 162.4333 11.6479 -14.1812 9.5516
# 4 8.9702 -2.8123 11.6479 40.0162 11.2138 5.6555
# 5 3.0020 -10.2987 -14.1812 11.2138 49.0927 -1.0262
# 6 13.8700 7.1377 9.5516 5.6555 -1.0262 30.5512
#
#
#
# Elastic Compliance Matrix: (Units=1/GPa)
#
#
# Indices 1 2 3 4 5 6 
#
# 1 0.010107 -0.002442 -0.001961 -0.000971 -0.001543 -0.003277
# 2 -0.002442 0.013138 -0.001727 0.001649 0.001995 -0.001659
# 3 -0.001961 -0.001727 0.007397 -0.002452 0.002444 -0.000483
# 4 -0.000971 0.001649 -0.002452 0.028650 -0.006946 -0.004715
# 5 -0.001543 0.001995 0.002444 -0.006946 0.023207 0.001536
# 6 -0.003277 -0.001659 -0.000483 -0.004715 0.001536 0.035683
#
#
# Mechanical properties :
#
#
# Convention : Reuss Voigt Hill
#
# Bulk Modulus (GPa) = 54.39476 63.25524 58.82500
# Shear Modulus (GPa) = 36.61150 41.95583 39.28367
#
# Velocity S-wave (km/s) = 3.91939 4.19571 4.05990
# Velocity P-wave (km/s) = 6.58067 7.07198 6.83074
#
# Compressibility (1/GPa) = 0.01838412
#
# Stress axis : x y z
#
# Youngs Moduli (GPa) = 98.94224 76.11288 135.18435
#
# Poissons Ratio (x) = 0.18586 0.26507
# Poissons Ratio (y) = 0.24160 0.23341
# Poissons Ratio (z) = 0.19400 0.13142
#
# Static dielectric constant tensor:
#      x y z
#    x 4.208920 0.283310 0.182790 
#    y 0.283310 4.269300 -0.074750 
#    z 0.182790 -0.074750 4.483150 
# 
# 
# High freq. dielectric constant tensor:
#      x y z
#    x 1.950520 0.013650 0.010840 
#    y 0.013650 1.941970 -0.007650 
#    z 0.010840 -0.007650 1.962740 
# 
# From -- ./inp_files/199927.got.cif
#   From: 2010.06.25/outbox.cif.g09.slc.cpg/sg2_100_cif.got.tgz:199927.got - 2010.06.27 13:26:56.
