data_PCOD8037260
_publ_section_title
;
Structure prediction by ZEFSAII (Michael W. Deem and Ramdas Pophale) SiO2 
 PCOD8037260
Probable space group: P -1
;
_chemical_formula_sum "Si O2"
_cell_formula_units_Z 12
_cell_length_a 12.059326
_cell_length_b 8.888133
_cell_length_c 8.656897
_cell_angle_alpha 83.290167
_cell_angle_beta 114.277141
_cell_angle_gamma 139.879121
_cell_volume 513.305808
_symmetry_space_group_name_H-M "P -1"
_symmetry_group_IT_number 2
_symmetry_cell_setting 'triclinic'
loop_
_space_group_symop_operation_xyz
x,y,z
-x,-y,-z
loop_
_atom_site_type_symbol
_atom_site_label
_atom_site_fract_x
_atom_site_fract_y
_atom_site_fract_z
Si Si1 0.309256 0.982358 0.805578
Si Si2 0.328141 0.276414 0.317164
Si Si3 0.934603 0.501308 0.124682
Si Si4 0.936543 0.979273 0.297684
Si Si5 0.688471 0.540133 0.004730
Si Si6 0.673510 0.057899 0.542839
O O1 0.260366 0.775639 0.885240
O O2 0.346184 0.000109 0.641805
O O3 0.119548 0.900049 0.743917
O O4 0.499839 0.247207 0.962046
O O5 0.500000 0.500000 0.500000
O O6 0.365073 0.383034 0.158279
O O7 0.338311 0.104531 0.339396
O O8 0.115140 0.129315 0.264467
O O9 0.112384 0.657169 0.332147
O O10 0.873742 0.616364 0.050846
O O11 0.000000 0.500000 0.000000
O O12 0.748712 0.688592 0.177277
O O13 0.000000 0.000000 0.500000
O O14 0.500000 0.000000 0.500000
#
# Coordination Sequence:
#
# PCOD8037260 Si02
#       6
#     2   2   2   2   2   2
#     4  12  26  48  71 111 147 195 244 304 370 440
#     4  12  25  48  77 106 147 193 250 303 367 436
#     4  12  27  48  74 106 151 196 245 305 369 440
#     4  12  24  46  74 108 148 188 245 308 365 433
#     4  12  25  48  72 112 146 191 249 303 368 439
#     4  12  27  50  74 106 151 198 245 302 370 440
#
# _framework density 23.377877000000002
#
# number of rings (size 3 to 8) (size 9 to 14) (size 15 to 20)
#    0.000    0.000    5.000    4.000    4.667    0.000 
#    3.000    0.000    0.000    0.000    0.000    0.000 
#    0.000    0.000    0.000    0.000    0.000    0.000 
#
# Total GULP energy -148856.262908 kJ/mol
# GULP energy per Si atom -12404.688576 kJ/mol
# Density = 2.332467 g / cm^3
# Si number density = 23.377877 Si / 1000 Ang^3
#
#
#
# Elastic Constant Matrix: (Units=GPa)
#
#
# Indices 1 2 3 4 5 6 
#
# 1 154.8502 27.2423 28.2492 -9.1769 15.5827 -14.1928
# 2 27.2423 131.4428 55.6250 6.7274 -5.2005 -5.8375
# 3 28.2492 55.6250 141.3770 11.3800 -13.5953 -9.2125
# 4 -9.1769 6.7274 11.3800 43.8568 -10.7208 8.2228
# 5 15.5827 -5.2005 -13.5953 -10.7208 39.8074 5.9638
# 6 -14.1928 -5.8375 -9.2125 8.2228 5.9638 29.3709
#
#
#
# Elastic Compliance Matrix: (Units=1/GPa)
#
#
# Indices 1 2 3 4 5 6 
#
# 1 0.007656 -0.001053 -0.001288 0.000400 -0.004035 0.003793
# 2 -0.001053 0.009309 -0.003335 -0.000827 0.000194 0.000487
# 3 -0.001288 -0.003335 0.009130 -0.001824 0.002457 0.001590
# 4 0.000400 -0.000827 -0.001824 0.027255 0.007918 -0.009781
# 5 -0.004035 0.000194 0.002457 0.007918 0.031148 -0.009682
# 6 0.003793 0.000487 0.001590 -0.009781 -0.009682 0.041180
#
#
# Mechanical properties :
#
#
# Convention : Reuss Voigt Hill
#
# Bulk Modulus (GPa) = 67.83861 72.21145 70.02503
# Shear Modulus (GPa) = 35.22487 43.71058 39.46772
#
# Velocity S-wave (km/s) = 3.88591 4.32874 4.11329
# Velocity P-wave (km/s) = 7.01534 7.47930 7.25103
#
# Compressibility (1/GPa) = 0.01474087
#
# Stress axis : x y z
#
# Youngs Moduli (GPa) = 130.62361 107.42003 109.53154
#
# Poissons Ratio (x) = 0.11312 0.14112
# Poissons Ratio (y) = 0.13756 0.36533
# Poissons Ratio (z) = 0.16830 0.35829
#
# Static dielectric constant tensor:
#      x y z
#    x 4.247420 -0.233350 0.176650 
#    y -0.233350 4.389560 0.193130 
#    z 0.176650 0.193130 4.396160 
# 
# 
# High freq. dielectric constant tensor:
#      x y z
#    x 1.941720 -0.009210 0.010280 
#    y -0.009210 1.926130 0.014830 
#    z 0.010280 0.014830 1.937710 
# 
# From -- ./inp_files/148353.got.cif
#   From: 2010.06.25/outbox.cif.g09.slc.cpg/sg2_75_cif.got.tgz:148353.got - 2010.06.27 13:26:56.
