data_PCOD8037264
_publ_section_title
;
Structure prediction by ZEFSAII (Michael W. Deem and Ramdas Pophale) SiO2 
 PCOD8037264
Probable space group: P -1
;
_chemical_formula_sum "Si O2"
_cell_formula_units_Z 12
_cell_length_a 9.145179
_cell_length_b 9.653745
_cell_length_c 10.233880
_cell_angle_alpha 71.711435
_cell_angle_beta 63.604584
_cell_angle_gamma 44.483548
_cell_volume 567.077576
_symmetry_space_group_name_H-M "P -1"
_symmetry_group_IT_number 2
_symmetry_cell_setting 'triclinic'
loop_
_space_group_symop_operation_xyz
x,y,z
-x,-y,-z
loop_
_atom_site_type_symbol
_atom_site_label
_atom_site_fract_x
_atom_site_fract_y
_atom_site_fract_z
Si Si1 0.638241 0.254709 0.368014
Si Si2 0.445062 0.899171 0.143382
Si Si3 0.261397 0.339218 0.660323
Si Si4 0.061041 0.182479 0.652338
Si Si5 0.567789 0.411149 0.856642
Si Si6 0.007794 0.770060 0.639197
O O1 0.417517 0.331363 0.500738
O O2 0.579537 0.411835 0.239658
O O3 0.794882 0.231651 0.423217
O O4 0.763405 0.047004 0.306786
O O5 0.604657 0.812781 0.230070
O O6 0.485232 0.726936 0.098916
O O7 0.191774 0.058466 0.241340
O O8 0.500000 0.000000 0.000000
O O9 0.133776 0.292447 0.647253
O O10 0.083293 0.563739 0.716818
O O11 0.824702 0.286335 0.772565
O O12 0.066040 0.188983 0.492730
O O13 0.500000 0.500000 0.000000
#
# Coordination Sequence:
#
# PCOD8037264 Si02
#       6
#     2   2   2   2   2   2
#     4  12  24  46  75 103 140 183 238 286 348 413
#     4  12  29  48  71 103 144 187 232 290 351 416
#     4  12  26  43  75 110 139 182 235 291 346 413
#     4  12  26  43  75 110 139 182 235 291 346 413
#     4  12  29  48  71 103 144 187 232 290 351 416
#     4  12  24  46  75 103 140 183 238 286 348 413
#
# _framework density 21.161125999999999
#
# number of rings (size 3 to 8) (size 9 to 14) (size 15 to 20)
#    0.000    0.000    6.667    3.000    4.667    2.667 
#    0.000    0.000    0.000    0.000    0.000    0.000 
#    0.000    0.000    0.000    0.000    0.000    0.000 
#
# Total GULP energy -148904.507988 kJ/mol
# GULP energy per Si atom -12408.708999 kJ/mol
# Density = 2.111296 g / cm^3
# Si number density = 21.161126 Si / 1000 Ang^3
#
#
#
# Elastic Constant Matrix: (Units=GPa)
#
#
# Indices 1 2 3 4 5 6 
#
# 1 82.6287 -1.9368 19.6367 -11.2786 -0.1768 14.4104
# 2 -1.9368 116.2227 25.3233 -13.3553 -1.4777 1.6311
# 3 19.6367 25.3233 101.0197 -9.0825 -3.9352 -1.2966
# 4 -11.2786 -13.3553 -9.0825 37.6440 6.2116 -1.8184
# 5 -0.1768 -1.4777 -3.9352 6.2116 25.3291 -2.0460
# 6 14.4104 1.6311 -1.2966 -1.8184 -2.0460 38.2356
#
#
#
# Elastic Compliance Matrix: (Units=1/GPa)
#
#
# Indices 1 2 3 4 5 6 
#
# 1 0.014334 0.001399 -0.002904 0.004110 -0.001718 -0.005457
# 2 0.001399 0.009533 -0.002404 0.003291 -0.000687 -0.000896
# 3 -0.002904 -0.002404 0.011221 0.000815 0.001520 0.001698
# 4 0.004110 0.003291 0.000815 0.030309 -0.007134 -0.000602
# 5 -0.001718 -0.000687 0.001520 -0.007134 0.041625 0.002617
# 6 -0.005457 -0.000896 0.001698 -0.000602 0.002617 0.028417
#
#
# Mechanical properties :
#
#
# Convention : Reuss Voigt Hill
#
# Bulk Modulus (GPa) = 36.67182 42.87972 39.77577
# Shear Modulus (GPa) = 32.81943 37.36493 35.09218
#
# Velocity S-wave (km/s) = 3.94246 4.20662 4.07668
# Velocity P-wave (km/s) = 6.17182 6.62583 6.40285
#
# Compressibility (1/GPa) = 0.02726889
#
# Stress axis : x y z
#
# Youngs Moduli (GPa) = 69.76211 104.89500 89.12188
#
# Poissons Ratio (x) = -0.14672 0.25885
# Poissons Ratio (y) = -0.09758 0.21425
# Poissons Ratio (z) = 0.20262 0.25217
#
# Static dielectric constant tensor:
#      x y z
#    x 3.862300 0.052010 0.047900 
#    y 0.052010 4.379800 -0.041290 
#    z 0.047900 -0.041290 3.672050 
# 
# 
# High freq. dielectric constant tensor:
#      x y z
#    x 1.843670 0.002530 0.001340 
#    y 0.002530 1.861650 -0.005010 
#    z 0.001340 -0.005010 1.816700 
# 
# From -- ./inp_files/148616.got.cif
#   From: 2010.06.25/outbox.cif.g09.slc.cpg/sg2_75_cif.got.tgz:148616.got - 2010.06.27 13:26:56.
