data_PCOD8037471
_publ_section_title
;
Structure prediction by ZEFSAII (Michael W. Deem and Ramdas Pophale) SiO2 
 PCOD8037471
Probable space group: P -1
;
_chemical_formula_sum "Si O2"
_cell_formula_units_Z 14
_cell_length_a 8.833301
_cell_length_b 17.524757
_cell_length_c 9.218049
_cell_angle_alpha 126.309827
_cell_angle_beta 148.252571
_cell_angle_gamma 62.969673
_cell_volume 600.974834
_symmetry_space_group_name_H-M "P -1"
_symmetry_group_IT_number 2
_symmetry_cell_setting 'triclinic'
loop_
_space_group_symop_operation_xyz
x,y,z
-x,-y,-z
loop_
_atom_site_type_symbol
_atom_site_label
_atom_site_fract_x
_atom_site_fract_y
_atom_site_fract_z
Si Si1 0.524428 0.485471 0.831896
Si Si2 0.747983 0.173673 0.705376
Si Si3 0.098723 0.107437 0.154475
Si Si4 0.332884 0.330391 0.014412
Si Si5 0.215212 0.933411 0.664862
Si Si6 0.952277 0.623688 0.864720
Si Si7 0.853123 0.214253 0.320446
O O1 0.484120 0.579881 0.812566
O O2 0.269526 0.406395 0.480789
O O3 0.500000 0.500000 0.000000
O O4 0.841997 0.456943 0.021439
O O5 0.441046 0.135993 0.485894
O O6 0.734362 0.151139 0.499031
O O7 0.997177 0.117760 0.917439
O O8 0.833163 0.286454 0.917240
O O9 0.938571 0.186720 0.197658
O O10 0.000000 0.000000 0.000000
O O11 0.229959 0.355145 0.118421
O O12 0.529064 0.243717 0.090004
O O13 0.062577 0.300922 0.656129
O O14 0.112343 0.882265 0.671871
O O15 0.000000 0.000000 0.500000
O O16 0.500000 0.000000 0.000000
#
# Coordination Sequence:
#
# PCOD8037471 Si02
#       7
#     2   2   2   2   2   2   2
#     4  12  28  47  77 109 145 187 236 296 361 440
#     4  12  26  45  74 104 142 191 240 292 361 425
#     4  12  27  47  70 104 149 193 239 297 363 421
#     4  12  26  48  74 107 144 187 239 293 364 423
#     4  12  25  45  72 104 142 185 241 295 348 423
#     4  12  26  49  74 107 148 186 239 294 365 431
#     4  12  26  45  73 106 144 188 242 295 354 426
#
# _framework density 23.295483999999998
#
# number of rings (size 3 to 8) (size 9 to 14) (size 15 to 20)
#    0.000    0.000    1.429    8.571    8.000    0.000 
#    0.000    0.000    0.000    0.000    0.000    0.000 
#    0.000    0.000    0.000    0.000    0.000    0.000 
#
# Total GULP energy -173691.709809 kJ/mol
# GULP energy per Si atom -12406.550701 kJ/mol
# Density = 2.324246 g / cm^3
# Si number density = 23.295484 Si / 1000 Ang^3
#
#
#
# Elastic Constant Matrix: (Units=GPa)
#
#
# Indices 1 2 3 4 5 6 
#
# 1 97.3007 30.4691 40.0527 8.5698 -0.7538 -3.4452
# 2 30.4691 107.9383 29.7499 -5.2242 9.2934 10.9336
# 3 40.0527 29.7499 160.2316 9.4899 -1.4740 -0.6703
# 4 8.5698 -5.2242 9.4899 49.2576 -3.1979 8.7114
# 5 -0.7538 9.2934 -1.4740 -3.1979 41.7605 1.3357
# 6 -3.4452 10.9336 -0.6703 8.7114 1.3357 45.4254
#
#
#
# Elastic Compliance Matrix: (Units=1/GPa)
#
#
# Indices 1 2 3 4 5 6 
#
# 1 0.012578 -0.003285 -0.002376 -0.002420 0.000620 0.002155
# 2 -0.003285 0.011255 -0.001452 0.002494 -0.002316 -0.003390
# 3 -0.002376 -0.001452 0.007181 -0.001183 0.000427 0.000489
# 4 -0.002420 0.002494 -0.001183 0.022195 0.001222 -0.005094
# 5 0.000620 -0.002316 0.000427 0.001222 0.024592 -0.000347
# 6 0.002155 -0.003390 0.000489 -0.005094 -0.000347 0.023988
#
#
# Mechanical properties :
#
#
# Convention : Reuss Voigt Hill
#
# Bulk Modulus (GPa) = 59.56356 62.89044 61.22700
# Shear Modulus (GPa) = 41.11462 44.96863 43.04163
#
# Velocity S-wave (km/s) = 4.20565 4.39835 4.30308
# Velocity P-wave (km/s) = 7.01481 7.26976 7.14342
#
# Compressibility (1/GPa) = 0.01678879
#
# Stress axis : x y z
#
# Youngs Moduli (GPa) = 79.50155 88.84643 139.26447
#
# Poissons Ratio (x) = 0.29182 0.33094
# Poissons Ratio (y) = 0.26112 0.20220
# Poissons Ratio (z) = 0.18892 0.12900
#
# Static dielectric constant tensor:
#      x y z
#    x 4.204320 -0.030830 -0.130440 
#    y -0.030830 4.143520 0.061940 
#    z -0.130440 0.061940 4.368820 
# 
# 
# High freq. dielectric constant tensor:
#      x y z
#    x 1.924960 -0.000570 -0.006150 
#    y -0.000570 1.930530 0.001880 
#    z -0.006150 0.001880 1.943870 
# 
# From -- ./inp_files/205799.got.cif
#   From: 2010.06.25/outbox.cif.g09.slc.cpg/sg2_103_cif.got.tgz:205799.got - 2010.06.27 13:26:56.
