data_PCOD8037968
_publ_section_title
;
Structure prediction by ZEFSAII (Michael W. Deem and Ramdas Pophale) SiO2 
 PCOD8037968
Probable space group: P -1
;
_chemical_formula_sum "Si O2"
_cell_formula_units_Z 16
_cell_length_a 15.000000
_cell_length_b 15.000000
_cell_length_c 15.000000
_cell_angle_alpha 150.000000
_cell_angle_beta 130.000000
_cell_angle_gamma 30.000000
_cell_volume 762.223433
_symmetry_space_group_name_H-M "P -1"
_symmetry_group_IT_number 2
_symmetry_cell_setting 'triclinic'
loop_
_space_group_symop_operation_xyz
x,y,z
-x,-y,-z
loop_
_atom_site_type_symbol
_atom_site_label
_atom_site_fract_x
_atom_site_fract_y
_atom_site_fract_z
Si Si1 0.957523 0.253601 0.163882
Si Si2 0.864922 0.716019 0.185053
Si Si3 0.597159 0.235559 0.984471
Si Si4 0.539372 0.214045 0.132377
Si Si5 0.706773 0.675056 0.201774
Si Si6 0.587404 0.652718 0.374733
Si Si7 0.766689 0.579702 0.769806
Si Si8 0.443435 0.402837 0.491987
O O1 0.878179 0.387447 0.128025
O O2 0.777212 0.528944 0.352436
O O3 0.169273 0.093105 0.171403
O O4 0.000000 0.000000 0.000000
O O5 0.807416 0.613747 0.120063
O O6 0.995045 0.699494 0.310953
O O7 0.666771 0.059147 0.321429
O O8 0.000000 0.500000 0.000000
O O9 0.454546 0.285569 0.877206
O O10 0.546043 0.241536 0.056505
O O11 0.551085 0.505436 0.173909
O O12 0.328038 0.387477 0.172733
O O13 0.571709 0.364498 0.334534
O O14 0.700876 0.867540 0.964096
O O15 0.600149 0.983504 0.441803
O O16 0.628504 0.554946 0.418800
O O17 0.705639 0.523749 0.602254
#
# Coordination Sequence:
#
# PCOD8037968 Si02
#       8
#     2   2   2   2   2   2   2   2
#     4  10  22  40  62  91 119 151 202 247 290 357
#     4  11  23  39  62  92 121 155 202 243 288 356
#     4  10  21  40  62  85 120 156 192 245 300 347
#     4  10  20  38  60  86 120 156 195 244 294 350
#     4  11  22  40  64  86 119 161 194 241 302 349
#     4   9  21  40  59  87 120 150 198 248 288 352
#     4  11  21  37  61  85 119 159 196 242 297 346
#     4  10  22  40  58  84 121 156 196 244 293 349
#
# _framework density 20.991219999999998
#
# number of rings (size 3 to 8) (size 9 to 14) (size 15 to 20)
#    0.000    1.750    0.000    5.250    0.000    3.000 
#    0.000   22.500    0.000    0.000    0.000    0.000 
#    0.000    0.000    0.000    0.000    0.000    0.000 
#
# Total GULP energy -198265.771385 kJ/mol
# GULP energy per Si atom -12391.610712 kJ/mol
# Density = 2.094344 g / cm^3
# Si number density = 20.991220 Si / 1000 Ang^3
#
#
#
# Elastic Constant Matrix: (Units=GPa)
#
#
# Indices 1 2 3 4 5 6 
#
# 1 127.2709 33.1484 36.6172 0.1772 7.5336 -9.0562
# 2 33.1484 113.8136 29.9888 -3.2204 17.6000 -24.9351
# 3 36.6172 29.9888 102.9211 -1.4139 19.8988 -0.5461
# 4 0.1772 -3.2204 -1.4139 22.1685 -4.3854 11.0562
# 5 7.5336 17.6000 19.8988 -4.3854 43.9869 2.3223
# 6 -9.0562 -24.9351 -0.5461 11.0562 2.3223 44.3988
#
#
#
# Elastic Compliance Matrix: (Units=1/GPa)
#
#
# Indices 1 2 3 4 5 6 
#
# 1 0.009190 -0.001764 -0.002811 -0.001002 0.000247 0.001085
# 2 -0.001764 0.012015 -0.002053 -0.002849 -0.004246 0.007294
# 3 -0.002811 -0.002053 0.012095 0.000429 -0.004048 -0.001473
# 4 -0.001002 -0.002849 0.000429 0.053970 0.007323 -0.015622
# 5 0.000247 -0.004246 -0.004048 0.007323 0.027249 -0.005633
# 6 0.001085 0.007294 -0.001473 -0.015622 -0.005633 0.031008
#
#
# Mechanical properties :
#
#
# Convention : Reuss Voigt Hill
#
# Bulk Modulus (GPa) = 49.89156 60.39049 55.14103
# Shear Modulus (GPa) = 30.21789 38.39426 34.30608
#
# Velocity S-wave (km/s) = 3.79826 4.28139 4.04704
# Velocity P-wave (km/s) = 6.56164 7.29879 6.94001
#
# Compressibility (1/GPa) = 0.02004347
#
# Stress axis : x y z
#
# Youngs Moduli (GPa) = 108.81835 83.22859 82.67758
#
# Poissons Ratio (x) = 0.14686 0.23241
# Poissons Ratio (y) = 0.19201 0.16971
# Poissons Ratio (z) = 0.30589 0.17084
#
# Static dielectric constant tensor:
#      x y z
#    x 4.539730 -0.238570 0.025900 
#    y -0.238570 3.896280 0.124890 
#    z 0.025900 0.124890 4.061630 
# 
# 
# High freq. dielectric constant tensor:
#      x y z
#    x 1.867660 -0.006080 0.004740 
#    y -0.006080 1.820580 0.006670 
#    z 0.004740 0.006670 1.822940 
# 
# From -- ./inp_files/534596.got.cif
#   From: 2010.06.25/outbox.ucp.g09.slc.cvg/sg2_268_cif.got.tgz:534596.got - 2010.06.28 11:54:26.
