data_PCOD8037161
_publ_section_title
;
Structure prediction by ZEFSAII (Michael W. Deem and Ramdas Pophale) SiO2 
 PCOD8037161
Probable space group: P -1
;
_chemical_formula_sum "Si O2"
_cell_formula_units_Z 12
_cell_length_a 14.496686
_cell_length_b 14.174486
_cell_length_c 9.493461
_cell_angle_alpha 146.493187
_cell_angle_beta 137.988788
_cell_angle_gamma 29.501161
_cell_volume 529.225889
_symmetry_space_group_name_H-M "P -1"
_symmetry_group_IT_number 2
_symmetry_cell_setting 'triclinic'
loop_
_space_group_symop_operation_xyz
x,y,z
-x,-y,-z
loop_
_atom_site_type_symbol
_atom_site_label
_atom_site_fract_x
_atom_site_fract_y
_atom_site_fract_z
Si Si1 0.635500 0.033121 0.736956
Si Si2 0.937470 0.629988 0.743676
Si Si3 0.832450 0.418010 0.570360
Si Si4 0.542817 0.456288 0.773684
Si Si5 0.859709 0.024250 0.768876
Si Si6 0.861111 0.272937 0.719181
O O1 0.500000 0.000000 0.500000
O O2 0.741337 0.892926 0.825319
O O3 0.784453 0.922200 0.639824
O O4 0.524660 0.298892 0.964671
O O5 0.894908 0.533494 0.701100
O O6 0.000000 0.500000 0.500000
O O7 0.077072 0.660082 0.995322
O O8 0.636263 0.517388 0.407085
O O9 0.818291 0.441971 0.753019
O O10 0.007894 0.139023 0.413119
O O11 0.663018 0.353180 0.637655
O O12 0.679616 0.285340 0.843430
O O13 0.000000 0.000000 0.000000
O O14 0.000000 0.000000 0.500000
#
# Coordination Sequence:
#
# PCOD8037161 Si02
#       6
#     2   2   2   2   2   2
#     4  12  25  42  71 110 148 191 247 306 363 432
#     4  12  26  48  76 109 151 196 245 304 368 436
#     4  12  26  47  74 107 148 195 242 304 375 438
#     4  12  26  46  74 106 148 196 252 300 366 447
#     4  12  24  44  73 106 151 191 245 309 369 430
#     4  12  26  50  76 107 151 198 244 304 375 439
#
# _framework density 22.674627999999998
#
# number of rings (size 3 to 8) (size 9 to 14) (size 15 to 20)
#    0.000    0.000    5.000    5.500    2.333    0.000 
#    0.000    1.667    0.000    0.000    0.000    0.000 
#    0.000    0.000    0.000    0.000    0.000    0.000 
#
# Total GULP energy -148710.536788 kJ/mol
# GULP energy per Si atom -12392.544732 kJ/mol
# Density = 2.262302 g / cm^3
# Si number density = 22.674628 Si / 1000 Ang^3
#
#
#
# Elastic Constant Matrix: (Units=GPa)
#
#
# Indices 1 2 3 4 5 6 
#
# 1 131.9681 33.4909 29.0156 -0.0300 6.0279 -1.3115
# 2 33.4909 154.9651 38.7381 -8.4660 3.8248 5.7652
# 3 29.0156 38.7381 103.2631 -13.0473 6.7139 -4.2797
# 4 -0.0300 -8.4660 -13.0473 31.3256 -4.0028 -0.1685
# 5 6.0279 3.8248 6.7139 -4.0028 35.5542 -6.0600
# 6 -1.3115 5.7652 -4.2797 -0.1685 -6.0600 52.7568
#
#
#
# Elastic Compliance Matrix: (Units=1/GPa)
#
#
# Indices 1 2 3 4 5 6 
#
# 1 0.008402 -0.001380 -0.001937 -0.001305 -0.001044 0.000078
# 2 -0.001380 0.007426 -0.002300 0.001017 -0.000195 -0.001052
# 3 -0.001937 -0.002300 0.011722 0.004138 -0.000992 0.001053
# 4 -0.001305 0.001017 0.004138 0.034347 0.003314 0.000682
# 5 -0.001044 -0.000195 -0.000992 0.003314 0.029448 0.003308
# 6 0.000078 -0.001052 0.001053 0.000682 0.003308 0.019539
#
#
# Mechanical properties :
#
#
# Convention : Reuss Voigt Hill
#
# Bulk Modulus (GPa) = 61.29190 65.85393 63.57292
# Shear Modulus (GPa) = 39.19808 43.19078 41.19443
#
# Velocity S-wave (km/s) = 4.16230 4.36914 4.26697
# Velocity P-wave (km/s) = 7.08445 7.38638 7.23699
#
# Compressibility (1/GPa) = 0.01631537
#
# Stress axis : x y z
#
# Youngs Moduli (GPa) = 119.02187 134.66452 85.30858
#
# Poissons Ratio (x) = 0.18585 0.16523
# Poissons Ratio (y) = 0.16426 0.19624
# Poissons Ratio (z) = 0.23052 0.30978
#
# Static dielectric constant tensor:
#      x y z
#    x 4.661080 -0.262690 -0.124210 
#    y -0.262690 4.679880 0.191750 
#    z -0.124210 0.191750 3.896490 
# 
# 
# High freq. dielectric constant tensor:
#      x y z
#    x 1.921810 0.001530 0.002770 
#    y 0.001530 1.918110 -0.000690 
#    z 0.002770 -0.000690 1.873810 
# 
# From -- ./inp_files/160038.got.cif
#   From: 2010.06.25/outbox.cif.g09.slc.cpg/sg2_81_cif.got.tgz:160038.got - 2010.06.27 13:26:56.
