data_PCOD8037121
_publ_section_title
;
Structure prediction by ZEFSAII (Michael W. Deem and Ramdas Pophale) SiO2 
 PCOD8037121
Probable space group: P -1
;
_chemical_formula_sum "Si O2"
_cell_formula_units_Z 14
_cell_length_a 11.846327
_cell_length_b 22.439934
_cell_length_c 5.143155
_cell_angle_alpha 78.890609
_cell_angle_beta 76.115530
_cell_angle_gamma 24.629354
_cell_volume 552.035993
_symmetry_space_group_name_H-M "P -1"
_symmetry_group_IT_number 2
_symmetry_cell_setting 'triclinic'
loop_
_space_group_symop_operation_xyz
x,y,z
-x,-y,-z
loop_
_atom_site_type_symbol
_atom_site_label
_atom_site_fract_x
_atom_site_fract_y
_atom_site_fract_z
Si Si1 0.997562 0.433545 0.441199
Si Si2 0.006888 0.794489 0.338420
Si Si3 0.290976 0.883661 0.358288
Si Si4 0.925090 0.716524 0.156896
Si Si5 0.614969 0.560247 0.167457
Si Si6 0.443157 0.285419 0.137553
Si Si7 0.687652 0.985691 0.853401
O O1 0.139217 0.317746 0.649422
O O2 0.197076 0.353333 0.147812
O O3 0.000000 0.500000 0.500000
O O4 0.707432 0.545478 0.403911
O O5 0.824360 0.914308 0.120145
O O6 0.311111 0.678667 0.275050
O O7 0.038064 0.709163 0.318797
O O8 0.859618 0.867609 0.638902
O O9 0.495773 0.759471 0.559892
O O10 0.300902 0.950580 0.288759
O O11 0.325273 0.836381 0.097707
O O12 0.000000 0.000000 0.500000
O O13 0.636507 0.880774 0.065584
O O14 0.165963 0.595203 0.909262
O O15 0.629892 0.607922 0.906006
#
# Coordination Sequence:
#
# PCOD8037121 Si02
#       7
#     2   2   2   2   2   2   2
#     4  12  26  47  77 114 152 197 255 317 387 457
#     4  12  30  52  76 113 155 206 257 318 382 445
#     4  12  24  43  72 106 151 198 243 305 384 450
#     4  12  28  49  82 109 152 207 261 312 377 462
#     4  12  28  47  80 112 158 195 257 324 382 454
#     4  12  24  44  70 111 146 189 250 309 377 447
#     4  12  27  51  75 110 156 203 260 311 377 459
#
# _framework density 25.360664
#
# number of rings (size 3 to 8) (size 9 to 14) (size 15 to 20)
#    0.000    0.000    2.857    6.429    6.000    0.571 
#    0.000    0.000    0.000    0.000    0.000    0.000 
#    0.000    0.000    0.000    0.000    0.000    0.000 
#
# Total GULP energy -173545.588026 kJ/mol
# GULP energy per Si atom -12396.113430 kJ/mol
# Density = 2.530294 g / cm^3
# Si number density = 25.360664 Si / 1000 Ang^3
#
#
#
# Elastic Constant Matrix: (Units=GPa)
#
#
# Indices 1 2 3 4 5 6 
#
# 1 118.7593 52.7490 20.9874 22.4921 7.9483 -26.3999
# 2 52.7490 115.5716 37.8544 27.8964 3.8045 -13.7912
# 3 20.9874 37.8544 96.3609 17.2206 5.7185 -11.1573
# 4 22.4921 27.8964 17.2206 37.1560 0.4908 -4.0084
# 5 7.9483 3.8045 5.7185 0.4908 36.5396 13.1223
# 6 -26.3999 -13.7912 -11.1573 -4.0084 13.1223 54.2464
#
#
#
# Elastic Compliance Matrix: (Units=1/GPa)
#
#
# Indices 1 2 3 4 5 6 
#
# 1 0.012520 -0.004049 0.000550 -0.004092 -0.004472 0.005956
# 2 -0.004049 0.012958 -0.003146 -0.005794 0.000013 0.000246
# 3 0.000550 -0.003146 0.012550 -0.003493 -0.002576 0.002414
# 4 -0.004092 -0.005794 -0.003493 0.035096 0.002343 -0.002157
# 5 -0.004472 0.000013 -0.002576 0.002343 0.032437 -0.010376
# 6 0.005956 0.000246 0.002414 -0.002157 -0.010376 0.024243
#
#
# Mechanical properties :
#
#
# Convention : Reuss Voigt Hill
#
# Bulk Modulus (GPa) = 40.42049 61.54146 50.98097
# Shear Modulus (GPa) = 33.03820 40.19514 36.61667
#
# Velocity S-wave (km/s) = 3.61326 3.98545 3.80391
# Velocity P-wave (km/s) = 5.77757 6.74519 6.28005
#
# Compressibility (1/GPa) = 0.02473993
#
# Stress axis : x y z
#
# Youngs Moduli (GPa) = 79.87282 77.17087 79.67908
#
# Poissons Ratio (x) = 0.31244 -0.04383
# Poissons Ratio (y) = 0.32338 0.25064
# Poissons Ratio (z) = -0.04393 0.24275
#
# Static dielectric constant tensor:
#      x y z
#    x 5.642800 -0.676830 -0.360460 
#    y -0.676830 5.325880 0.231060 
#    z -0.360460 0.231060 4.781640 
# 
# 
# High freq. dielectric constant tensor:
#      x y z
#    x 2.029190 0.002460 -0.009150 
#    y 0.002460 2.030370 0.006680 
#    z -0.009150 0.006680 2.021120 
# 
# From -- ./inp_files/82648.got.cif
#   From: 2010.06.25/outbox.cif.g09.slc.cpg/sg2_42_cif.got.tgz:82648.got - 2010.06.27 13:26:56.
