data_PCOD8037296
_publ_section_title
;
Structure prediction by ZEFSAII (Michael W. Deem and Ramdas Pophale) SiO2 
 PCOD8037296
Probable space group: P -1
;
_chemical_formula_sum "Si O2"
_cell_formula_units_Z 16
_cell_length_a 8.516819
_cell_length_b 25.716595
_cell_length_c 26.188162
_cell_angle_alpha 169.100059
_cell_angle_beta 41.618090
_cell_angle_gamma 139.554624
_cell_volume 703.610913
_symmetry_space_group_name_H-M "P -1"
_symmetry_group_IT_number 2
_symmetry_cell_setting 'triclinic'
loop_
_space_group_symop_operation_xyz
x,y,z
-x,-y,-z
loop_
_atom_site_type_symbol
_atom_site_label
_atom_site_fract_x
_atom_site_fract_y
_atom_site_fract_z
Si Si1 0.736307 0.424578 0.893336
Si Si2 0.173310 0.795268 0.747644
Si Si3 0.764509 0.862399 0.393315
Si Si4 0.191390 0.621294 0.905780
Si Si5 0.455166 0.200657 0.248111
Si Si6 0.690668 0.310832 0.595546
Si Si7 0.999823 0.887449 0.112692
Si Si8 0.501416 0.162549 0.387459
O O1 0.670088 0.101337 0.615295
O O2 0.500000 0.500000 0.000000
O O3 0.831096 0.629521 0.115060
O O4 0.940881 0.452987 0.827834
O O5 0.366164 0.799393 0.748767
O O6 0.310530 0.874491 0.737607
O O7 0.000000 0.500000 0.500000
O O8 0.000000 0.000000 0.000000
O O9 0.560143 0.703349 0.328021
O O10 0.000000 0.000000 0.500000
O O11 0.147566 0.778491 0.016439
O O12 0.320799 0.856899 0.142031
O O13 0.355396 0.401863 0.639631
O O14 0.500000 0.500000 0.500000
O O15 0.180544 0.096131 0.232904
O O16 0.500000 0.000000 0.000000
O O17 0.645662 0.241272 0.480216
O O18 0.823312 0.076772 0.361561
O O19 0.850582 0.624090 0.863440
#
# Coordination Sequence:
#
# PCOD8037296 Si02
#       8
#     2   2   2   2   2   2   2   2
#     4  12  25  43  71 104 140 185 238 292 352 412
#     4  12  28  49  75 106 142 182 233 287 348 424
#     4  12  25  45  69 104 145 186 239 293 351 414
#     4  12  24  47  72 100 141 190 234 292 347 420
#     4  12  28  49  75 106 142 184 229 287 358 418
#     4  12  26  45  72 105 142 190 235 293 349 413
#     4  12  27  47  72 104 145 182 239 289 350 424
#     4  12  27  47  72 103 141 187 239 281 353 417
#
# _framework density 22.739839
#
# number of rings (size 3 to 8) (size 9 to 14) (size 15 to 20)
#    0.000    0.000    1.250    9.000    7.000    0.000 
#    0.000    0.000    0.000    0.000    0.000    0.000 
#    0.000    0.000    0.000    0.000    0.000    0.000 
#
# Total GULP energy -198526.685179 kJ/mol
# GULP energy per Si atom -12407.917824 kJ/mol
# Density = 2.268808 g / cm^3
# Si number density = 22.739839 Si / 1000 Ang^3
#
#
#
# Elastic Constant Matrix: (Units=GPa)
#
#
# Indices 1 2 3 4 5 6 
#
# 1 78.2071 50.9745 17.7472 8.3354 5.4300 8.8118
# 2 50.9745 142.0502 58.9639 2.7100 0.9945 1.9350
# 3 17.7472 58.9639 138.9032 3.5700 -0.7617 7.1236
# 4 8.3354 2.7100 3.5700 44.9917 6.9056 2.1855
# 5 5.4300 0.9945 -0.7617 6.9056 49.9083 1.3348
# 6 8.8118 1.9350 7.1236 2.1855 1.3348 39.0458
#
#
#
# Elastic Compliance Matrix: (Units=1/GPa)
#
#
# Indices 1 2 3 4 5 6 
#
# 1 0.017650 -0.006545 0.000767 -0.002557 -0.001328 -0.003610
# 2 -0.006545 0.010979 -0.003924 0.000741 0.000288 0.001597
# 3 0.000767 -0.003924 0.008864 -0.000571 0.000251 -0.001572
# 4 -0.002557 0.000741 -0.000571 0.023178 -0.002938 -0.000552
# 5 -0.001328 0.000288 0.000251 -0.002938 0.020594 -0.000300
# 6 -0.003610 0.001597 -0.001572 -0.000552 -0.000300 0.026675
#
#
# Mechanical properties :
#
#
# Convention : Reuss Voigt Hill
#
# Bulk Modulus (GPa) = 55.28174 68.28131 61.78152
# Shear Modulus (GPa) = 37.48901 42.22084 39.85492
#
# Velocity S-wave (km/s) = 4.06471 4.31361 4.19100
# Velocity P-wave (km/s) = 6.81120 7.40959 7.11668
#
# Compressibility (1/GPa) = 0.01808916
#
# Stress axis : x y z
#
# Youngs Moduli (GPa) = 56.65785 91.08201 112.82056
#
# Poissons Ratio (x) = 0.59610 -0.08650
# Poissons Ratio (y) = 0.37080 0.44269
# Poissons Ratio (z) = -0.04344 0.35739
#
# Static dielectric constant tensor:
#      x y z
#    x 4.309410 0.062120 0.041380 
#    y 0.062120 3.779690 -0.018910 
#    z 0.041380 -0.018910 4.388770 
# 
# 
# High freq. dielectric constant tensor:
#      x y z
#    x 1.910790 0.006160 0.004170 
#    y 0.006160 1.910760 0.001550 
#    z 0.004170 0.001550 1.920140 
# 
# From -- ./inp_files/617701.got.cif
#   From: 2010.06.25/outbox.cif.g09.slc.cpg/sg2_309_cif.got.tgz:617701.got - 2010.06.27 13:26:56.
