data_PCOD8037669
_publ_section_title
;
Structure prediction by ZEFSAII (Michael W. Deem and Ramdas Pophale) SiO2 
 PCOD8037669
Probable space group: P -1
;
_chemical_formula_sum "Si O2"
_cell_formula_units_Z 16
_cell_length_a 4.902178
_cell_length_b 18.431151
_cell_length_c 7.664463
_cell_angle_alpha 88.065131
_cell_angle_beta 88.832625
_cell_angle_gamma 55.133991
_cell_volume 567.870252
_symmetry_space_group_name_H-M "P -1"
_symmetry_group_IT_number 2
_symmetry_cell_setting 'triclinic'
loop_
_space_group_symop_operation_xyz
x,y,z
-x,-y,-z
loop_
_atom_site_type_symbol
_atom_site_label
_atom_site_fract_x
_atom_site_fract_y
_atom_site_fract_z
Si Si1 0.536093 0.221326 0.259802
Si Si2 0.220438 0.056403 0.333143
Si Si3 0.501430 0.207434 0.872172
Si Si4 0.139132 0.416449 0.337531
Si Si5 0.915716 0.971940 0.181323
Si Si6 0.531380 0.341387 0.666803
Si Si7 0.811071 0.819617 0.433832
Si Si8 0.565220 0.487904 0.797732
O O1 0.936911 0.158024 0.270954
O O2 0.405219 0.323321 0.250793
O O3 0.383605 0.199615 0.423323
O O4 0.433813 0.201449 0.076344
O O5 0.288280 0.078405 0.531873
O O6 0.522198 0.022492 0.198515
O O7 0.069311 0.998412 0.334429
O O8 0.889737 0.134580 0.816734
O O9 0.410594 0.304748 0.822177
O O10 0.286097 0.183974 0.762763
O O11 0.216417 0.410513 0.544002
O O12 0.160301 0.492834 0.244715
O O13 0.768509 0.441876 0.312952
O O14 0.000000 0.000000 0.000000
O O15 0.692113 0.388647 0.747524
O O16 0.797415 0.258649 0.546933
O O17 0.500000 0.500000 0.000000
#
# Coordination Sequence:
#
# PCOD8037669 Si02
#       8
#     2   2   2   2   2   2   2   2
#     4  12  26  51  81 117 160 219 263 341 401 483
#     4  12  25  50  79 107 165 210 271 332 411 468
#     4  12  29  48  81 119 158 217 275 335 402 490
#     4  12  26  50  81 113 163 210 260 331 399 477
#     4  12  27  48  80 119 160 214 276 339 404 472
#     4  12  28  49  79 118 163 212 271 326 414 479
#     4  12  26  51  77 117 162 212 272 331 409 475
#     4  12  29  50  81 122 159 208 267 330 400 485
#
# _framework density 28.175447999999999
#
# number of rings (size 3 to 8) (size 9 to 14) (size 15 to 20)
#    0.000    0.000    5.000    3.000    5.250    2.000 
#    0.000    0.000    0.000    0.000    0.000    0.000 
#    0.000    0.000    0.000    0.000    0.000    0.000 
#
# Total GULP energy -198496.923990 kJ/mol
# GULP energy per Si atom -12406.057749 kJ/mol
# Density = 2.811132 g / cm^3
# Si number density = 28.175448 Si / 1000 Ang^3
#
#
#
# Elastic Constant Matrix: (Units=GPa)
#
#
# Indices 1 2 3 4 5 6 
#
# 1 96.8345 5.9702 6.8596 0.8661 2.6794 -3.4489
# 2 5.9702 116.6001 9.1618 19.6135 -10.3680 29.3133
# 3 6.8596 9.1618 132.1629 14.5640 1.9253 -1.0314
# 4 0.8661 19.6135 14.5640 42.0217 4.8485 10.6185
# 5 2.6794 -10.3680 1.9253 4.8485 28.9303 12.7254
# 6 -3.4489 29.3133 -1.0314 10.6185 12.7254 42.3026
#
#
#
# Elastic Compliance Matrix: (Units=1/GPa)
#
#
# Indices 1 2 3 4 5 6 
#
# 1 0.010608 -0.001438 -0.000420 0.000250 -0.002649 0.002585
# 2 -0.001438 0.013245 -0.000617 -0.004277 0.010673 -0.011447
# 3 -0.000420 -0.000617 0.007960 -0.002748 -0.000937 0.001559
# 4 0.000250 -0.004277 -0.002748 0.027971 -0.004905 -0.002628
# 5 -0.002649 0.010673 -0.000937 -0.004905 0.048793 -0.021081
# 6 0.002585 -0.011447 0.001559 -0.002628 -0.021081 0.038821
#
#
# Mechanical properties :
#
#
# Convention : Reuss Voigt Hill
#
# Bulk Modulus (GPa) = 37.22468 43.28676 40.25572
# Shear Modulus (GPa) = 30.99785 44.22467 37.61126
#
# Velocity S-wave (km/s) = 3.32048 3.96614 3.65758
# Velocity P-wave (km/s) = 5.28595 6.03078 5.67061
#
# Compressibility (1/GPa) = 0.02686390
#
# Stress axis : x y z
#
# Youngs Moduli (GPa) = 94.26508 75.50192 125.63444
#
# Poissons Ratio (x) = 0.10854 0.05274
# Poissons Ratio (y) = 0.13552 0.07751
# Poissons Ratio (z) = 0.03957 0.04658
#
# Static dielectric constant tensor:
#      x y z
#    x 4.976640 -0.071960 0.357820 
#    y -0.071960 5.766360 0.210060 
#    z 0.357820 0.210060 5.285470 
# 
# 
# High freq. dielectric constant tensor:
#      x y z
#    x 2.135580 -0.008250 0.006820 
#    y -0.008250 2.169940 0.011070 
#    z 0.006820 0.011070 2.151820 
# 
# From -- ./inp_files/140239.got.cif
#   From: 2010.06.25/outbox.cif.g09.slc.cpg/sg2_71_cif.got.tgz:140239.got - 2010.06.27 13:26:56.
