data_PCOD8037859
_publ_section_title
;
Structure prediction by ZEFSAII (Michael W. Deem and Ramdas Pophale) SiO2 
 PCOD8037859
Probable space group: P -1
;
_chemical_formula_sum "Si O2"
_cell_formula_units_Z 16
_cell_length_a 8.901611
_cell_length_b 14.240615
_cell_length_c 17.694161
_cell_angle_alpha 30.736505
_cell_angle_beta 99.375907
_cell_angle_gamma 120.488534
_cell_volume 774.863771
_symmetry_space_group_name_H-M "P -1"
_symmetry_group_IT_number 2
_symmetry_cell_setting 'triclinic'
loop_
_space_group_symop_operation_xyz
x,y,z
-x,-y,-z
loop_
_atom_site_type_symbol
_atom_site_label
_atom_site_fract_x
_atom_site_fract_y
_atom_site_fract_z
Si Si1 0.368138 0.908654 0.240687
Si Si2 0.605312 0.668252 0.092250
Si Si3 0.755756 0.699428 0.243903
Si Si4 0.978862 0.501355 0.389783
Si Si5 0.837621 0.352685 0.320599
Si Si6 0.002224 0.857818 0.920331
Si Si7 0.672598 0.888775 0.353698
Si Si8 0.638424 0.895003 0.514906
O O1 0.196505 0.781675 0.384337
O O2 0.575907 0.967862 0.239776
O O3 0.226998 0.692001 0.310769
O O4 0.472380 0.193218 0.025084
O O5 0.754928 0.782172 0.101993
O O6 0.388569 0.345572 0.301533
O O7 0.764115 0.748722 0.980062
O O8 0.908943 0.652911 0.290345
O O9 0.504674 0.430429 0.433267
O O10 0.835282 0.924054 0.152415
O O11 0.985366 0.441717 0.344888
O O12 0.606477 0.232082 0.415736
O O13 0.801238 0.132589 0.423966
O O14 0.965508 0.608027 0.101286
O O15 0.106945 0.987410 0.756729
O O16 0.736460 0.012310 0.357809
#
# Coordination Sequence:
#
# PCOD8037859 Si02
#       8
#     2   2   2   2   2   2   2   2
#     4  10  19  31  54  81 113 134 166 221 275 314
#     4  10  18  33  58  78 101 140 190 218 244 314
#     4  10  17  34  53  76 106 145 175 213 248 324
#     4  10  17  32  55  78 107 137 176 214 262 310
#     4  10  18  34  58  77  97 145 194 212 246 312
#     4  11  19  30  57  83 104 137 182 219 257 316
#     4  10  21  35  51  82 118 136 162 222 282 308
#     4   9  19  36  57  73 103 143 189 218 249 308
#
# _framework density 20.648790999999999
#
# number of rings (size 3 to 8) (size 9 to 14) (size 15 to 20)
#    0.000    2.000    6.250    1.500    0.000    0.500 
#    0.000    3.125    2.750    0.750    0.000    0.000 
#    0.000    0.000    0.000    0.000    0.000    0.000 
#
# Total GULP energy -198389.961355 kJ/mol
# GULP energy per Si atom -12399.372585 kJ/mol
# Density = 2.060179 g / cm^3
# Si number density = 20.648791 Si / 1000 Ang^3
#
#
#
# Elastic Constant Matrix: (Units=GPa)
#
#
# Indices 1 2 3 4 5 6 
#
# 1 36.9009 25.7369 28.6048 10.2734 -0.5695 -6.5956
# 2 25.7369 101.3699 43.7513 -1.6760 -3.3933 -23.1977
# 3 28.6048 43.7513 94.5661 10.5260 7.4957 -14.9862
# 4 10.2734 -1.6760 10.5260 30.1270 -9.8006 4.3658
# 5 -0.5695 -3.3933 7.4957 -9.8006 35.5007 7.1900
# 6 -6.5956 -23.1977 -14.9862 4.3658 7.1900 23.8836
#
#
#
# Elastic Compliance Matrix: (Units=1/GPa)
#
#
# Indices 1 2 3 4 5 6 
#
# 1 0.041962 -0.007092 -0.007043 -0.013784 -0.003078 0.003727
# 2 -0.007092 0.015776 -0.004153 0.003791 0.001362 0.009655
# 3 -0.007043 -0.004153 0.017592 -0.007962 -0.008244 0.008997
# 4 -0.013784 0.003791 -0.007962 0.050266 0.019805 -0.020270
# 5 -0.003078 0.001362 -0.008244 0.019805 0.039554 -0.020227
# 6 0.003727 0.009655 0.008997 -0.020270 -0.020227 0.067716
#
#
# Mechanical properties :
#
#
# Convention : Reuss Voigt Hill
#
# Bulk Modulus (GPa) = 25.80445 47.66919 36.73682
# Shear Modulus (GPa) = 17.70789 26.88519 22.29654
#
# Velocity S-wave (km/s) = 2.93162 3.61227 3.28959
# Velocity P-wave (km/s) = 4.89726 6.36662 5.67965
#
# Compressibility (1/GPa) = 0.03875300
#
# Stress axis : x y z
#
# Youngs Moduli (GPa) = 23.83121 63.38799 56.84436
#
# Poissons Ratio (x) = 0.44956 0.40034
# Poissons Ratio (y) = 0.16902 0.23610
# Poissons Ratio (z) = 0.16784 0.26328
#
# Static dielectric constant tensor:
#      x y z
#    x 3.225810 -0.130050 0.091940 
#    y -0.130050 3.665810 0.047190 
#    z 0.091940 0.047190 3.917550 
# 
# 
# High freq. dielectric constant tensor:
#      x y z
#    x 1.758080 -0.011720 0.004960 
#    y -0.011720 1.793290 0.005030 
#    z 0.004960 0.005030 1.822170 
# 
# From -- ./inp_files/217870.got.cif
#   From: 2010.06.25/outbox.cif.g09.slc.cpg/sg2_109_cif.got.tgz:217870.got - 2010.06.27 13:26:56.
