data_PCOD8037007
_publ_section_title
;
Structure prediction by ZEFSAII (Michael W. Deem and Ramdas Pophale) SiO2 
 PCOD8037007
Probable space group: P -1
;
_chemical_formula_sum "Si O2"
_cell_formula_units_Z 10
_cell_length_a 8.133214
_cell_length_b 10.998664
_cell_length_c 9.360517
_cell_angle_alpha 61.916577
_cell_angle_beta 148.253738
_cell_angle_gamma 108.248361
_cell_volume 381.784243
_symmetry_space_group_name_H-M "P -1"
_symmetry_group_IT_number 2
_symmetry_cell_setting 'triclinic'
loop_
_space_group_symop_operation_xyz
x,y,z
-x,-y,-z
loop_
_atom_site_type_symbol
_atom_site_label
_atom_site_fract_x
_atom_site_fract_y
_atom_site_fract_z
Si Si1 0.917715 0.679495 0.791002
Si Si2 0.849359 0.831169 0.152426
Si Si3 0.768306 0.363058 0.667396
Si Si4 0.525796 0.576177 0.126931
Si Si5 0.309968 0.004553 0.502664
O O1 0.570681 0.651672 0.507173
O O2 0.903236 0.844277 0.711904
O O3 0.029134 0.596032 0.069628
O O4 0.163960 0.631353 0.874329
O O5 0.717193 0.701810 0.191119
O O6 0.043571 0.784097 0.174889
O O7 0.086823 0.887104 0.405669
O O8 0.564359 0.961206 0.840050
O O9 0.729108 0.472756 0.448695
O O10 0.500000 0.500000 0.000000
O O11 0.500000 0.000000 0.500000
#
# Coordination Sequence:
#
# PCOD8037007 Si02
#       5
#     2   2   2   2   2
#     4  12  27  46  79 110 144 197 249 300 361 440
#     4  12  25  45  77 108 147 193 235 308 376 422
#     4  12  24  48  76 108 146 196 247 298 359 447
#     4  12  29  50  72 110 157 195 243 306 371 433
#     4  12  23  46  78 108 145 186 250 303 363 440
#
# _framework density 26.192805
#
# number of rings (size 3 to 8) (size 9 to 14) (size 15 to 20)
#    0.000    0.000    4.000    6.000    0.000    8.000 
#    0.000    0.000    0.000    0.000    0.000    0.000 
#    0.000    0.000    0.000    0.000    0.000    0.000 
#
# Total GULP energy -124072.700328 kJ/mol
# GULP energy per Si atom -12407.270033 kJ/mol
# Density = 2.613319 g / cm^3
# Si number density = 26.192805 Si / 1000 Ang^3
#
#
#
# Elastic Constant Matrix: (Units=GPa)
#
#
# Indices 1 2 3 4 5 6 
#
# 1 128.2420 59.8046 54.9375 -16.2165 17.2040 -11.8164
# 2 59.8046 110.7847 38.5087 -3.9350 6.2439 18.9735
# 3 54.9375 38.5087 141.0453 4.1527 10.3517 -2.5106
# 4 -16.2165 -3.9350 4.1527 41.6177 0.5528 10.7130
# 5 17.2040 6.2439 10.3517 0.5528 38.4594 5.1722
# 6 -11.8164 18.9735 -2.5106 10.7130 5.1722 52.1486
#
#
#
# Elastic Compliance Matrix: (Units=1/GPa)
#
#
# Indices 1 2 3 4 5 6 
#
# 1 0.014082 -0.006959 -0.003233 0.003861 -0.005064 0.005276
# 2 -0.006959 0.014466 -0.001545 0.000651 0.002147 -0.007261
# 3 -0.003233 -0.001545 0.008917 -0.002504 -0.000782 0.000851
# 4 0.003861 0.000651 -0.002504 0.027135 -0.000880 -0.004970
# 5 -0.005064 0.002147 -0.000782 -0.000880 0.028765 -0.004639
# 6 0.005276 -0.007261 0.000851 -0.004970 -0.004639 0.024535
#
#
# Mechanical properties :
#
#
# Convention : Reuss Voigt Hill
#
# Bulk Modulus (GPa) = 71.47498 76.28594 73.88046
# Shear Modulus (GPa) = 34.23772 41.56655 37.90213
#
# Velocity S-wave (km/s) = 3.61936 3.98797 3.80813
# Velocity P-wave (km/s) = 6.69430 7.09882 6.89952
#
# Compressibility (1/GPa) = 0.01399091
#
# Stress axis : x y z
#
# Youngs Moduli (GPa) = 71.01393 69.12820 112.14245
#
# Poissons Ratio (x) = 0.48106 0.36255
# Poissons Ratio (y) = 0.49419 0.17326
# Poissons Ratio (z) = 0.22959 0.10680
#
# Static dielectric constant tensor:
#      x y z
#    x 4.752750 -0.091650 0.330240 
#    y -0.091650 5.012480 -0.222350 
#    z 0.330240 -0.222350 5.016060 
# 
# 
# High freq. dielectric constant tensor:
#      x y z
#    x 2.044890 0.000770 0.019160 
#    y 0.000770 2.069400 -0.006880 
#    z 0.019160 -0.006880 2.066040 
# 
# From -- ./inp_files/62855.got.cif
#   From: 2010.06.25/outbox.cif.g09.slc.cpg/sg2_32_cif.got.tgz:62855.got - 2010.06.27 13:26:56.
