data_PCOD8037442
_publ_section_title
;
Structure prediction by ZEFSAII (Michael W. Deem and Ramdas Pophale) SiO2 
 PCOD8037442
Probable space group: P -1
;
_chemical_formula_sum "Si O2"
_cell_formula_units_Z 12
_cell_length_a 22.369371
_cell_length_b 8.391876
_cell_length_c 8.841505
_cell_angle_alpha 145.847938
_cell_angle_beta 35.126232
_cell_angle_gamma 142.263940
_cell_volume 501.620330
_symmetry_space_group_name_H-M "P -1"
_symmetry_group_IT_number 2
_symmetry_cell_setting 'triclinic'
loop_
_space_group_symop_operation_xyz
x,y,z
-x,-y,-z
loop_
_atom_site_type_symbol
_atom_site_label
_atom_site_fract_x
_atom_site_fract_y
_atom_site_fract_z
Si Si1 0.529753 0.705551 0.247842
Si Si2 0.109766 0.082258 0.744815
Si Si3 0.232595 0.646305 0.125602
Si Si4 0.022445 0.837286 0.182795
Si Si5 0.726153 0.804680 0.126897
Si Si6 0.587713 0.846651 0.739847
O O1 0.659714 0.810388 0.112999
O O2 0.464414 0.501765 0.366829
O O3 0.500000 0.000000 0.500000
O O4 0.500000 0.500000 0.000000
O O5 0.080310 0.163993 0.706854
O O6 0.131791 0.766813 0.446798
O O7 0.208770 0.376882 0.839115
O O8 0.000000 0.000000 0.000000
O O9 0.339441 0.951844 0.112556
O O10 0.261252 0.522284 0.129700
O O11 0.000000 0.000000 0.500000
O O12 0.000000 0.500000 0.000000
O O13 0.146649 0.967522 0.960666
O O14 0.663157 0.869318 0.454080
O O15 0.500000 0.000000 0.000000
#
# Coordination Sequence:
#
# PCOD8037442 Si02
#       6
#     2   2   2   2   2   2
#     4  12  30  49  77 118 160 195 254 330 400 458
#     4  12  25  46  77 110 146 198 267 315 371 461
#     4  12  25  43  82 110 147 196 270 313 371 446
#     4  12  30  50  75 111 162 202 250 326 399 451
#     4  12  28  52  79 110 156 212 265 310 391 475
#     4  12  26  50  85 113 152 211 268 312 386 480
#
# _framework density 23.922476
#
# number of rings (size 3 to 8) (size 9 to 14) (size 15 to 20)
#    0.000    0.000    5.000    3.000    7.000    4.000 
#    0.000    0.000    0.000    0.000    0.000    0.000 
#    0.000    0.000    0.000    0.000    0.000    0.000 
#
# Total GULP energy -148657.408966 kJ/mol
# GULP energy per Si atom -12388.117414 kJ/mol
# Density = 2.386803 g / cm^3
# Si number density = 23.922476 Si / 1000 Ang^3
#
#
#
# Elastic Constant Matrix: (Units=GPa)
#
#
# Indices 1 2 3 4 5 6 
#
# 1 198.8308 33.2969 72.3112 23.2090 -24.9511 2.6931
# 2 33.2969 121.7238 54.3429 13.3717 -15.9964 2.3574
# 3 72.3112 54.3429 161.8965 20.8938 -17.2471 -16.7064
# 4 23.2090 13.3717 20.8938 49.3173 -2.5962 -5.5144
# 5 -24.9511 -15.9964 -17.2471 -2.5962 55.2336 14.5353
# 6 2.6931 2.3574 -16.7064 -5.5144 14.5353 47.4158
#
#
#
# Elastic Compliance Matrix: (Units=1/GPa)
#
#
# Indices 1 2 3 4 5 6 
#
# 1 0.006604 0.000002 -0.002636 -0.002116 0.002686 -0.002373
# 2 0.000002 0.010213 -0.003224 -0.001561 0.002566 -0.002612
# 3 -0.002636 -0.003224 0.008923 -0.001302 -0.000292 0.003392
# 4 -0.002116 -0.001561 -0.001302 0.022483 -0.001498 0.002813
# 5 0.002686 0.002566 -0.000292 -0.001498 0.021805 -0.007242
# 6 -0.002373 -0.002612 0.003392 0.002813 -0.007242 0.025097
#
#
# Mechanical properties :
#
#
# Convention : Reuss Voigt Hill
#
# Bulk Modulus (GPa) = 71.30400 89.15033 80.22717
# Shear Modulus (GPa) = 44.83640 51.89334 48.36487
#
# Velocity S-wave (km/s) = 4.33394 4.66255 4.50125
# Velocity P-wave (km/s) = 7.41047 8.14451 7.78615
#
# Compressibility (1/GPa) = 0.01402446
#
# Stress axis : x y z
#
# Youngs Moduli (GPa) = 151.42603 97.91097 112.06787
#
# Poissons Ratio (x) = -0.00016 0.29540
# Poissons Ratio (y) = -0.00025 0.36127
# Poissons Ratio (z) = 0.39915 0.31563
#
# Static dielectric constant tensor:
#      x y z
#    x 2.168340 -1.130760 1.703500 
#    y -1.130760 3.910360 1.008370 
#    z 1.703500 1.008370 3.032900 
# 
# 
# High freq. dielectric constant tensor:
#      x y z
#    x 1.974880 0.015070 -0.017630 
#    y 0.015070 1.949350 0.020470 
#    z -0.017630 0.020470 1.957120 
# 
# From -- ./inp_files/45336.got.cif
#   From: 2010.06.25/outbox.cif.g09.slc.cpg/sg2_23_cif.got.tgz:45336.got - 2010.06.27 13:26:56.
