data_PCOD8037690
_publ_section_title
;
Structure prediction by ZEFSAII (Michael W. Deem and Ramdas Pophale) SiO2 
 PCOD8037690
Probable space group: P -1
;
_chemical_formula_sum "Si O2"
_cell_formula_units_Z 14
_cell_length_a 15.174511
_cell_length_b 7.875434
_cell_length_c 8.311205
_cell_angle_alpha 79.393747
_cell_angle_beta 45.791016
_cell_angle_gamma 61.088182
_cell_volume 604.395782
_symmetry_space_group_name_H-M "P -1"
_symmetry_group_IT_number 2
_symmetry_cell_setting 'triclinic'
loop_
_space_group_symop_operation_xyz
x,y,z
-x,-y,-z
loop_
_atom_site_type_symbol
_atom_site_label
_atom_site_fract_x
_atom_site_fract_y
_atom_site_fract_z
Si Si1 0.349771 0.552963 0.240767
Si Si2 0.116069 0.863155 0.257412
Si Si3 0.656336 0.376870 0.389590
Si Si4 0.658937 0.802905 0.826973
Si Si5 0.785187 0.627952 0.036480
Si Si6 0.802547 0.944698 0.148770
Si Si7 0.942791 0.719166 0.313424
O O1 0.254110 0.723582 0.207854
O O2 0.325156 0.626881 0.441947
O O3 0.337172 0.356576 0.275758
O O4 0.500000 0.500000 0.000000
O O5 0.063514 0.734180 0.253756
O O6 0.000000 0.000000 0.500000
O O7 0.132642 0.016981 0.097924
O O8 0.500000 0.500000 0.500000
O O9 0.751713 0.459417 0.175084
O O10 0.692563 0.156726 0.328237
O O11 0.792482 0.819680 0.583725
O O12 0.692306 0.723461 0.978848
O O13 0.500000 0.000000 0.000000
O O14 0.737219 0.806157 0.198345
O O15 0.958817 0.522829 0.801469
O O16 0.922000 0.825229 0.150630
#
# Coordination Sequence:
#
# PCOD8037690 Si02
#       7
#     2   2   2   2   2   2   2
#     4  12  28  51  75 109 156 200 254 315 381 453
#     4  12  26  45  79 111 150 203 250 311 378 452
#     4  12  28  50  77 113 159 200 254 320 383 458
#     4  12  29  49  78 113 152 202 257 314 386 458
#     4  12  27  50  78 113 155 197 260 317 381 455
#     4  12  27  47  79 113 155 201 254 310 389 452
#     4  12  26  50  75 114 156 197 258 320 376 454
#
# _framework density 23.163630000000001
#
# number of rings (size 3 to 8) (size 9 to 14) (size 15 to 20)
#    0.000    0.000    2.857    5.571   14.000    0.571 
#    0.000    0.000    0.000    0.000    0.000    0.000 
#    0.000    0.000    0.000    0.000    0.000    0.000 
#
# Total GULP energy -173468.062215 kJ/mol
# GULP energy per Si atom -12390.575872 kJ/mol
# Density = 2.311091 g / cm^3
# Si number density = 23.163630 Si / 1000 Ang^3
#
#
#
# Elastic Constant Matrix: (Units=GPa)
#
#
# Indices 1 2 3 4 5 6 
#
# 1 150.7361 63.8921 66.8354 8.6428 12.6049 -22.7347
# 2 63.8921 122.4902 49.7972 18.2129 2.8025 -18.5284
# 3 66.8354 49.7972 112.8958 13.1456 -1.1376 -19.5677
# 4 8.6428 18.2129 13.1456 47.5187 -1.0557 7.4539
# 5 12.6049 2.8025 -1.1376 -1.0557 48.1597 5.0323
# 6 -22.7347 -18.5284 -19.5677 7.4539 5.0323 56.6063
#
#
#
# Elastic Compliance Matrix: (Units=1/GPa)
#
#
# Indices 1 2 3 4 5 6 
#
# 1 0.010560 -0.003379 -0.004512 0.000278 -0.002855 0.001793
# 2 -0.003379 0.011762 -0.002402 -0.003569 -0.000159 0.002147
# 3 -0.004512 -0.002402 0.013233 -0.002227 0.001360 0.002149
# 4 0.000278 -0.003569 -0.002227 0.023797 0.001133 -0.005061
# 5 -0.002855 -0.000159 0.001360 0.001133 0.021873 -0.002822
# 6 0.001793 0.002147 0.002149 -0.005061 -0.002822 0.020749
#
#
# Mechanical properties :
#
#
# Convention : Reuss Voigt Hill
#
# Bulk Modulus (GPa) = 66.79527 83.01905 74.90716
# Shear Modulus (GPa) = 39.20100 44.16343 41.68221
#
# Velocity S-wave (km/s) = 4.11828 4.37118 4.24662
# Velocity P-wave (km/s) = 7.17722 7.83546 7.51355
#
# Compressibility (1/GPa) = 0.01497112
#
# Stress axis : x y z
#
# Youngs Moduli (GPa) = 94.69788 85.02096 75.56662
#
# Poissons Ratio (x) = 0.28727 0.34092
# Poissons Ratio (y) = 0.31996 0.18148
# Poissons Ratio (z) = 0.42724 0.20419
#
# Static dielectric constant tensor:
#      x y z
#    x 4.337820 -0.070710 0.264590 
#    y -0.070710 4.235940 0.212500 
#    z 0.264590 0.212500 4.324600 
# 
# 
# High freq. dielectric constant tensor:
#      x y z
#    x 1.934940 -0.008320 0.013440 
#    y -0.008320 1.929100 0.011400 
#    z 0.013440 0.011400 1.927880 
# 
# From -- ./inp_files/295381.got.cif
#   From: 2010.06.25/outbox.cif.g09.slc.cpg/sg2_148_cif.got.tgz:295381.got - 2010.06.27 13:26:56.
