data_PCOD8037542
_publ_section_title
;
Structure prediction by ZEFSAII (Michael W. Deem and Ramdas Pophale) SiO2 
 PCOD8037542
Probable space group: P -1
;
_chemical_formula_sum "Si O2"
_cell_formula_units_Z 16
_cell_length_a 15.145354
_cell_length_b 12.459473
_cell_length_c 8.364068
_cell_angle_alpha 72.391232
_cell_angle_beta 127.058701
_cell_angle_gamma 65.083579
_cell_volume 730.507781
_symmetry_space_group_name_H-M "P -1"
_symmetry_group_IT_number 2
_symmetry_cell_setting 'triclinic'
loop_
_space_group_symop_operation_xyz
x,y,z
-x,-y,-z
loop_
_atom_site_type_symbol
_atom_site_label
_atom_site_fract_x
_atom_site_fract_y
_atom_site_fract_z
Si Si1 0.157194 0.070237 0.438259
Si Si2 0.502001 0.228409 0.277753
Si Si3 0.493076 0.523573 0.793404
Si Si4 0.553791 0.080593 0.730409
Si Si5 0.181193 0.311350 0.366172
Si Si6 0.276797 0.847671 0.960621
Si Si7 0.205325 0.325487 0.744289
Si Si8 0.124511 0.836787 0.086162
O O1 0.160126 0.197228 0.429106
O O2 0.340117 0.886500 0.628824
O O3 0.140739 0.011839 0.609294
O O4 0.979433 0.187147 0.087368
O O5 0.458928 0.385532 0.234089
O O6 0.567223 0.093034 0.550526
O O7 0.319346 0.330782 0.951774
O O8 0.297747 0.649204 0.452347
O O9 0.500000 0.500000 0.000000
O O10 0.632898 0.333793 0.937882
O O11 0.354811 0.191308 0.497863
O O12 0.578762 0.173602 0.819287
O O13 0.709990 0.865004 0.040120
O O14 0.211342 0.346938 0.552669
O O15 0.000000 0.500000 0.000000
O O16 0.167104 0.895855 0.972867
O O17 0.000000 0.500000 0.500000
O O18 0.000000 0.000000 0.000000
#
# Coordination Sequence:
#
# PCOD8037542 Si02
#       8
#     2   2   2   2   2   2   2   2
#     4  12  25  47  73 103 149 189 239 303 361 428
#     4  12  25  48  73 105 149 191 237 306 365 426
#     4  12  26  46  71 107 143 191 241 295 363 428
#     4  12  25  48  76 102 149 192 240 301 367 428
#     4  12  28  46  73 110 143 193 243 297 369 437
#     4  12  25  47  73 104 145 195 236 300 364 429
#     4  12  27  48  73 108 141 190 247 299 366 434
#     4  12  25  47  71 107 142 189 248 294 359 430
#
# _framework density 21.902574000000001
#
# number of rings (size 3 to 8) (size 9 to 14) (size 15 to 20)
#    0.000    0.000    6.250    3.000    3.500    1.000 
#    4.500    0.000    0.000    0.000    0.000    0.000 
#    0.000    0.000    0.000    0.000    0.000    0.000 
#
# Total GULP energy -198509.293389 kJ/mol
# GULP energy per Si atom -12406.830837 kJ/mol
# Density = 2.185272 g / cm^3
# Si number density = 21.902574 Si / 1000 Ang^3
#
#
#
# Elastic Constant Matrix: (Units=GPa)
#
#
# Indices 1 2 3 4 5 6 
#
# 1 118.3425 36.1349 54.6647 -5.2347 -5.7987 -14.1362
# 2 36.1349 112.9427 53.3558 -1.9988 5.5052 4.2114
# 3 54.6647 53.3558 147.9558 13.4714 0.8079 -1.8006
# 4 -5.2347 -1.9988 13.4714 47.6904 3.3950 0.5675
# 5 -5.7987 5.5052 0.8079 3.3950 40.4073 11.5244
# 6 -14.1362 4.2114 -1.8006 0.5675 11.5244 39.3681
#
#
#
# Elastic Compliance Matrix: (Units=1/GPa)
#
#
# Indices 1 2 3 4 5 6 
#
# 1 0.011329 -0.002074 -0.003583 0.002073 0.000696 0.003893
# 2 -0.002074 0.011300 -0.003444 0.001338 -0.001389 -0.001724
# 3 -0.003583 -0.003444 0.009614 -0.003260 0.000174 -0.000482
# 4 0.002073 0.001338 -0.003260 0.022299 -0.001888 0.000683
# 5 0.000696 -0.001389 0.000174 -0.001888 0.027352 -0.007573
# 6 0.003893 -0.001724 -0.000482 0.000683 -0.007573 0.029169
#
#
# Mechanical properties :
#
#
# Convention : Reuss Voigt Hill
#
# Bulk Modulus (GPa) = 71.21686 74.17243 72.69465
# Shear Modulus (GPa) = 37.32815 41.16553 39.24684
#
# Velocity S-wave (km/s) = 4.13277 4.34000 4.23766
# Velocity P-wave (km/s) = 7.44036 7.68456 7.56344
#
# Compressibility (1/GPa) = 0.01404162
#
# Stress axis : x y z
#
# Youngs Moduli (GPa) = 88.26754 88.49254 104.00990
#
# Poissons Ratio (x) = 0.18357 0.37265
# Poissons Ratio (y) = 0.18311 0.35820
# Poissons Ratio (z) = 0.31625 0.30476
#
# Static dielectric constant tensor:
#      x y z
#    x 4.125060 0.167080 -0.076850 
#    y 0.167080 4.273620 0.229800 
#    z -0.076850 0.229800 3.929920 
# 
# 
# High freq. dielectric constant tensor:
#      x y z
#    x 1.868680 0.001240 -0.007890 
#    y 0.001240 1.875960 0.016180 
#    z -0.007890 0.016180 1.872460 
# 
# From -- ./inp_files/274437.got.cif
#   From: 2010.06.25/outbox.cif.g09.slc.cpg/sg2_138_cif.got.tgz:274437.got - 2010.06.27 13:26:56.
