data_PCOD8037056
_publ_section_title
;
Structure prediction by ZEFSAII (Michael W. Deem and Ramdas Pophale) SiO2 
 PCOD8037056
Probable space group: P -1
;
_chemical_formula_sum "Si O2"
_cell_formula_units_Z 16
_cell_length_a 8.393076
_cell_length_b 9.137831
_cell_length_c 12.741186
_cell_angle_alpha 58.830181
_cell_angle_beta 133.972394
_cell_angle_gamma 117.965766
_cell_volume 592.122357
_symmetry_space_group_name_H-M "P -1"
_symmetry_group_IT_number 2
_symmetry_cell_setting 'triclinic'
loop_
_space_group_symop_operation_xyz
x,y,z
-x,-y,-z
loop_
_atom_site_type_symbol
_atom_site_label
_atom_site_fract_x
_atom_site_fract_y
_atom_site_fract_z
Si Si1 0.918415 0.983906 0.099433
Si Si2 0.893160 0.354552 0.697906
Si Si3 0.458651 0.262886 0.882327
Si Si4 0.069164 0.572633 0.888077
Si Si5 0.799216 0.075224 0.434285
Si Si6 0.593920 0.133846 0.775330
Si Si7 0.730203 0.406475 0.384800
Si Si8 0.253612 0.196633 0.317399
O O1 0.677955 0.923798 0.073234
O O2 0.029372 0.821197 0.229665
O O3 0.082643 0.149897 0.158920
O O4 0.828364 0.052312 0.922421
O O5 0.637396 0.285462 0.649787
O O6 0.883096 0.456500 0.543452
O O7 0.056353 0.439464 0.834498
O O8 0.542765 0.241724 0.811824
O O9 0.303234 0.416096 0.754920
O O10 0.676507 0.321784 0.033557
O O11 0.882801 0.683502 0.720666
O O12 0.000000 0.500000 0.000000
O O13 0.843401 0.281699 0.402967
O O14 0.594730 0.029083 0.277200
O O15 0.722880 0.976088 0.544641
O O16 0.000000 0.000000 0.500000
O O17 0.489225 0.297852 0.346618
#
# Coordination Sequence:
#
# PCOD8037056 Si02
#       8
#     2   2   2   2   2   2   2   2
#     4  12  27  47  74 109 151 193 248 312 369 430
#     4  12  26  47  76 109 147 201 246 306 364 440
#     4  12  28  48  74 111 154 192 242 311 373 439
#     4  12  25  46  75 110 147 194 244 301 367 436
#     4  12  28  46  74 111 146 194 244 314 373 431
#     4  12  25  46  76 109 145 195 251 299 372 441
#     4  12  27  50  75 110 150 194 253 300 370 451
#     4  12  23  49  77 103 150 195 251 300 363 445
#
# _framework density 27.021443000000001
#
# number of rings (size 3 to 8) (size 9 to 14) (size 15 to 20)
#    0.000    0.000    6.250    2.625    5.250    3.000 
#    0.000    0.000    0.000    0.000    0.000    0.000 
#    0.000    0.000    0.000    0.000    0.000    0.000 
#
# Total GULP energy -198301.723480 kJ/mol
# GULP energy per Si atom -12393.857718 kJ/mol
# Density = 2.695994 g / cm^3
# Si number density = 27.021443 Si / 1000 Ang^3
#
#
#
# Elastic Constant Matrix: (Units=GPa)
#
#
# Indices 1 2 3 4 5 6 
#
# 1 50.9312 13.5300 17.2124 13.2772 -8.3333 1.6184
# 2 13.5300 101.4109 28.7638 22.4254 -1.5484 -6.8443
# 3 17.2124 28.7638 104.8194 17.9443 6.0904 -5.9550
# 4 13.2772 22.4254 17.9443 60.9110 0.0916 0.4851
# 5 -8.3333 -1.5484 6.0904 0.0916 42.3404 -11.8125
# 6 1.6184 -6.8443 -5.9550 0.4851 -11.8125 38.6113
#
#
#
# Elastic Compliance Matrix: (Units=1/GPa)
#
#
# Indices 1 2 3 4 5 6 
#
# 1 0.022743 -0.001312 -0.003050 -0.003582 0.004838 -0.000131
# 2 -0.001312 0.011593 -0.002342 -0.003311 0.001103 0.002128
# 3 -0.003050 -0.002342 0.011152 -0.001762 -0.002056 0.000826
# 4 -0.003582 -0.003311 -0.001762 0.018947 -0.000960 -0.001240
# 5 0.004838 0.001103 -0.002056 -0.000960 0.027138 0.007990
# 6 -0.000131 0.002128 0.000826 -0.001240 0.007990 0.028869
#
#
# Mechanical properties :
#
#
# Convention : Reuss Voigt Hill
#
# Bulk Modulus (GPa) = 31.17281 41.79710 36.48495
# Shear Modulus (GPa) = 34.59163 41.54957 38.07060
#
# Velocity S-wave (km/s) = 3.58181 3.92554 3.75761
# Velocity P-wave (km/s) = 5.35417 6.00402 5.68838
#
# Compressibility (1/GPa) = 0.03207924
#
# Stress axis : x y z
#
# Youngs Moduli (GPa) = 43.96915 86.26019 89.67228
#
# Poissons Ratio (x) = 0.11318 0.27349
# Poissons Ratio (y) = 0.05769 0.21003
# Poissons Ratio (z) = 0.13410 0.20204
#
# Static dielectric constant tensor:
#      x y z
#    x 6.945720 1.641900 0.084570 
#    y 1.641900 6.240160 -0.085580 
#    z 0.084570 -0.085580 5.164910 
# 
# 
# High freq. dielectric constant tensor:
#      x y z
#    x 2.109720 0.011130 0.009570 
#    y 0.011130 2.099640 0.001620 
#    z 0.009570 0.001620 2.094060 
# 
# From -- ./inp_files/333650.got.cif
#   From: 2010.06.25/outbox.cif.g09.slc.cpg/sg2_167_cif.got.tgz:333650.got - 2010.06.27 13:26:56.
