data_PCOD8037478
_publ_section_title
;
Structure prediction by ZEFSAII (Michael W. Deem and Ramdas Pophale) SiO2 
 PCOD8037478
Probable space group: P -1
;
_chemical_formula_sum "Si O2"
_cell_formula_units_Z 14
_cell_length_a 8.485959
_cell_length_b 8.193651
_cell_length_c 20.328962
_cell_angle_alpha 55.628366
_cell_angle_beta 147.912709
_cell_angle_gamma 125.913458
_cell_volume 600.572826
_symmetry_space_group_name_H-M "P -1"
_symmetry_group_IT_number 2
_symmetry_cell_setting 'triclinic'
loop_
_space_group_symop_operation_xyz
x,y,z
-x,-y,-z
loop_
_atom_site_type_symbol
_atom_site_label
_atom_site_fract_x
_atom_site_fract_y
_atom_site_fract_z
Si Si1 0.784939 0.557740 0.965795
Si Si2 0.508578 0.377182 0.466608
Si Si3 0.684512 0.372174 0.768075
Si Si4 0.703476 0.978709 0.791538
Si Si5 0.286472 0.150882 0.878990
Si Si6 0.098061 0.277784 0.653069
Si Si7 0.207171 0.966471 0.520160
O O1 0.710316 0.775522 0.879310
O O2 0.469599 0.385946 0.898879
O O3 0.000000 0.500000 0.000000
O O4 0.970680 0.575870 0.095365
O O5 0.500000 0.500000 0.500000
O O6 0.317208 0.462270 0.325646
O O7 0.865435 0.408628 0.565780
O O8 0.331954 0.147817 0.471594
O O9 0.448395 0.403087 0.735247
O O10 0.580133 0.137370 0.757862
O O11 0.496016 0.908438 0.669499
O O12 0.036985 0.102434 0.858693
O O13 0.124976 0.117637 0.757117
O O14 0.500000 0.000000 0.000000
O O15 0.980798 0.203568 0.555793
O O16 0.000000 0.000000 0.500000
#
# Coordination Sequence:
#
# PCOD8037478 Si02
#       7
#     2   2   2   2   2   2   2
#     4  12  27  46  77 106 143 202 249 302 371 439
#     4  12  25  46  73 109 148 186 250 308 375 440
#     4  12  26  48  71 110 147 196 245 306 371 445
#     4  12  26  51  72 106 159 187 251 311 366 444
#     4  12  26  47  75 109 148 195 255 307 364 441
#     4  12  25  45  74 107 148 196 240 310 374 439
#     4  12  26  46  74 110 147 195 243 307 373 444
#
# _framework density 23.311077999999998
#
# number of rings (size 3 to 8) (size 9 to 14) (size 15 to 20)
#    0.000    0.000    7.143    1.286    4.000    4.000 
#    0.000    0.000    0.000    0.000    0.000    0.000 
#    0.000    0.000    0.000    0.000    0.000    0.000 
#
# Total GULP energy -173573.112046 kJ/mol
# GULP energy per Si atom -12398.079432 kJ/mol
# Density = 2.325802 g / cm^3
# Si number density = 23.311078 Si / 1000 Ang^3
#
#
#
# Elastic Constant Matrix: (Units=GPa)
#
#
# Indices 1 2 3 4 5 6 
#
# 1 125.7127 40.4907 49.8443 -6.3658 9.0041 0.5927
# 2 40.4907 79.5009 58.3798 -4.6855 2.6800 20.5035
# 3 49.8443 58.3798 193.3259 -20.1870 -18.0796 1.1787
# 4 -6.3658 -4.6855 -20.1870 44.2454 6.0231 -3.9344
# 5 9.0041 2.6800 -18.0796 6.0231 42.7217 2.9462
# 6 0.5927 20.5035 1.1787 -3.9344 2.9462 39.9806
#
#
#
# Elastic Compliance Matrix: (Units=1/GPa)
#
#
# Indices 1 2 3 4 5 6 
#
# 1 0.010265 -0.004728 -0.001395 0.000949 -0.002771 0.002611
# 2 -0.004728 0.021986 -0.005697 -0.001692 -0.001792 -0.011072
# 3 -0.001395 -0.005697 0.007821 0.002540 0.003416 0.002710
# 4 0.000949 -0.001692 0.002540 0.024384 -0.002690 0.003376
# 5 -0.002771 -0.001792 0.003416 -0.002690 0.026020 -0.001323
# 6 0.002611 -0.011072 0.002710 0.003376 -0.001323 0.031001
#
#
# Mechanical properties :
#
#
# Convention : Reuss Voigt Hill
#
# Bulk Modulus (GPa) = 60.85577 77.32991 69.09284
# Shear Modulus (GPa) = 33.20215 42.04451 37.62333
#
# Velocity S-wave (km/s) = 3.77809 4.25152 4.02178
# Velocity P-wave (km/s) = 6.72269 7.57269 7.16032
#
# Compressibility (1/GPa) = 0.01643230
#
# Stress axis : x y z
#
# Youngs Moduli (GPa) = 97.42184 45.48373 127.86483
#
# Poissons Ratio (x) = 0.21504 0.17834
# Poissons Ratio (y) = 0.46059 0.72844
# Poissons Ratio (z) = 0.13588 0.25912
#
# Static dielectric constant tensor:
#      x y z
#    x 4.377160 -0.023840 -0.007790 
#    y -0.023840 3.994160 0.051620 
#    z -0.007790 0.051620 4.554560 
# 
# 
# High freq. dielectric constant tensor:
#      x y z
#    x 1.931410 0.008200 -0.003100 
#    y 0.008200 1.907350 0.000580 
#    z -0.003100 0.000580 1.950250 
# 
# From -- ./inp_files/224323.got.cif
#   From: 2010.06.25/outbox.cif.g09.slc.cpg/sg2_113_cif.got.tgz:224323.got - 2010.06.27 13:26:56.
