data_PCOD8037209
_publ_section_title
;
Structure prediction by ZEFSAII (Michael W. Deem and Ramdas Pophale) SiO2 
 PCOD8037209
Probable space group: P -1
;
_chemical_formula_sum "Si O2"
_cell_formula_units_Z 16
_cell_length_a 8.910040
_cell_length_b 14.477632
_cell_length_c 8.903154
_cell_angle_alpha 137.668292
_cell_angle_beta 112.482710
_cell_angle_gamma 82.096703
_cell_volume 694.896943
_symmetry_space_group_name_H-M "P -1"
_symmetry_group_IT_number 2
_symmetry_cell_setting 'triclinic'
loop_
_space_group_symop_operation_xyz
x,y,z
-x,-y,-z
loop_
_atom_site_type_symbol
_atom_site_label
_atom_site_fract_x
_atom_site_fract_y
_atom_site_fract_z
Si Si1 0.512485 0.437813 0.090104
Si Si2 0.828385 0.746137 0.299046
Si Si3 0.937218 0.654871 0.945274
Si Si4 0.376125 0.045210 0.390772
Si Si5 0.383364 0.371391 0.385985
Si Si6 0.232037 0.734151 0.928613
Si Si7 0.885944 0.335607 0.531176
Si Si8 0.551960 0.147229 0.278144
O O1 0.614045 0.575905 0.379720
O O2 0.602311 0.310061 0.000474
O O3 0.500000 0.500000 0.000000
O O4 0.318272 0.375533 0.979219
O O5 0.750328 0.874080 0.478401
O O6 0.933043 0.701728 0.424116
O O7 0.950938 0.765936 0.223771
O O8 0.801881 0.679610 0.804436
O O9 0.897374 0.491646 0.789314
O O10 0.110658 0.692099 0.971006
O O11 0.483385 0.139453 0.413539
O O12 0.500000 0.000000 0.500000
O O13 0.265884 0.900623 0.105643
O O14 0.500000 0.500000 0.500000
O O15 0.464458 0.239402 0.247596
O O16 0.158602 0.657246 0.653949
O O17 0.749636 0.219804 0.433651
O O18 0.500000 0.000000 0.000000
#
# Coordination Sequence:
#
# PCOD8037209 Si02
#       8
#     2   2   2   2   2   2   2   2
#     4  12  24  45  74 109 146 202 259 312 381 447
#     4  12  28  45  74 108 152 199 252 313 382 455
#     4  12  27  45  78 113 157 193 256 318 386 441
#     4  12  29  51  74 107 157 205 257 306 382 464
#     4  12  24  46  77 113 150 200 258 313 377 461
#     4  12  27  49  76 110 156 202 251 320 382 454
#     4  12  26  51  76 117 150 192 259 328 381 447
#     4  12  27  48  80 108 151 204 256 313 383 457
#
# _framework density 23.024996000000002
#
# number of rings (size 3 to 8) (size 9 to 14) (size 15 to 20)
#    0.000    0.000    6.250    2.250    7.000    2.000 
#    0.000    0.000    0.000    0.000    0.000    0.000 
#    0.000    0.000    0.000    0.000    0.000    0.000 
#
# Total GULP energy -198311.927321 kJ/mol
# GULP energy per Si atom -12394.495458 kJ/mol
# Density = 2.297259 g / cm^3
# Si number density = 23.024996 Si / 1000 Ang^3
#
#
#
# Elastic Constant Matrix: (Units=GPa)
#
#
# Indices 1 2 3 4 5 6 
#
# 1 129.0738 57.7869 43.2955 -0.9182 -7.0845 -10.8620
# 2 57.7869 138.4478 50.0002 -3.6468 -9.1893 -19.8505
# 3 43.2955 50.0002 83.1763 1.5327 -20.4612 -8.8984
# 4 -0.9182 -3.6468 1.5327 47.6179 -3.3105 -0.2838
# 5 -7.0845 -9.1893 -20.4612 -3.3105 43.6815 -4.1812
# 6 -10.8620 -19.8505 -8.8984 -0.2838 -4.1812 57.5616
#
#
#
# Elastic Compliance Matrix: (Units=1/GPa)
#
#
# Indices 1 2 3 4 5 6 
#
# 1 0.010309 -0.002959 -0.003718 0.000048 -0.000660 0.000302
# 2 -0.002959 0.010447 -0.004534 0.000895 -0.000114 0.002339
# 3 -0.003718 -0.004534 0.018590 -0.000509 0.007221 0.001131
# 4 0.000048 0.000895 -0.000509 0.021201 0.001609 0.000460
# 5 -0.000660 -0.000114 0.007221 0.001609 0.026543 0.002888
# 6 0.000302 0.002339 0.001131 0.000460 0.002888 0.018623
#
#
# Mechanical properties :
#
#
# Convention : Reuss Voigt Hill
#
# Bulk Modulus (GPa) = 59.08884 72.54034 65.81459
# Shear Modulus (GPa) = 37.37557 43.07988 40.22773
#
# Velocity S-wave (km/s) = 4.03334 4.33020 4.18441
# Velocity P-wave (km/s) = 6.88543 7.52159 7.21053
#
# Compressibility (1/GPa) = 0.01692367
#
# Stress axis : x y z
#
# Youngs Moduli (GPa) = 97.00120 95.72128 53.79199
#
# Poissons Ratio (x) = 0.28327 0.20000
# Poissons Ratio (y) = 0.28706 0.24389
# Poissons Ratio (z) = 0.36065 0.43399
#
# Static dielectric constant tensor:
#      x y z
#    x 4.729770 0.273160 -0.345490 
#    y 0.273160 4.387320 -0.123040 
#    z -0.345490 -0.123040 4.095260 
# 
# 
# High freq. dielectric constant tensor:
#      x y z
#    x 1.920030 -0.007910 -0.004830 
#    y -0.007910 1.914780 -0.009850 
#    z -0.004830 -0.009850 1.916880 
# 
# From -- ./inp_files/209561.got.cif
#   From: 2010.06.25/outbox.cif.g09.slc.cpg/sg2_105_cif.got.tgz:209561.got - 2010.06.27 13:26:56.
