data_PCOD8037776
_publ_section_title
;
Structure prediction by ZEFSAII (Michael W. Deem and Ramdas Pophale) SiO2 
 PCOD8037776
Probable space group: P -1
;
_chemical_formula_sum "Si O2"
_cell_formula_units_Z 12
_cell_length_a 24.016893
_cell_length_b 8.484773
_cell_length_c 24.001930
_cell_angle_alpha 148.099294
_cell_angle_beta 11.679485
_cell_angle_gamma 148.120252
_cell_volume 515.963444
_symmetry_space_group_name_H-M "P -1"
_symmetry_group_IT_number 2
_symmetry_cell_setting 'triclinic'
loop_
_space_group_symop_operation_xyz
x,y,z
-x,-y,-z
loop_
_atom_site_type_symbol
_atom_site_label
_atom_site_fract_x
_atom_site_fract_y
_atom_site_fract_z
Si Si1 0.719042 0.406834 0.715609
Si Si2 0.180917 0.779617 0.937445
Si Si3 0.284673 0.220917 0.281102
Si Si4 0.065802 0.722028 0.816462
Si Si5 0.724422 0.790796 0.471789
Si Si6 0.531575 0.704172 0.271221
O O1 0.709905 0.571518 0.715621
O O2 0.000000 0.500000 0.500000
O O3 0.669009 0.048322 0.646306
O O4 0.500000 0.500000 0.000000
O O5 0.431844 0.664465 0.690324
O O6 0.315622 0.031373 0.838026
O O7 0.000000 0.500000 0.000000
O O8 0.970062 0.924877 0.227856
O O9 0.350052 0.433035 0.334198
O O10 0.000000 0.000000 0.500000
O O11 0.500000 0.000000 0.000000
O O12 0.170125 0.479936 0.681179
O O13 0.314133 0.837457 0.564238
O O14 0.775784 0.575577 0.026969
O O15 0.000000 0.000000 0.000000
#
# Coordination Sequence:
#
# PCOD8037776 Si02
#       6
#     2   2   2   2   2   2
#     4  12  28  49  78 110 153 196 252 312 381 449
#     4  12  26  49  80 109 146 201 251 311 378 448
#     4  12  28  49  78 112 149 198 254 310 381 447
#     4  12  28  49  78 112 154 202 251 307 380 449
#     4  12  27  50  74 113 154 195 253 312 374 454
#     4  12  27  50  78 110 154 196 254 313 372 451
#
# _framework density 23.257462
#
# number of rings (size 3 to 8) (size 9 to 14) (size 15 to 20)
#    0.000    0.000    1.667    7.000    9.333    2.667 
#    0.000    0.000    0.000    0.000    0.000    0.000 
#    0.000    0.000    0.000    0.000    0.000    0.000 
#
# Total GULP energy -148851.923180 kJ/mol
# GULP energy per Si atom -12404.326932 kJ/mol
# Density = 2.320453 g / cm^3
# Si number density = 23.257462 Si / 1000 Ang^3
#
#
#
# Elastic Constant Matrix: (Units=GPa)
#
#
# Indices 1 2 3 4 5 6 
#
# 1 149.8437 77.9880 89.2600 5.3488 -16.9731 21.6828
# 2 77.9880 168.3723 81.4596 5.5686 -4.2086 15.9500
# 3 89.2600 81.4596 219.5818 -0.6110 1.9682 18.5558
# 4 5.3488 5.5686 -0.6110 51.1768 3.8663 -8.6683
# 5 -16.9731 -4.2086 1.9682 3.8663 70.0485 -3.2036
# 6 21.6828 15.9500 18.5558 -8.6683 -3.2036 23.9765
#
#
#
# Elastic Compliance Matrix: (Units=1/GPa)
#
#
# Indices 1 2 3 4 5 6 
#
# 1 0.011303 -0.003077 -0.002945 -0.002142 0.002465 -0.006340
# 2 -0.003077 0.008388 -0.001706 -0.000905 -0.000228 -0.001834
# 3 -0.002945 -0.001706 0.006498 0.000447 -0.001079 -0.001213
# 4 -0.002142 -0.000905 0.000447 0.021634 -0.001330 0.009836
# 5 0.002465 -0.000228 -0.001079 -0.001330 0.014976 0.000278
# 6 -0.006340 -0.001834 -0.001213 0.009836 0.000278 0.053193
#
#
# Mechanical properties :
#
#
# Convention : Reuss Voigt Hill
#
# Bulk Modulus (GPa) = 93.18993 115.02365 104.10679
# Shear Modulus (GPa) = 37.02984 48.31305 42.67144
#
# Velocity S-wave (km/s) = 3.99453 4.56270 4.28804
# Velocity P-wave (km/s) = 7.83778 8.79327 8.32924
#
# Compressibility (1/GPa) = 0.01073077
#
# Stress axis : x y z
#
# Youngs Moduli (GPa) = 88.47398 119.21612 153.89942
#
# Poissons Ratio (x) = 0.36687 0.45327
# Poissons Ratio (y) = 0.27226 0.26260
# Poissons Ratio (z) = 0.26058 0.20342
#
# Static dielectric constant tensor:
#      x y z
#    x 4.799070 -0.087130 -0.170690 
#    y -0.087130 3.753420 -0.043100 
#    z -0.170690 -0.043100 4.916060 
# 
# 
# High freq. dielectric constant tensor:
#      x y z
#    x 1.943680 0.005220 -0.005250 
#    y 0.005220 1.919750 -0.001840 
#    z -0.005250 -0.001840 1.953800 
# 
# From -- ./inp_files/355423.got.cif
#   From: 2010.06.25/outbox.cif.g09.slc.cpg/sg2_178_cif.got.tgz:355423.got - 2010.06.27 13:26:56.
