data_PCOD8037464
_publ_section_title
;
Structure prediction by ZEFSAII (Michael W. Deem and Ramdas Pophale) SiO2 
 PCOD8037464
Probable space group: P -1
;
_chemical_formula_sum "Si O2"
_cell_formula_units_Z 16
_cell_length_a 8.586755
_cell_length_b 15.630072
_cell_length_c 12.328220
_cell_angle_alpha 28.893163
_cell_angle_beta 80.549578
_cell_angle_gamma 70.502949
_cell_volume 723.239135
_symmetry_space_group_name_H-M "P -1"
_symmetry_group_IT_number 2
_symmetry_cell_setting 'triclinic'
loop_
_space_group_symop_operation_xyz
x,y,z
-x,-y,-z
loop_
_atom_site_type_symbol
_atom_site_label
_atom_site_fract_x
_atom_site_fract_y
_atom_site_fract_z
Si Si1 0.652087 0.293836 0.707928
Si Si2 0.484714 0.417265 0.977679
Si Si3 0.210990 0.987642 0.653654
Si Si4 0.419875 0.771153 0.442566
Si Si5 0.991282 0.711741 0.257254
Si Si6 0.299011 0.072219 0.783365
Si Si7 0.893395 0.883054 0.842622
Si Si8 0.847129 0.675231 0.877973
O O1 0.500000 0.500000 0.500000
O O2 0.690896 0.230866 0.648402
O O3 0.819599 0.294107 0.746659
O O4 0.593291 0.146835 0.945461
O O5 0.646670 0.221410 0.155472
O O6 0.311685 0.384020 0.024151
O O7 0.500000 0.500000 0.000000
O O8 0.486387 0.567519 0.720314
O O9 0.027736 0.975591 0.695586
O O10 0.250572 0.078286 0.656890
O O11 0.208493 0.129253 0.400467
O O12 0.587963 0.803846 0.349777
O O13 0.296418 0.945311 0.339002
O O14 0.000000 0.500000 0.500000
O O15 0.873116 0.843227 0.219386
O O16 0.917020 0.796621 0.055393
O O17 0.909578 0.712351 0.947519
O O18 0.000000 0.500000 0.000000
#
# Coordination Sequence:
#
# PCOD8037464 Si02
#       8
#     2   2   2   2   2   2   2   2
#     4  12  25  45  68 104 140 183 234 282 347 413
#     4  12  26  48  72 105 139 184 239 292 356 411
#     4  12  25  46  75 102 142 183 235 293 353 416
#     4  12  26  43  73 102 145 186 234 290 343 423
#     4  12  28  44  72 103 146 188 231 288 349 421
#     4  12  25  47  70 106 145 187 233 284 353 412
#     4  12  26  47  69 105 143 185 236 288 353 414
#     4  12  27  47  75 103 138 183 237 295 352 419
#
# _framework density 22.122696000000001
#
# number of rings (size 3 to 8) (size 9 to 14) (size 15 to 20)
#    0.000    0.000    2.500    7.500    7.000    0.000 
#    0.000    0.000    0.000    0.000    0.000    0.000 
#    0.000    0.000    0.000    0.000    0.000    0.000 
#
# Total GULP energy -198551.036222 kJ/mol
# GULP energy per Si atom -12409.439764 kJ/mol
# Density = 2.207234 g / cm^3
# Si number density = 22.122696 Si / 1000 Ang^3
#
#
#
# Elastic Constant Matrix: (Units=GPa)
#
#
# Indices 1 2 3 4 5 6 
#
# 1 95.1640 33.8579 63.5306 2.9835 -4.3057 -4.8093
# 2 33.8579 132.2135 37.6945 -2.3210 10.5930 9.8167
# 3 63.5306 37.6945 168.0723 -0.3980 -11.5242 -6.6687
# 4 2.9835 -2.3210 -0.3980 38.6768 -4.4592 6.9168
# 5 -4.3057 10.5930 -11.5242 -4.4592 40.1614 -1.5520
# 6 -4.8093 9.8167 -6.6687 6.9168 -1.5520 46.0260
#
#
#
# Elastic Compliance Matrix: (Units=1/GPa)
#
#
# Indices 1 2 3 4 5 6 
#
# 1 0.014900 -0.002623 -0.004929 -0.001567 0.000765 0.001663
# 2 -0.002623 0.009080 -0.001358 0.000851 -0.003073 -0.002639
# 3 -0.004929 -0.001358 0.008316 0.000474 0.002307 0.000986
# 4 -0.001567 0.000851 0.000474 0.027092 0.002587 -0.004261
# 5 0.000765 -0.003073 0.002307 0.002587 0.026803 0.001585
# 6 0.001663 -0.002639 0.000986 -0.004261 0.001585 0.023300
#
#
# Mechanical properties :
#
#
# Convention : Reuss Voigt Hill
#
# Bulk Modulus (GPa) = 69.08410 73.95732 71.52071
# Shear Modulus (GPa) = 37.83997 42.33063 40.08530
#
# Velocity S-wave (km/s) = 4.14026 4.37904 4.26132
# Velocity P-wave (km/s) = 7.35875 7.68577 7.52404
#
# Compressibility (1/GPa) = 0.01447511
#
# Stress axis : x y z
#
# Youngs Moduli (GPa) = 67.11564 110.13804 120.24910
#
# Poissons Ratio (x) = 0.28885 0.59272
# Poissons Ratio (y) = 0.17602 0.16335
# Poissons Ratio (z) = 0.33082 0.14961
#
# Static dielectric constant tensor:
#      x y z
#    x 4.077670 0.070410 -0.015630 
#    y 0.070410 4.247890 -0.030520 
#    z -0.015630 -0.030520 4.240670 
# 
# 
# High freq. dielectric constant tensor:
#      x y z
#    x 1.881600 0.003400 -0.002610 
#    y 0.003400 1.889230 -0.001730 
#    z -0.002610 -0.001730 1.890880 
# 
# From -- ./inp_files/187047.got.cif
#   From: 2010.06.25/outbox.cif.g09.slc.cpg/sg2_94_cif.got.tgz:187047.got - 2010.06.27 13:26:56.
