data_PCOD8037315
_publ_section_title
;
Structure prediction by ZEFSAII (Michael W. Deem and Ramdas Pophale) SiO2 
 PCOD8037315
Probable space group: P -1
;
_chemical_formula_sum "Si O2"
_cell_formula_units_Z 16
_cell_length_a 8.384668
_cell_length_b 15.599935
_cell_length_c 8.971716
_cell_angle_alpha 116.713887
_cell_angle_beta 49.777961
_cell_angle_gamma 87.512083
_cell_volume 698.048351
_symmetry_space_group_name_H-M "P -1"
_symmetry_group_IT_number 2
_symmetry_cell_setting 'triclinic'
loop_
_space_group_symop_operation_xyz
x,y,z
-x,-y,-z
loop_
_atom_site_type_symbol
_atom_site_label
_atom_site_fract_x
_atom_site_fract_y
_atom_site_fract_z
Si Si1 0.638664 0.557313 0.032811
Si Si2 0.746349 0.030746 0.737283
Si Si3 0.036086 0.220959 0.979525
Si Si4 0.523609 0.398805 0.495301
Si Si5 0.152278 0.359553 0.516503
Si Si6 0.363658 0.256364 0.013442
Si Si7 0.705309 0.826358 0.510892
Si Si8 0.181665 0.925399 0.956303
O O1 0.563016 0.674520 0.090805
O O2 0.922123 0.475490 0.782836
O O3 0.500000 0.500000 0.000000
O O4 0.576638 0.576121 0.258093
O O5 0.758634 0.015013 0.897501
O O6 0.663053 0.949296 0.653095
O O7 0.582987 0.158974 0.892827
O O8 0.000000 0.000000 0.500000
O O9 0.133214 0.239197 0.778910
O O10 0.964602 0.127886 0.922172
O O11 0.243622 0.193467 0.952726
O O12 0.807251 0.323354 0.266918
O O13 0.500000 0.500000 0.500000
O O14 0.386932 0.349641 0.445077
O O15 0.183523 0.346484 0.310141
O O16 0.146256 0.252186 0.501677
O O17 0.437764 0.841029 0.661035
O O18 0.000000 0.000000 0.000000
#
# Coordination Sequence:
#
# PCOD8037315 Si02
#       8
#     2   2   2   2   2   2   2   2
#     4  12  27  46  76 112 147 197 246 313 376 440
#     4  12  27  47  74 108 146 203 240 310 370 439
#     4  12  26  46  70 111 145 196 240 310 365 438
#     4  12  24  47  75 106 149 192 252 303 372 441
#     4  12  25  47  75 107 148 196 248 308 374 444
#     4  12  27  47  71 107 156 189 254 305 371 446
#     4  12  26  48  75 108 154 194 254 298 378 440
#     4  12  27  47  74 106 146 192 253 304 370 439
#
# _framework density 22.921050999999999
#
# number of rings (size 3 to 8) (size 9 to 14) (size 15 to 20)
#    0.000    0.000    3.750    5.625    5.250    1.000 
#    0.000    0.000    0.000    0.000    0.000    0.000 
#    0.000    0.000    0.000    0.000    0.000    0.000 
#
# Total GULP energy -198362.705159 kJ/mol
# GULP energy per Si atom -12397.669072 kJ/mol
# Density = 2.286888 g / cm^3
# Si number density = 22.921051 Si / 1000 Ang^3
#
#
#
# Elastic Constant Matrix: (Units=GPa)
#
#
# Indices 1 2 3 4 5 6 
#
# 1 114.4790 29.4267 30.4794 -10.2273 5.0913 -0.4806
# 2 29.4267 120.0934 38.5317 -5.5519 3.3261 -17.4176
# 3 30.4794 38.5317 132.0715 -22.5155 4.3303 -10.6389
# 4 -10.2273 -5.5519 -22.5155 45.2431 -6.3126 -0.9308
# 5 5.0913 3.3261 4.3303 -6.3126 44.1342 -1.4246
# 6 -0.4806 -17.4176 -10.6389 -0.9308 -1.4246 40.1174
#
#
#
# Elastic Compliance Matrix: (Units=1/GPa)
#
#
# Indices 1 2 3 4 5 6 
#
# 1 0.009787 -0.001996 -0.001565 0.001065 -0.000710 -0.001165
# 2 -0.001996 0.010063 -0.002212 -0.000272 -0.000229 0.003744
# 3 -0.001565 -0.002212 0.009405 0.004097 0.000063 0.001612
# 4 0.001065 -0.000272 0.004097 0.024816 0.003099 0.001667
# 5 -0.000710 -0.000229 0.000063 0.003099 0.023220 0.000805
# 6 -0.001165 0.003744 0.001612 0.001667 0.000805 0.027033
#
#
# Mechanical properties :
#
#
# Convention : Reuss Voigt Hill
#
# Bulk Modulus (GPa) = 56.47559 62.61329 59.54444
# Shear Modulus (GPa) = 41.06012 43.77933 42.41973
#
# Velocity S-wave (km/s) = 4.23705 4.37510 4.30663
# Velocity P-wave (km/s) = 6.97348 7.27312 7.12488
#
# Compressibility (1/GPa) = 0.01770676
#
# Stress axis : x y z
#
# Youngs Moduli (GPa) = 102.17747 99.37885 106.33114
#
# Poissons Ratio (x) = 0.19835 0.16643
# Poissons Ratio (y) = 0.20394 0.23525
# Poissons Ratio (z) = 0.15993 0.21987
#
# Static dielectric constant tensor:
#      x y z
#    x 4.270670 0.270490 -0.095000 
#    y 0.270490 4.576810 -0.261070 
#    z -0.095000 -0.261070 4.352230 
# 
# 
# High freq. dielectric constant tensor:
#      x y z
#    x 1.911610 0.002290 -0.001580 
#    y 0.002290 1.915790 -0.008820 
#    z -0.001580 -0.008820 1.919230 
# 
# From -- ./inp_files/208149.got.cif
#   From: 2010.06.25/outbox.cif.g09.slc.cpg/sg2_105_cif.got.tgz:208149.got - 2010.06.27 13:26:56.
