data_PCOD8037055
_publ_section_title
;
Structure prediction by ZEFSAII (Michael W. Deem and Ramdas Pophale) SiO2 
 PCOD8037055
Probable space group: P -1
;
_chemical_formula_sum "Si O2"
_cell_formula_units_Z 14
_cell_length_a 8.484297
_cell_length_b 7.609996
_cell_length_c 11.850771
_cell_angle_alpha 66.766676
_cell_angle_beta 46.438945
_cell_angle_gamma 82.900518
_cell_volume 496.707592
_symmetry_space_group_name_H-M "P -1"
_symmetry_group_IT_number 2
_symmetry_cell_setting 'triclinic'
loop_
_space_group_symop_operation_xyz
x,y,z
-x,-y,-z
loop_
_atom_site_type_symbol
_atom_site_label
_atom_site_fract_x
_atom_site_fract_y
_atom_site_fract_z
Si Si1 0.201360 0.577441 0.786631
Si Si2 0.531626 0.910347 0.247217
Si Si3 0.621479 0.703280 0.812489
Si Si4 0.289533 0.289396 0.981619
Si Si5 0.335230 0.381187 0.429838
Si Si6 0.092088 0.654117 0.590962
Si Si7 0.158518 0.992057 0.735126
O O1 0.437708 0.532908 0.633262
O O2 0.033793 0.546940 0.769416
O O3 0.275293 0.808243 0.721361
O O4 0.129734 0.424093 0.967466
O O5 0.312849 0.826027 0.451726
O O6 0.501814 0.119474 0.163721
O O7 0.760370 0.916369 0.204091
O O8 0.525396 0.765433 0.179277
O O9 0.604901 0.617768 0.971891
O O10 0.541974 0.575410 0.769177
O O11 0.886379 0.750357 0.634825
O O12 0.107984 0.081414 0.137921
O O13 0.136226 0.491949 0.521338
O O14 0.240731 0.150909 0.556387
#
# Coordination Sequence:
#
# PCOD8037055 Si02
#       7
#     2   2   2   2   2   2   2
#     4  12  23  49  76 103 145 186 243 300 349 417
#     4  12  25  49  74 106 144 189 241 295 353 426
#     4  12  28  46  71 107 149 193 229 295 358 436
#     4  12  28  48  72 109 149 186 231 300 367 414
#     4  12  25  48  76 105 142 188 249 290 350 423
#     4  12  25  47  78 105 141 190 244 295 351 418
#     4  12  25  46  79 106 137 191 243 299 346 422
#
# _framework density 28.185597000000001
#
# number of rings (size 3 to 8) (size 9 to 14) (size 15 to 20)
#    0.000    0.000    5.714    4.714    2.000    0.571 
#    0.000    0.000    0.000    0.000    0.000    0.000 
#    0.000    0.000    0.000    0.000    0.000    0.000 
#
# Total GULP energy -173470.301662 kJ/mol
# GULP energy per Si atom -12390.735833 kJ/mol
# Density = 2.812145 g / cm^3
# Si number density = 28.185597 Si / 1000 Ang^3
#
#
#
# Elastic Constant Matrix: (Units=GPa)
#
#
# Indices 1 2 3 4 5 6 
#
# 1 115.8834 37.8033 18.2749 11.4669 19.6025 -2.3793
# 2 37.8033 128.5133 33.4453 13.6004 32.4148 6.9486
# 3 18.2749 33.4453 121.5362 -11.6850 31.1057 -2.5138
# 4 11.4669 13.6004 -11.6850 45.3654 -0.9295 7.9027
# 5 19.6025 32.4148 31.1057 -0.9295 44.7915 2.8416
# 6 -2.3793 6.9486 -2.5138 7.9027 2.8416 39.2092
#
#
#
# Elastic Compliance Matrix: (Units=1/GPa)
#
#
# Indices 1 2 3 4 5 6 
#
# 1 0.010095 -0.001970 -0.000450 -0.002418 -0.002834 0.001626
# 2 -0.001970 0.010565 -0.001440 -0.002973 -0.005777 -0.001066
# 3 -0.000450 -0.001440 0.010551 0.003010 -0.006072 0.000738
# 4 -0.002418 -0.002973 0.003010 0.025169 0.001936 -0.004640
# 5 -0.002834 -0.005777 -0.006072 0.001936 0.032147 -0.002257
# 6 0.001626 -0.001066 0.000738 -0.004640 -0.002257 0.026938
#
#
# Mechanical properties :
#
#
# Convention : Reuss Voigt Hill
#
# Bulk Modulus (GPa) = 42.56904 60.55331 51.56117
# Shear Modulus (GPa) = 38.16369 44.30054 41.23211
#
# Velocity S-wave (km/s) = 3.68368 3.96882 3.82891
# Velocity P-wave (km/s) = 5.76443 6.52169 6.15472
#
# Compressibility (1/GPa) = 0.02349125
#
# Stress axis : x y z
#
# Youngs Moduli (GPa) = 99.06102 94.65090 94.77989
#
# Poissons Ratio (x) = 0.18644 0.04260
# Poissons Ratio (y) = 0.19513 0.13652
# Poissons Ratio (z) = 0.04453 0.13634
#
# Static dielectric constant tensor:
#      x y z
#    x 5.104640 -0.046720 0.081250 
#    y -0.046720 5.010460 -0.026480 
#    z 0.081250 -0.026480 5.304330 
# 
# 
# High freq. dielectric constant tensor:
#      x y z
#    x 2.152190 -0.005790 -0.001550 
#    y -0.005790 2.143710 -0.001190 
#    z -0.001550 -0.001190 2.170230 
# 
# From -- ./inp_files/381193.got.cif
#   From: 2010.06.25/outbox.cif.g09.slc.cpg/sg2_191_cif.got.tgz:381193.got - 2010.06.27 13:26:56.
