data_PCOD8037142
_publ_section_title
;
Structure prediction by ZEFSAII (Michael W. Deem and Ramdas Pophale) SiO2 
 PCOD8037142
Probable space group: P -1
;
_chemical_formula_sum "Si O2"
_cell_formula_units_Z 14
_cell_length_a 11.829034
_cell_length_b 12.173596
_cell_length_c 12.284427
_cell_angle_alpha 121.062196
_cell_angle_beta 156.591620
_cell_angle_gamma 61.530762
_cell_volume 601.984136
_symmetry_space_group_name_H-M "P -1"
_symmetry_group_IT_number 2
_symmetry_cell_setting 'triclinic'
loop_
_space_group_symop_operation_xyz
x,y,z
-x,-y,-z
loop_
_atom_site_type_symbol
_atom_site_label
_atom_site_fract_x
_atom_site_fract_y
_atom_site_fract_z
Si Si1 0.255408 0.591125 0.783639
Si Si2 0.960853 0.809816 0.768817
Si Si3 0.058993 0.495983 0.923043
Si Si4 0.614299 0.354652 0.316955
Si Si5 0.518798 0.080229 0.166670
Si Si6 0.670505 0.232407 0.739594
Si Si7 0.105193 0.952539 0.325430
O O1 0.312591 0.652842 0.748944
O O2 0.000000 0.500000 0.500000
O O3 0.171333 0.704435 0.848534
O O4 0.500000 0.500000 0.000000
O O5 0.659400 0.752736 0.511963
O O6 0.901794 0.924037 0.693293
O O7 0.145632 0.856369 0.059496
O O8 0.781606 0.462903 0.589011
O O9 0.280459 0.382306 0.040760
O O10 0.188456 0.628429 0.063660
O O11 0.000000 0.500000 0.000000
O O12 0.666640 0.216032 0.344573
O O13 0.730452 0.006389 0.398714
O O14 0.209115 0.097897 0.954922
O O15 0.500000 0.000000 0.000000
O O16 0.706289 0.162640 0.619568
#
# Coordination Sequence:
#
# PCOD8037142 Si02
#       7
#     2   2   2   2   2   2   2
#     4  12  25  43  67  98 134 175 224 278 337 402
#     4  12  25  44  70 101 137 182 227 282 343 406
#     4  12  25  43  68  99 135 178 224 278 338 403
#     4  12  25  44  68  99 135 177 226 279 338 403
#     4  12  26  46  70 100 136 182 232 285 339 403
#     4  12  24  44  70 103 140 180 227 281 341 409
#     4  12  26  46  70 102 139 182 230 283 340 406
#
# _framework density 23.256428
#
# number of rings (size 3 to 8) (size 9 to 14) (size 15 to 20)
#    0.000    0.000    0.000   12.000    0.000    2.286 
#    0.000    0.000    0.000    0.000    0.000    0.000 
#    0.000    0.000    0.000    0.000    0.000    0.000 
#
# Total GULP energy -173666.582256 kJ/mol
# GULP energy per Si atom -12404.755875 kJ/mol
# Density = 2.320350 g / cm^3
# Si number density = 23.256428 Si / 1000 Ang^3
#
#
#
# Elastic Constant Matrix: (Units=GPa)
#
#
# Indices 1 2 3 4 5 6 
#
# 1 139.5968 33.4673 45.4201 -1.7551 9.0422 9.2965
# 2 33.4673 95.5584 19.2803 0.7692 4.8755 -1.8384
# 3 45.4201 19.2803 137.7420 -8.1626 -1.6243 6.4505
# 4 -1.7551 0.7692 -8.1626 38.4013 1.5472 -2.2387
# 5 9.0422 4.8755 -1.6243 1.5472 48.8795 -4.8609
# 6 9.2965 -1.8384 6.4505 -2.2387 -4.8609 30.4397
#
#
#
# Elastic Compliance Matrix: (Units=1/GPa)
#
#
# Indices 1 2 3 4 5 6 
#
# 1 0.008868 -0.002569 -0.002471 -0.000152 -0.001723 -0.002626
# 2 -0.002569 0.011603 -0.000882 -0.000425 -0.000544 0.001554
# 3 -0.002471 -0.000882 0.008340 0.001601 0.000688 -0.000838
# 4 -0.000152 -0.000425 0.001601 0.026495 -0.000562 0.001540
# 5 -0.001723 -0.000544 0.000688 -0.000562 0.021240 0.003698
# 6 -0.002626 0.001554 -0.000838 0.001540 0.003698 0.034629
#
#
# Mechanical properties :
#
#
# Convention : Reuss Voigt Hill
#
# Bulk Modulus (GPa) = 58.92986 63.24807 61.08896
# Shear Modulus (GPa) = 38.85783 41.85939 40.35861
#
# Velocity S-wave (km/s) = 4.09203 4.24713 4.17030
# Velocity P-wave (km/s) = 6.90800 7.16281 7.03656
#
# Compressibility (1/GPa) = 0.01696933
#
# Stress axis : x y z
#
# Youngs Moduli (GPa) = 112.76729 86.18229 119.89866
#
# Poissons Ratio (x) = 0.22137 0.29626
# Poissons Ratio (y) = 0.28966 0.10569
# Poissons Ratio (z) = 0.27864 0.07597
#
# Static dielectric constant tensor:
#      x y z
#    x 4.551530 0.018490 -0.053760 
#    y 0.018490 4.240880 -0.017740 
#    z -0.053760 -0.017740 4.331660 
# 
# 
# High freq. dielectric constant tensor:
#      x y z
#    x 1.943870 0.005130 -0.002510 
#    y 0.005130 1.922400 -0.005610 
#    z -0.002510 -0.005610 1.936630 
# 
# From -- ./inp_files/427867.got.cif
#   From: 2010.06.25/outbox.cif.g09.slc.cpg/sg2_214_cif.got.tgz:427867.got - 2010.06.27 13:26:56.
