data_PCOD8037937
_publ_section_title
;
Structure prediction by ZEFSAII (Michael W. Deem and Ramdas Pophale) SiO2 
 PCOD8037937
Probable space group: P -1
;
_chemical_formula_sum "Si O2"
_cell_formula_units_Z 16
_cell_length_a 15.250617
_cell_length_b 22.436096
_cell_length_c 12.403355
_cell_angle_alpha 152.924315
_cell_angle_beta 141.732494
_cell_angle_gamma 23.618257
_cell_volume 762.885901
_symmetry_space_group_name_H-M "P -1"
_symmetry_group_IT_number 2
_symmetry_cell_setting 'triclinic'
loop_
_space_group_symop_operation_xyz
x,y,z
-x,-y,-z
loop_
_atom_site_type_symbol
_atom_site_label
_atom_site_fract_x
_atom_site_fract_y
_atom_site_fract_z
Si Si1 0.456347 0.320302 0.676170
Si Si2 0.075417 0.373131 0.080049
Si Si3 0.688134 0.797601 0.286739
Si Si4 0.171948 0.849771 0.588799
Si Si5 0.855196 0.890011 0.448599
Si Si6 0.687236 0.829502 0.819879
Si Si7 0.488639 0.188457 0.078142
Si Si8 0.224681 0.716395 0.194951
O O1 0.326577 0.305011 0.458410
O O2 0.587891 0.314647 0.708669
O O3 0.625559 0.133431 0.623050
O O4 0.282061 0.529522 0.912105
O O5 0.083007 0.333674 0.151879
O O6 0.265661 0.344249 0.186248
O O7 0.832721 0.599481 0.182040
O O8 0.140241 0.194169 0.793306
O O9 0.856148 0.788139 0.385053
O O10 0.500000 0.000000 0.500000
O O11 0.576270 0.788584 0.071909
O O12 0.393722 0.755128 0.700825
O O13 0.222128 0.717425 0.324175
O O14 0.061403 0.844279 0.570962
O O15 0.009880 0.078047 0.753981
O O16 0.500000 0.000000 0.000000
O O17 0.669503 0.948191 0.898565
#
# Coordination Sequence:
#
# PCOD8037937 Si02
#       8
#     2   2   2   2   2   2   2   2
#     4  10  17  34  56  91 129 163 202 255 304 365
#     4  10  21  38  65  88 121 166 204 249 310 366
#     4  11  24  44  62  88 122 164 210 258 313 368
#     4  10  21  36  59  90 128 163 208 248 312 372
#     4  10  20  39  62  86 121 167 207 249 308 376
#     4  10  17  32  63  95 122 153 207 252 306 357
#     4  10  20  39  64  92 122 157 209 253 302 374
#     4   9  20  31  54  88 136 164 195 250 322 363
#
# _framework density 20.972991
#
# number of rings (size 3 to 8) (size 9 to 14) (size 15 to 20)
#    0.000    2.000    3.750    3.000    3.500    2.000 
#    0.000    5.625    0.000    0.000    0.000    0.000 
#    0.000    0.000    0.000    0.000    0.000    0.000 
#
# Total GULP energy -198352.392742 kJ/mol
# GULP energy per Si atom -12397.024546 kJ/mol
# Density = 2.092526 g / cm^3
# Si number density = 20.972991 Si / 1000 Ang^3
#
#
#
# Elastic Constant Matrix: (Units=GPa)
#
#
# Indices 1 2 3 4 5 6 
#
# 1 44.9741 34.4057 15.9522 -3.2540 2.1509 5.1116
# 2 34.4057 108.7528 36.4076 -2.0009 -4.1286 14.3339
# 3 15.9522 36.4076 109.5563 9.1752 -9.9931 -1.5403
# 4 -3.2540 -2.0009 9.1752 32.1146 -6.9139 7.2665
# 5 2.1509 -4.1286 -9.9931 -6.9139 27.1720 -0.0247
# 6 5.1116 14.3339 -1.5403 7.2665 -0.0247 33.5586
#
#
#
# Elastic Compliance Matrix: (Units=1/GPa)
#
#
# Indices 1 2 3 4 5 6 
#
# 1 0.030221 -0.008759 -0.002080 0.002635 -0.003819 -0.001531
# 2 -0.008759 0.013965 -0.003462 0.002662 0.002215 -0.005365
# 3 -0.002080 -0.003462 0.011193 -0.003725 0.002810 0.003118
# 4 0.002635 0.002662 -0.003725 0.036560 0.008120 -0.009620
# 5 -0.003819 0.002215 0.002810 0.008120 0.040539 -0.001964
# 6 -0.001531 -0.005365 0.003118 -0.009620 -0.001964 0.034548
#
#
# Mechanical properties :
#
#
# Convention : Reuss Voigt Hill
#
# Bulk Modulus (GPa) = 37.34544 48.53490 42.94017
# Shear Modulus (GPa) = 24.44326 30.33689 27.39007
#
# Velocity S-wave (km/s) = 3.41759 3.80738 3.61774
# Velocity P-wave (km/s) = 5.78086 6.52074 6.16192
#
# Compressibility (1/GPa) = 0.02677703
#
# Stress axis : x y z
#
# Youngs Moduli (GPa) = 33.08953 71.60558 89.34017
#
# Poissons Ratio (x) = 0.62722 0.18583
# Poissons Ratio (y) = 0.28984 0.30929
# Poissons Ratio (z) = 0.06883 0.24789
#
# Static dielectric constant tensor:
#      x y z
#    x 3.762120 0.006810 0.076290 
#    y 0.006810 3.937810 0.028470 
#    z 0.076290 0.028470 3.729630 
# 
# 
# High freq. dielectric constant tensor:
#      x y z
#    x 1.808510 -0.005670 0.008830 
#    y -0.005670 1.811470 0.000540 
#    z 0.008830 0.000540 1.816670 
# 
# From -- ./inp_files/539417.got.cif
#   From: 2010.06.25/outbox.cif.g09.slc.cpg/sg2_270_cif.got.tgz:539417.got - 2010.06.27 13:26:56.
