data_PCOD8037300
_publ_section_title
;
Structure prediction by ZEFSAII (Michael W. Deem and Ramdas Pophale) SiO2 
 PCOD8037300
Probable space group: P -1
;
_chemical_formula_sum "Si O2"
_cell_formula_units_Z 16
_cell_length_a 9.217932
_cell_length_b 14.714528
_cell_length_c 11.030497
_cell_angle_alpha 139.230906
_cell_angle_beta 47.580879
_cell_angle_gamma 128.561543
_cell_volume 701.343583
_symmetry_space_group_name_H-M "P -1"
_symmetry_group_IT_number 2
_symmetry_cell_setting 'triclinic'
loop_
_space_group_symop_operation_xyz
x,y,z
-x,-y,-z
loop_
_atom_site_type_symbol
_atom_site_label
_atom_site_fract_x
_atom_site_fract_y
_atom_site_fract_z
Si Si1 0.619458 0.320705 0.733536
Si Si2 0.388060 0.933400 0.693855
Si Si3 0.214888 0.838213 0.954311
Si Si4 0.185646 0.927510 0.317829
Si Si5 0.792189 0.821787 0.071203
Si Si6 0.792545 0.544303 0.677600
Si Si7 0.292534 0.527031 0.603435
Si Si8 0.056720 0.624517 0.193384
O O1 0.684614 0.203066 0.490681
O O2 0.384602 0.261011 0.826755
O O3 0.664760 0.471892 0.791959
O O4 0.730590 0.353809 0.833917
O O5 0.343083 0.894796 0.820422
O O6 0.631159 0.002490 0.621690
O O7 0.260374 0.043507 0.829730
O O8 0.238235 0.678703 0.811933
O O9 0.283954 0.930603 0.130445
O O10 0.987924 0.856580 0.080739
O O11 0.071851 0.768569 0.257896
O O12 0.000000 0.000000 0.500000
O O13 0.835016 0.715317 0.835241
O O14 0.665605 0.490714 0.578139
O O15 0.000000 0.500000 0.500000
O O16 0.500000 0.500000 0.500000
O O17 0.115138 0.402773 0.633804
O O18 0.000000 0.500000 0.000000
#
# Coordination Sequence:
#
# PCOD8037300 Si02
#       8
#     2   2   2   2   2   2   2   2
#     4  12  25  48  78 106 150 193 250 310 364 442
#     4  12  27  50  76 111 149 197 246 301 375 441
#     4  12  26  50  73 110 151 193 247 307 365 445
#     4  12  29  49  75 109 155 197 241 301 374 445
#     4  12  26  44  76 110 147 191 251 303 371 431
#     4  12  24  47  72 108 142 196 250 307 360 432
#     4  12  28  46  76 107 149 193 249 303 374 435
#     4  12  27  49  75 107 149 191 248 308 369 436
#
# _framework density 22.813352999999999
#
# number of rings (size 3 to 8) (size 9 to 14) (size 15 to 20)
#    0.000    0.000    6.250    2.250    7.000    2.000 
#    0.000    0.000    0.000    0.000    0.000    0.000 
#    0.000    0.000    0.000    0.000    0.000    0.000 
#
# Total GULP energy -198322.963785 kJ/mol
# GULP energy per Si atom -12395.185237 kJ/mol
# Density = 2.276143 g / cm^3
# Si number density = 22.813353 Si / 1000 Ang^3
#
#
#
# Elastic Constant Matrix: (Units=GPa)
#
#
# Indices 1 2 3 4 5 6 
#
# 1 145.3459 25.3503 41.7708 16.8259 -6.7249 -0.0528
# 2 25.3503 101.4218 16.9052 0.4732 -8.2648 -7.0912
# 3 41.7708 16.9052 81.1543 10.6886 11.6582 -11.2777
# 4 16.8259 0.4732 10.6886 40.2611 3.0314 -0.2291
# 5 -6.7249 -8.2648 11.6582 3.0314 48.7837 -1.6885
# 6 -0.0528 -7.0912 -11.2777 -0.2291 -1.6885 39.3497
#
#
#
# Elastic Compliance Matrix: (Units=1/GPa)
#
#
# Indices 1 2 3 4 5 6 
#
# 1 0.008789 -0.001377 -0.004392 -0.002661 0.002144 -0.001418
# 2 -0.001377 0.010761 -0.001713 0.000758 0.002049 0.001539
# 3 -0.004392 -0.001713 0.016459 -0.002148 -0.004550 0.004195
# 4 -0.002661 0.000758 -0.002148 0.026614 -0.001392 -0.000387
# 5 0.002144 0.002049 -0.004550 -0.001392 0.022316 0.000017
# 6 -0.001418 0.001539 0.004195 -0.000387 0.000017 0.026889
#
#
# Mechanical properties :
#
#
# Convention : Reuss Voigt Hill
#
# Bulk Modulus (GPa) = 47.51713 55.10830 51.31272
# Shear Modulus (GPa) = 37.36755 41.93861 39.65308
#
# Velocity S-wave (km/s) = 4.05157 4.29223 4.17364
# Velocity P-wave (km/s) = 6.53918 6.98376 6.76512
#
# Compressibility (1/GPa) = 0.02104504
#
# Stress axis : x y z
#
# Youngs Moduli (GPa) = 113.77729 92.93243 60.75700
#
# Poissons Ratio (x) = 0.12795 0.26683
# Poissons Ratio (y) = 0.15665 0.10409
# Poissons Ratio (z) = 0.49968 0.15921
#
# Static dielectric constant tensor:
#      x y z
#    x 4.196420 -0.168950 0.092430 
#    y -0.168950 4.407910 0.090890 
#    z 0.092430 0.090890 4.168760 
# 
# 
# High freq. dielectric constant tensor:
#      x y z
#    x 1.912940 -0.003260 0.004590 
#    y -0.003260 1.911100 -0.002010 
#    z 0.004590 -0.002010 1.909920 
# 
# From -- ./inp_files/184362.got.cif
#   From: 2010.06.25/outbox.cif.g09.slc.cpg/sg2_93_cif.got.tgz:184362.got - 2010.06.27 13:26:56.
