data_PCOD8037813
_publ_section_title
;
Structure prediction by ZEFSAII (Michael W. Deem and Ramdas Pophale) SiO2 
 PCOD8037813
Probable space group: P -1
;
_chemical_formula_sum "Si O2"
_cell_formula_units_Z 12
_cell_length_a 22.671724
_cell_length_b 22.400971
_cell_length_c 5.867261
_cell_angle_alpha 130.904412
_cell_angle_beta 128.930317
_cell_angle_gamma 12.610554
_cell_volume 490.673035
_symmetry_space_group_name_H-M "P -1"
_symmetry_group_IT_number 2
_symmetry_cell_setting 'triclinic'
loop_
_space_group_symop_operation_xyz
x,y,z
-x,-y,-z
loop_
_atom_site_type_symbol
_atom_site_label
_atom_site_fract_x
_atom_site_fract_y
_atom_site_fract_z
Si Si1 0.023541 0.158523 0.303399
Si Si2 0.010660 0.577223 0.813105
Si Si3 0.249999 0.806825 0.642061
Si Si4 0.523551 0.294383 0.393075
Si Si5 0.510641 0.901475 0.873692
Si Si6 0.749996 0.542973 0.232423
O O1 0.749995 0.404835 0.387075
O O2 0.929856 0.311274 0.260097
O O3 0.249993 0.971662 0.554136
O O4 0.189477 0.920054 0.000635
O O5 0.000000 0.500000 0.500000
O O6 0.036079 0.614615 0.766995
O O7 0.250034 0.348422 0.996112
O O8 0.750025 0.860747 0.026949
O O9 0.500000 0.500000 0.500000
O O10 0.310516 0.799017 0.547035
O O11 0.000000 0.000000 0.500000
O O12 0.429865 0.328999 0.054444
O O13 0.536076 0.813230 0.513534
O O14 0.500000 0.000000 0.000000
#
# Coordination Sequence:
#
# PCOD8037813 Si02
#       6
#     2   2   2   2   2   2
#     4  12  28  51  78 116 159 208 257 312 391 458
#     4  12  28  50  76 109 148 200 260 326 395 453
#     4  12  27  50  82 118 158 200 254 316 376 462
#     4  12  28  51  78 116 159 208 257 312 391 458
#     4  12  28  50  76 109 148 200 260 326 395 453
#     4  12  29  50  80 112 162 202 268 326 380 468
#
# _framework density 24.456206999999999
#
# number of rings (size 3 to 8) (size 9 to 14) (size 15 to 20)
#    0.000    0.000    1.667    7.000    0.000   17.333 
#    0.000    0.000    0.000    0.000    0.000    0.000 
#    0.000    0.000    0.000    0.000    0.000    0.000 
#
# Total GULP energy -148799.469046 kJ/mol
# GULP energy per Si atom -12399.955754 kJ/mol
# Density = 2.440054 g / cm^3
# Si number density = 24.456207 Si / 1000 Ang^3
#
#
#
# Elastic Constant Matrix: (Units=GPa)
#
#
# Indices 1 2 3 4 5 6 
#
# 1 181.2180 87.1510 97.5610 3.7868 -3.6744 -17.4467
# 2 87.1510 220.3924 95.6628 3.3255 -13.7160 -14.4185
# 3 97.5610 95.6628 172.4249 13.6233 -6.3090 3.9589
# 4 3.7868 3.3255 13.6233 57.6069 -1.3579 -13.7318
# 5 -3.6744 -13.7160 -6.3090 -1.3579 40.6253 6.0889
# 6 -17.4467 -14.4185 3.9589 -13.7318 6.0889 50.4850
#
#
#
# Elastic Compliance Matrix: (Units=1/GPa)
#
#
# Indices 1 2 3 4 5 6 
#
# 1 0.008896 -0.001426 -0.004461 0.001365 -0.000847 0.003490
# 2 -0.001426 0.006529 -0.002866 0.000821 0.001410 0.001650
# 3 -0.004461 -0.002866 0.010264 -0.002916 0.000732 -0.004047
# 4 0.001365 0.000821 -0.002916 0.019394 -0.000341 0.006251
# 5 -0.000847 0.001410 0.000732 -0.000341 0.025585 -0.003126
# 6 0.003490 0.001650 -0.004047 0.006251 -0.003126 0.023880
#
#
# Mechanical properties :
#
#
# Convention : Reuss Voigt Hill
#
# Bulk Modulus (GPa) = 122.22882 126.08721 124.15801
# Shear Modulus (GPa) = 43.56035 49.32081 46.44058
#
# Velocity S-wave (km/s) = 4.22495 4.49564 4.36240
# Velocity P-wave (km/s) = 8.59578 8.86656 8.73222
#
# Compressibility (1/GPa) = 0.00818138
#
# Stress axis : x y z
#
# Youngs Moduli (GPa) = 112.40614 153.16519 97.42601
#
# Poissons Ratio (x) = 0.21849 0.43464
# Poissons Ratio (y) = 0.16035 0.27925
# Poissons Ratio (z) = 0.50147 0.43902
#
# Static dielectric constant tensor:
#      x y z
#    x 4.851610 -0.086920 -0.210980 
#    y -0.086920 4.624020 0.112260 
#    z -0.210980 0.112260 4.891700 
# 
# 
# High freq. dielectric constant tensor:
#      x y z
#    x 1.989420 -0.008090 -0.006660 
#    y -0.008090 1.996510 0.006830 
#    z -0.006660 0.006830 1.989080 
# 
# From -- ./inp_files/125206.got.cif
#   From: 2010.06.25/outbox.cif.g09.slc.cpg/sg2_63_cif.got.tgz:125206.got - 2010.06.27 13:26:56.
