data_PCOD8037842
_publ_section_title
;
Structure prediction by ZEFSAII (Michael W. Deem and Ramdas Pophale) SiO2 
 PCOD8037842
Probable space group: P -1
;
_chemical_formula_sum "Si O2"
_cell_formula_units_Z 16
_cell_length_a 15.538723
_cell_length_b 28.708773
_cell_length_c 22.988842
_cell_angle_alpha 16.601254
_cell_angle_beta 152.391401
_cell_angle_gamma 162.076986
_cell_volume 862.378846
_symmetry_space_group_name_H-M "P -1"
_symmetry_group_IT_number 2
_symmetry_cell_setting 'triclinic'
loop_
_space_group_symop_operation_xyz
x,y,z
-x,-y,-z
loop_
_atom_site_type_symbol
_atom_site_label
_atom_site_fract_x
_atom_site_fract_y
_atom_site_fract_z
Si Si1 0.696262 0.995677 0.551209
Si Si2 0.870318 0.210093 0.224075
Si Si3 0.635185 0.895397 0.764866
Si Si4 0.493893 0.278397 0.345766
Si Si5 0.871809 0.584777 0.303226
Si Si6 0.710098 0.659335 0.758971
Si Si7 0.107579 0.066351 0.918810
Si Si8 0.769957 0.495674 0.802455
O O1 0.492774 0.014991 0.406817
O O2 0.019435 0.257269 0.408765
O O3 0.724824 0.934260 0.704684
O O4 0.533258 0.751732 0.703909
O O5 0.981085 0.139807 0.330763
O O6 0.140812 0.430599 0.164917
O O7 0.593530 0.958639 0.395938
O O8 0.779727 0.309773 0.014655
O O9 0.396815 0.600493 0.992526
O O10 0.925304 0.073542 0.764075
O O11 0.816752 0.543340 0.248533
O O12 0.256597 0.249100 0.264438
O O13 0.544033 0.401534 0.351893
O O14 0.000000 0.500000 0.500000
O O15 0.083532 0.871100 0.108625
O O16 0.445078 0.346476 0.780678
O O17 0.000000 0.000000 0.000000
#
# Coordination Sequence:
#
# PCOD8037842 Si02
#       8
#     2   2   2   2   2   2   2   2
#     4  10  21  38  58  80 106 149 191 223 266 323
#     4  10  17  32  52  82 112 135 181 224 276 326
#     4  10  21  38  57  80 109 145 191 227 263 322
#     4   9  20  31  54  80 106 141 176 225 275 322
#     4   9  19  32  47  78 111 142 170 212 280 325
#     4   9  18  32  50  80 106 138 178 224 267 320
#     4  11  23  35  56  84 111 143 176 230 278 327
#     4  10  20  31  57  80 108 147 178 228 269 323
#
# _framework density 18.553332000000001
#
# number of rings (size 3 to 8) (size 9 to 14) (size 15 to 20)
#    0.750    1.500    1.250    2.625    5.250    1.000 
#    0.000    0.000    0.000    0.000    0.000    2.625 
#    0.000    0.000    0.000    0.000    0.000    0.000 
#
# Total GULP energy -198216.515249 kJ/mol
# GULP energy per Si atom -12388.532203 kJ/mol
# Density = 1.851110 g / cm^3
# Si number density = 18.553332 Si / 1000 Ang^3
#
#
#
# Elastic Constant Matrix: (Units=GPa)
#
#
# Indices 1 2 3 4 5 6 
#
# 1 110.1074 44.0086 14.5828 7.7288 -2.3205 -13.9998
# 2 44.0086 98.1101 19.4893 5.1340 -9.3201 -7.9441
# 3 14.5828 19.4893 28.8357 9.1129 1.8431 -1.9879
# 4 7.7288 5.1340 9.1129 27.4185 -2.4689 2.8056
# 5 -2.3205 -9.3201 1.8431 -2.4689 29.0975 -2.3727
# 6 -13.9998 -7.9441 -1.9879 2.8056 -2.3727 30.6246
#
#
#
# Elastic Compliance Matrix: (Units=1/GPa)
#
#
# Indices 1 2 3 4 5 6 
#
# 1 0.011832 -0.004477 -0.001913 -0.002323 -0.000214 0.004320
# 2 -0.004477 0.014321 -0.008144 0.001595 0.004994 0.001381
# 3 -0.001913 -0.008144 0.046038 -0.013926 -0.006798 0.000751
# 4 -0.002323 0.001595 -0.013926 0.042372 0.004388 -0.005094
# 5 -0.000214 0.004994 -0.006798 0.004388 0.037015 0.003222
# 6 0.004320 0.001381 0.000751 -0.005094 0.003222 0.035751
#
#
# Mechanical properties :
#
#
# Convention : Reuss Voigt Hill
#
# Bulk Modulus (GPa) = 23.18810 43.69050 33.43930
# Shear Modulus (GPa) = 21.66646 28.02631 24.84639
#
# Velocity S-wave (km/s) = 3.42101 3.89084 3.66346
# Velocity P-wave (km/s) = 5.30373 6.61699 5.99642
#
# Compressibility (1/GPa) = 0.04312556
#
# Stress axis : x y z
#
# Youngs Moduli (GPa) = 84.51374 69.82718 21.72127
#
# Poissons Ratio (x) = 0.31259 0.04155
# Poissons Ratio (y) = 0.37833 0.17689
# Poissons Ratio (z) = 0.16165 0.56864
#
# Static dielectric constant tensor:
#      x y z
#    x 3.520500 -0.157050 0.216840 
#    y -0.157050 3.332260 -0.079030 
#    z 0.216840 -0.079030 3.251710 
# 
# 
# High freq. dielectric constant tensor:
#      x y z
#    x 1.719230 -0.004660 0.026340 
#    y -0.004660 1.705700 -0.007510 
#    z 0.026340 -0.007510 1.702850 
# 
# From -- ./inp_files/598612.got.cif
#   From: 2010.06.25/outbox.cif.g09.slc.cpg/sg2_300_cif.got.tgz:598612.got - 2010.06.27 13:26:56.
