data_PCOD8037002
_publ_section_title
;
Structure prediction by ZEFSAII (Michael W. Deem and Ramdas Pophale) SiO2 
 PCOD8037002
Probable space group: P -1
;
_chemical_formula_sum "Si O2"
_cell_formula_units_Z 10
_cell_length_a 8.085804
_cell_length_b 13.866795
_cell_length_c 12.851238
_cell_angle_alpha 20.251643
_cell_angle_beta 123.911276
_cell_angle_gamma 122.931579
_cell_volume 412.904697
_symmetry_space_group_name_H-M "P -1"
_symmetry_group_IT_number 2
_symmetry_cell_setting 'triclinic'
loop_
_space_group_symop_operation_xyz
x,y,z
-x,-y,-z
loop_
_atom_site_type_symbol
_atom_site_label
_atom_site_fract_x
_atom_site_fract_y
_atom_site_fract_z
Si Si1 0.151648 0.141954 0.491908
Si Si2 0.664153 0.924806 0.717206
Si Si3 0.624711 0.272600 0.726723
Si Si4 0.059711 0.658443 0.073836
Si Si5 0.426084 0.614753 0.644459
O O1 0.343818 0.280263 0.361142
O O2 0.049149 0.366015 0.304026
O O3 0.000000 0.000000 0.500000
O O4 0.217741 0.882886 0.846090
O O5 0.500000 0.000000 0.500000
O O6 0.719305 0.216863 0.501588
O O7 0.848499 0.797621 0.853131
O O8 0.586756 0.707687 0.000025
O O9 0.500000 0.500000 0.500000
O O10 0.638738 0.318515 0.562165
O O11 0.852934 0.339721 0.780197
O O12 0.500000 0.000000 0.000000
#
# Coordination Sequence:
#
# PCOD8037002 Si02
#       5
#     2   2   2   2   2
#     4  12  25  44  73 107 140 190 250 293 351 432
#     4  12  28  47  69 106 156 190 235 297 363 434
#     4  12  23  46  77 107 145 181 246 308 349 423
#     4  12  25  47  72 106 147 191 235 304 361 417
#     4  12  25  46  75 106 143 195 239 295 366 422
#
# _framework density 24.218664
#
# number of rings (size 3 to 8) (size 9 to 14) (size 15 to 20)
#    0.000    0.000    4.000    6.000    0.000    4.800 
#    0.000    0.000    0.000    0.000    0.000    0.000 
#    0.000    0.000    0.000    0.000    0.000    0.000 
#
# Total GULP energy -123907.715409 kJ/mol
# GULP energy per Si atom -12390.771541 kJ/mol
# Density = 2.416354 g / cm^3
# Si number density = 24.218664 Si / 1000 Ang^3
#
#
#
# Elastic Constant Matrix: (Units=GPa)
#
#
# Indices 1 2 3 4 5 6 
#
# 1 51.3490 35.1382 0.3424 3.7273 12.2003 0.4910
# 2 35.1382 175.2839 65.5442 4.1887 23.8692 -4.4621
# 3 0.3424 65.5442 138.7656 5.0032 0.1318 -9.1493
# 4 3.7273 4.1887 5.0032 47.3092 -11.7348 5.3543
# 5 12.2003 23.8692 0.1318 -11.7348 40.4733 2.4580
# 6 0.4910 -4.4621 -9.1493 5.3543 2.4580 44.0046
#
#
#
# Elastic Compliance Matrix: (Units=1/GPa)
#
#
# Indices 1 2 3 4 5 6 
#
# 1 0.024358 -0.004983 0.002437 -0.003105 -0.005337 0.000406
# 2 -0.004983 0.008809 -0.004079 -0.000997 -0.003996 0.000445
# 3 0.002437 -0.004079 0.009247 -0.000638 0.001366 0.001483
# 4 -0.003105 -0.000997 -0.000638 0.024115 0.008738 -0.003621
# 5 -0.005337 -0.003996 0.001366 0.008738 0.031377 -0.002878
# 6 0.000406 0.000445 0.001483 -0.003621 -0.002878 0.023675
#
#
# Mechanical properties :
#
#
# Convention : Reuss Voigt Hill
#
# Bulk Modulus (GPa) = 34.28994 63.04979 48.66986
# Shear Modulus (GPa) = 34.58991 43.98233 39.28612
#
# Velocity S-wave (km/s) = 3.78330 4.26614 4.03195
# Velocity P-wave (km/s) = 5.76833 7.09624 6.46646
#
# Compressibility (1/GPa) = 0.02916308
#
# Stress axis : x y z
#
# Youngs Moduli (GPa) = 41.05486 113.52570 108.14759
#
# Poissons Ratio (x) = 0.56570 -0.26359
# Poissons Ratio (y) = 0.20458 0.44116
# Poissons Ratio (z) = -0.10006 0.46310
#
# Static dielectric constant tensor:
#      x y z
#    x 4.441760 -0.144720 -0.150530 
#    y -0.144720 4.407790 0.086430 
#    z -0.150530 0.086430 4.993910 
# 
# 
# High freq. dielectric constant tensor:
#      x y z
#    x 1.953470 -0.009540 -0.002250 
#    y -0.009540 1.974840 -0.001050 
#    z -0.002250 -0.001050 1.992980 
# 
# From -- ./inp_files/79492.got.cif
#   From: 2010.06.25/outbox.cif.g09.slc.cpg/sg2_40_cif.got.tgz:79492.got - 2010.06.27 13:26:56.
