data_PCOD8037148
_publ_section_title
;
Structure prediction by ZEFSAII (Michael W. Deem and Ramdas Pophale) SiO2 
 PCOD8037148
Probable space group: P -1
;
_chemical_formula_sum "Si O2"
_cell_formula_units_Z 14
_cell_length_a 21.611687
_cell_length_b 15.967902
_cell_length_c 13.328342
_cell_angle_alpha 25.548374
_cell_angle_beta 28.735384
_cell_angle_gamma 17.725671
_cell_volume 598.577984
_symmetry_space_group_name_H-M "P -1"
_symmetry_group_IT_number 2
_symmetry_cell_setting 'triclinic'
loop_
_space_group_symop_operation_xyz
x,y,z
-x,-y,-z
loop_
_atom_site_type_symbol
_atom_site_label
_atom_site_fract_x
_atom_site_fract_y
_atom_site_fract_z
Si Si1 0.021768 0.700295 0.743344
Si Si2 0.477509 0.316606 0.508655
Si Si3 0.131690 0.085107 0.493433
Si Si4 0.415712 0.127329 0.312053
Si Si5 0.918854 0.210224 0.982302
Si Si6 0.717592 0.086901 0.929650
Si Si7 0.138442 0.274663 0.703148
O O1 0.254530 0.490791 0.660993
O O2 0.923501 0.872572 0.590443
O O3 0.884969 0.952662 0.753744
O O4 0.000000 0.500000 0.000000
O O5 0.457695 0.543517 0.231747
O O6 0.622727 0.169663 0.559898
O O7 0.603382 0.028416 0.567866
O O8 0.007639 0.404190 0.377765
O O9 0.067412 0.950597 0.770422
O O10 0.333274 0.160528 0.503274
O O11 0.311824 0.448635 0.075585
O O12 0.648336 0.937815 0.186069
O O13 0.029892 0.289370 0.750077
O O14 0.000000 0.000000 0.000000
O O15 0.808250 0.976075 0.032426
#
# Coordination Sequence:
#
# PCOD8037148 Si02
#       7
#     2   2   2   2   2   2   2
#     4  12  26  50  73 105 148 184 247 308 344 423
#     4  12  26  47  75 103 146 192 240 294 365 422
#     4  12  25  47  77 107 142 194 237 291 367 426
#     4  12  24  44  72 108 142 186 242 293 353 438
#     4  12  24  44  71 107 148 182 239 294 352 438
#     4  12  27  49  69 104 149 188 241 303 352 424
#     4  12  25  43  75 105 145 193 230 292 372 421
#
# _framework density 23.388766
#
# number of rings (size 3 to 8) (size 9 to 14) (size 15 to 20)
#    0.000    0.000    7.143    3.000    0.000    1.714 
#    2.571    0.000    0.000    0.000    0.000    0.000 
#    0.000    0.000    0.000    0.000    0.000    0.000 
#
# Total GULP energy -173472.480886 kJ/mol
# GULP energy per Si atom -12390.891492 kJ/mol
# Density = 2.333553 g / cm^3
# Si number density = 23.388766 Si / 1000 Ang^3
#
#
#
# Elastic Constant Matrix: (Units=GPa)
#
#
# Indices 1 2 3 4 5 6 
#
# 1 66.6154 32.8027 33.7116 16.4148 1.1679 -11.7289
# 2 32.8027 94.1339 39.6734 4.3720 12.4165 -7.3986
# 3 33.7116 39.6734 141.7948 11.2466 18.7000 -8.2498
# 4 16.4148 4.3720 11.2466 45.9910 -4.9103 -6.3909
# 5 1.1679 12.4165 18.7000 -4.9103 43.5502 3.5227
# 6 -11.7289 -7.3986 -8.2498 -6.3909 3.5227 41.3508
#
#
#
# Elastic Compliance Matrix: (Units=1/GPa)
#
#
# Indices 1 2 3 4 5 6 
#
# 1 0.021390 -0.005853 -0.002988 -0.005717 0.001457 0.003416
# 2 -0.005853 0.013969 -0.002184 0.001106 -0.002829 0.000816
# 3 -0.002988 -0.002184 0.008943 -0.001178 -0.003322 0.000647
# 4 -0.005717 0.001106 -0.001178 0.024544 0.002959 0.001883
# 5 0.001457 -0.002829 -0.003322 0.002959 0.025691 -0.002487
# 6 0.003416 0.000816 0.000647 0.001883 -0.002487 0.025930
#
#
# Mechanical properties :
#
#
# Convention : Reuss Voigt Hill
#
# Bulk Modulus (GPa) = 44.93795 57.21326 51.07561
# Shear Modulus (GPa) = 33.34775 39.26882 36.30828
#
# Velocity S-wave (km/s) = 3.78008 4.10196 3.94430
# Velocity P-wave (km/s) = 6.18928 6.85199 6.52904
#
# Compressibility (1/GPa) = 0.02225291
#
# Stress axis : x y z
#
# Youngs Moduli (GPa) = 46.75007 71.58669 111.81751
#
# Poissons Ratio (x) = 0.41898 0.33410
# Poissons Ratio (y) = 0.27362 0.24423
# Poissons Ratio (z) = 0.13969 0.15636
#
# Static dielectric constant tensor:
#      x y z
#    x 4.221460 -0.244490 -0.252700 
#    y -0.244490 3.662560 -0.975090 
#    z -0.252700 -0.975090 3.056170 
# 
# 
# High freq. dielectric constant tensor:
#      x y z
#    x 1.929100 -0.010470 -0.015250 
#    y -0.010470 1.927180 -0.010600 
#    z -0.015250 -0.010600 1.945710 
# 
# From -- ./inp_files/471837.got.cif
#   From: 2010.06.25/outbox.cif.g09.slc.cpg/sg2_236_cif.got.tgz:471837.got - 2010.06.27 13:26:56.
