data_PCOD8037201
_publ_section_title
;
Structure prediction by ZEFSAII (Michael W. Deem and Ramdas Pophale) SiO2 
 PCOD8037201
Probable space group: P -1
;
_chemical_formula_sum "Si O2"
_cell_formula_units_Z 14
_cell_length_a 12.436996
_cell_length_b 15.407830
_cell_length_c 15.495708
_cell_angle_alpha 18.690311
_cell_angle_beta 40.555183
_cell_angle_gamma 43.757120
_cell_volume 618.633222
_symmetry_space_group_name_H-M "P -1"
_symmetry_group_IT_number 2
_symmetry_cell_setting 'triclinic'
loop_
_space_group_symop_operation_xyz
x,y,z
-x,-y,-z
loop_
_atom_site_type_symbol
_atom_site_label
_atom_site_fract_x
_atom_site_fract_y
_atom_site_fract_z
Si Si1 0.176675 0.069828 0.673549
Si Si2 0.804819 0.032787 0.600070
Si Si3 0.301943 0.243533 0.615024
Si Si4 0.321938 0.507787 0.059637
Si Si5 0.191316 0.778802 0.236744
Si Si6 0.347874 0.520137 0.832199
Si Si7 0.379376 0.757850 0.318634
O O1 0.284150 0.140112 0.626020
O O2 0.982794 0.066615 0.812404
O O3 0.228741 0.781090 0.880179
O O4 0.209331 0.273690 0.384864
O O5 0.757034 0.210743 0.378403
O O6 0.742825 0.197138 0.567696
O O7 0.717814 0.741620 0.931636
O O8 0.000000 0.000000 0.500000
O O9 0.164730 0.478071 0.496028
O O10 0.465920 0.417287 0.368356
O O11 0.309161 0.981578 0.919768
O O12 0.337697 0.455550 0.999028
O O13 0.500000 0.500000 0.000000
O O14 0.255624 0.732336 0.337718
O O15 0.500000 0.500000 0.500000
O O16 0.500000 0.000000 0.000000
#
# Coordination Sequence:
#
# PCOD8037201 Si02
#       7
#     2   2   2   2   2   2   2
#     4  12  26  45  70 106 148 183 234 292 358 422
#     4  12  28  49  73 109 144 188 245 309 361 422
#     4  12  24  45  73 106 142 187 235 284 356 443
#     4  12  26  45  71 107 142 189 235 287 350 437
#     4  12  26  44  73 104 142 186 235 298 359 414
#     4  12  26  45  77 100 144 188 236 287 364 428
#     4  12  26  48  73 102 141 188 248 295 355 428
#
# _framework density 22.630534000000001
#
# number of rings (size 3 to 8) (size 9 to 14) (size 15 to 20)
#    0.000    0.000    1.429    9.429    6.000    0.000 
#    0.000    0.000    0.000    0.000    0.000    0.000 
#    0.000    0.000    0.000    0.000    0.000    0.000 
#
# Total GULP energy -173640.768002 kJ/mol
# GULP energy per Si atom -12402.912000 kJ/mol
# Density = 2.257903 g / cm^3
# Si number density = 22.630534 Si / 1000 Ang^3
#
#
#
# Elastic Constant Matrix: (Units=GPa)
#
#
# Indices 1 2 3 4 5 6 
#
# 1 84.6957 26.3766 29.0582 8.7349 10.9716 -6.1091
# 2 26.3766 118.9127 30.9066 -7.0047 7.9115 0.2250
# 3 29.0582 30.9066 150.1238 -10.1144 10.5253 4.4152
# 4 8.7349 -7.0047 -10.1144 47.6001 0.9305 5.4348
# 5 10.9716 7.9115 10.5253 0.9305 40.3363 -1.6839
# 6 -6.1091 0.2250 4.4152 5.4348 -1.6839 39.7726
#
#
#
# Elastic Compliance Matrix: (Units=1/GPa)
#
#
# Indices 1 2 3 4 5 6 
#
# 1 0.014386 -0.002625 -0.002407 -0.003819 -0.002560 0.002905
# 2 -0.002625 0.009476 -0.001249 0.001695 -0.000882 -0.000587
# 3 -0.002407 -0.001249 0.007655 0.002085 -0.001210 -0.001549
# 4 -0.003819 0.001695 0.002085 0.022866 -0.000531 -0.003975
# 5 -0.002560 -0.000882 -0.001210 -0.000531 0.026028 0.000921
# 6 0.002905 -0.000587 -0.001549 -0.003975 0.000921 0.026347
#
#
# Mechanical properties :
#
#
# Convention : Reuss Voigt Hill
#
# Bulk Modulus (GPa) = 52.76216 58.49055 55.62636
# Shear Modulus (GPa) = 39.79655 43.36785 41.58220
#
# Velocity S-wave (km/s) = 4.19804 4.38235 4.29118
# Velocity P-wave (km/s) = 6.84567 7.17695 7.01327
#
# Compressibility (1/GPa) = 0.01895298
#
# Stress axis : x y z
#
# Youngs Moduli (GPa) = 69.51372 105.52671 130.62958
#
# Poissons Ratio (x) = 0.27705 0.31446
# Poissons Ratio (y) = 0.18250 0.16321
# Poissons Ratio (z) = 0.16734 0.13185
#
# Static dielectric constant tensor:
#      x y z
#    x 4.324350 0.105070 0.183850 
#    y 0.105070 4.272620 0.017450 
#    z 0.183850 0.017450 4.257830 
# 
# 
# High freq. dielectric constant tensor:
#      x y z
#    x 1.897830 -0.000900 0.008740 
#    y -0.000900 1.906880 -0.006380 
#    z 0.008740 -0.006380 1.915970 
# 
# From -- ./inp_files/521186.got.cif
#   From: 2010.06.25/outbox.cif.g09.slc.cpg/sg2_261_cif.got.tgz:521186.got - 2010.06.27 13:26:56.
