data_PCOD8037194
_publ_section_title
;
Structure prediction by ZEFSAII (Michael W. Deem and Ramdas Pophale) SiO2 
 PCOD8037194
Probable space group: P -1
;
_chemical_formula_sum "Si O2"
_cell_formula_units_Z 16
_cell_length_a 18.425652
_cell_length_b 9.368086
_cell_length_c 13.442027
_cell_angle_alpha 132.522237
_cell_angle_beta 27.173993
_cell_angle_gamma 134.141430
_cell_volume 749.121826
_symmetry_space_group_name_H-M "P -1"
_symmetry_group_IT_number 2
_symmetry_cell_setting 'triclinic'
loop_
_space_group_symop_operation_xyz
x,y,z
-x,-y,-z
loop_
_atom_site_type_symbol
_atom_site_label
_atom_site_fract_x
_atom_site_fract_y
_atom_site_fract_z
Si Si1 0.453041 0.279624 0.411504
Si Si2 0.880121 0.279296 0.526886
Si Si3 0.649388 0.643692 0.640413
Si Si4 0.513473 0.296057 0.932876
Si Si5 0.346114 0.805447 0.587272
Si Si6 0.965924 0.964141 0.411134
Si Si7 0.149430 0.954664 0.735751
Si Si8 0.694813 0.072499 0.094515
O O1 0.500000 0.500000 0.500000
O O2 0.423775 0.275062 0.327995
O O3 0.623374 0.218078 0.181875
O O4 0.294759 0.145051 0.604622
O O5 0.695684 0.292480 0.739872
O O6 0.939893 0.183745 0.311665
O O7 0.000000 0.500000 0.500000
O O8 0.889280 0.136613 0.541855
O O9 0.601373 0.400634 0.586025
O O10 0.846477 0.738544 0.435681
O O11 0.592099 0.741145 0.854120
O O12 0.447819 0.139719 0.848155
O O13 0.500000 0.500000 0.000000
O O14 0.229354 0.821050 0.646175
O O15 0.260694 0.817622 0.802146
O O16 0.500000 0.000000 0.500000
O O17 0.000000 0.000000 0.500000
O O18 0.137566 0.972548 0.157356
O O19 0.000000 0.000000 0.000000
#
# Coordination Sequence:
#
# PCOD8037194 Si02
#       8
#     2   2   2   2   2   2   2   2
#     4  12  25  48  72 109 141 191 243 301 361 433
#     4  12  27  48  70 106 146 185 242 293 354 432
#     4  12  26  45  74 105 144 185 241 293 363 426
#     4  12  25  46  76 105 143 191 237 294 363 429
#     4  12  24  45  71 104 138 186 239 291 353 434
#     4  12  27  45  70 107 143 186 238 297 360 420
#     4  12  26  47  71 102 146 187 239 294 362 431
#     4  12  24  45  74  97 145 184 239 294 356 422
#
# _framework density 21.358343000000001
#
# number of rings (size 3 to 8) (size 9 to 14) (size 15 to 20)
#    0.000    0.000    6.250    3.000    3.500    4.500 
#    0.000    0.000    0.000    0.000    0.000    0.000 
#    0.000    0.000    0.000    0.000    0.000    0.000 
#
# Total GULP energy -198279.695473 kJ/mol
# GULP energy per Si atom -12392.480967 kJ/mol
# Density = 2.130973 g / cm^3
# Si number density = 21.358343 Si / 1000 Ang^3
#
#
#
# Elastic Constant Matrix: (Units=GPa)
#
#
# Indices 1 2 3 4 5 6 
#
# 1 138.3838 40.4301 27.0374 2.7526 6.3245 -15.3022
# 2 40.4301 125.3026 24.4528 12.0915 -8.9435 6.4098
# 3 27.0374 24.4528 78.0237 6.7027 -13.9860 -9.8081
# 4 2.7526 12.0915 6.7027 33.9244 4.8977 0.1378
# 5 6.3245 -8.9435 -13.9860 4.8977 48.0365 4.5479
# 6 -15.3022 6.4098 -9.8081 0.1378 4.5479 48.3659
#
#
#
# Elastic Compliance Matrix: (Units=1/GPa)
#
#
# Indices 1 2 3 4 5 6 
#
# 1 0.008985 -0.002893 -0.002441 0.001181 -0.002836 0.002995
# 2 -0.002893 0.009877 -0.001750 -0.003262 0.002307 -0.002787
# 3 -0.002441 -0.001750 0.015566 -0.002929 0.004619 0.002190
# 4 0.001181 -0.003262 -0.002929 0.031830 -0.004916 0.000584
# 5 -0.002836 0.002307 0.004619 -0.004916 0.023701 -0.002481
# 6 0.002995 -0.002787 0.002190 0.000584 -0.002481 0.022668
#
#
# Mechanical properties :
#
#
# Convention : Reuss Voigt Hill
#
# Bulk Modulus (GPa) = 49.35219 58.39454 53.87337
# Shear Modulus (GPa) = 37.43950 42.71800 40.07875
#
# Velocity S-wave (km/s) = 4.19133 4.47706 4.33655
# Velocity P-wave (km/s) = 6.82495 7.35698 7.09595
#
# Compressibility (1/GPa) = 0.02026253
#
# Stress axis : x y z
#
# Youngs Moduli (GPa) = 111.29066 101.24074 64.24373
#
# Poissons Ratio (x) = 0.29285 0.15679
# Poissons Ratio (y) = 0.32192 0.11242
# Poissons Ratio (z) = 0.27162 0.17716
#
# Static dielectric constant tensor:
#      x y z
#    x 7.378400 1.164450 0.652190 
#    y 1.164450 4.479460 0.317880 
#    z 0.652190 0.317880 4.269700 
# 
# 
# High freq. dielectric constant tensor:
#      x y z
#    x 1.867790 0.000850 0.005170 
#    y 0.000850 1.843490 0.009240 
#    z 0.005170 0.009240 1.841140 
# 
# From -- ./inp_files/282650.got.cif
#   From: 2010.06.25/outbox.cif.g09.slc.cpg/sg2_142_cif.got.tgz:282650.got - 2010.06.27 13:26:56.
