data_PCOD8037764
_publ_section_title
;
Structure prediction by ZEFSAII (Michael W. Deem and Ramdas Pophale) SiO2 
 PCOD8037764
Probable space group: P -1
;
_chemical_formula_sum "Si O2"
_cell_formula_units_Z 14
_cell_length_a 6.643388
_cell_length_b 8.677791
_cell_length_c 19.415856
_cell_angle_alpha 136.878408
_cell_angle_beta 99.019112
_cell_angle_gamma 103.989957
_cell_volume 641.925924
_symmetry_space_group_name_H-M "P -1"
_symmetry_group_IT_number 2
_symmetry_cell_setting 'triclinic'
loop_
_space_group_symop_operation_xyz
x,y,z
-x,-y,-z
loop_
_atom_site_type_symbol
_atom_site_label
_atom_site_fract_x
_atom_site_fract_y
_atom_site_fract_z
Si Si1 0.480136 0.465654 0.067469
Si Si2 0.596243 0.090413 0.723942
Si Si3 0.151228 0.310138 0.610427
Si Si4 0.905011 0.554977 0.204905
Si Si5 0.834869 0.397943 0.524868
Si Si6 0.642991 0.693835 0.691897
Si Si7 0.960740 0.084142 0.098220
O O1 0.435155 0.676993 0.171967
O O2 0.722092 0.483442 0.109752
O O3 0.500000 0.500000 0.000000
O O4 0.267008 0.167385 0.964853
O O5 0.835220 0.214397 0.731602
O O6 0.380084 0.902093 0.599365
O O7 0.601099 0.916803 0.730724
O O8 0.201926 0.366131 0.711997
O O9 0.397103 0.440013 0.623228
O O10 0.986573 0.412195 0.603876
O O11 0.000000 0.000000 0.500000
O O12 0.907925 0.310311 0.155936
O O13 0.740009 0.591917 0.602100
O O14 0.000000 0.500000 0.500000
O O15 0.817799 0.821171 0.807543
O O16 0.000000 0.000000 0.000000
#
# Coordination Sequence:
#
# PCOD8037764 Si02
#       7
#     2   2   2   2   2   2   2
#     4  12  29  47  76 105 145 195 246 298 361 436
#     4  12  28  47  75 107 148 190 246 298 361 435
#     4  12  27  45  77 107 146 190 240 301 365 426
#     4  12  27  48  74 107 146 190 242 304 363 428
#     4  12  27  48  74 109 148 192 240 298 366 434
#     4  12  28  48  75 110 147 192 242 298 365 437
#     4  12  26  49  73 106 149 189 242 301 363 425
#
# _framework density 21.809369
#
# number of rings (size 3 to 8) (size 9 to 14) (size 15 to 20)
#    0.000    0.000    4.286    4.286   12.000    2.286 
#    0.000    0.000    0.000    0.000    0.000    0.000 
#    0.000    0.000    0.000    0.000    0.000    0.000 
#
# Total GULP energy -173618.579227 kJ/mol
# GULP energy per Si atom -12401.327088 kJ/mol
# Density = 2.175973 g / cm^3
# Si number density = 21.809369 Si / 1000 Ang^3
#
#
#
# Elastic Constant Matrix: (Units=GPa)
#
#
# Indices 1 2 3 4 5 6 
#
# 1 79.0938 16.3920 22.2701 -4.5474 43.0731 41.0814
# 2 16.3920 94.7832 25.4380 -5.8911 42.5434 53.1407
# 3 22.2701 25.4380 100.9137 -5.2455 36.5011 26.6878
# 4 -4.5474 -5.8911 -5.2455 51.2782 7.7162 15.4488
# 5 43.0731 42.5434 36.5011 7.7162 30.2994 -19.1518
# 6 41.0814 53.1407 26.6878 15.4488 -19.1518 21.2327
#
#
#
# Elastic Compliance Matrix: (Units=1/GPa)
#
#
# Indices 1 2 3 4 5 6 
#
# 1 0.009580 -0.005906 -0.003710 -0.002606 0.003677 0.006122
# 2 -0.005906 0.007542 -0.003902 -0.002191 0.005734 0.004222
# 3 -0.003710 -0.003902 0.011013 -0.000524 -0.000416 0.003108
# 4 -0.002606 -0.002191 -0.000524 0.017333 0.004881 0.002977
# 5 0.003677 0.005734 -0.000416 0.004881 0.008148 -0.017144
# 6 0.006122 0.004222 0.003108 0.002977 -0.017144 0.003148
#
#
# Mechanical properties :
#
#
# Convention : Reuss Voigt Hill
#
# Bulk Modulus (GPa) = 910.22250 44.77677 477.49964
# Shear Modulus (GPa) = 59.40582 34.60809 47.00696
#
# Velocity S-wave (km/s) = 5.22473 3.98784 4.64762
# Velocity P-wave (km/s) = 21.32269 6.46370 15.75494
#
# Compressibility (1/GPa) = 0.00109863
#
# Stress axis : x y z
#
# Youngs Moduli (GPa) = 104.38802 132.59061 90.79956
#
# Poissons Ratio (x) = 0.78307 0.33686
# Poissons Ratio (y) = 0.61651 0.35433
# Poissons Ratio (z) = 0.38727 0.51741
#
# Static dielectric constant tensor:
#      x y z
#    x 5.332890 -1.331390 0.258180 
#    y -1.331390 5.569870 -0.192600 
#    z 0.258180 -0.192600 4.102160 
# 
# 
# High freq. dielectric constant tensor:
#      x y z
#    x 1.867880 0.000460 0.005670 
#    y 0.000460 1.881050 -0.001190 
#    z 0.005670 -0.001190 1.875410 
# 
# From -- ./inp_files/24820.got.cif
#   From: 2010.06.25/outbox.cif.g09.slc.cpg/sg2_13_cif.got.tgz:24820.got - 2010.06.27 13:26:56.
