data_PCOD8037726
_publ_section_title
;
Structure prediction by ZEFSAII (Michael W. Deem and Ramdas Pophale) SiO2 
 PCOD8037726
Probable space group: P -1
;
_chemical_formula_sum "Si O2"
_cell_formula_units_Z 14
_cell_length_a 11.037537
_cell_length_b 14.063893
_cell_length_c 5.128097
_cell_angle_alpha 68.697540
_cell_angle_beta 90.313403
_cell_angle_gamma 51.561711
_cell_volume 550.961763
_symmetry_space_group_name_H-M "P -1"
_symmetry_group_IT_number 2
_symmetry_cell_setting 'triclinic'
loop_
_space_group_symop_operation_xyz
x,y,z
-x,-y,-z
loop_
_atom_site_type_symbol
_atom_site_label
_atom_site_fract_x
_atom_site_fract_y
_atom_site_fract_z
Si Si1 0.912693 0.631356 0.180597
Si Si2 0.686841 0.363939 0.581885
Si Si3 0.706946 0.039963 0.346534
Si Si4 0.825634 0.069392 0.822780
Si Si5 0.340724 0.129136 0.726937
Si Si6 0.629859 0.698936 0.770968
Si Si7 0.199840 0.590812 0.981249
O O1 0.821749 0.772666 0.197296
O O2 0.000000 0.500000 0.500000
O O3 0.033330 0.620042 0.989397
O O4 0.783168 0.639311 0.010455
O O5 0.500000 0.500000 0.500000
O O6 0.704022 0.234696 0.645885
O O7 0.788499 0.327217 0.884303
O O8 0.776608 0.376926 0.340059
O O9 0.830342 0.013170 0.593830
O O10 0.539343 0.196397 0.186331
O O11 0.688351 0.926847 0.474251
O O12 0.767148 0.017803 0.074863
O O13 0.000000 0.000000 0.000000
O O14 0.381360 0.221329 0.555842
O O15 0.500000 0.000000 0.000000
O O16 0.649546 0.571593 0.802965
#
# Coordination Sequence:
#
# PCOD8037726 Si02
#       7
#     2   2   2   2   2   2   2
#     4  12  27  48  73 117 166 200 254 322 389 477
#     4  12  27  52  78 107 144 200 269 319 382 459
#     4  12  27  49  80 107 154 212 252 316 401 461
#     4  12  29  52  74 112 152 194 270 339 384 449
#     4  12  27  48  76 116 159 208 260 306 388 491
#     4  12  26  47  76 115 162 198 258 312 388 493
#     4  12  27  46  81 112 149 202 247 322 398 441
#
# _framework density 25.410112999999999
#
# number of rings (size 3 to 8) (size 9 to 14) (size 15 to 20)
#    0.000    0.000    2.857    6.000    6.000    0.000 
#    0.000    0.000    0.000    0.000    0.000    0.000 
#    0.000    0.000    0.000    0.000    0.000    0.000 
#
# Total GULP energy -173588.157681 kJ/mol
# GULP energy per Si atom -12399.154120 kJ/mol
# Density = 2.535228 g / cm^3
# Si number density = 25.410113 Si / 1000 Ang^3
#
#
#
# Elastic Constant Matrix: (Units=GPa)
#
#
# Indices 1 2 3 4 5 6 
#
# 1 79.5461 19.4518 30.0582 18.0111 7.5459 -10.1615
# 2 19.4518 136.2641 36.3099 1.1664 5.3372 9.3921
# 3 30.0582 36.3099 123.4997 11.4853 2.6810 -6.1900
# 4 18.0111 1.1664 11.4853 39.7456 -2.4005 1.7166
# 5 7.5459 5.3372 2.6810 -2.4005 47.8320 0.1989
# 6 -10.1615 9.3921 -6.1900 1.7166 0.1989 56.1213
#
#
#
# Elastic Compliance Matrix: (Units=1/GPa)
#
#
# Indices 1 2 3 4 5 6 
#
# 1 0.016145 -0.001671 -0.002592 -0.006809 -0.002570 0.003135
# 2 -0.001671 0.008319 -0.002241 0.001218 -0.000470 -0.001978
# 3 -0.002592 -0.002241 0.009583 -0.001570 0.000039 0.001011
# 4 -0.006809 0.001218 -0.001570 0.028922 0.002488 -0.002503
# 5 -0.002570 -0.000470 0.000039 0.002488 0.021489 -0.000535
# 6 0.003135 -0.001978 0.001011 -0.002503 -0.000535 0.018907
#
#
# Mechanical properties :
#
#
# Convention : Reuss Voigt Hill
#
# Bulk Modulus (GPa) = 47.53310 56.77218 52.15264
# Shear Modulus (GPa) = 40.52299 45.63912 43.08106
#
# Velocity S-wave (km/s) = 3.99778 4.24264 4.12203
# Velocity P-wave (km/s) = 6.32903 6.81108 6.57447
#
# Compressibility (1/GPa) = 0.02103797
#
# Stress axis : x y z
#
# Youngs Moduli (GPa) = 61.93714 120.21061 104.35334
#
# Poissons Ratio (x) = 0.20089 0.27050
# Poissons Ratio (y) = 0.10351 0.23388
# Poissons Ratio (z) = 0.16055 0.26942
#
# Static dielectric constant tensor:
#      x y z
#    x 3.425980 0.860830 0.511280 
#    y 0.860830 4.662610 -0.594120 
#    z 0.511280 -0.594120 4.234110 
# 
# 
# High freq. dielectric constant tensor:
#      x y z
#    x 2.019160 0.001880 -0.000240 
#    y 0.001880 2.038130 -0.003330 
#    z -0.000240 -0.003330 2.015200 
# 
# From -- ./inp_files/77145.got.cif
#   From: 2010.06.25/outbox.cif.g09.slc.cpg/sg2_39_cif.got.tgz:77145.got - 2010.06.27 13:26:56.
