data_PCOD8037574
_publ_section_title
;
Structure prediction by ZEFSAII (Michael W. Deem and Ramdas Pophale) SiO2 
 PCOD8037574
Probable space group: P -1
;
_chemical_formula_sum "Si O2"
_cell_formula_units_Z 16
_cell_length_a 13.532297
_cell_length_b 29.623116
_cell_length_c 9.379948
_cell_angle_alpha 142.903167
_cell_angle_beta 151.871816
_cell_angle_gamma 24.580579
_cell_volume 737.211072
_symmetry_space_group_name_H-M "P -1"
_symmetry_group_IT_number 2
_symmetry_cell_setting 'triclinic'
loop_
_space_group_symop_operation_xyz
x,y,z
-x,-y,-z
loop_
_atom_site_type_symbol
_atom_site_label
_atom_site_fract_x
_atom_site_fract_y
_atom_site_fract_z
Si Si1 0.645343 0.594009 0.772333
Si Si2 0.628192 0.461734 0.909135
Si Si3 0.500459 0.971949 0.088198
Si Si4 0.314983 0.650967 0.783527
Si Si5 0.710278 0.069434 0.710739
Si Si6 0.169594 0.852281 0.204358
Si Si7 0.700463 0.759331 0.848038
Si Si8 0.719141 0.736323 0.148291
O O1 0.513848 0.573554 0.434964
O O2 0.526372 0.608052 0.811123
O O3 0.555461 0.700544 0.880671
O O4 0.000000 0.500000 0.000000
O O5 0.525020 0.564452 0.958516
O O6 0.500000 0.500000 0.000000
O O7 0.993777 0.360543 0.119581
O O8 0.668692 0.992357 0.440778
O O9 0.162347 0.040822 0.889097
O O10 0.500000 0.000000 0.000000
O O11 0.709095 0.844484 0.035295
O O12 0.073829 0.649637 0.425012
O O13 0.161989 0.769076 0.929539
O O14 0.736936 0.112405 0.709813
O O15 0.426008 0.165207 0.685592
O O16 0.000000 0.000000 0.000000
O O17 0.414807 0.793438 0.495211
O O18 0.668863 0.765235 0.992025
#
# Coordination Sequence:
#
# PCOD8037574 Si02
#       8
#     2   2   2   2   2   2   2   2
#     4  12  25  47  77 101 147 198 245 301 366 429
#     4  12  30  47  74 112 151 195 251 306 364 439
#     4  12  28  49  78 106 154 197 239 308 371 440
#     4  12  26  51  75 108 151 195 249 306 365 437
#     4  12  28  47  78 113 145 192 248 303 371 438
#     4  12  28  50  76 111 151 194 247 305 369 446
#     4  12  29  48  74 111 152 195 250 302 372 438
#     4  12  26  48  75 109 149 193 244 306 367 436
#
# _framework density 21.703417000000002
#
# number of rings (size 3 to 8) (size 9 to 14) (size 15 to 20)
#    0.000    0.000    6.250    2.250   12.250    1.500 
#    0.000    0.000    0.000    0.000    0.000    0.000 
#    0.000    0.000    0.000    0.000    0.000    0.000 
#
# Total GULP energy -198441.750343 kJ/mol
# GULP energy per Si atom -12402.609396 kJ/mol
# Density = 2.165402 g / cm^3
# Si number density = 21.703417 Si / 1000 Ang^3
#
#
#
# Elastic Constant Matrix: (Units=GPa)
#
#
# Indices 1 2 3 4 5 6 
#
# 1 169.9110 40.3541 19.7871 -6.4064 -6.7564 3.2870
# 2 40.3541 81.5277 9.0012 -9.2342 4.9786 13.6761
# 3 19.7871 9.0012 94.8528 -4.7377 1.5674 17.1244
# 4 -6.4064 -9.2342 -4.7377 45.1845 1.5694 1.3402
# 5 -6.7564 4.9786 1.5674 1.5694 35.7099 -2.9653
# 6 3.2870 13.6761 17.1244 1.3402 -2.9653 31.0864
#
#
#
# Elastic Compliance Matrix: (Units=1/GPa)
#
#
# Indices 1 2 3 4 5 6 
#
# 1 0.006994 -0.003755 -0.001489 -0.000061 0.002075 0.001933
# 2 -0.003755 0.015882 0.000860 0.003157 -0.003729 -0.007555
# 3 -0.001489 0.000860 0.012162 0.001507 -0.001594 -0.007137
# 4 -0.000061 0.003157 0.001507 0.023089 -0.001813 -0.003381
# 5 0.002075 -0.003729 -0.001594 -0.001813 0.029497 0.005191
# 6 0.001933 -0.007555 -0.007137 -0.003381 0.005191 0.039860
#
#
# Mechanical properties :
#
#
# Convention : Reuss Voigt Hill
#
# Bulk Modulus (GPa) = 38.06866 53.84180 45.95523
# Shear Modulus (GPa) = 34.48051 40.87276 37.67664
#
# Velocity S-wave (km/s) = 3.99019 4.34434 4.17103
# Velocity P-wave (km/s) = 6.22955 7.07292 6.66459
#
# Compressibility (1/GPa) = 0.02626832
#
# Stress axis : x y z
#
# Youngs Moduli (GPa) = 142.98966 62.96316 82.22442
#
# Poissons Ratio (x) = 0.23644 0.12243
# Poissons Ratio (y) = 0.53696 -0.07067
# Poissons Ratio (z) = 0.21291 -0.05412
#
# Static dielectric constant tensor:
#      x y z
#    x 4.717070 0.374690 0.756750 
#    y 0.374690 3.998030 0.246390 
#    z 0.756750 0.246390 4.833610 
# 
# 
# High freq. dielectric constant tensor:
#      x y z
#    x 1.868750 -0.001600 -0.000630 
#    y -0.001600 1.867310 0.004520 
#    z -0.000630 0.004520 1.868640 
# 
# From -- ./inp_files/37279.got.cif
#   From: 2010.06.25/outbox.cif.g09.slc.cpg/sg2_19_cif.got.tgz:37279.got - 2010.06.27 13:26:56.
