data_PCOD8037305
_publ_section_title
;
Structure prediction by ZEFSAII (Michael W. Deem and Ramdas Pophale) SiO2 
 PCOD8037305
Probable space group: P -1
;
_chemical_formula_sum "Si O2"
_cell_formula_units_Z 14
_cell_length_a 9.221026
_cell_length_b 8.862407
_cell_length_c 16.988533
_cell_angle_alpha 68.489869
_cell_angle_beta 121.922205
_cell_angle_gamma 148.563549
_cell_volume 603.275354
_symmetry_space_group_name_H-M "P -1"
_symmetry_group_IT_number 2
_symmetry_cell_setting 'triclinic'
loop_
_space_group_symop_operation_xyz
x,y,z
-x,-y,-z
loop_
_atom_site_type_symbol
_atom_site_label
_atom_site_fract_x
_atom_site_fract_y
_atom_site_fract_z
Si Si1 0.754161 0.166296 0.480464
Si Si2 0.338783 0.492213 0.295082
Si Si3 0.623217 0.340668 0.168351
Si Si4 0.694753 0.180965 0.728069
Si Si5 0.449714 0.143827 0.985977
Si Si6 0.248594 0.351739 0.122746
Si Si7 0.973931 0.990264 0.587023
O O1 0.905154 0.120362 0.560936
O O2 0.000000 0.500000 0.500000
O O3 0.500000 0.000000 0.500000
O O4 0.589298 0.028019 0.374935
O O5 0.202162 0.561265 0.259749
O O6 0.199602 0.304797 0.212011
O O7 0.701132 0.800791 0.322088
O O8 0.281039 0.330283 0.385281
O O9 0.423971 0.333572 0.143770
O O10 0.979823 0.635175 0.247380
O O11 0.443358 0.036778 0.200648
O O12 0.655680 0.357416 0.079852
O O13 0.553657 0.335380 0.905591
O O14 0.100760 0.907905 0.959796
O O15 0.500000 0.000000 0.000000
O O16 0.000000 0.000000 0.500000
#
# Coordination Sequence:
#
# PCOD8037305 Si02
#       7
#     2   2   2   2   2   2   2
#     4  12  28  45  70 101 142 183 237 290 356 411
#     4  12  26  45  72 101 141 181 241 285 351 411
#     4  12  26  44  73 104 144 184 231 288 352 413
#     4  12  26  46  69 103 141 186 235 288 349 419
#     4  12  24  47  74 103 142 184 231 281 351 419
#     4  12  26  45  71 106 141 181 232 289 346 417
#     4  12  26  47  71 100 137 188 234 294 345 413
#
# _framework density 23.206648999999999
#
# number of rings (size 3 to 8) (size 9 to 14) (size 15 to 20)
#    0.000    0.000    1.429    8.571    8.000    0.000 
#    0.000    0.000    0.000    0.000    0.000    0.000 
#    0.000    0.000    0.000    0.000    0.000    0.000 
#
# Total GULP energy -173614.225608 kJ/mol
# GULP energy per Si atom -12401.016115 kJ/mol
# Density = 2.315383 g / cm^3
# Si number density = 23.206649 Si / 1000 Ang^3
#
#
#
# Elastic Constant Matrix: (Units=GPa)
#
#
# Indices 1 2 3 4 5 6 
#
# 1 136.7325 47.7951 45.1573 -9.4714 11.0151 -5.6008
# 2 47.7951 143.3870 33.3792 -15.1226 10.3289 1.8578
# 3 45.1573 33.3792 91.9002 -8.7484 -1.3171 -6.5661
# 4 -9.4714 -15.1226 -8.7484 51.0378 7.8837 8.0866
# 5 11.0151 10.3289 -1.3171 7.8837 49.1913 4.8284
# 6 -5.6008 1.8578 -6.5661 8.0866 4.8284 43.4790
#
#
#
# Elastic Compliance Matrix: (Units=1/GPa)
#
#
# Indices 1 2 3 4 5 6 
#
# 1 0.009553 -0.002086 -0.003841 0.000672 -0.001994 0.000836
# 2 -0.002086 0.008490 -0.001953 0.002227 -0.001611 -0.001162
# 3 -0.003841 -0.001953 0.013655 0.000614 0.001402 0.001381
# 4 0.000672 0.002227 0.000614 0.021616 -0.003720 -0.003523
# 5 -0.001994 -0.001611 0.001402 -0.003720 0.021916 -0.001718
# 6 0.000836 -0.001162 0.001381 -0.003523 -0.001718 0.024212
#
#
# Mechanical properties :
#
#
# Convention : Reuss Voigt Hill
#
# Bulk Modulus (GPa) = 62.74385 69.40922 66.07653
# Shear Modulus (GPa) = 41.48898 45.12082 43.30490
#
# Velocity S-wave (km/s) = 4.23283 4.41421 4.32447
# Velocity P-wave (km/s) = 7.14037 7.48027 7.31230
#
# Compressibility (1/GPa) = 0.01593782
#
# Stress axis : x y z
#
# Youngs Moduli (GPa) = 104.68140 117.78484 73.23235
#
# Poissons Ratio (x) = 0.24575 0.28129
# Poissons Ratio (y) = 0.21841 0.14299
# Poissons Ratio (z) = 0.40209 0.22998
#
# Static dielectric constant tensor:
#      x y z
#    x 4.022670 -0.407950 -0.571320 
#    y -0.407950 3.222420 -1.256150 
#    z -0.571320 -1.256150 2.732940 
# 
# 
# High freq. dielectric constant tensor:
#      x y z
#    x 1.931470 0.007530 0.010040 
#    y 0.007530 1.931180 -0.001420 
#    z 0.010040 -0.001420 1.927200 
# 
# From -- ./inp_files/217231.got.cif
#   From: 2010.06.25/outbox.cif.g09.slc.cpg/sg2_109_cif.got.tgz:217231.got - 2010.06.27 13:26:56.
