data_PCOD8037252
_publ_section_title
;
Structure prediction by ZEFSAII (Michael W. Deem and Ramdas Pophale) SiO2 
 PCOD8037252
Probable space group: P -1
;
_chemical_formula_sum "Si O2"
_cell_formula_units_Z 16
_cell_length_a 8.702134
_cell_length_b 22.431585
_cell_length_c 8.074660
_cell_angle_alpha 42.992944
_cell_angle_beta 95.508940
_cell_angle_gamma 126.713240
_cell_volume 673.093410
_symmetry_space_group_name_H-M "P -1"
_symmetry_group_IT_number 2
_symmetry_cell_setting 'triclinic'
loop_
_space_group_symop_operation_xyz
x,y,z
-x,-y,-z
loop_
_atom_site_type_symbol
_atom_site_label
_atom_site_fract_x
_atom_site_fract_y
_atom_site_fract_z
Si Si1 0.291841 0.945027 0.708716
Si Si2 0.451492 0.503232 0.674306
Si Si3 0.252585 0.609328 0.403047
Si Si4 0.299834 0.728820 0.511460
Si Si5 0.107258 0.195724 0.296460
Si Si6 0.003009 0.255229 0.648022
Si Si7 0.852962 0.024070 0.924609
Si Si8 0.494665 0.217228 0.248699
O O1 0.034657 0.861392 0.772928
O O2 0.500000 0.000000 0.500000
O O3 0.402239 0.077245 0.546941
O O4 0.189282 0.819764 0.065152
O O5 0.500000 0.500000 0.500000
O O6 0.345486 0.553555 0.567678
O O7 0.708696 0.603385 0.589438
O O8 0.258558 0.350160 0.043122
O O9 0.231912 0.644150 0.511230
O O10 0.000000 0.500000 0.500000
O O11 0.429832 0.734287 0.033368
O O12 0.095644 0.714268 0.549390
O O13 0.302655 0.678507 0.793060
O O14 0.566641 0.886241 0.194315
O O15 0.278263 0.187104 0.331856
O O16 0.892983 0.090046 0.621554
O O17 0.968533 0.138989 0.837426
O O18 0.000000 0.000000 0.000000
#
# Coordination Sequence:
#
# PCOD8037252 Si02
#       8
#     2   2   2   2   2   2   2   2
#     4  12  25  43  77 110 143 189 249 308 368 431
#     4  12  25  48  74 101 148 196 243 301 369 440
#     4  12  28  50  76 107 150 196 249 306 367 451
#     4  12  27  48  76 111 150 192 249 310 375 434
#     4  12  26  46  76 106 144 198 246 295 375 441
#     4  12  25  46  72 105 152 188 237 310 366 433
#     4  12  24  46  73 108 147 183 244 309 363 432
#     4  12  26  48  76 109 149 195 247 306 375 433
#
# _framework density 23.770845999999999
#
# number of rings (size 3 to 8) (size 9 to 14) (size 15 to 20)
#    0.000    0.000    5.000    4.500    3.500    1.000 
#    0.000    0.000    0.000    0.000    0.000    0.000 
#    0.000    0.000    0.000    0.000    0.000    0.000 
#
# Total GULP energy -198278.054729 kJ/mol
# GULP energy per Si atom -12392.378421 kJ/mol
# Density = 2.371674 g / cm^3
# Si number density = 23.770846 Si / 1000 Ang^3
#
#
#
# Elastic Constant Matrix: (Units=GPa)
#
#
# Indices 1 2 3 4 5 6 
#
# 1 154.7091 54.9555 17.4211 -14.3756 13.9304 22.0378
# 2 54.9555 133.1201 10.4194 -19.5591 5.1496 8.4650
# 3 17.4211 10.4194 61.8145 -9.2503 9.3121 -6.6804
# 4 -14.3756 -19.5591 -9.2503 39.4680 4.1191 -2.7354
# 5 13.9304 5.1496 9.3121 4.1191 25.7503 -6.1835
# 6 22.0378 8.4650 -6.6804 -2.7354 -6.1835 39.7067
#
#
#
# Elastic Compliance Matrix: (Units=1/GPa)
#
#
# Indices 1 2 3 4 5 6 
#
# 1 0.009051 -0.002810 -0.001603 0.001710 -0.005326 -0.005406
# 2 -0.002810 0.009271 -0.000123 0.003618 -0.000949 -0.000336
# 3 -0.001603 -0.000123 0.018565 0.004543 -0.005717 0.003462
# 4 0.001710 0.003618 0.004543 0.029648 -0.008075 -0.000171
# 5 -0.005326 -0.000949 -0.005717 -0.008075 0.047433 0.009027
# 6 -0.005406 -0.000336 0.003462 -0.000171 0.009027 0.030233
#
#
# Mechanical properties :
#
#
# Convention : Reuss Voigt Hill
#
# Bulk Modulus (GPa) = 35.95092 57.24841 46.59967
# Shear Modulus (GPa) = 30.76063 38.77482 34.76773
#
# Velocity S-wave (km/s) = 3.60119 4.04318 3.82857
# Velocity P-wave (km/s) = 5.69633 6.77733 6.26021
#
# Compressibility (1/GPa) = 0.02781570
#
# Stress axis : x y z
#
# Youngs Moduli (GPa) = 110.48621 107.85910 53.86409
#
# Poissons Ratio (x) = 0.30308 0.08635
# Poissons Ratio (y) = 0.31047 0.00661
# Poissons Ratio (z) = 0.17712 0.01324
#
# Static dielectric constant tensor:
#      x y z
#    x 5.128730 1.025450 -0.210050 
#    y 1.025450 5.759160 0.236150 
#    z -0.210050 0.236150 4.421620 
# 
# 
# High freq. dielectric constant tensor:
#      x y z
#    x 1.955550 0.005970 -0.000950 
#    y 0.005970 1.953020 0.006370 
#    z -0.000950 0.006370 1.951180 
# 
# From -- ./inp_files/225981.got.cif
#   From: 2010.06.25/outbox.cif.g09.slc.cpg/sg2_113_cif.got.tgz:225981.got - 2010.06.27 13:26:56.
