data_PCOD8037873
_publ_section_title
;
Structure prediction by ZEFSAII (Michael W. Deem and Ramdas Pophale) SiO2 
 PCOD8037873
Probable space group: P -1
;
_chemical_formula_sum "Si O2"
_cell_formula_units_Z 16
_cell_length_a 12.161217
_cell_length_b 15.737797
_cell_length_c 9.114921
_cell_angle_alpha 40.762338
_cell_angle_beta 105.349870
_cell_angle_gamma 123.855876
_cell_volume 905.244977
_symmetry_space_group_name_H-M "P -1"
_symmetry_group_IT_number 2
_symmetry_cell_setting 'triclinic'
loop_
_space_group_symop_operation_xyz
x,y,z
-x,-y,-z
loop_
_atom_site_type_symbol
_atom_site_label
_atom_site_fract_x
_atom_site_fract_y
_atom_site_fract_z
Si Si1 0.945279 0.135222 0.178581
Si Si2 0.838183 0.704265 0.407003
Si Si3 0.935015 0.061663 0.593642
Si Si4 0.290589 0.134918 0.011281
Si Si5 0.436013 0.581695 0.292233
Si Si6 0.329675 0.007210 0.899429
Si Si7 0.628638 0.261226 0.686504
Si Si8 0.904753 0.560226 0.354369
O O1 0.927398 0.140635 0.339491
O O2 0.794058 0.015476 0.211457
O O3 0.038267 0.071213 0.258572
O O4 0.025694 0.313320 0.916521
O O5 0.799122 0.807849 0.167298
O O6 0.707015 0.562348 0.640790
O O7 0.897250 0.640110 0.395120
O O8 0.950500 0.804851 0.435963
O O9 0.788665 0.979942 0.730863
O O10 0.437939 0.280671 0.941656
O O11 0.316452 0.043989 0.014841
O O12 0.500000 0.500000 0.500000
O O13 0.391902 0.666789 0.272518
O O14 0.478630 0.151525 0.696117
O O15 0.318967 0.845374 0.103787
O O16 0.751712 0.411486 0.441467
O O17 0.000000 0.500000 0.500000
#
# Coordination Sequence:
#
# PCOD8037873 Si02
#       8
#     2   2   2   2   2   2   2   2
#     4  11  22  36  51  79 114 140 175 223 269 310
#     4  10  18  33  54  80 102 135 182 220 258 316
#     4  11  22  34  53  80 109 144 178 219 266 315
#     4  10  17  32  56  79 100 136 183 220 259 312
#     4   8  17  30  51  79 106 129 170 226 266 303
#     4  10  18  34  57  79 104 136 180 223 260 315
#     4   9  19  31  55  84 103 132 178 223 265 309
#     4  11  20  34  57  80 105 138 176 224 266 312
#
# _framework density 17.674773999999999
#
# number of rings (size 3 to 8) (size 9 to 14) (size 15 to 20)
#    0.000    2.000    3.750    1.125    0.000    0.000 
#    0.000    1.875    0.000    9.750    0.000    0.000 
#    0.000    0.000    0.000    0.000    0.000    0.000 
#
# Total GULP energy -198230.128036 kJ/mol
# GULP energy per Si atom -12389.383002 kJ/mol
# Density = 1.763455 g / cm^3
# Si number density = 17.674774 Si / 1000 Ang^3
#
#
#
# Elastic Constant Matrix: (Units=GPa)
#
#
# Indices 1 2 3 4 5 6 
#
# 1 86.2226 23.7156 51.4681 -6.2510 -15.9434 -4.2705
# 2 23.7156 54.0749 63.4459 -9.4232 -25.2419 -1.0074
# 3 51.4681 63.4459 124.5731 -10.4625 -29.8799 13.8861
# 4 -6.2510 -9.4232 -10.4625 26.8877 2.4467 -2.8019
# 5 -15.9434 -25.2419 -29.8799 2.4467 37.4939 -20.8542
# 6 -4.2705 -1.0074 13.8861 -2.8019 -20.8542 29.3324
#
#
#
# Elastic Compliance Matrix: (Units=1/GPa)
#
#
# Indices 1 2 3 4 5 6 
#
# 1 0.038361 0.082734 -0.045950 0.021945 0.085867 0.093324
# 2 0.082734 0.334398 -0.159995 0.080083 0.309392 0.326889
# 3 -0.045950 -0.159995 0.089075 -0.035707 -0.142359 -0.158976
# 4 0.021945 0.080083 -0.035707 0.058117 0.077402 0.083431
# 5 0.085867 0.309392 -0.142359 0.077402 0.343116 0.341857
# 6 0.093324 0.326889 -0.158976 0.083431 0.341857 0.385183
#
#
# Mechanical properties :
#
#
# Convention : Reuss Voigt Hill
#
# Bulk Modulus (GPa) = 4.64226 60.23664 32.43945
# Shear Modulus (GPa) = 3.19188 27.15889 15.17538
#
# Velocity S-wave (km/s) = 1.34529 3.92419 2.93335
# Velocity P-wave (km/s) = 2.24617 7.39506 5.46499
#
# Compressibility (1/GPa) = 0.21541220
#
# Stress axis : x y z
#
# Youngs Moduli (GPa) = 26.06797 2.99044 11.22654
#
# Poissons Ratio (x) = -0.24741 0.51586
# Poissons Ratio (y) = -2.15671 1.79619
# Poissons Ratio (z) = 1.19782 0.47846
#
# Static dielectric constant tensor:
#      x y z
#    x 3.709060 0.136920 -0.329020 
#    y 0.136920 3.309440 -0.505830 
#    z -0.329020 -0.505830 3.420020 
# 
# 
# High freq. dielectric constant tensor:
#      x y z
#    x 1.706450 0.001160 -0.012190 
#    y 0.001160 1.661980 -0.046950 
#    z -0.012190 -0.046950 1.665000 
# 
# From -- ./inp_files/252106.got.cif
#   From: 2010.06.25/outbox.cif.g09.slc.cpg/sg2_127_cif.got.tgz:252106.got - 2010.06.27 13:26:56.
