data_PCOD8037829
_publ_section_title
;
Structure prediction by ZEFSAII (Michael W. Deem and Ramdas Pophale) SiO2 
 PCOD8037829
Probable space group: P -1
;
_chemical_formula_sum "Si O2"
_cell_formula_units_Z 16
_cell_length_a 9.855660
_cell_length_b 9.078975
_cell_length_c 14.589962
_cell_angle_alpha 36.185316
_cell_angle_beta 53.134351
_cell_angle_gamma 65.946756
_cell_volume 608.476745
_symmetry_space_group_name_H-M "P -1"
_symmetry_group_IT_number 2
_symmetry_cell_setting 'triclinic'
loop_
_space_group_symop_operation_xyz
x,y,z
-x,-y,-z
loop_
_atom_site_type_symbol
_atom_site_label
_atom_site_fract_x
_atom_site_fract_y
_atom_site_fract_z
Si Si1 0.710903 0.481404 0.639742
Si Si2 0.239216 0.096578 0.921879
Si Si3 0.761294 0.616811 0.755194
Si Si4 0.659697 0.401837 0.274347
Si Si5 0.075436 0.332769 0.711638
Si Si6 0.603398 0.000469 0.823883
Si Si7 0.632461 0.433025 0.074427
Si Si8 0.165281 0.830544 0.518070
O O1 0.791440 0.511908 0.693995
O O2 0.547953 0.625271 0.618768
O O3 0.859843 0.599988 0.450375
O O4 0.655622 0.177703 0.802976
O O5 0.261479 0.306724 0.886630
O O6 0.221094 0.239995 0.760856
O O7 0.400763 0.957219 0.911700
O O8 0.082634 0.888391 0.119022
O O9 0.756621 0.417030 0.943887
O O10 0.886749 0.887193 0.591822
O O11 0.565734 0.686089 0.807260
O O12 0.745470 0.220691 0.397063
O O13 0.699547 0.309693 0.200935
O O14 0.022197 0.581644 0.665897
O O15 0.695490 0.166685 0.619601
O O16 0.652422 0.726462 0.951792
#
# Coordination Sequence:
#
# PCOD8037829 Si02
#       8
#     2   2   2   2   2   2   2   2
#     4   9  17  28  49  73  96 124 161 198 239 283
#     4   9  17  29  51  75  99 125 161 205 245 282
#     4   9  18  31  49  70 100 132 159 195 243 288
#     4   9  17  29  50  75  98 123 160 203 241 281
#     4   9  17  31  50  75  99 125 161 205 244 282
#     4   9  17  31  52  75  97 125 162 201 240 286
#     4   9  18  31  49  74 101 127 159 200 243 285
#     4   9  17  31  52  75  98 126 161 198 241 289
#
# _framework density 26.295172999999998
#
# number of rings (size 3 to 8) (size 9 to 14) (size 15 to 20)
#    0.000    3.000    0.000    0.750    0.000    9.500 
#    0.000    1.250    0.000   39.000    0.000    0.000 
#    0.000    0.000    0.000    0.000    0.000    0.000 
#
# Total GULP energy -198382.212694 kJ/mol
# GULP energy per Si atom -12398.888293 kJ/mol
# Density = 2.623532 g / cm^3
# Si number density = 26.295173 Si / 1000 Ang^3
#
#
#
# Elastic Constant Matrix: (Units=GPa)
#
#
# Indices 1 2 3 4 5 6 
#
# 1 88.4999 41.1061 34.8485 15.2002 1.3661 34.0093
# 2 41.1061 121.5147 57.0766 26.9132 -0.9779 21.0922
# 3 34.8485 57.0766 113.1949 8.5390 -12.6969 14.2633
# 4 15.2002 26.9132 8.5390 40.5716 3.1578 6.5702
# 5 1.3661 -0.9779 -12.6969 3.1578 36.1876 -3.5221
# 6 34.0093 21.0922 14.2633 6.5702 -3.5221 39.9724
#
#
#
# Elastic Compliance Matrix: (Units=1/GPa)
#
#
# Indices 1 2 3 4 5 6 
#
# 1 0.019512 -0.001973 -0.003367 -0.002754 -0.003111 -0.014180
# 2 -0.001973 0.013289 -0.005428 -0.006450 -0.001145 -0.002438
# 3 -0.003367 -0.005428 0.012826 0.001608 0.004465 0.001281
# 4 -0.002754 -0.006450 0.001608 0.029767 -0.002094 0.000096
# 5 -0.003111 -0.001145 0.004465 -0.002094 0.029921 0.004639
# 6 -0.014180 -0.002438 0.001281 0.000096 0.004639 0.038304
#
#
# Mechanical properties :
#
#
# Convention : Reuss Voigt Hill
#
# Bulk Modulus (GPa) = 41.50833 65.47466 53.49150
# Shear Modulus (GPa) = 28.87100 36.02487 32.44793
#
# Velocity S-wave (km/s) = 3.31714 3.70539 3.51663
# Velocity P-wave (km/s) = 5.52187 6.57727 6.07254
#
# Compressibility (1/GPa) = 0.02409155
#
# Stress axis : x y z
#
# Youngs Moduli (GPa) = 51.25128 75.25131 77.96710
#
# Poissons Ratio (x) = 0.14845 0.26248
# Poissons Ratio (y) = 0.10111 0.42321
# Poissons Ratio (z) = 0.17254 0.40847
#
# Static dielectric constant tensor:
#      x y z
#    x 4.953320 0.187930 -0.127230 
#    y 0.187930 4.894890 0.110860 
#    z -0.127230 0.110860 4.997650 
# 
# 
# High freq. dielectric constant tensor:
#      x y z
#    x 2.069880 0.019760 -0.015000 
#    y 0.019760 2.063500 -0.002400 
#    z -0.015000 -0.002400 2.070560 
# 
# From -- ./inp_files/401873.got.cif
#   From: 2010.06.25/outbox.cif.g09.slc.cpg/sg2_201_cif.got.tgz:401873.got - 2010.06.27 13:26:56.
