data_PCOD8037379
_publ_section_title
;
Structure prediction by ZEFSAII (Michael W. Deem and Ramdas Pophale) SiO2 
 PCOD8037379
Probable space group: P -1
;
_chemical_formula_sum "Si O2"
_cell_formula_units_Z 16
_cell_length_a 27.239273
_cell_length_b 8.749466
_cell_length_c 27.067528
_cell_angle_alpha 143.017360
_cell_angle_beta 169.707000
_cell_angle_gamma 37.293613
_cell_volume 690.658863
_symmetry_space_group_name_H-M "P -1"
_symmetry_group_IT_number 2
_symmetry_cell_setting 'triclinic'
loop_
_space_group_symop_operation_xyz
x,y,z
-x,-y,-z
loop_
_atom_site_type_symbol
_atom_site_label
_atom_site_fract_x
_atom_site_fract_y
_atom_site_fract_z
Si Si1 0.767697 0.314798 0.718397
Si Si2 0.048245 0.105783 0.129358
Si Si3 0.673099 0.728989 0.099367
Si Si4 0.510876 0.582906 0.320221
Si Si5 0.762989 0.443188 0.213803
Si Si6 0.366897 0.075926 0.094785
Si Si7 0.126467 0.983896 0.350459
Si Si8 0.195472 0.507845 0.516669
O O1 0.500000 0.500000 0.500000
O O2 0.741868 0.170962 0.604487
O O3 0.797620 0.114660 0.741236
O O4 0.000000 0.500000 0.000000
O O5 0.266501 0.321736 0.395763
O O6 0.759331 0.212676 0.896886
O O7 0.000000 0.000000 0.000000
O O8 0.776380 0.638012 0.231969
O O9 0.945677 0.735692 0.335013
O O10 0.462526 0.535434 0.821289
O O11 0.500000 0.000000 0.000000
O O12 0.398455 0.315430 0.152931
O O13 0.690234 0.542178 0.437749
O O14 0.000000 0.500000 0.500000
O O15 0.500000 0.500000 0.000000
O O16 0.767218 0.149577 0.125419
O O17 0.661487 0.995213 0.389257
O O18 0.142229 0.153808 0.934810
O O19 0.039103 0.270364 0.320008
#
# Coordination Sequence:
#
# PCOD8037379 Si02
#       8
#     2   2   2   2   2   2   2   2
#     4  12  28  46  77 111 148 199 254 306 375 447
#     4  12  28  50  75 111 159 198 245 314 384 448
#     4  12  27  49  76 113 147 200 248 310 381 446
#     4  12  28  49  77 113 148 201 252 312 379 444
#     4  12  26  48  75 107 153 193 244 308 380 450
#     4  12  27  48  76 109 145 200 251 308 376 447
#     4  12  24  48  77 102 148 193 261 307 363 447
#     4  12  24  50  77 105 148 196 254 314 364 446
#
# _framework density 23.166284000000001
#
# number of rings (size 3 to 8) (size 9 to 14) (size 15 to 20)
#    0.000    0.000    3.750    5.250    8.750    0.000 
#    0.000    0.000    0.000    0.000    0.000    0.000 
#    0.000    0.000    0.000    0.000    0.000    0.000 
#
# Total GULP energy -198360.289177 kJ/mol
# GULP energy per Si atom -12397.518074 kJ/mol
# Density = 2.311356 g / cm^3
# Si number density = 23.166284 Si / 1000 Ang^3
#
#
#
# Elastic Constant Matrix: (Units=GPa)
#
#
# Indices 1 2 3 4 5 6 
#
# 1 129.2577 68.3848 62.9061 -12.9641 3.7229 -4.5433
# 2 68.3848 124.9025 54.0596 -13.3514 -3.9216 4.6704
# 3 62.9061 54.0596 164.9113 -8.7155 5.0923 1.0191
# 4 -12.9641 -13.3514 -8.7155 49.6908 -13.8713 9.0442
# 5 3.7229 -3.9216 5.0923 -13.8713 46.7005 4.2558
# 6 -4.5433 4.6704 1.0191 9.0442 4.2558 32.0935
#
#
#
# Elastic Compliance Matrix: (Units=1/GPa)
#
#
# Indices 1 2 3 4 5 6 
#
# 1 0.012215 -0.005585 -0.002787 0.000347 -0.001282 0.002703
# 2 -0.005585 0.012427 -0.001848 0.003072 0.002949 -0.003797
# 3 -0.002787 -0.001848 0.007757 -0.000029 -0.000763 -0.000263
# 4 0.000347 0.003072 -0.000029 0.024941 0.008420 -0.008542
# 5 -0.001282 0.002949 -0.000763 0.008420 0.024918 -0.006263
# 6 0.002703 -0.003797 -0.000263 -0.008542 -0.006263 0.035340
#
#
# Mechanical properties :
#
#
# Convention : Reuss Voigt Hill
#
# Bulk Modulus (GPa) = 83.63601 87.75250 85.69426
# Shear Modulus (GPa) = 35.20509 41.27834 38.24172
#
# Velocity S-wave (km/s) = 3.90252 4.22575 4.06735
# Velocity P-wave (km/s) = 7.51579 7.85945 7.68954
#
# Compressibility (1/GPa) = 0.01195657
#
# Stress axis : x y z
#
# Youngs Moduli (GPa) = 81.86857 80.46802 128.92170
#
# Poissons Ratio (x) = 0.44945 0.35932
# Poissons Ratio (y) = 0.45727 0.23830
# Poissons Ratio (z) = 0.22818 0.14874
#
# Static dielectric constant tensor:
#      x y z
#    x 4.368700 -0.383260 0.015350 
#    y -0.383260 4.686660 0.186770 
#    z 0.015350 0.186770 4.535860 
# 
# 
# High freq. dielectric constant tensor:
#      x y z
#    x 1.919230 -0.013170 0.004800 
#    y -0.013170 1.922480 0.001010 
#    z 0.004800 0.001010 1.943960 
# 
# From -- ./inp_files/621173.got.cif
#   From: 2010.06.25/outbox.cif.g09.slc.cpg/sg2_311_cif.got.tgz:621173.got - 2010.06.27 13:26:56.
