data_PCOD8037651
_publ_section_title
;
Structure prediction by ZEFSAII (Michael W. Deem and Ramdas Pophale) SiO2 
 PCOD8037651
Probable space group: P -1
;
_chemical_formula_sum "Si O2"
_cell_formula_units_Z 12
_cell_length_a 11.336886
_cell_length_b 8.519007
_cell_length_c 8.854904
_cell_angle_alpha 95.362197
_cell_angle_beta 39.092675
_cell_angle_gamma 114.988622
_cell_volume 445.785882
_symmetry_space_group_name_H-M "P -1"
_symmetry_group_IT_number 2
_symmetry_cell_setting 'triclinic'
loop_
_space_group_symop_operation_xyz
x,y,z
-x,-y,-z
loop_
_atom_site_type_symbol
_atom_site_label
_atom_site_fract_x
_atom_site_fract_y
_atom_site_fract_z
Si Si1 0.871431 0.680014 0.906850
Si Si2 0.025321 0.102883 0.718958
Si Si3 0.430403 0.947342 0.891771
Si Si4 0.273043 0.671002 0.546467
Si Si5 0.752052 0.603640 0.700925
Si Si6 0.511759 0.677731 0.609649
O O1 0.890396 0.616306 0.712339
O O2 0.048884 0.659755 0.824639
O O3 0.623223 0.542056 0.217349
O O4 0.923732 0.888422 0.850227
O O5 0.159438 0.183524 0.431387
O O6 0.219437 0.236613 0.664428
O O7 0.827373 0.137737 0.904444
O O8 0.481125 0.793601 0.779445
O O9 0.585669 0.135007 0.662946
O O10 0.500000 0.000000 0.000000
O O11 0.213891 0.499435 0.480299
O O12 0.415417 0.686685 0.548949
O O13 0.500000 0.500000 0.000000
#
# Coordination Sequence:
#
# PCOD8037651 Si02
#       6
#     2   2   2   2   2   2
#     4  12  25  49  83 108 158 204 260 320 381 457
#     4  12  28  49  83 114 152 202 263 317 386 455
#     4  12  27  50  82 115 155 205 258 318 386 460
#     4  12  27  50  78 113 160 208 252 320 393 454
#     4  12  25  49  76 113 149 201 265 317 377 458
#     4  12  28  53  75 116 162 201 256 318 388 465
#
# _framework density 26.918752000000001
#
# number of rings (size 3 to 8) (size 9 to 14) (size 15 to 20)
#    0.000    0.000    3.333    6.000    2.333    1.333 
#    3.000    0.000    0.000    0.000    0.000    0.000 
#    0.000    0.000    0.000    0.000    0.000    0.000 
#
# Total GULP energy -148723.011725 kJ/mol
# GULP energy per Si atom -12393.584310 kJ/mol
# Density = 2.685748 g / cm^3
# Si number density = 26.918752 Si / 1000 Ang^3
#
#
#
# Elastic Constant Matrix: (Units=GPa)
#
#
# Indices 1 2 3 4 5 6 
#
# 1 97.2790 -18.6336 -48.9301 8.5944 -91.8913 -2.3410
# 2 -18.6336 75.2324 -8.3378 -12.1131 -63.4742 -11.1273
# 3 -48.9301 -8.3378 17.7964 -21.3607 -96.2029 -20.1486
# 4 8.5944 -12.1131 -21.3607 45.5925 12.8897 7.3901
# 5 -91.8913 -63.4742 -96.2029 12.8897 -15.3514 -11.9965
# 6 -2.3410 -11.1273 -20.1486 7.3901 -11.9965 38.4834
#
#
#
# Elastic Compliance Matrix: (Units=1/GPa)
#
#
# Indices 1 2 3 4 5 6 
#
# 1 0.005779 -0.001826 -0.003913 -0.002299 -0.002460 -0.002551
# 2 -0.001826 0.011344 -0.005338 0.001258 -0.001266 -0.000262
# 3 -0.003913 -0.005338 0.009274 0.005828 -0.007444 -0.000366
# 4 -0.002299 0.001258 0.005828 0.026805 -0.003212 -0.002873
# 5 -0.002460 -0.001266 -0.007444 -0.003212 0.001401 -0.003360
# 6 -0.002551 -0.000262 -0.000366 -0.002873 -0.003360 0.025067
#
#
# Mechanical properties :
#
#
# Convention : Reuss Voigt Hill
#
# Bulk Modulus (GPa) = 235.60624 4.27830 119.94227
# Shear Modulus (GPa) = 48.43209 31.49218 39.96213
#
# Velocity S-wave (km/s) = 4.24629 3.42409 3.85716
# Velocity P-wave (km/s) = 10.57149 4.15034 8.03062
#
# Compressibility (1/GPa) = 0.00424437
#
# Stress axis : x y z
#
# Youngs Moduli (GPa) = 173.03144 88.15454 107.83199
#
# Poissons Ratio (x) = 0.16093 0.42196
# Poissons Ratio (y) = 0.31588 0.57556
# Poissons Ratio (z) = 0.67709 0.47053
#
# Static dielectric constant tensor:
#      x y z
#    x 5.853060 -0.026710 -0.277230 
#    y -0.026710 5.108510 -0.218180 
#    z -0.277230 -0.218180 5.367530 
# 
# 
# High freq. dielectric constant tensor:
#      x y z
#    x 2.115940 -0.001380 -0.002570 
#    y -0.001380 2.085050 -0.023890 
#    z -0.002570 -0.023890 2.090760 
# 
# From -- ./inp_files/244343.got.cif
#   From: 2010.06.25/outbox.cif.g09.slc.cpg/sg2_123_cif.got.tgz:244343.got - 2010.06.27 13:26:56.
