data_PCOD8037641
_publ_section_title
;
Structure prediction by ZEFSAII (Michael W. Deem and Ramdas Pophale) SiO2 
 PCOD8037641
Probable space group: P -1
;
_chemical_formula_sum "Si O2"
_cell_formula_units_Z 12
_cell_length_a 5.766930
_cell_length_b 9.052392
_cell_length_c 18.839575
_cell_angle_alpha 137.380195
_cell_angle_beta 98.099135
_cell_angle_gamma 56.601749
_cell_volume 491.549131
_symmetry_space_group_name_H-M "P -1"
_symmetry_group_IT_number 2
_symmetry_cell_setting 'triclinic'
loop_
_space_group_symop_operation_xyz
x,y,z
-x,-y,-z
loop_
_atom_site_type_symbol
_atom_site_label
_atom_site_fract_x
_atom_site_fract_y
_atom_site_fract_z
Si Si1 0.765064 0.312873 0.197890
Si Si2 0.178069 0.579457 0.491047
Si Si3 0.314508 0.131584 0.242879
Si Si4 0.727681 0.858696 0.025559
Si Si5 0.923529 0.144765 0.623593
Si Si6 0.240511 0.313653 0.783323
O O1 0.400995 0.524828 0.278158
O O2 0.780200 0.447532 0.175404
O O3 0.960698 0.284229 0.262211
O O4 0.899252 0.987308 0.076437
O O5 0.500000 0.500000 0.500000
O O6 0.284090 0.405274 0.359091
O O7 0.000000 0.500000 0.500000
O O8 0.914543 0.932954 0.597373
O O9 0.542899 0.942369 0.120356
O O10 0.435736 0.925050 0.244687
O O11 0.970991 0.507335 0.901105
O O12 0.500000 0.000000 0.000000
O O13 0.183208 0.149337 0.668315
O O14 0.000000 0.000000 0.500000
#
# Coordination Sequence:
#
# PCOD8037641 Si02
#       6
#     2   2   2   2   2   2
#     4  12  26  47  75 106 151 197 259 319 392 459
#     4  12  28  51  79 115 159 201 264 325 390 473
#     4  12  28  47  78 111 149 201 260 318 393 461
#     4  12  25  49  74 108 154 196 254 322 390 465
#     4  12  27  48  77 107 156 201 258 318 396 465
#     4  12  26  49  74 111 149 199 253 317 389 471
#
# _framework density 24.412617000000001
#
# number of rings (size 3 to 8) (size 9 to 14) (size 15 to 20)
#    0.000    0.000    5.000    4.000    4.667    3.333 
#    0.000    0.000    0.000    0.000    0.000    0.000 
#    0.000    0.000    0.000    0.000    0.000    0.000 
#
# Total GULP energy -148702.181822 kJ/mol
# GULP energy per Si atom -12391.848485 kJ/mol
# Density = 2.435705 g / cm^3
# Si number density = 24.412617 Si / 1000 Ang^3
#
#
#
# Elastic Constant Matrix: (Units=GPa)
#
#
# Indices 1 2 3 4 5 6 
#
# 1 99.8076 44.6042 7.8715 -19.6288 19.5509 -1.5008
# 2 44.6042 132.1838 20.8765 -6.3868 15.0795 -23.1022
# 3 7.8715 20.8765 115.7779 -15.9250 14.8657 -0.8164
# 4 -19.6288 -6.3868 -15.9250 46.3121 -2.0842 4.0373
# 5 19.5509 15.0795 14.8657 -2.0842 42.5014 -3.5760
# 6 -1.5008 -23.1022 -0.8164 4.0373 -3.5760 45.4196
#
#
#
# Elastic Compliance Matrix: (Units=1/GPa)
#
#
# Indices 1 2 3 4 5 6 
#
# 1 0.014085 -0.004563 0.001320 0.005798 -0.005270 -0.002762
# 2 -0.004563 0.010254 -0.001638 -0.001558 -0.000611 0.005126
# 3 0.001320 -0.001638 0.009768 0.003646 -0.003365 -0.001203
# 4 0.005798 -0.001558 0.003646 0.025240 -0.002402 -0.002968
# 5 -0.005270 -0.000611 -0.003365 -0.002402 0.027382 0.001824
# 6 -0.002762 0.005126 -0.001203 -0.002968 0.001824 0.024919
#
#
# Mechanical properties :
#
#
# Convention : Reuss Voigt Hill
#
# Bulk Modulus (GPa) = 41.07667 54.94152 48.00910
# Shear Modulus (GPa) = 38.60247 45.14108 41.87178
#
# Velocity S-wave (km/s) = 3.98081 4.30477 4.14595
# Velocity P-wave (km/s) = 6.16374 6.87476 6.52893
#
# Compressibility (1/GPa) = 0.02434472
#
# Stress axis : x y z
#
# Youngs Moduli (GPa) = 70.99534 97.52326 102.37583
#
# Poissons Ratio (x) = 0.44498 -0.13512
# Poissons Ratio (y) = 0.32394 0.16773
# Poissons Ratio (z) = -0.09370 0.15978
#
# Static dielectric constant tensor:
#      x y z
#    x 4.094050 -0.296250 -0.081500 
#    y -0.296250 4.452030 0.256480 
#    z -0.081500 0.256480 6.191860 
# 
# 
# High freq. dielectric constant tensor:
#      x y z
#    x 1.957850 -0.004540 0.005200 
#    y -0.004540 1.980250 0.002090 
#    z 0.005200 0.002090 1.998140 
# 
# From -- ./inp_files/39147.got.cif
#   From: 2010.06.25/outbox.cif.g09.slc.cpg/sg2_20_cif.got.tgz:39147.got - 2010.06.27 13:26:56.
