data_PCOD8037501
_publ_section_title
;
Structure prediction by ZEFSAII (Michael W. Deem and Ramdas Pophale) SiO2 
 PCOD8037501
Probable space group: P -1
;
_chemical_formula_sum "Si O2"
_cell_formula_units_Z 16
_cell_length_a 9.767635
_cell_length_b 11.260892
_cell_length_c 17.607665
_cell_angle_alpha 147.193645
_cell_angle_beta 43.981760
_cell_angle_gamma 124.879162
_cell_volume 725.872816
_symmetry_space_group_name_H-M "P -1"
_symmetry_group_IT_number 2
_symmetry_cell_setting 'triclinic'
loop_
_space_group_symop_operation_xyz
x,y,z
-x,-y,-z
loop_
_atom_site_type_symbol
_atom_site_label
_atom_site_fract_x
_atom_site_fract_y
_atom_site_fract_z
Si Si1 0.030568 0.877857 0.649154
Si Si2 0.286797 0.492513 0.049516
Si Si3 0.818809 0.679258 0.154030
Si Si4 0.451134 0.641022 0.378384
Si Si5 0.797860 0.892417 0.022149
Si Si6 0.496288 0.733876 0.585959
Si Si7 0.147061 0.997837 0.373046
Si Si8 0.661620 0.813484 0.862968
O O1 0.240425 0.737793 0.481860
O O2 0.866075 0.779813 0.715486
O O3 0.070553 0.107421 0.793579
O O4 0.945916 0.899331 0.610489
O O5 0.207723 0.741494 0.198589
O O6 0.500000 0.500000 0.000000
O O7 0.305656 0.372846 0.897472
O O8 0.168871 0.343500 0.074338
O O9 0.654216 0.730289 0.313191
O O10 0.000000 0.500000 0.000000
O O11 0.450126 0.683794 0.490791
O O12 0.464530 0.391062 0.211788
O O13 0.658526 0.076283 0.219181
O O14 0.712635 0.848455 0.949281
O O15 0.000000 0.000000 0.000000
O O16 0.500000 0.500000 0.500000
O O17 0.699674 0.838030 0.571601
O O18 0.000000 0.000000 0.500000
O O19 0.500000 0.000000 0.000000
#
# Coordination Sequence:
#
# PCOD8037501 Si02
#       8
#     2   2   2   2   2   2   2   2
#     4  12  26  47  71 108 146 188 243 295 364 436
#     4  12  26  47  74 106 146 188 246 300 361 437
#     4  12  25  46  72 105 143 185 240 294 362 429
#     4  12  27  46  74 105 147 192 239 300 362 433
#     4  12  27  47  76 105 143 190 243 297 361 430
#     4  12  27  49  71 107 147 190 243 301 365 432
#     4  12  28  46  73 107 149 191 238 301 369 431
#     4  12  26  48  75 104 143 193 244 297 357 429
#
# _framework density 22.042428999999998
#
# number of rings (size 3 to 8) (size 9 to 14) (size 15 to 20)
#    0.000    0.000    2.500    7.500    5.250    0.000 
#    0.000    0.000    0.000    0.000    0.000    0.000 
#    0.000    0.000    0.000    0.000    0.000    0.000 
#
# Total GULP energy -198305.358384 kJ/mol
# GULP energy per Si atom -12394.084899 kJ/mol
# Density = 2.199226 g / cm^3
# Si number density = 22.042429 Si / 1000 Ang^3
#
#
#
# Elastic Constant Matrix: (Units=GPa)
#
#
# Indices 1 2 3 4 5 6 
#
# 1 158.7664 43.7316 50.7237 -6.2586 19.9816 -4.8151
# 2 43.7316 121.9544 21.0140 0.4820 5.5047 6.2185
# 3 50.7237 21.0140 87.0473 -3.2138 6.4876 -5.5135
# 4 -6.2586 0.4820 -3.2138 51.6395 3.0995 3.3299
# 5 19.9816 5.5047 6.4876 3.0995 56.3969 -2.5263
# 6 -4.8151 6.2185 -5.5135 3.3299 -2.5263 48.0450
#
#
#
# Elastic Compliance Matrix: (Units=1/GPa)
#
#
# Indices 1 2 3 4 5 6 
#
# 1 0.008632 -0.002286 -0.004236 0.000915 -0.002376 0.000487
# 2 -0.002286 0.009275 -0.001013 -0.000327 -0.000029 -0.001525
# 3 -0.004236 -0.001013 0.014296 0.000300 -0.000002 0.001326
# 4 0.000915 -0.000327 0.000300 0.019668 -0.001465 -0.001272
# 5 -0.002376 -0.000029 -0.000002 -0.001465 0.018695 0.000850
# 6 0.000487 -0.001525 0.001326 -0.001272 0.000850 0.021345
#
#
# Mechanical properties :
#
#
# Convention : Reuss Voigt Hill
#
# Bulk Modulus (GPa) = 58.37311 66.52294 62.44803
# Shear Modulus (GPa) = 44.36883 48.03620 46.20251
#
# Velocity S-wave (km/s) = 4.49138 4.67332 4.58325
# Velocity P-wave (km/s) = 7.31002 7.70486 7.51004
#
# Compressibility (1/GPa) = 0.01713118
#
# Stress axis : x y z
#
# Youngs Moduli (GPa) = 115.85302 107.82136 69.94845
#
# Poissons Ratio (x) = 0.24653 0.29631
# Poissons Ratio (y) = 0.26489 0.07086
# Poissons Ratio (z) = 0.49076 0.10923
#
# Static dielectric constant tensor:
#      x y z
#    x 3.955240 -1.723210 1.486450 
#    y -1.723210 -6.751590 8.822980 
#    z 1.486450 8.822980 -2.830860 
# 
# 
# High freq. dielectric constant tensor:
#      x y z
#    x 1.893020 0.006980 0.006400 
#    y 0.006980 1.885670 0.006150 
#    z 0.006400 0.006150 1.882210 
# 
# From -- ./inp_files/381481.got.cif
#   From: 2010.06.25/outbox.cif.g09.slc.cpg/sg2_191_cif.got.tgz:381481.got - 2010.06.27 13:26:56.
