data_PCOD8037335
_publ_section_title
;
Structure prediction by ZEFSAII (Michael W. Deem and Ramdas Pophale) SiO2 
 PCOD8037335
Probable space group: P -1
;
_chemical_formula_sum "Si O2"
_cell_formula_units_Z 12
_cell_length_a 13.798714
_cell_length_b 8.334031
_cell_length_c 10.103175
_cell_angle_alpha 71.145123
_cell_angle_beta 149.914351
_cell_angle_gamma 98.225494
_cell_volume 527.845718
_symmetry_space_group_name_H-M "P -1"
_symmetry_group_IT_number 2
_symmetry_cell_setting 'triclinic'
loop_
_space_group_symop_operation_xyz
x,y,z
-x,-y,-z
loop_
_atom_site_type_symbol
_atom_site_label
_atom_site_fract_x
_atom_site_fract_y
_atom_site_fract_z
Si Si1 0.264030 0.890615 0.582827
Si Si2 0.535834 0.622030 0.132751
Si Si3 0.914434 0.733777 0.611123
Si Si4 0.347565 0.516240 0.198276
Si Si5 0.046544 0.284284 0.628072
Si Si6 0.442827 0.154935 0.286548
O O1 0.352640 0.851476 0.549497
O O2 0.112650 0.769049 0.450976
O O3 0.169481 0.099701 0.435960
O O4 0.441444 0.823648 0.918482
O O5 0.765715 0.608253 0.449357
O O6 0.413145 0.595907 0.122153
O O7 0.500000 0.500000 0.000000
O O8 0.876081 0.378661 0.045379
O O9 0.967822 0.793965 0.513611
O O10 0.500000 0.500000 0.500000
O O11 0.347894 0.320240 0.221783
O O12 0.000000 0.500000 0.500000
O O13 0.266425 0.168333 0.968097
O O14 0.500000 0.000000 0.500000
#
# Coordination Sequence:
#
# PCOD8037335 Si02
#       6
#     2   2   2   2   2   2
#     4  12  26  44  76 111 144 191 252 310 369 448
#     4  12  24  47  79 107 145 199 254 304 374 453
#     4  12  26  44  76 111 144 191 252 310 369 448
#     4  12  29  48  72 107 154 195 249 314 378 439
#     4  12  24  47  79 107 145 199 254 304 374 453
#     4  12  29  48  72 107 154 195 249 314 378 439
#
# _framework density 22.733915
#
# number of rings (size 3 to 8) (size 9 to 14) (size 15 to 20)
#    0.000    0.000    6.667    2.000    4.667    1.333 
#    0.000    0.000    0.000    0.000    0.000    0.000 
#    0.000    0.000    0.000    0.000    0.000    0.000 
#
# Total GULP energy -148695.462345 kJ/mol
# GULP energy per Si atom -12391.288529 kJ/mol
# Density = 2.268217 g / cm^3
# Si number density = 22.733915 Si / 1000 Ang^3
#
#
#
# Elastic Constant Matrix: (Units=GPa)
#
#
# Indices 1 2 3 4 5 6 
#
# 1 87.1354 31.9409 35.3923 -7.8571 20.3201 12.1809
# 2 31.9409 102.2286 53.0852 -10.4427 13.0926 0.5870
# 3 35.3923 53.0852 159.3974 -11.0659 22.1095 -2.5773
# 4 -7.8571 -10.4427 -11.0659 43.6193 5.2298 4.2183
# 5 20.3201 13.0926 22.1095 5.2298 39.0670 1.2646
# 6 12.1809 0.5870 -2.5773 4.2183 1.2646 46.1285
#
#
#
# Elastic Compliance Matrix: (Units=1/GPa)
#
#
# Indices 1 2 3 4 5 6 
#
# 1 0.015512 -0.002950 -0.001422 0.002919 -0.006529 -0.004226
# 2 -0.002950 0.012744 -0.003306 0.001786 -0.001114 0.000299
# 3 -0.001422 -0.003306 0.008212 0.001315 -0.003003 0.000838
# 4 0.002919 0.001786 0.001315 0.025226 -0.006145 -0.002858
# 5 -0.006529 -0.001114 -0.003003 -0.006145 0.031848 0.001259
# 6 -0.004226 0.000299 0.000838 -0.002858 0.001259 0.023064
#
#
# Mechanical properties :
#
#
# Convention : Reuss Voigt Hill
#
# Bulk Modulus (GPa) = 47.36592 65.51092 56.43842
# Shear Modulus (GPa) = 35.97211 40.98583 38.47897
#
# Velocity S-wave (km/s) = 3.98214 4.25060 4.11856
# Velocity P-wave (km/s) = 6.48255 7.27799 6.89175
#
# Compressibility (1/GPa) = 0.02111222
#
# Stress axis : x y z
#
# Youngs Moduli (GPa) = 64.46772 78.47063 121.77811
#
# Poissons Ratio (x) = 0.23146 0.17317
# Poissons Ratio (y) = 0.19015 0.40257
# Poissons Ratio (z) = 0.09167 0.25941
#
# Static dielectric constant tensor:
#      x y z
#    x 3.833430 0.073680 0.723150 
#    y 0.073680 4.000110 -0.267640 
#    z 0.723150 -0.267640 3.811920 
# 
# 
# High freq. dielectric constant tensor:
#      x y z
#    x 1.907200 -0.003190 0.017160 
#    y -0.003190 1.889510 -0.007780 
#    z 0.017160 -0.007780 1.905040 
# 
# From -- ./inp_files/238063.got.cif
#   From: 2010.06.25/outbox.cif.g09.slc.cpg/sg2_120_cif.got.tgz:238063.got - 2010.06.27 13:26:56.
