data_PCOD8037500
_publ_section_title
;
Structure prediction by ZEFSAII (Michael W. Deem and Ramdas Pophale) SiO2 
 PCOD8037500
Probable space group: P -1
;
_chemical_formula_sum "Si O2"
_cell_formula_units_Z 14
_cell_length_a 12.528149
_cell_length_b 8.812772
_cell_length_c 8.888315
_cell_angle_alpha 76.675853
_cell_angle_beta 112.621127
_cell_angle_gamma 56.919893
_cell_volume 623.956295
_symmetry_space_group_name_H-M "P -1"
_symmetry_group_IT_number 2
_symmetry_cell_setting 'triclinic'
loop_
_space_group_symop_operation_xyz
x,y,z
-x,-y,-z
loop_
_atom_site_type_symbol
_atom_site_label
_atom_site_fract_x
_atom_site_fract_y
_atom_site_fract_z
Si Si1 0.454033 0.887680 0.418755
Si Si2 0.204665 0.591819 0.270054
Si Si3 0.204917 0.878830 0.401452
Si Si4 0.111462 0.634332 0.863729
Si Si5 0.385110 0.508274 0.834155
Si Si6 0.398653 0.968392 0.039354
Si Si7 0.044614 0.391421 0.710527
O O1 0.608801 0.628389 0.546910
O O2 0.312011 0.929613 0.416487
O O3 0.385746 0.018840 0.195875
O O4 0.500000 0.000000 0.500000
O O5 0.187484 0.790538 0.260850
O O6 0.092879 0.599869 0.320109
O O7 0.156068 0.604363 0.069954
O O8 0.280834 0.709039 0.616889
O O9 0.028196 0.106589 0.306495
O O10 0.268208 0.517960 0.873485
O O11 0.053182 0.516554 0.814614
O O12 0.510337 0.282136 0.863206
O O13 0.500000 0.500000 0.000000
O O14 0.500000 0.000000 0.000000
O O15 0.214677 0.137143 0.838728
O O16 0.000000 0.500000 0.500000
#
# Coordination Sequence:
#
# PCOD8037500 Si02
#       7
#     2   2   2   2   2   2   2
#     4  12  26  47  77 103 141 187 237 294 351 424
#     4  12  25  46  72 105 143 182 239 295 351 416
#     4  12  27  48  72 107 143 184 237 294 358 415
#     4  12  26  47  70 106 145 187 236 286 356 423
#     4  12  28  45  73 105 145 189 232 294 351 422
#     4  12  26  48  72 105 142 185 241 286 353 418
#     4  12  26  46  74 103 144 187 238 290 351 423
#
# _framework density 22.437467999999999
#
# number of rings (size 3 to 8) (size 9 to 14) (size 15 to 20)
#    0.000    0.000    2.857    6.857    8.000    0.000 
#    0.000    0.000    0.000    0.000    0.000    0.000 
#    0.000    0.000    0.000    0.000    0.000    0.000 
#
# Total GULP energy -173683.179411 kJ/mol
# GULP energy per Si atom -12405.941386 kJ/mol
# Density = 2.238640 g / cm^3
# Si number density = 22.437468 Si / 1000 Ang^3
#
#
#
# Elastic Constant Matrix: (Units=GPa)
#
#
# Indices 1 2 3 4 5 6 
#
# 1 99.1419 23.1142 24.4748 13.5420 -3.4111 1.9614
# 2 23.1142 107.9641 27.8979 -4.1088 11.3074 4.2201
# 3 24.4748 27.8979 143.9726 -1.6749 -5.6689 -12.5408
# 4 13.5420 -4.1088 -1.6749 47.1461 -4.5652 9.6312
# 5 -3.4111 11.3074 -5.6689 -4.5652 40.8324 1.4952
# 6 1.9614 4.2201 -12.5408 9.6312 1.4952 42.4905
#
#
#
# Elastic Compliance Matrix: (Units=1/GPa)
#
#
# Indices 1 2 3 4 5 6 
#
# 1 0.011505 -0.002310 -0.001509 -0.003463 0.001004 0.000003
# 2 -0.002310 0.010724 -0.001948 0.001584 -0.003191 -0.001780
# 3 -0.001509 -0.001948 0.007855 0.000172 0.001432 0.002492
# 4 -0.003463 0.001584 0.000172 0.023656 0.002138 -0.005384
# 5 0.001004 -0.003191 0.001432 0.002138 0.025921 -0.000704
# 6 0.000003 -0.001780 0.002492 -0.005384 -0.000704 0.025692
#
#
# Mechanical properties :
#
#
# Convention : Reuss Voigt Hill
#
# Bulk Modulus (GPa) = 53.90471 55.78361 54.84416
# Shear Modulus (GPa) = 40.62685 44.46658 42.54671
#
# Velocity S-wave (km/s) = 4.25981 4.45657 4.35930
# Velocity P-wave (km/s) = 6.94775 7.16918 7.05933
#
# Compressibility (1/GPa) = 0.01855125
#
# Stress axis : x y z
#
# Youngs Moduli (GPa) = 86.91757 93.24645 127.30636
#
# Poissons Ratio (x) = 0.21544 0.19206
# Poissons Ratio (y) = 0.20081 0.24794
# Poissons Ratio (z) = 0.13113 0.18160
#
# Static dielectric constant tensor:
#      x y z
#    x 4.070880 -0.052590 0.124090 
#    y -0.052590 4.443440 -0.076640 
#    z 0.124090 -0.076640 4.414840 
# 
# 
# High freq. dielectric constant tensor:
#      x y z
#    x 1.894500 -0.002420 0.005130 
#    y -0.002420 1.900040 -0.003060 
#    z 0.005130 -0.003060 1.904640 
# 
# From -- ./inp_files/158542.got.cif
#   From: 2010.06.25/outbox.cif.g09.slc.cpg/sg2_80_cif.got.tgz:158542.got - 2010.06.27 13:26:56.
