data_PCOD8037361
_publ_section_title
;
Structure prediction by ZEFSAII (Michael W. Deem and Ramdas Pophale) SiO2 
 PCOD8037361
Probable space group: P -1
;
_chemical_formula_sum "Si O2"
_cell_formula_units_Z 16
_cell_length_a 9.691187
_cell_length_b 15.187251
_cell_length_c 8.949088
_cell_angle_alpha 118.724247
_cell_angle_beta 67.146336
_cell_angle_gamma 143.716892
_cell_volume 683.537707
_symmetry_space_group_name_H-M "P -1"
_symmetry_group_IT_number 2
_symmetry_cell_setting 'triclinic'
loop_
_space_group_symop_operation_xyz
x,y,z
-x,-y,-z
loop_
_atom_site_type_symbol
_atom_site_label
_atom_site_fract_x
_atom_site_fract_y
_atom_site_fract_z
Si Si1 0.628578 0.169949 0.837779
Si Si2 0.118945 0.736682 0.896679
Si Si3 0.743668 0.862228 0.935737
Si Si4 0.955870 0.425715 0.693062
Si Si5 0.302967 0.370885 0.093525
Si Si6 0.607914 0.468017 0.528010
Si Si7 0.577557 0.126687 0.396868
Si Si8 0.754466 0.879021 0.587297
O O1 0.861477 0.348129 0.832115
O O2 0.547976 0.044725 0.643872
O O3 0.711655 0.165753 0.954599
O O4 0.413797 0.133257 0.923597
O O5 0.274628 0.839718 0.773926
O O6 0.991993 0.563476 0.784586
O O7 0.937733 0.737068 0.984514
O O8 0.639714 0.705717 0.917366
O O9 0.758565 0.877057 0.763480
O O10 0.000000 0.000000 0.000000
O O11 0.745079 0.277865 0.555610
O O12 0.203899 0.500431 0.618323
O O13 0.267870 0.428997 0.292832
O O14 0.500000 0.500000 0.000000
O O15 0.500000 0.500000 0.500000
O O16 0.396521 0.293772 0.538485
O O17 0.365765 0.084000 0.393230
O O18 0.000000 0.000000 0.500000
#
# Coordination Sequence:
#
# PCOD8037361 Si02
#       8
#     2   2   2   2   2   2   2   2
#     4  12  28  45  77 108 148 192 249 304 370 435
#     4  12  24  48  74 103 144 193 245 303 362 436
#     4  12  28  49  69 108 155 191 241 306 365 438
#     4  12  26  48  77 108 144 194 248 305 369 439
#     4  12  28  45  76 107 147 194 244 300 373 435
#     4  12  26  48  74 105 147 190 246 305 362 436
#     4  12  25  47  73 106 148 192 245 302 366 432
#     4  12  29  48  76 108 150 196 243 303 373 438
#
# _framework density 23.407633000000001
#
# number of rings (size 3 to 8) (size 9 to 14) (size 15 to 20)
#    0.000    0.000    5.000    3.750    8.750    0.000 
#    0.000    0.000    0.000    0.000    0.000    0.000 
#    0.000    0.000    0.000    0.000    0.000    0.000 
#
# Total GULP energy -198311.323513 kJ/mol
# GULP energy per Si atom -12394.457720 kJ/mol
# Density = 2.335436 g / cm^3
# Si number density = 23.407633 Si / 1000 Ang^3
#
#
#
# Elastic Constant Matrix: (Units=GPa)
#
#
# Indices 1 2 3 4 5 6 
#
# 1 150.8584 36.5898 18.1963 -0.2762 -24.1666 14.3929
# 2 36.5898 114.5864 14.2023 -5.7425 -17.4521 8.2529
# 3 18.1963 14.2023 56.0980 7.9670 -6.4330 -0.3371
# 4 -0.2762 -5.7425 7.9670 51.7723 8.5897 -5.9089
# 5 -24.1666 -17.4521 -6.4330 8.5897 22.1463 6.7552
# 6 14.3929 8.2529 -0.3371 -5.9089 6.7552 37.1619
#
#
#
# Elastic Compliance Matrix: (Units=1/GPa)
#
#
# Indices 1 2 3 4 5 6 
#
# 1 0.009511 -0.000687 -0.001153 -0.002617 0.012412 -0.006214
# 2 -0.000687 0.010678 -0.001459 -0.000441 0.008553 -0.003743
# 3 -0.001153 -0.001459 0.019739 -0.004128 0.005121 -0.000637
# 4 -0.002617 -0.000441 -0.004128 0.023386 -0.015811 0.007666
# 5 0.012412 0.008553 0.005121 -0.015811 0.080310 -0.023773
# 6 -0.006214 -0.003743 -0.000637 0.007666 -0.023773 0.035682
#
#
# Mechanical properties :
#
#
# Convention : Reuss Voigt Hill
#
# Bulk Modulus (GPa) = 30.00508 51.05774 40.53141
# Shear Modulus (GPa) = 25.37882 39.05305 32.21593
#
# Velocity S-wave (km/s) = 3.29631 4.08902 3.71388
# Velocity P-wave (km/s) = 5.22818 6.64479 5.97859
#
# Compressibility (1/GPa) = 0.03332769
#
# Stress axis : x y z
#
# Youngs Moduli (GPa) = 105.14228 93.65414 50.66081
#
# Poissons Ratio (x) = 0.06436 0.05843
# Poissons Ratio (y) = 0.07226 0.07393
# Poissons Ratio (z) = 0.12127 0.13667
#
# Static dielectric constant tensor:
#      x y z
#    x 4.823100 -0.193280 0.069060 
#    y -0.193280 4.374100 -0.012580 
#    z 0.069060 -0.012580 4.164430 
# 
# 
# High freq. dielectric constant tensor:
#      x y z
#    x 1.942130 -0.001620 0.003670 
#    y -0.001620 1.950560 -0.000060 
#    z 0.003670 -0.000060 1.931290 
# 
# From -- ./inp_files/208241.got.cif
#   From: 2010.06.25/outbox.cif.g09.slc.cpg/sg2_105_cif.got.tgz:208241.got - 2010.06.27 13:26:56.
