data_PCOD8037694
_publ_section_title
;
Structure prediction by ZEFSAII (Michael W. Deem and Ramdas Pophale) SiO2 
 PCOD8037694
Probable space group: P -1
;
_chemical_formula_sum "Si O2"
_cell_formula_units_Z 14
_cell_length_a 9.248921
_cell_length_b 14.773464
_cell_length_c 9.186151
_cell_angle_alpha 87.058732
_cell_angle_beta 30.843487
_cell_angle_gamma 97.484384
_cell_volume 604.288523
_symmetry_space_group_name_H-M "P -1"
_symmetry_group_IT_number 2
_symmetry_cell_setting 'triclinic'
loop_
_space_group_symop_operation_xyz
x,y,z
-x,-y,-z
loop_
_atom_site_type_symbol
_atom_site_label
_atom_site_fract_x
_atom_site_fract_y
_atom_site_fract_z
Si Si1 0.274036 0.284617 0.235145
Si Si2 0.757306 0.758402 0.211965
Si Si3 0.951720 0.405381 0.641165
Si Si4 0.847042 0.874645 0.412888
Si Si5 0.495125 0.001291 0.830432
Si Si6 0.801643 0.203707 0.409209
Si Si7 0.839471 0.560152 0.220800
O O1 0.161302 0.183786 0.426710
O O2 0.216768 0.366269 0.374447
O O3 0.081710 0.271436 0.255435
O O4 0.630866 0.321897 0.893076
O O5 0.712549 0.801374 0.403446
O O6 0.426320 0.737464 0.430274
O O7 0.863562 0.665886 0.137163
O O8 0.035183 0.826785 0.868284
O O9 0.000000 0.500000 0.500000
O O10 0.001930 0.432813 0.762274
O O11 0.689793 0.950109 0.581787
O O12 0.164931 0.939884 0.072717
O O13 0.594972 0.110284 0.681218
O O14 0.500000 0.000000 0.000000
O O15 0.500000 0.500000 0.500000
O O16 0.000000 0.500000 0.000000
#
# Coordination Sequence:
#
# PCOD8037694 Si02
#       7
#     2   2   2   2   2   2   2
#     4  12  26  48  75 105 146 196 241 298 369 434
#     4  12  28  49  72 111 149 197 244 299 381 439
#     4  12  28  48  74 110 142 188 248 302 364 437
#     4  12  26  47  78 102 151 199 241 305 367 440
#     4  12  26  46  74 113 146 191 253 305 364 425
#     4  12  28  46  76 109 149 195 247 306 363 442
#     4  12  28  49  75 106 147 190 239 305 369 434
#
# _framework density 23.167740999999999
#
# number of rings (size 3 to 8) (size 9 to 14) (size 15 to 20)
#    0.000    0.000    2.857    6.000   10.000    3.429 
#    0.000    0.000    0.000    0.000    0.000    0.000 
#    0.000    0.000    0.000    0.000    0.000    0.000 
#
# Total GULP energy -173537.765113 kJ/mol
# GULP energy per Si atom -12395.554651 kJ/mol
# Density = 2.311501 g / cm^3
# Si number density = 23.167741 Si / 1000 Ang^3
#
#
#
# Elastic Constant Matrix: (Units=GPa)
#
#
# Indices 1 2 3 4 5 6 
#
# 1 143.1380 50.5180 45.7959 0.5254 -8.9914 -6.4578
# 2 50.5180 123.4672 46.0167 21.1102 0.0252 2.1573
# 3 45.7959 46.0167 153.3382 14.4700 -13.9713 -2.8619
# 4 0.5254 21.1102 14.4700 56.2754 3.9056 1.1916
# 5 -8.9914 0.0252 -13.9713 3.9056 43.5328 1.1063
# 6 -6.4578 2.1573 -2.8619 1.1916 1.1063 32.2745
#
#
#
# Elastic Compliance Matrix: (Units=1/GPa)
#
#
# Indices 1 2 3 4 5 6 
#
# 1 0.008813 -0.003269 -0.001654 0.001455 0.001116 0.001743
# 2 -0.003269 0.010812 -0.002066 -0.003395 -0.001004 -0.001400
# 3 -0.001654 -0.002066 0.007994 -0.001438 0.002342 0.000489
# 4 0.001455 -0.003395 -0.001438 0.019537 -0.001905 -0.000266
# 5 0.001116 -0.001004 0.002342 -0.001905 0.024131 -0.000259
# 6 0.001743 -0.001400 0.000489 -0.000266 -0.000259 0.031489
#
#
# Mechanical properties :
#
#
# Convention : Reuss Voigt Hill
#
# Bulk Modulus (GPa) = 73.30804 78.28941 75.79873
# Shear Modulus (GPa) = 41.22056 44.92406 43.07231
#
# Velocity S-wave (km/s) = 4.22266 4.40827 4.31646
# Velocity P-wave (km/s) = 7.44886 7.73151 7.59150
#
# Compressibility (1/GPa) = 0.01364107
#
# Stress axis : x y z
#
# Youngs Moduli (GPa) = 113.47493 92.49235 125.10025
#
# Poissons Ratio (x) = 0.30233 0.20692
# Poissons Ratio (y) = 0.37092 0.25841
# Poissons Ratio (z) = 0.18769 0.19106
#
# Static dielectric constant tensor:
#      x y z
#    x 4.274060 0.083040 0.086180 
#    y 0.083040 3.930970 -0.093880 
#    z 0.086180 -0.093880 4.661590 
# 
# 
# High freq. dielectric constant tensor:
#      x y z
#    x 1.926780 -0.001840 -0.000850 
#    y -0.001840 1.922790 0.008910 
#    z -0.000850 0.008910 1.937880 
# 
# From -- ./inp_files/201245.got.cif
#   From: 2010.06.25/outbox.cif.g09.slc.cpg/sg2_101_cif.got.tgz:201245.got - 2010.06.27 13:26:56.
