data_PCOD8037910
_publ_section_title
;
Structure prediction by ZEFSAII (Michael W. Deem and Ramdas Pophale) SiO2 
 PCOD8037910
Probable space group: P -1
;
_chemical_formula_sum "Si O2"
_cell_formula_units_Z 14
_cell_length_a 14.582739
_cell_length_b 11.996349
_cell_length_c 11.733730
_cell_angle_alpha 41.514338
_cell_angle_beta 72.375232
_cell_angle_gamma 42.026898
_cell_volume 747.667443
_symmetry_space_group_name_H-M "P -1"
_symmetry_group_IT_number 2
_symmetry_cell_setting 'triclinic'
loop_
_space_group_symop_operation_xyz
x,y,z
-x,-y,-z
loop_
_atom_site_type_symbol
_atom_site_label
_atom_site_fract_x
_atom_site_fract_y
_atom_site_fract_z
Si Si1 0.351899 0.397249 0.564636
Si Si2 0.431845 0.604155 0.071549
Si Si3 0.344059 0.223324 0.300579
Si Si4 0.812432 0.236375 0.435135
Si Si5 0.815775 0.320897 0.827638
Si Si6 0.354056 0.858839 0.468027
Si Si7 0.530494 0.800574 0.950733
O O1 0.215955 0.656922 0.507035
O O2 0.259321 0.507998 0.394236
O O3 0.505898 0.307943 0.555040
O O4 0.430663 0.106930 0.798105
O O5 0.272634 0.716294 0.059961
O O6 0.580398 0.324719 0.305283
O O7 0.500000 0.500000 0.000000
O O8 0.394845 0.846286 0.945150
O O9 0.190638 0.515082 0.207106
O O10 0.383665 0.293373 0.130750
O O11 0.500000 0.000000 0.500000
O O12 0.286029 0.132632 0.333043
O O13 0.786244 0.070448 0.578894
O O14 0.675341 0.534780 0.186054
O O15 0.000000 0.000000 0.500000
O O16 0.000000 0.000000 0.000000
#
# Coordination Sequence:
#
# PCOD8037910 Si02
#       7
#     2   2   2   2   2   2   2
#     4  10  21  41  60  80 115 157 197 223 279 357
#     4  10  17  32  58  86 112 148 191 222 282 347
#     4  11  17  38  63  86 112 148 198 226 282 355
#     4  11  24  39  58  86 119 146 193 248 290 318
#     4  11  23  35  58  90 121 148 181 245 292 334
#     4   9  20  36  62  82 107 161 192 227 275 355
#     4  10  20  36  63  83 108 156 196 231 273 347
#
# _framework density 18.724902
#
# number of rings (size 3 to 8) (size 9 to 14) (size 15 to 20)
#    0.000    1.714    5.714    0.857    2.000    0.000 
#    2.571    3.571    0.000    0.000    0.000    0.000 
#    0.000    0.000    0.000    0.000    0.000    0.000 
#
# Total GULP energy -173440.021929 kJ/mol
# GULP energy per Si atom -12388.572995 kJ/mol
# Density = 1.868228 g / cm^3
# Si number density = 18.724902 Si / 1000 Ang^3
#
#
#
# Elastic Constant Matrix: (Units=GPa)
#
#
# Indices 1 2 3 4 5 6 
#
# 1 101.9642 58.5414 36.1597 -14.8517 -18.0218 3.1403
# 2 58.5414 144.3043 31.9261 -14.6992 -10.3043 12.5923
# 3 36.1597 31.9261 67.1147 -6.1186 -19.0882 0.2677
# 4 -14.8517 -14.6992 -6.1186 36.7923 -1.4230 -0.1891
# 5 -18.0218 -10.3043 -19.0882 -1.4230 20.6643 -2.7712
# 6 3.1403 12.5923 0.2677 -0.1891 -2.7712 21.0921
#
#
#
# Elastic Compliance Matrix: (Units=1/GPa)
#
#
# Indices 1 2 3 4 5 6 
#
# 1 0.015892 -0.004779 -0.003376 0.004297 0.008886 0.001736
# 2 -0.004779 0.009916 -0.002637 0.001477 -0.002290 -0.005462
# 3 -0.003376 -0.002637 0.023252 0.002165 0.017926 0.004156
# 4 0.004297 0.001477 0.002165 0.030194 0.008542 -0.000156
# 5 0.008886 -0.002290 0.017926 0.008542 0.073427 0.009541
# 6 0.001736 -0.005462 0.004156 -0.000156 0.009541 0.051613
#
#
# Mechanical properties :
#
#
# Convention : Reuss Voigt Hill
#
# Bulk Modulus (GPa) = 36.39698 62.95974 49.67836
# Shear Modulus (GPa) = 21.27331 28.16016 24.71673
#
# Velocity S-wave (km/s) = 3.37426 3.88221 3.63711
# Velocity P-wave (km/s) = 5.88734 7.33430 6.65029
#
# Compressibility (1/GPa) = 0.02747481
#
# Stress axis : x y z
#
# Youngs Moduli (GPa) = 62.92629 100.85144 43.00618
#
# Poissons Ratio (x) = 0.48199 0.14521
# Poissons Ratio (y) = 0.30074 0.11340
# Poissons Ratio (z) = 0.21247 0.26592
#
# Static dielectric constant tensor:
#      x y z
#    x 3.817460 0.493310 -0.443190 
#    y 0.493310 3.641150 0.091580 
#    z -0.443190 0.091580 3.456460 
# 
# 
# High freq. dielectric constant tensor:
#      x y z
#    x 1.723950 0.017110 -0.023220 
#    y 0.017110 1.728490 0.017080 
#    z -0.023220 0.017080 1.721900 
# 
# From -- ./inp_files/168447.got.cif
#   From: 2010.06.25/outbox.cif.g09.slc.cpg/sg2_85_cif.got.tgz:168447.got - 2010.06.27 13:26:56.
