data_PCOD8037885
_publ_section_title
;
Structure prediction by ZEFSAII (Michael W. Deem and Ramdas Pophale) SiO2 
 PCOD8037885
Probable space group: P -1
;
_chemical_formula_sum "Si O2"
_cell_formula_units_Z 14
_cell_length_a 7.415859
_cell_length_b 9.098703
_cell_length_c 14.510023
_cell_angle_alpha 140.274713
_cell_angle_beta 111.657325
_cell_angle_gamma 53.554351
_cell_volume 495.942804
_symmetry_space_group_name_H-M "P -1"
_symmetry_group_IT_number 2
_symmetry_cell_setting 'triclinic'
loop_
_space_group_symop_operation_xyz
x,y,z
-x,-y,-z
loop_
_atom_site_type_symbol
_atom_site_label
_atom_site_fract_x
_atom_site_fract_y
_atom_site_fract_z
Si Si1 0.988217 0.233440 0.189054
Si Si2 0.162602 0.577567 0.944875
Si Si3 0.226267 0.185861 0.528040
Si Si4 0.617218 0.069909 0.757042
Si Si5 0.516244 0.518047 0.294554
Si Si6 0.301677 0.866607 0.569150
Si Si7 0.918630 0.259168 0.792808
O O1 0.223130 0.976748 0.145381
O O2 0.983648 0.222077 0.070334
O O3 0.981387 0.500033 0.355923
O O4 0.758747 0.245999 0.191733
O O5 0.072535 0.387592 0.868679
O O6 0.422588 0.388075 0.867719
O O7 0.140740 0.754292 0.117143
O O8 0.230807 0.030137 0.357849
O O9 0.452620 0.218532 0.592514
O O10 0.188383 0.059232 0.550947
O O11 0.495162 0.902467 0.670562
O O12 0.319118 0.540447 0.204886
O O13 0.431570 0.556764 0.405014
O O14 0.083931 0.950906 0.635046
#
# Coordination Sequence:
#
# PCOD8037885 Si02
#       7
#     2   2   2   2   2   2   2
#     4  10  19  33  55  81 100 132 177 215 254 301
#     4  10  21  36  55  73 102 147 174 203 255 311
#     4   9  17  32  55  81 101 129 172 214 259 298
#     4  10  17  32  57  80  99 130 179 215 250 303
#     4   9  18  29  54  83 100 131 172 218 261 296
#     4  10  17  33  57  79 103 139 170 207 262 309
#     4  10  19  35  51  74 110 138 172 210 253 309
#
# _framework density 28.22906
#
# number of rings (size 3 to 8) (size 9 to 14) (size 15 to 20)
#    0.857    1.429    2.857    3.429    0.000    0.571 
#    0.000    7.143    0.000   18.000    0.000    0.000 
#    0.000    0.000    0.000    0.000    0.000    0.000 
#
# Total GULP energy -173522.612250 kJ/mol
# GULP energy per Si atom -12394.472304 kJ/mol
# Density = 2.816481 g / cm^3
# Si number density = 28.229060 Si / 1000 Ang^3
#
#
#
# Elastic Constant Matrix: (Units=GPa)
#
#
# Indices 1 2 3 4 5 6 
#
# 1 88.0717 42.3246 49.6613 -0.8750 -39.0180 -14.0542
# 2 42.3246 151.4281 62.1741 -13.8206 -17.5661 -36.9317
# 3 49.6613 62.1741 187.9382 -31.8627 -30.3998 -22.1766
# 4 -0.8750 -13.8206 -31.8627 44.7227 -8.4298 3.7732
# 5 -39.0180 -17.5661 -30.3998 -8.4298 53.5488 4.1690
# 6 -14.0542 -36.9317 -22.1766 3.7732 4.1690 30.9922
#
#
#
# Elastic Compliance Matrix: (Units=1/GPa)
#
#
# Indices 1 2 3 4 5 6 
#
# 1 0.019476 -0.002541 -0.002000 0.000211 0.012043 0.002727
# 2 -0.002541 0.010509 -0.001305 0.001461 0.000290 0.010221
# 3 -0.002000 -0.001305 0.008069 0.005773 0.003437 0.002147
# 4 0.000211 0.001461 0.005773 0.028369 0.008267 0.001401
# 5 0.012043 0.000290 0.003437 0.008267 0.030552 0.003149
# 6 0.002727 0.010221 0.002147 0.001401 0.003149 0.046624
#
#
# Mechanical properties :
#
#
# Convention : Reuss Voigt Hill
#
# Bulk Modulus (GPa) = 37.93302 81.75089 59.84196
# Shear Modulus (GPa) = 30.47319 44.07127 37.27223
#
# Velocity S-wave (km/s) = 3.28913 3.95549 3.63760
# Velocity P-wave (km/s) = 5.28122 7.06286 6.23599
#
# Compressibility (1/GPa) = 0.02636225
#
# Stress axis : x y z
#
# Youngs Moduli (GPa) = 51.34554 95.15327 123.92822
#
# Poissons Ratio (x) = 0.24178 0.24790
# Poissons Ratio (y) = 0.13047 0.16170
# Poissons Ratio (z) = 0.10271 0.12415
#
# Static dielectric constant tensor:
#      x y z
#    x 5.289330 -0.277550 -0.140630 
#    y -0.277550 4.514270 0.023280 
#    z -0.140630 0.023280 6.161390 
# 
# 
# High freq. dielectric constant tensor:
#      x y z
#    x 2.159230 -0.026430 -0.001160 
#    y -0.026430 2.112170 -0.001130 
#    z -0.001160 -0.001130 2.174770 
# 
# From -- ./inp_files/500852.got.cif
#   From: 2010.06.25/outbox.cif.g09.slc.cpg/sg2_251_cif.got.tgz:500852.got - 2010.06.27 13:26:56.
