data_PCOD8037245
_publ_section_title
;
Structure prediction by ZEFSAII (Michael W. Deem and Ramdas Pophale) SiO2 
 PCOD8037245
Probable space group: P -1
;
_chemical_formula_sum "Si O2"
_cell_formula_units_Z 12
_cell_length_a 16.795994
_cell_length_b 14.041490
_cell_length_c 10.917582
_cell_angle_alpha 146.687044
_cell_angle_beta 146.465232
_cell_angle_gamma 23.149123
_cell_volume 530.010369
_symmetry_space_group_name_H-M "P -1"
_symmetry_group_IT_number 2
_symmetry_cell_setting 'triclinic'
loop_
_space_group_symop_operation_xyz
x,y,z
-x,-y,-z
loop_
_atom_site_type_symbol
_atom_site_label
_atom_site_fract_x
_atom_site_fract_y
_atom_site_fract_z
Si Si1 0.998358 0.358956 0.610916
Si Si2 0.846133 0.262804 0.515196
Si Si3 0.441145 0.244062 0.655155
Si Si4 0.801658 0.077727 0.772375
Si Si5 0.455311 0.413207 0.107153
Si Si6 0.346448 0.292715 0.070795
O O1 0.002906 0.230011 0.594460
O O2 0.756172 0.601933 0.523749
O O3 0.130044 0.164319 0.458054
O O4 0.115369 0.430565 0.879156
O O5 0.692029 0.279195 0.253747
O O6 0.698565 0.522070 0.685669
O O7 0.000000 0.000000 0.500000
O O8 0.627044 0.190660 0.773085
O O9 0.500000 0.000000 0.500000
O O10 0.381443 0.387692 0.859826
O O11 0.707014 0.281693 0.761366
O O12 0.000000 0.000000 0.000000
O O13 0.454336 0.287558 0.086969
O O14 0.500000 0.000000 0.000000
#
# Coordination Sequence:
#
# PCOD8037245 Si02
#       6
#     2   2   2   2   2   2
#     4  12  26  47  74 104 148 183 238 301 359 430
#     4  12  26  47  73 104 143 193 246 295 352 426
#     4  12  28  44  73 111 143 186 234 300 370 421
#     4  12  24  46  72 108 144 183 235 292 365 430
#     4  12  25  47  74 104 144 183 243 298 355 433
#     4  12  28  47  74 105 145 195 243 294 358 427
#
# _framework density 22.641065999999999
#
# number of rings (size 3 to 8) (size 9 to 14) (size 15 to 20)
#    0.000    0.000    3.333    6.500    7.000    1.333 
#    0.000    0.000    0.000    0.000    0.000    0.000 
#    0.000    0.000    0.000    0.000    0.000    0.000 
#
# Total GULP energy -148821.244557 kJ/mol
# GULP energy per Si atom -12401.770380 kJ/mol
# Density = 2.258953 g / cm^3
# Si number density = 22.641066 Si / 1000 Ang^3
#
#
#
# Elastic Constant Matrix: (Units=GPa)
#
#
# Indices 1 2 3 4 5 6 
#
# 1 104.9550 20.7041 19.5212 13.2009 1.5012 3.0558
# 2 20.7041 133.3479 31.6335 1.4119 5.5881 16.8701
# 3 19.5212 31.6335 103.1177 -16.2486 7.6055 0.5518
# 4 13.2009 1.4119 -16.2486 43.4999 0.0247 6.6669
# 5 1.5012 5.5881 7.6055 0.0247 35.2119 1.0855
# 6 3.0558 16.8701 0.5518 6.6669 1.0855 39.6959
#
#
#
# Elastic Compliance Matrix: (Units=1/GPa)
#
#
# Indices 1 2 3 4 5 6 
#
# 1 0.010693 -0.001114 -0.002354 -0.004145 0.000221 0.000373
# 2 -0.001114 0.008731 -0.002447 -0.000320 -0.000701 -0.003518
# 3 -0.002354 -0.002447 0.011864 0.005190 -0.002085 0.000242
# 4 -0.004145 -0.000320 0.005190 0.026824 -0.000786 -0.004101
# 5 0.000221 -0.000701 -0.002085 -0.000786 0.028963 -0.000350
# 6 0.000373 -0.003518 0.000242 -0.004101 -0.000350 0.027353
#
#
# Mechanical properties :
#
#
# Convention : Reuss Voigt Hill
#
# Bulk Modulus (GPa) = 51.39621 53.90423 52.65022
# Shear Modulus (GPa) = 37.66645 41.65232 39.65939
#
# Velocity S-wave (km/s) = 4.08319 4.29380 4.18982
# Velocity P-wave (km/s) = 6.70669 6.96004 6.83454
#
# Compressibility (1/GPa) = 0.01945669
#
# Stress axis : x y z
#
# Youngs Moduli (GPa) = 93.51989 114.54072 84.28712
#
# Poissons Ratio (x) = 0.12765 0.19840
# Poissons Ratio (y) = 0.10422 0.20627
# Poissons Ratio (z) = 0.22014 0.28030
#
# Static dielectric constant tensor:
#      x y z
#    x 4.088790 0.067480 0.161270 
#    y 0.067480 4.311520 -0.011500 
#    z 0.161270 -0.011500 4.367800 
# 
# 
# High freq. dielectric constant tensor:
#      x y z
#    x 1.899450 0.007620 0.006630 
#    y 0.007620 1.906480 -0.006500 
#    z 0.006630 -0.006500 1.909300 
# 
# From -- ./inp_files/17838.got.cif
#   From: 2010.06.25/outbox.cif.g09.slc.cpg/sg2_9_cif.got.tgz:17838.got - 2010.06.27 13:26:56.
