data_PCOD8037731
_publ_section_title
;
Structure prediction by ZEFSAII (Michael W. Deem and Ramdas Pophale) SiO2 
 PCOD8037731
Probable space group: P -1
;
_chemical_formula_sum "Si O2"
_cell_formula_units_Z 14
_cell_length_a 15.817658
_cell_length_b 9.722323
_cell_length_c 16.098274
_cell_angle_alpha 26.236001
_cell_angle_beta 145.879853
_cell_angle_gamma 144.897850
_cell_volume 584.703508
_symmetry_space_group_name_H-M "P -1"
_symmetry_group_IT_number 2
_symmetry_cell_setting 'triclinic'
loop_
_space_group_symop_operation_xyz
x,y,z
-x,-y,-z
loop_
_atom_site_type_symbol
_atom_site_label
_atom_site_fract_x
_atom_site_fract_y
_atom_site_fract_z
Si Si1 0.130978 0.748071 0.120116
Si Si2 0.319522 0.485783 0.858159
Si Si3 0.220790 0.292482 0.164105
Si Si4 0.375250 0.594636 0.286660
Si Si5 0.359185 0.849150 0.852958
Si Si6 0.147265 0.248698 0.528665
Si Si7 0.148490 0.572462 0.520282
O O1 0.218401 0.602564 0.200826
O O2 0.168178 0.606271 0.314585
O O3 0.944131 0.620562 0.015906
O O4 0.196354 0.136365 0.968495
O O5 0.282717 0.730734 0.764118
O O6 0.297226 0.592617 0.688882
O O7 0.500000 0.500000 0.000000
O O8 0.311143 0.333120 0.303503
O O9 0.181787 0.913460 0.313426
O O10 0.338001 0.528389 0.065421
O O11 0.500000 0.500000 0.500000
O O12 0.455998 0.954619 0.117703
O O13 0.293532 0.116340 0.699459
O O14 0.125457 0.281097 0.592390
O O15 0.000000 0.000000 0.500000
O O16 0.000000 0.500000 0.500000
#
# Coordination Sequence:
#
# PCOD8037731 Si02
#       7
#     2   2   2   2   2   2   2
#     4  12  26  47  78 110 153 200 258 304 388 444
#     4  12  27  50  77 110 153 202 252 313 378 454
#     4  12  28  46  78 111 154 199 261 312 382 452
#     4  12  26  48  76 115 156 202 251 318 381 451
#     4  12  26  49  78 111 157 198 252 314 383 445
#     4  12  27  46  78 115 153 195 254 321 377 450
#     4  12  28  48  76 113 153 198 258 314 384 450
#
# _framework density 23.943757999999999
#
# number of rings (size 3 to 8) (size 9 to 14) (size 15 to 20)
#    0.000    0.000    5.714    3.429    4.000    2.286 
#    0.000    2.143    0.000    0.000    0.000    0.000 
#    0.000    0.000    0.000    0.000    0.000    0.000 
#
# Total GULP energy -173605.130020 kJ/mol
# GULP energy per Si atom -12400.366430 kJ/mol
# Density = 2.388926 g / cm^3
# Si number density = 23.943758 Si / 1000 Ang^3
#
#
#
# Elastic Constant Matrix: (Units=GPa)
#
#
# Indices 1 2 3 4 5 6 
#
# 1 130.9622 55.1221 40.2526 9.0069 -10.8473 -24.9024
# 2 55.1221 109.9063 27.7817 4.8694 -6.8685 -22.6214
# 3 40.2526 27.7817 109.3240 -0.3396 -10.2489 -4.7781
# 4 9.0069 4.8694 -0.3396 45.8714 6.1267 -5.2708
# 5 -10.8473 -6.8685 -10.2489 6.1267 27.9661 -8.4668
# 6 -24.9024 -22.6214 -4.7781 -5.2708 -8.4668 58.9572
#
#
#
# Elastic Compliance Matrix: (Units=1/GPa)
#
#
# Indices 1 2 3 4 5 6 
#
# 1 0.011190 -0.003926 -0.002618 -0.001927 0.003865 0.003391
# 2 -0.003926 0.012203 -0.001327 -0.000443 0.002045 0.003171
# 3 -0.002618 -0.001327 0.010655 0.000374 0.002367 -0.000378
# 4 -0.001927 -0.000443 0.000374 0.023019 -0.005674 0.000290
# 5 0.003865 0.002045 0.002367 -0.005674 0.042347 0.008183
# 6 0.003391 0.003171 -0.000378 0.000290 0.008183 0.020781
#
#
# Mechanical properties :
#
#
# Convention : Reuss Voigt Hill
#
# Bulk Modulus (GPa) = 54.62329 66.27834 60.45081
# Shear Modulus (GPa) = 35.20176 41.69469 38.44823
#
# Velocity S-wave (km/s) = 3.83846 4.17749 4.01156
# Velocity P-wave (km/s) = 6.51979 7.14209 6.83803
#
# Compressibility (1/GPa) = 0.01830721
#
# Stress axis : x y z
#
# Youngs Moduli (GPa) = 89.36361 81.94755 93.85490
#
# Poissons Ratio (x) = 0.32170 0.24571
# Poissons Ratio (y) = 0.35081 0.12452
# Poissons Ratio (z) = 0.23395 0.10872
#
# Static dielectric constant tensor:
#      x y z
#    x 4.561320 0.000590 -0.217810 
#    y 0.000590 4.505440 -0.006690 
#    z -0.217810 -0.006690 4.812030 
# 
# 
# High freq. dielectric constant tensor:
#      x y z
#    x 1.954890 0.000000 -0.008290 
#    y 0.000000 1.961290 -0.005360 
#    z -0.008290 -0.005360 1.949690 
# 
# From -- ./inp_files/189717.got.cif
#   From: 2010.06.25/outbox.cif.g09.slc.cpg/sg2_95_cif.got.tgz:189717.got - 2010.06.27 13:26:56.
