data_PCOD8037198
_publ_section_title
;
Structure prediction by ZEFSAII (Michael W. Deem and Ramdas Pophale) SiO2 
 PCOD8037198
Probable space group: P -1
;
_chemical_formula_sum "Si O2"
_cell_formula_units_Z 16
_cell_length_a 13.299704
_cell_length_b 9.551235
_cell_length_c 28.049814
_cell_angle_alpha 36.433320
_cell_angle_beta 154.991050
_cell_angle_gamma 151.018734
_cell_volume 728.651415
_symmetry_space_group_name_H-M "P -1"
_symmetry_group_IT_number 2
_symmetry_cell_setting 'triclinic'
loop_
_space_group_symop_operation_xyz
x,y,z
-x,-y,-z
loop_
_atom_site_type_symbol
_atom_site_label
_atom_site_fract_x
_atom_site_fract_y
_atom_site_fract_z
Si Si1 0.758351 0.766483 0.144406
Si Si2 0.209276 0.804154 0.029583
Si Si3 0.207848 0.325283 0.515424
Si Si4 0.819889 0.372869 0.409412
Si Si5 0.920101 0.697174 0.032820
Si Si6 0.186901 0.478279 0.276814
Si Si7 0.259608 0.709499 0.351103
Si Si8 0.785909 0.884409 0.229850
O O1 0.831875 0.947054 0.175606
O O2 0.961541 0.654956 0.257198
O O3 0.418671 0.500895 0.073087
O O4 0.833654 0.968488 0.075947
O O5 0.535513 0.908825 0.134465
O O6 0.135367 0.770631 0.062055
O O7 0.000000 0.500000 0.000000
O O8 0.487502 0.355768 0.650579
O O9 0.328237 0.533372 0.464008
O O10 0.050214 0.409577 0.460435
O O11 0.000000 0.000000 0.500000
O O12 0.714761 0.571164 0.294571
O O13 0.000000 0.500000 0.500000
O O14 0.532309 0.046094 0.378101
O O15 0.986562 0.547326 0.143504
O O16 0.000000 0.000000 0.000000
O O17 0.201770 0.571737 0.311965
O O18 0.061062 0.140248 0.307997
#
# Coordination Sequence:
#
# PCOD8037198 Si02
#       8
#     2   2   2   2   2   2   2   2
#     4  12  26  49  72 107 152 191 247 301 362 432
#     4  12  24  45  73 100 147 196 240 296 362 428
#     4  12  28  51  79 106 149 194 244 307 367 439
#     4  12  29  50  77 111 146 193 246 305 373 436
#     4  12  29  46  73 110 149 196 250 299 364 437
#     4  12  28  47  77 111 148 193 249 302 369 437
#     4  12  28  50  77 109 149 192 245 305 366 440
#     4  12  26  47  74 109 150 193 245 304 367 437
#
# _framework density 21.958373999999999
#
# number of rings (size 3 to 8) (size 9 to 14) (size 15 to 20)
#    0.000    0.000    5.000    3.750   10.500    2.000 
#    0.000    0.000    0.000    0.000    0.000    0.000 
#    0.000    0.000    0.000    0.000    0.000    0.000 
#
# Total GULP energy -198441.699464 kJ/mol
# GULP energy per Si atom -12402.606217 kJ/mol
# Density = 2.190840 g / cm^3
# Si number density = 21.958374 Si / 1000 Ang^3
#
#
#
# Elastic Constant Matrix: (Units=GPa)
#
#
# Indices 1 2 3 4 5 6 
#
# 1 141.1023 47.2001 40.2400 3.1315 -7.9227 -12.1239
# 2 47.2001 152.6786 35.9386 8.4429 -8.0538 -16.9634
# 3 40.2400 35.9386 99.4085 13.5288 6.5132 -3.1307
# 4 3.1315 8.4429 13.5288 37.9335 0.4229 -2.3053
# 5 -7.9227 -8.0538 6.5132 0.4229 38.4661 2.6124
# 6 -12.1239 -16.9634 -3.1307 -2.3053 2.6124 38.5841
#
#
#
# Elastic Compliance Matrix: (Units=1/GPa)
#
#
# Indices 1 2 3 4 5 6 
#
# 1 0.008787 -0.001749 -0.003109 0.000853 0.001848 0.001666
# 2 -0.001749 0.007999 -0.002097 -0.000744 0.001498 0.002651
# 3 -0.003109 -0.002097 0.012779 -0.003852 -0.003141 -0.000880
# 4 0.000853 -0.000744 -0.003852 0.027905 0.000279 0.001277
# 5 0.001848 0.001498 -0.003141 0.000279 0.027277 -0.000846
# 6 0.001666 0.002651 -0.000880 0.001277 -0.000846 0.027668
#
#
# Mechanical properties :
#
#
# Convention : Reuss Voigt Hill
#
# Bulk Modulus (GPa) = 63.88503 71.10517 67.49510
# Shear Modulus (GPa) = 38.01004 40.98413 39.49708
#
# Velocity S-wave (km/s) = 4.16505 4.32493 4.24574
# Velocity P-wave (km/s) = 7.23098 7.57576 7.40537
#
# Compressibility (1/GPa) = 0.01565312
#
# Stress axis : x y z
#
# Youngs Moduli (GPa) = 113.80722 125.01918 78.25558
#
# Poissons Ratio (x) = 0.21869 0.24331
# Poissons Ratio (y) = 0.19907 0.16411
# Poissons Ratio (z) = 0.35385 0.26218
#
# Static dielectric constant tensor:
#      x y z
#    x 4.134480 -0.073240 -0.183570 
#    y -0.073240 4.125870 0.041790 
#    z -0.183570 0.041790 4.292020 
# 
# 
# High freq. dielectric constant tensor:
#      x y z
#    x 1.877560 -0.005430 0.007010 
#    y -0.005430 1.879200 0.002860 
#    z 0.007010 0.002860 1.879800 
# 
# From -- ./inp_files/139396.got.cif
#   From: 2010.06.25/outbox.cif.g09.slc.cpg/sg2_70_cif.got.tgz:139396.got - 2010.06.27 13:26:56.
