data_PCOD8037886
_publ_section_title
;
Structure prediction by ZEFSAII (Michael W. Deem and Ramdas Pophale) SiO2 
 PCOD8037886
Probable space group: P -1
;
_chemical_formula_sum "Si O2"
_cell_formula_units_Z 14
_cell_length_a 11.410764
_cell_length_b 9.099892
_cell_length_c 12.114318
_cell_angle_alpha 83.319162
_cell_angle_beta 90.049552
_cell_angle_gamma 33.812474
_cell_volume 684.335413
_symmetry_space_group_name_H-M "P -1"
_symmetry_group_IT_number 2
_symmetry_cell_setting 'triclinic'
loop_
_space_group_symop_operation_xyz
x,y,z
-x,-y,-z
loop_
_atom_site_type_symbol
_atom_site_label
_atom_site_fract_x
_atom_site_fract_y
_atom_site_fract_z
Si Si1 0.917866 0.939777 0.716290
Si Si2 0.948933 0.647044 0.147764
Si Si3 0.071148 0.727290 0.333853
Si Si4 0.248582 0.089866 0.099638
Si Si5 0.305540 0.292863 0.531524
Si Si6 0.838626 0.853117 0.515232
Si Si7 0.320906 0.328672 0.760499
O O1 0.824026 0.976580 0.826294
O O2 0.786774 0.013879 0.604031
O O3 0.166984 0.634084 0.735223
O O4 0.890046 0.143520 0.700355
O O5 0.040745 0.678123 0.222560
O O6 0.800483 0.694992 0.212591
O O7 0.147337 0.347783 0.123634
O O8 0.814994 0.867020 0.031145
O O9 0.862489 0.922973 0.396048
O O10 0.283994 0.438901 0.422511
O O11 0.503622 0.833728 0.130519
O O12 0.352666 0.073559 0.501385
O O13 0.437551 0.195492 0.650781
O O14 0.063716 0.530223 0.566153
#
# Coordination Sequence:
#
# PCOD8037886 Si02
#       7
#     2   2   2   2   2   2   2
#     4  10  20  33  55  78 113 141 166 213 268 319
#     4  10  20  38  58  75 104 138 183 221 255 307
#     4  10  17  32  57  81 104 145 171 209 270 316
#     4  10  22  36  55  80 102 142 179 217 262 305
#     4   8  14  27  54  78  98 131 178 209 254 302
#     4   8  14  29  53  77 101 138 176 205 258 310
#     4  10  18  36  56  79 105 136 179 219 259 309
#
# _framework density 20.457805
#
# number of rings (size 3 to 8) (size 9 to 14) (size 15 to 20)
#    0.857    1.714    1.429    2.571    0.000    0.571 
#    0.000    5.714    0.000    0.000    0.000    0.000 
#    0.000    0.000    0.000    0.000    0.000    0.000 
#
# Total GULP energy -173536.415736 kJ/mol
# GULP energy per Si atom -12395.458267 kJ/mol
# Density = 2.041124 g / cm^3
# Si number density = 20.457805 Si / 1000 Ang^3
#
#
#
# Elastic Constant Matrix: (Units=GPa)
#
#
# Indices 1 2 3 4 5 6 
#
# 1 68.9213 30.3772 26.2304 -3.5164 -2.0651 33.9907
# 2 30.3772 55.6036 29.8809 -2.4871 -2.0999 18.6671
# 3 26.2304 29.8809 133.7926 10.9832 1.7341 24.2035
# 4 -3.5164 -2.4871 10.9832 23.9504 0.0769 0.3520
# 5 -2.0651 -2.0999 1.7341 0.0769 22.0082 -7.0716
# 6 33.9907 18.6671 24.2035 0.3520 -7.0716 32.8759
#
#
#
# Elastic Compliance Matrix: (Units=1/GPa)
#
#
# Indices 1 2 3 4 5 6 
#
# 1 0.033997 -0.008073 0.000871 0.004266 -0.008278 -0.033034
# 2 -0.008073 0.025749 -0.003861 0.003304 0.000943 -0.003263
# 3 0.000871 -0.003861 0.009768 -0.004647 -0.003136 -0.006524
# 4 0.004266 0.003304 -0.004647 0.044903 -0.000162 -0.003381
# 5 -0.008278 0.000943 -0.003136 -0.000162 0.051907 0.021499
# 6 -0.033034 -0.003263 -0.006524 -0.003381 0.021499 0.075888
#
#
# Mechanical properties :
#
#
# Convention : Reuss Voigt Hill
#
# Bulk Modulus (GPa) = 21.10260 47.92162 34.51211
# Shear Modulus (GPa) = 17.84853 27.22216 22.53534
#
# Velocity S-wave (km/s) = 2.95694 3.65176 3.32256
# Velocity P-wave (km/s) = 4.68994 6.42308 5.62368
#
# Compressibility (1/GPa) = 0.04738752
#
# Stress axis : x y z
#
# Youngs Moduli (GPa) = 29.41412 38.83676 102.37279
#
# Poissons Ratio (x) = 0.31353 -0.08914
# Poissons Ratio (y) = 0.23746 0.39526
# Poissons Ratio (z) = -0.02561 0.14995
#
# Static dielectric constant tensor:
#      x y z
#    x 3.451140 -0.111130 0.045770 
#    y -0.111130 3.543920 0.033750 
#    z 0.045770 0.033750 3.916060 
# 
# 
# High freq. dielectric constant tensor:
#      x y z
#    x 1.787420 -0.009100 0.000410 
#    y -0.009100 1.778920 0.004380 
#    z 0.000410 0.004380 1.811720 
# 
# From -- ./inp_files/251035.got.cif
#   From: 2010.06.25/outbox.cif.g09.slc.cpg/sg2_126_cif.got.tgz:251035.got - 2010.06.27 13:26:56.
