data_PCOD8037581
_publ_section_title
;
Structure prediction by ZEFSAII (Michael W. Deem and Ramdas Pophale) SiO2 
 PCOD8037581
Probable space group: P -1
;
_chemical_formula_sum "Si O2"
_cell_formula_units_Z 16
_cell_length_a 5.551361
_cell_length_b 22.631445
_cell_length_c 11.699757
_cell_angle_alpha 147.534760
_cell_angle_beta 60.629117
_cell_angle_gamma 108.191097
_cell_volume 671.185687
_symmetry_space_group_name_H-M "P -1"
_symmetry_group_IT_number 2
_symmetry_cell_setting 'triclinic'
loop_
_space_group_symop_operation_xyz
x,y,z
-x,-y,-z
loop_
_atom_site_type_symbol
_atom_site_label
_atom_site_fract_x
_atom_site_fract_y
_atom_site_fract_z
Si Si1 0.424526 0.134405 0.240530
Si Si2 0.893924 0.235090 0.170258
Si Si3 0.527608 0.932680 0.267569
Si Si4 0.800145 0.425476 0.670519
Si Si5 0.239755 0.562587 0.897237
Si Si6 0.398593 0.156426 0.545537
Si Si7 0.180664 0.743507 0.035101
Si Si8 0.144813 0.719648 0.372490
O O1 0.636702 0.186978 0.201786
O O2 0.402787 0.178790 0.446992
O O3 0.111692 0.192152 0.361483
O O4 0.500000 0.000000 0.000000
O O5 0.965834 0.333396 0.392304
O O6 0.822531 0.288836 0.149644
O O7 0.155023 0.130399 0.932387
O O8 0.319088 0.849640 0.188478
O O9 0.500000 0.000000 0.500000
O O10 0.439063 0.022214 0.332850
O O11 0.522980 0.494910 0.783654
O O12 0.693085 0.363135 0.701727
O O13 0.032793 0.491242 0.770964
O O14 0.346579 0.634889 0.889292
O O15 0.054574 0.643509 0.167865
O O16 0.657113 0.207139 0.616461
O O17 0.130641 0.224011 0.786004
#
# Coordination Sequence:
#
# PCOD8037581 Si02
#       8
#     2   2   2   2   2   2   2   2
#     4  12  27  45  78 118 160 205 252 327 401 470
#     4  12  29  49  75 117 164 202 260 331 399 470
#     4  12  27  46  79 112 158 210 258 315 398 484
#     4  12  29  50  81 118 157 210 267 345 400 451
#     4  12  28  51  83 113 154 217 274 327 397 473
#     4  12  25  47  79 116 153 206 261 313 398 482
#     4  12  28  49  79 113 159 208 268 323 388 484
#     4  12  26  50  80 116 160 202 268 326 396 483
#
# _framework density 23.838411000000001
#
# number of rings (size 3 to 8) (size 9 to 14) (size 15 to 20)
#    0.000    0.000    3.750    4.875    8.750    2.000 
#    0.000    0.000    0.000    0.000    0.000    0.000 
#    0.000    0.000    0.000    0.000    0.000    0.000 
#
# Total GULP energy -198385.559343 kJ/mol
# GULP energy per Si atom -12399.097459 kJ/mol
# Density = 2.378415 g / cm^3
# Si number density = 23.838411 Si / 1000 Ang^3
#
#
#
# Elastic Constant Matrix: (Units=GPa)
#
#
# Indices 1 2 3 4 5 6 
#
# 1 143.5671 71.2420 66.1207 8.6387 -0.6825 11.7884
# 2 71.2420 202.7585 19.2458 5.7702 -6.9578 -9.8937
# 3 66.1207 19.2458 236.9351 -11.5731 19.3454 12.1336
# 4 8.6387 5.7702 -11.5731 51.2474 -1.4967 -3.1542
# 5 -0.6825 -6.9578 19.3454 -1.4967 48.9992 2.2409
# 6 11.7884 -9.8937 12.1336 -3.1542 2.2409 50.5600
#
#
#
# Elastic Compliance Matrix: (Units=1/GPa)
#
#
# Indices 1 2 3 4 5 6 
#
# 1 0.010170 -0.003368 -0.002594 -0.002057 0.000742 -0.002569
# 2 -0.003368 0.006201 0.000290 0.000071 0.000634 0.001905
# 3 -0.002594 0.000290 0.005175 0.001491 -0.001974 -0.000400
# 4 -0.002057 0.000071 0.001491 0.020274 -0.000052 0.001403
# 5 0.000742 0.000634 -0.001974 -0.000052 0.021311 -0.000523
# 6 -0.002569 0.001905 -0.000400 0.001403 -0.000523 0.020957
#
#
# Mechanical properties :
#
#
# Convention : Reuss Voigt Hill
#
# Bulk Modulus (GPa) = 98.01982 99.60863 98.81423
# Shear Modulus (GPa) = 50.59120 58.60481 54.59800
#
# Velocity S-wave (km/s) = 4.61179 4.96362 4.79094
# Velocity P-wave (km/s) = 8.34062 8.64440 8.49387
#
# Compressibility (1/GPa) = 0.01020202
#
# Stress axis : x y z
#
# Youngs Moduli (GPa) = 98.33018 161.27342 193.22306
#
# Poissons Ratio (x) = 0.54324 0.50121
# Poissons Ratio (y) = 0.33122 -0.05613
# Poissons Ratio (z) = 0.25507 -0.04685
#
# Static dielectric constant tensor:
#      x y z
#    x 4.345090 -0.314610 -0.044750 
#    y -0.314610 4.542020 -0.097220 
#    z -0.044750 -0.097220 4.437180 
# 
# 
# High freq. dielectric constant tensor:
#      x y z
#    x 1.947500 -0.009080 0.003640 
#    y -0.009080 1.966280 0.001730 
#    z 0.003640 0.001730 1.958440 
# 
# From -- ./inp_files/371080.got.cif
#   From: 2010.06.25/outbox.cif.g09.slc.cpg/sg2_186_cif.got.tgz:371080.got - 2010.06.27 13:26:56.
