data_PCOD8037128
_publ_section_title
;
Structure prediction by ZEFSAII (Michael W. Deem and Ramdas Pophale) SiO2 
 PCOD8037128
Probable space group: P -1
;
_chemical_formula_sum "Si O2"
_cell_formula_units_Z 14
_cell_length_a 8.336357
_cell_length_b 8.961221
_cell_length_c 11.617872
_cell_angle_alpha 94.689131
_cell_angle_beta 66.777447
_cell_angle_gamma 127.824215
_cell_volume 614.503011
_symmetry_space_group_name_H-M "P -1"
_symmetry_group_IT_number 2
_symmetry_cell_setting 'triclinic'
loop_
_space_group_symop_operation_xyz
x,y,z
-x,-y,-z
loop_
_atom_site_type_symbol
_atom_site_label
_atom_site_fract_x
_atom_site_fract_y
_atom_site_fract_z
Si Si1 0.216805 0.209791 0.484562
Si Si2 0.436396 0.887425 0.218096
Si Si3 0.919395 0.551878 0.353300
Si Si4 0.154679 0.992205 0.041243
Si Si5 0.135114 0.457411 0.885652
Si Si6 0.463054 0.816665 0.454700
Si Si7 0.393145 0.214897 0.206172
O O1 0.143801 0.321816 0.571234
O O2 0.379631 0.217843 0.529850
O O3 0.330472 0.292510 0.333128
O O4 0.000000 0.000000 0.500000
O O5 0.532920 0.864671 0.304719
O O6 0.186424 0.681516 0.265030
O O7 0.427959 0.063381 0.232988
O O8 0.601897 0.924381 0.071846
O O9 0.808466 0.457673 0.254450
O O10 0.803246 0.369301 0.462014
O O11 0.207118 0.114407 0.150429
O O12 0.005618 0.769653 0.102422
O O13 0.000000 0.000000 0.000000
O O14 0.375390 0.582704 0.891753
O O15 0.000000 0.500000 0.000000
O O16 0.500000 0.000000 0.500000
#
# Coordination Sequence:
#
# PCOD8037128 Si02
#       7
#     2   2   2   2   2   2   2
#     4  12  24  43  74 105 148 193 239 301 365 435
#     4  12  24  45  73 104 147 188 241 301 361 432
#     4  12  25  46  74 108 144 199 241 299 371 436
#     4  12  29  49  75 109 146 187 249 314 354 433
#     4  12  24  45  78 102 143 200 245 289 369 437
#     4  12  25  44  68 111 145 186 246 296 364 431
#     4  12  24  48  74 107 146 198 241 291 375 437
#
# _framework density 22.782637000000001
#
# number of rings (size 3 to 8) (size 9 to 14) (size 15 to 20)
#    0.000    0.000    7.143    2.143    4.000    0.571 
#    0.000    1.429    0.000    0.000    0.000    0.000 
#    0.000    0.000    0.000    0.000    0.000    0.000 
#
# Total GULP energy -173524.158665 kJ/mol
# GULP energy per Si atom -12394.582762 kJ/mol
# Density = 2.273078 g / cm^3
# Si number density = 22.782637 Si / 1000 Ang^3
#
#
#
# Elastic Constant Matrix: (Units=GPa)
#
#
# Indices 1 2 3 4 5 6 
#
# 1 92.6786 23.9606 38.7957 5.0163 5.1503 23.3303
# 2 23.9606 111.1774 32.3783 -6.4323 -6.5888 26.9009
# 3 38.7957 32.3783 107.9055 6.7990 6.9311 4.0345
# 4 5.0163 -6.4323 6.7990 50.1078 10.8476 -6.1383
# 5 5.1503 -6.5888 6.9311 10.8476 41.7946 -0.2660
# 6 23.3303 26.9009 4.0345 -6.1383 -0.2660 38.0373
#
#
#
# Elastic Compliance Matrix: (Units=1/GPa)
#
#
# Indices 1 2 3 4 5 6 
#
# 1 0.015341 0.000312 -0.005106 -0.001827 -0.000580 -0.009387
# 2 0.000312 0.012160 -0.003630 0.000507 0.002296 -0.008308
# 3 -0.005106 -0.003630 0.012189 -0.000705 -0.001754 0.004280
# 4 -0.001827 0.000507 -0.000705 0.021970 -0.005253 0.004345
# 5 -0.000580 0.002296 -0.001754 -0.005253 0.026003 -0.001748
# 6 -0.009387 -0.008308 0.004280 0.004345 -0.001748 0.038159
#
#
# Mechanical properties :
#
#
# Convention : Reuss Voigt Hill
#
# Bulk Modulus (GPa) = 43.77649 55.78121 49.77885
# Shear Modulus (GPa) = 33.27033 40.42975 36.85004
#
# Velocity S-wave (km/s) = 3.82558 4.21715 4.02613
# Velocity P-wave (km/s) = 6.22656 6.94620 6.59620
#
# Compressibility (1/GPa) = 0.02284331
#
# Stress axis : x y z
#
# Youngs Moduli (GPa) = 65.18520 82.23503 82.03888
#
# Poissons Ratio (x) = -0.02566 0.41888
# Poissons Ratio (y) = -0.02034 0.29779
# Poissons Ratio (z) = 0.33283 0.29850
#
# Static dielectric constant tensor:
#      x y z
#    x 3.687550 1.793620 0.075830 
#    y 1.793620 -5.502650 -2.458840 
#    z 0.075830 -2.458840 3.514210 
# 
# 
# High freq. dielectric constant tensor:
#      x y z
#    x 1.884260 0.027060 -0.001240 
#    y 0.027060 1.913780 -0.004040 
#    z -0.001240 -0.004040 1.921500 
# 
# From -- ./inp_files/175746.got.cif
#   From: 2010.06.25/outbox.cif.g09.slc.cpg/sg2_88_cif.got.tgz:175746.got - 2010.06.27 13:26:56.
