data_PCOD8037996
_publ_section_title
;
Structure prediction by ZEFSAII (Michael W. Deem and Ramdas Pophale) SiO2 
 PCOD8037996
Probable space group: P -1
;
_chemical_formula_sum "Si O2"
_cell_formula_units_Z 14
_cell_length_a 7.059278
_cell_length_b 13.976280
_cell_length_c 23.785017
_cell_angle_alpha 147.900648
_cell_angle_beta 39.289013
_cell_angle_gamma 141.307120
_cell_volume 733.265725
_symmetry_space_group_name_H-M "P -1"
_symmetry_group_IT_number 2
_symmetry_cell_setting 'triclinic'
loop_
_space_group_symop_operation_xyz
x,y,z
-x,-y,-z
loop_
_atom_site_type_symbol
_atom_site_label
_atom_site_fract_x
_atom_site_fract_y
_atom_site_fract_z
Si Si1 0.815541 0.156566 0.478966
Si Si2 0.471891 0.493858 0.820837
Si Si3 0.803761 0.897639 0.822504
Si Si4 0.743729 0.888858 0.268293
Si Si5 0.715526 0.924454 0.984044
Si Si6 0.474141 0.541540 0.334488
Si Si7 0.947598 0.308022 0.637958
O O1 0.745828 0.330926 0.551561
O O2 0.049092 0.238110 0.520006
O O3 0.500000 0.000000 0.500000
O O4 0.949439 0.049600 0.347526
O O5 0.224729 0.318611 0.827845
O O6 0.485278 0.703156 0.941989
O O7 0.359176 0.456931 0.763440
O O8 0.832173 0.487209 0.740027
O O9 0.868394 0.931505 0.890756
O O10 0.745936 0.678716 0.708745
O O11 0.119633 0.042822 0.790744
O O12 0.490952 0.940988 0.897805
O O13 0.364347 0.861612 0.346011
O O14 0.000000 0.000000 0.000000
O O15 0.751797 0.630944 0.360449
#
# Coordination Sequence:
#
# PCOD8037996 Si02
#       7
#     2   2   2   2   2   2   2
#     4   9  17  33  52  77 110 142 172 208 254 306
#     4   8  18  34  54  74 107 135 172 213 258 307
#     4  10  22  36  55  80 105 132 176 223 263 303
#     4   9  19  37  49  80 114 128 174 226 248 299
#     4  10  20  39  59  73 101 143 173 210 273 322
#     4  10  17  33  57  75 103 149 174 203 256 316
#     4   8  17  32  55  77 106 140 178 202 248 314
#
# _framework density 19.092668
#
# number of rings (size 3 to 8) (size 9 to 14) (size 15 to 20)
#    0.857    2.000    1.429    0.857    0.000    3.429 
#    2.571    1.429    0.000    0.000    0.000    0.000 
#    0.000    0.000    0.000    0.000    0.000    0.000 
#
# Total GULP energy -173448.125072 kJ/mol
# GULP energy per Si atom -12389.151791 kJ/mol
# Density = 1.904921 g / cm^3
# Si number density = 19.092668 Si / 1000 Ang^3
#
#
#
# Elastic Constant Matrix: (Units=GPa)
#
#
# Indices 1 2 3 4 5 6 
#
# 1 136.7420 39.6084 32.7904 8.3310 23.8343 -2.3680
# 2 39.6084 114.1190 45.9096 15.3589 9.3227 -24.9421
# 3 32.7904 45.9096 70.6162 20.8959 10.4525 -8.3283
# 4 8.3310 15.3589 20.8959 33.8870 -3.9088 -3.8101
# 5 23.8343 9.3227 10.4525 -3.9088 20.1612 5.4908
# 6 -2.3680 -24.9421 -8.3283 -3.8101 5.4908 17.3008
#
#
#
# Elastic Compliance Matrix: (Units=1/GPa)
#
#
# Indices 1 2 3 4 5 6 
#
# 1 0.010236 -0.001296 -0.001192 -0.002320 -0.011943 0.002238
# 2 -0.001296 0.019014 -0.005736 -0.003078 -0.012439 0.027744
# 3 -0.001192 -0.005736 0.024801 -0.013343 -0.012629 0.004576
# 4 -0.002320 -0.003078 -0.013343 0.041178 0.021499 -0.008932
# 5 -0.011943 -0.012439 -0.012629 0.021499 0.094007 -0.050748
# 6 0.002238 0.027744 0.004576 -0.008932 -0.050748 0.114447
#
#
# Mechanical properties :
#
#
# Convention : Reuss Voigt Hill
#
# Bulk Modulus (GPa) = 26.59381 62.01044 44.30212
# Shear Modulus (GPa) = 15.03004 27.81438 21.42221
#
# Velocity S-wave (km/s) = 2.80878 3.82096 3.35328
# Velocity P-wave (km/s) = 4.94753 7.21218 6.18440
#
# Compressibility (1/GPa) = 0.03760274
#
# Stress axis : x y z
#
# Youngs Moduli (GPa) = 97.69333 52.59167 40.32092
#
# Poissons Ratio (x) = 0.06816 0.04808
# Poissons Ratio (y) = 0.12662 0.23128
# Poissons Ratio (z) = 0.11648 0.30166
#
# Static dielectric constant tensor:
#      x y z
#    x 3.352130 -0.304990 0.285210 
#    y -0.304990 3.363080 0.343400 
#    z 0.285210 0.343400 3.691310 
# 
# 
# High freq. dielectric constant tensor:
#      x y z
#    x 1.727780 -0.025970 0.019670 
#    y -0.025970 1.725880 0.030650 
#    z 0.019670 0.030650 1.731610 
# 
# From -- ./inp_files/311165.got.cif
#   From: 2010.06.25/outbox.cif.g09.slc.cpg/sg2_156_cif.got.tgz:311165.got - 2010.06.27 13:26:56.
