data_PCOD8037449
_publ_section_title
;
Structure prediction by ZEFSAII (Michael W. Deem and Ramdas Pophale) SiO2 
 PCOD8037449
Probable space group: P -1
;
_chemical_formula_sum "Si O2"
_cell_formula_units_Z 14
_cell_length_a 14.259018
_cell_length_b 13.623415
_cell_length_c 6.689881
_cell_angle_alpha 108.460078
_cell_angle_beta 117.313123
_cell_angle_gamma 32.578952
_cell_volume 615.051729
_symmetry_space_group_name_H-M "P -1"
_symmetry_group_IT_number 2
_symmetry_cell_setting 'triclinic'
loop_
_space_group_symop_operation_xyz
x,y,z
-x,-y,-z
loop_
_atom_site_type_symbol
_atom_site_label
_atom_site_fract_x
_atom_site_fract_y
_atom_site_fract_z
Si Si1 0.973478 0.911892 0.017498
Si Si2 0.679239 0.609456 0.493790
Si Si3 0.420779 0.778968 0.990693
Si Si4 0.050492 0.263310 0.395334
Si Si5 0.141722 0.330430 0.177942
Si Si6 0.345132 0.039695 0.882255
Si Si7 0.368455 0.518443 0.298290
O O1 0.158894 0.731305 0.205117
O O2 0.800108 0.065826 0.100635
O O3 0.931613 0.860742 0.775409
O O4 0.000000 0.000000 0.000000
O O5 0.699433 0.714127 0.639236
O O6 0.637946 0.575041 0.624905
O O7 0.865280 0.415847 0.445446
O O8 0.502064 0.745196 0.262368
O O9 0.540449 0.586547 0.894179
O O10 0.443227 0.850873 0.894942
O O11 0.038844 0.369477 0.298817
O O12 0.231869 0.130823 0.624713
O O13 0.218660 0.167141 0.034805
O O14 0.000000 0.500000 0.000000
O O15 0.500000 0.000000 0.000000
O O16 0.500000 0.500000 0.500000
#
# Coordination Sequence:
#
# PCOD8037449 Si02
#       7
#     2   2   2   2   2   2   2
#     4  12  28  50  77 109 149 194 249 307 369 438
#     4  12  26  46  78 105 150 195 242 307 368 438
#     4  12  28  49  75 110 149 191 249 304 369 440
#     4  12  26  48  73 109 150 196 245 303 372 436
#     4  12  25  44  72 109 145 194 247 295 369 439
#     4  12  27  43  71 109 152 193 245 302 364 440
#     4  12  29  51  77 110 145 195 251 305 372 438
#
# _framework density 22.762311
#
# number of rings (size 3 to 8) (size 9 to 14) (size 15 to 20)
#    0.000    0.000    4.286    4.714   10.000    2.857 
#    0.000    0.000    0.000    0.000    0.000    0.000 
#    0.000    0.000    0.000    0.000    0.000    0.000 
#
# Total GULP energy -173682.978261 kJ/mol
# GULP energy per Si atom -12405.927019 kJ/mol
# Density = 2.271050 g / cm^3
# Si number density = 22.762311 Si / 1000 Ang^3
#
#
#
# Elastic Constant Matrix: (Units=GPa)
#
#
# Indices 1 2 3 4 5 6 
#
# 1 144.5172 37.2957 53.8126 -1.7769 4.7438 6.2092
# 2 37.2957 91.2564 51.6746 -18.3105 3.8143 -4.8885
# 3 53.8126 51.6746 148.3628 -15.0211 9.9984 -1.1092
# 4 -1.7769 -18.3105 -15.0211 44.2621 2.1566 4.9511
# 5 4.7438 3.8143 9.9984 2.1566 41.6997 -5.2558
# 6 6.2092 -4.8885 -1.1092 4.9511 -5.2558 39.2701
#
#
#
# Elastic Compliance Matrix: (Units=1/GPa)
#
#
# Indices 1 2 3 4 5 6 
#
# 1 0.008493 -0.002477 -0.002338 -0.001283 -0.000314 -0.001597
# 2 -0.002477 0.015215 -0.003898 0.004709 -0.000223 0.001552
# 3 -0.002338 -0.003898 0.009214 0.001534 -0.001701 -0.000276
# 4 -0.001283 0.004709 0.001534 0.025422 -0.002305 -0.002681
# 5 -0.000314 -0.000223 -0.001701 -0.002305 0.025020 0.003613
# 6 -0.001597 0.001552 -0.000276 -0.002681 0.003613 0.026724
#
#
# Mechanical properties :
#
#
# Convention : Reuss Voigt Hill
#
# Bulk Modulus (GPa) = 64.53304 74.41136 69.47220
# Shear Modulus (GPa) = 37.68529 41.13662 39.41096
#
# Velocity S-wave (km/s) = 4.07332 4.25576 4.16554
# Velocity P-wave (km/s) = 7.10880 7.54389 7.32957
#
# Compressibility (1/GPa) = 0.01549594
#
# Stress axis : x y z
#
# Youngs Moduli (GPa) = 117.74889 65.72599 108.53245
#
# Poissons Ratio (x) = 0.16278 0.25380
# Poissons Ratio (y) = 0.29162 0.42301
# Poissons Ratio (z) = 0.27535 0.25617
#
# Static dielectric constant tensor:
#      x y z
#    x 4.157540 0.106820 0.206370 
#    y 0.106820 4.643330 0.658340 
#    z 0.206370 0.658340 5.106750 
# 
# 
# High freq. dielectric constant tensor:
#      x y z
#    x 1.909710 -0.002470 0.001440 
#    y -0.002470 1.910830 0.002370 
#    z 0.001440 0.002370 1.911050 
# 
# From -- ./inp_files/40156.got.cif
#   From: 2010.06.25/outbox.cif.g09.slc.cpg/sg2_21_cif.got.tgz:40156.got - 2010.06.27 13:26:56.
