data_PCOD8037947
_publ_section_title
;
Structure prediction by ZEFSAII (Michael W. Deem and Ramdas Pophale) SiO2 
 PCOD8037947
Probable space group: P -1
;
_chemical_formula_sum "Si O2"
_cell_formula_units_Z 16
_cell_length_a 16.892426
_cell_length_b 9.472930
_cell_length_c 8.516889
_cell_angle_alpha 61.548580
_cell_angle_beta 61.692027
_cell_angle_gamma 102.369203
_cell_volume 867.844132
_symmetry_space_group_name_H-M "P -1"
_symmetry_group_IT_number 2
_symmetry_cell_setting 'triclinic'
loop_
_space_group_symop_operation_xyz
x,y,z
-x,-y,-z
loop_
_atom_site_type_symbol
_atom_site_label
_atom_site_fract_x
_atom_site_fract_y
_atom_site_fract_z
Si Si1 0.378980 0.231640 0.224388
Si Si2 0.822681 0.149244 0.502695
Si Si3 0.662002 0.549532 0.330633
Si Si4 0.979912 0.146129 0.152906
Si Si5 0.509000 0.573187 0.693034
Si Si6 0.856647 0.854963 0.782004
Si Si7 0.181741 0.495200 0.601959
Si Si8 0.193777 0.276722 0.439178
O O1 0.455241 0.267353 0.285061
O O2 0.312326 0.316663 0.307578
O O3 0.299629 0.005814 0.368116
O O4 0.448569 0.356813 0.940950
O O5 0.827952 0.323871 0.491634
O O6 0.911422 0.231091 0.234852
O O7 0.859142 0.046932 0.641919
O O8 0.612190 0.613843 0.476347
O O9 0.571078 0.411412 0.358629
O O10 0.715875 0.446079 0.413792
O O11 0.759138 0.743955 0.055635
O O12 0.032153 0.099212 0.273504
O O13 0.068595 0.299640 0.867300
O O14 0.892379 0.929608 0.279687
O O15 0.836302 0.727892 0.712404
O O16 0.200813 0.452745 0.429559
#
# Coordination Sequence:
#
# PCOD8037947 Si02
#       8
#     2   2   2   2   2   2   2   2
#     4   9  18  33  58  77  98 138 181 209 251 309
#     4  10  19  35  53  77 110 136 165 211 270 309
#     4  10  19  31  56  80 102 130 183 216 249 297
#     4   9  19  35  58  74 101 140 179 207 250 307
#     4  10  17  33  58  78  97 135 187 215 241 300
#     4   9  18  36  56  76 100 140 178 210 248 308
#     4  11  21  32  52  82 109 133 166 218 265 304
#     4  10  17  33  52  81 100 136 178 209 247 313
#
# _framework density 18.436489999999999
#
# number of rings (size 3 to 8) (size 9 to 14) (size 15 to 20)
#    0.000    2.500    3.750    2.250    0.000    0.000 
#    0.000    3.750    5.500    0.000    0.000    0.000 
#    0.000    0.000    0.000    0.000    0.000    0.000 
#
# Total GULP energy -198246.181759 kJ/mol
# GULP energy per Si atom -12390.386360 kJ/mol
# Density = 1.839453 g / cm^3
# Si number density = 18.436490 Si / 1000 Ang^3
#
#
#
# Elastic Constant Matrix: (Units=GPa)
#
#
# Indices 1 2 3 4 5 6 
#
# 1 55.3657 28.7496 32.0444 3.9522 -0.9448 0.1454
# 2 28.7496 117.5278 37.7682 11.8131 4.1350 -9.9933
# 3 32.0444 37.7682 81.2696 8.9700 -6.5792 5.7798
# 4 3.9522 11.8131 8.9700 18.4474 3.8914 -0.1746
# 5 -0.9448 4.1350 -6.5792 3.8914 26.1164 1.9265
# 6 0.1454 -9.9933 5.7798 -0.1746 1.9265 22.1128
#
#
#
# Elastic Compliance Matrix: (Units=1/GPa)
#
#
# Indices 1 2 3 4 5 6 
#
# 1 0.024542 -0.003349 -0.008363 0.001150 -0.000904 0.000599
# 2 -0.003349 0.011849 -0.004473 -0.003992 -0.003029 0.006779
# 3 -0.008363 -0.004473 0.019480 -0.006328 0.006824 -0.007703
# 4 0.001150 -0.003992 -0.006328 0.061761 -0.010213 0.001220
# 5 -0.000904 -0.003029 0.006824 -0.010213 0.042489 -0.006929
# 6 0.000599 0.006779 -0.007703 0.001220 -0.006929 0.050909
#
#
# Mechanical properties :
#
#
# Convention : Reuss Voigt Hill
#
# Bulk Modulus (GPa) = 42.55101 50.14306 46.34704
# Shear Modulus (GPa) = 19.90173 23.70871 21.80522
#
# Velocity S-wave (km/s) = 3.28910 3.58993 3.44280
# Velocity P-wave (km/s) = 6.12814 6.66635 6.40290
#
# Compressibility (1/GPa) = 0.02350120
#
# Stress axis : x y z
#
# Youngs Moduli (GPa) = 40.74640 84.39206 51.33508
#
# Poissons Ratio (x) = 0.28260 0.42934
# Poissons Ratio (y) = 0.13644 0.22962
# Poissons Ratio (z) = 0.34078 0.37749
#
# Static dielectric constant tensor:
#      x y z
#    x 3.496310 0.247780 -0.240790 
#    y 0.247780 3.016950 0.124570 
#    z -0.240790 0.124570 3.518250 
# 
# 
# High freq. dielectric constant tensor:
#      x y z
#    x 1.709050 0.026120 -0.022750 
#    y 0.026120 1.678030 0.015810 
#    z -0.022750 0.015810 1.729790 
# 
# From -- ./inp_files/227108.got.cif
#   From: 2010.06.25/outbox.cif.g09.slc.cpg/sg2_114_cif.got.tgz:227108.got - 2010.06.27 13:26:56.
