data_PCOD8037677
_publ_section_title
;
Structure prediction by ZEFSAII (Michael W. Deem and Ramdas Pophale) SiO2 
 PCOD8037677
Probable space group: P -1
;
_chemical_formula_sum "Si O2"
_cell_formula_units_Z 14
_cell_length_a 26.452620
_cell_length_b 13.240650
_cell_length_c 5.016075
_cell_angle_alpha 96.027657
_cell_angle_beta 97.130744
_cell_angle_gamma 155.878129
_cell_volume 600.402332
_symmetry_space_group_name_H-M "P -1"
_symmetry_group_IT_number 2
_symmetry_cell_setting 'triclinic'
loop_
_space_group_symop_operation_xyz
x,y,z
-x,-y,-z
loop_
_atom_site_type_symbol
_atom_site_label
_atom_site_fract_x
_atom_site_fract_y
_atom_site_fract_z
Si Si1 0.385929 0.516576 0.384626
Si Si2 0.330065 0.823247 0.234559
Si Si3 0.880026 0.853687 0.763058
Si Si4 0.666309 0.295866 0.279035
Si Si5 0.966547 0.656269 0.085736
Si Si6 0.614027 0.621871 0.133315
Si Si7 0.933927 0.267718 0.340983
O O1 0.236277 0.301291 0.168621
O O2 0.370555 0.401402 0.572206
O O3 0.514865 0.835216 0.631317
O O4 0.433999 0.555302 0.151501
O O5 0.341213 0.754039 0.435523
O O6 0.204353 0.666252 0.207463
O O7 0.267484 0.661566 0.870772
O O8 0.773356 0.594791 0.414042
O O9 0.000000 0.000000 0.000000
O O10 0.976857 0.123232 0.775984
O O11 0.500000 0.000000 0.000000
O O12 0.056291 0.753651 0.963546
O O13 0.972287 0.628890 0.381568
O O14 0.766156 0.955285 0.234558
O O15 0.500000 0.500000 0.000000
O O16 0.000000 0.500000 0.500000
#
# Coordination Sequence:
#
# PCOD8037677 Si02
#       7
#     2   2   2   2   2   2   2
#     4  12  27  48  75 107 154 192 251 309 370 458
#     4  12  27  45  72 107 148 199 251 302 371 437
#     4  12  26  49  75 110 157 209 246 308 367 449
#     4  12  26  44  70 106 150 195 251 301 361 430
#     4  12  27  48  73 110 150 197 248 306 377 455
#     4  12  27  49  77 109 143 193 247 314 390 446
#     4  12  27  49  76 107 148 185 251 319 380 442
#
# _framework density 23.317699999999999
#
# number of rings (size 3 to 8) (size 9 to 14) (size 15 to 20)
#    0.000    0.000    5.714    3.000    4.000    1.714 
#    0.000    0.000    0.000    0.000    0.000    0.000 
#    0.000    0.000    0.000    0.000    0.000    0.000 
#
# Total GULP energy -173513.378731 kJ/mol
# GULP energy per Si atom -12393.812767 kJ/mol
# Density = 2.326463 g / cm^3
# Si number density = 23.317700 Si / 1000 Ang^3
#
#
#
# Elastic Constant Matrix: (Units=GPa)
#
#
# Indices 1 2 3 4 5 6 
#
# 1 142.5613 36.7563 47.5306 8.1618 12.4555 1.6842
# 2 36.7563 101.0613 29.6640 12.5602 5.5844 -1.2752
# 3 47.5306 29.6640 101.7952 8.9843 1.6867 1.0507
# 4 8.1618 12.5602 8.9843 45.6883 6.8245 -0.6231
# 5 12.4555 5.5844 1.6867 6.8245 50.6743 10.9493
# 6 1.6842 -1.2752 1.0507 -0.6231 10.9493 42.3560
#
#
#
# Elastic Compliance Matrix: (Units=1/GPa)
#
#
# Indices 1 2 3 4 5 6 
#
# 1 0.008887 -0.002093 -0.003507 -0.000042 -0.001864 0.000152
# 2 -0.002093 0.011625 -0.002205 -0.002304 -0.000510 0.000586
# 3 -0.003507 -0.002205 0.012209 -0.001322 0.000985 -0.000504
# 4 -0.000042 -0.002304 -0.001322 0.023261 -0.003062 0.001099
# 5 -0.001864 -0.000510 0.000985 -0.003062 0.021851 -0.005659
# 6 0.000152 0.000586 -0.000504 0.001099 -0.005659 0.025113
#
#
# Mechanical properties :
#
#
# Convention : Reuss Voigt Hill
#
# Bulk Modulus (GPa) = 58.43551 63.70217 61.06884
# Shear Modulus (GPa) = 40.23914 43.17483 41.70699
#
# Velocity S-wave (km/s) = 4.15865 4.30768 4.23382
# Velocity P-wave (km/s) = 6.94076 7.21942 7.08146
#
# Compressibility (1/GPa) = 0.01711288
#
# Stress axis : x y z
#
# Youngs Moduli (GPa) = 112.52823 86.01997 81.90681
#
# Poissons Ratio (x) = 0.18001 0.28721
# Poissons Ratio (y) = 0.23549 0.18059
# Poissons Ratio (z) = 0.39458 0.18966
#
# Static dielectric constant tensor:
#      x y z
#    x 4.292600 0.139750 -0.126270 
#    y 0.139750 4.404870 0.120060 
#    z -0.126270 0.120060 4.563300 
# 
# 
# High freq. dielectric constant tensor:
#      x y z
#    x 1.932270 0.006350 0.001130 
#    y 0.006350 1.933430 0.016060 
#    z 0.001130 0.016060 1.929500 
# 
# From -- ./inp_files/101582.got.cif
#   From: 2010.06.25/outbox.cif.g09.slc.cpg/sg2_51_cif.got.tgz:101582.got - 2010.06.27 13:26:56.
