data_PCOD8037562
_publ_section_title
;
Structure prediction by ZEFSAII (Michael W. Deem and Ramdas Pophale) SiO2 
 PCOD8037562
Probable space group: P -1
;
_chemical_formula_sum "Si O2"
_cell_formula_units_Z 16
_cell_length_a 11.872785
_cell_length_b 16.765987
_cell_length_c 19.872863
_cell_angle_alpha 160.281639
_cell_angle_beta 41.553824
_cell_angle_gamma 147.139705
_cell_volume 704.498924
_symmetry_space_group_name_H-M "P -1"
_symmetry_group_IT_number 2
_symmetry_cell_setting 'triclinic'
loop_
_space_group_symop_operation_xyz
x,y,z
-x,-y,-z
loop_
_atom_site_type_symbol
_atom_site_label
_atom_site_fract_x
_atom_site_fract_y
_atom_site_fract_z
Si Si1 0.982815 0.705645 0.575673
Si Si2 0.341952 0.687487 0.360004
Si Si3 0.609919 0.434118 0.616171
Si Si4 0.655426 0.151237 0.782003
Si Si5 0.354252 0.255944 0.923780
Si Si6 0.535564 0.181982 0.006057
Si Si7 0.704116 0.505740 0.414706
Si Si8 0.078826 0.311213 0.677776
O O1 0.103910 0.585984 0.394510
O O2 0.830592 0.509427 0.550138
O O3 0.837851 0.690129 0.568047
O O4 0.150102 0.024960 0.786714
O O5 0.451711 0.736998 0.421652
O O6 0.500000 0.000000 0.500000
O O7 0.296203 0.396834 0.117534
O O8 0.621729 0.725435 0.850080
O O9 0.424295 0.191389 0.454676
O O10 0.478379 0.141160 0.809666
O O11 0.890170 0.348486 0.800497
O O12 0.658307 0.252669 0.936659
O O13 0.500000 0.500000 0.000000
O O14 0.717267 0.389783 0.143698
O O15 0.383291 0.835875 0.817458
O O16 0.500000 0.500000 0.500000
O O17 0.864250 0.683700 0.421824
O O18 0.000000 0.000000 0.500000
#
# Coordination Sequence:
#
# PCOD8037562 Si02
#       8
#     2   2   2   2   2   2   2   2
#     4  12  28  45  79 103 152 198 243 307 376 443
#     4  12  26  48  72 111 152 196 250 307 370 447
#     4  12  25  47  74 110 155 193 251 303 371 447
#     4  12  25  47  75 111 151 193 249 312 367 450
#     4  12  27  44  74 112 151 194 248 308 374 444
#     4  12  26  51  78 108 153 201 249 312 376 443
#     4  12  29  53  76 112 152 196 256 313 372 451
#     4  12  27  48  81 110 148 199 251 310 381 443
#
# _framework density 22.711175999999998
#
# number of rings (size 3 to 8) (size 9 to 14) (size 15 to 20)
#    0.000    0.000    6.250    2.625    5.250    2.500 
#    0.000    0.000    0.000    0.000    0.000    0.000 
#    0.000    0.000    0.000    0.000    0.000    0.000 
#
# Total GULP energy -198328.591728 kJ/mol
# GULP energy per Si atom -12395.536983 kJ/mol
# Density = 2.265948 g / cm^3
# Si number density = 22.711176 Si / 1000 Ang^3
#
#
#
# Elastic Constant Matrix: (Units=GPa)
#
#
# Indices 1 2 3 4 5 6 
#
# 1 107.0440 46.4360 55.4750 -0.2784 8.9957 3.4680
# 2 46.4360 162.5106 47.3609 -16.3403 -4.7203 -2.4175
# 3 55.4750 47.3609 109.8800 -10.4270 7.5788 -2.9496
# 4 -0.2784 -16.3403 -10.4270 49.7731 3.3933 -2.1328
# 5 8.9957 -4.7203 7.5788 3.3933 44.0330 -0.2039
# 6 3.4680 -2.4175 -2.9496 -2.1328 -0.2039 41.6433
#
#
#
# Elastic Compliance Matrix: (Units=1/GPa)
#
#
# Indices 1 2 3 4 5 6 
#
# 1 0.013712 -0.002456 -0.005965 -0.001927 -0.001898 -0.001815
# 2 -0.002456 0.007685 -0.001969 0.002020 0.001511 0.000622
# 3 -0.005965 -0.001969 0.013315 0.002270 -0.001452 0.001435
# 4 -0.001927 0.002020 0.002270 0.021382 -0.001421 0.001527
# 5 -0.001898 0.001511 -0.001452 -0.001421 0.023620 0.000186
# 6 -0.001815 0.000622 0.001435 0.001527 0.000186 0.024381
#
#
# Mechanical properties :
#
#
# Convention : Reuss Voigt Hill
#
# Bulk Modulus (GPa) = 71.76850 75.33094 73.54972
# Shear Modulus (GPa) = 38.60467 42.43406 40.51936
#
# Velocity S-wave (km/s) = 4.12735 4.32721 4.22846
# Velocity P-wave (km/s) = 7.37445 7.62938 7.50300
#
# Compressibility (1/GPa) = 0.01393369
#
# Stress axis : x y z
#
# Youngs Moduli (GPa) = 72.93006 130.12176 75.10323
#
# Poissons Ratio (x) = 0.31952 0.44799
# Poissons Ratio (y) = 0.17908 0.14784
# Poissons Ratio (z) = 0.43503 0.25615
#
# Static dielectric constant tensor:
#      x y z
#    x 4.076510 -0.049670 0.104570 
#    y -0.049670 4.303340 -0.292930 
#    z 0.104570 -0.292930 4.221930 
# 
# 
# High freq. dielectric constant tensor:
#      x y z
#    x 1.897740 0.000820 0.010000 
#    y 0.000820 1.913430 -0.013030 
#    z 0.010000 -0.013030 1.909530 
# 
# From -- ./inp_files/596049.got.cif
#   From: 2010.06.25/outbox.cif.g09.slc.cpg/sg2_299_cif.got.tgz:596049.got - 2010.06.27 13:26:56.
