data_PCOD8037875
_publ_section_title
;
Structure prediction by ZEFSAII (Michael W. Deem and Ramdas Pophale) SiO2 
 PCOD8037875
Probable space group: P -1
;
_chemical_formula_sum "Si O2"
_cell_formula_units_Z 16
_cell_length_a 13.834377
_cell_length_b 9.064023
_cell_length_c 15.819265
_cell_angle_alpha 145.666340
_cell_angle_beta 52.806614
_cell_angle_gamma 117.088552
_cell_volume 886.992242
_symmetry_space_group_name_H-M "P -1"
_symmetry_group_IT_number 2
_symmetry_cell_setting 'triclinic'
loop_
_space_group_symop_operation_xyz
x,y,z
-x,-y,-z
loop_
_atom_site_type_symbol
_atom_site_label
_atom_site_fract_x
_atom_site_fract_y
_atom_site_fract_z
Si Si1 0.730419 0.274934 0.562803
Si Si2 0.579178 0.025620 0.656864
Si Si3 0.337441 0.877547 0.646728
Si Si4 0.485010 0.063890 0.174175
Si Si5 0.336890 0.574183 0.671186
Si Si6 0.873221 0.836995 0.192171
Si Si7 0.692486 0.852598 0.841895
Si Si8 0.848596 0.281521 0.022296
O O1 0.639420 0.256285 0.521263
O O2 0.769079 0.571208 0.685423
O O3 0.661288 0.225689 0.663104
O O4 0.847019 0.058406 0.385147
O O5 0.449067 0.043791 0.687808
O O6 0.559719 0.104498 0.802918
O O7 0.649409 0.736662 0.475010
O O8 0.319106 0.659362 0.623848
O O9 0.213745 0.079577 0.802439
O O10 0.540412 0.320746 0.305510
O O11 0.368716 0.148764 0.218324
O O12 0.587754 0.888595 0.985301
O O13 0.217433 0.691114 0.839811
O O14 0.012530 0.828187 0.085938
O O15 0.838820 0.556869 0.109624
O O16 0.783838 0.077327 0.901966
#
# Coordination Sequence:
#
# PCOD8037875 Si02
#       8
#     2   2   2   2   2   2   2   2
#     4  10  20  33  52  81 105 137 175 214 258 309
#     4  11  18  31  55  80 111 137 169 215 263 311
#     4   9  19  31  53  83 106 132 178 215 255 309
#     4   9  20  32  51  80 109 142 168 206 271 319
#     4  10  17  32  56  80 106 138 173 216 262 306
#     4   9  21  37  54  81  98 140 184 216 253 306
#     4  10  20  35  53  76 111 138 171 213 265 317
#     4  10  20  38  57  74 105 142 176 217 265 301
#
# _framework density 18.038489999999999
#
# number of rings (size 3 to 8) (size 9 to 14) (size 15 to 20)
#    0.750    1.500    1.250    3.375    0.000    4.500 
#    0.000    2.500    0.000    0.750    0.000    0.000 
#    0.000    0.000    0.000    0.000    0.000    0.000 
#
# Total GULP energy -198328.167325 kJ/mol
# GULP energy per Si atom -12395.510458 kJ/mol
# Density = 1.799743 g / cm^3
# Si number density = 18.038490 Si / 1000 Ang^3
#
#
#
# Elastic Constant Matrix: (Units=GPa)
#
#
# Indices 1 2 3 4 5 6 
#
# 1 63.2691 41.4400 34.9317 -0.0506 -17.2088 -6.3686
# 2 41.4400 95.8375 42.1398 -5.3657 -2.3791 -1.5016
# 3 34.9317 42.1398 69.0806 7.1992 -4.0134 -1.1750
# 4 -0.0506 -5.3657 7.1992 37.9027 -5.7417 1.1522
# 5 -17.2088 -2.3791 -4.0134 -5.7417 27.8270 -5.3870
# 6 -6.3686 -1.5016 -1.1750 1.1522 -5.3870 22.6077
#
#
#
# Elastic Compliance Matrix: (Units=1/GPa)
#
#
# Indices 1 2 3 4 5 6 
#
# 1 0.036176 -0.009701 -0.011173 0.003924 0.023523 0.014371
# 2 -0.009701 0.017421 -0.006403 0.002942 -0.005477 -0.003364
# 3 -0.011173 -0.006403 0.024290 -0.006328 -0.005917 -0.003398
# 4 0.003924 0.002942 -0.006328 0.029185 0.008059 0.001405
# 5 0.023523 -0.005477 -0.005917 0.008059 0.054407 0.018509
# 6 0.014371 -0.003364 -0.003398 0.001405 0.018509 0.052220
#
#
# Mechanical properties :
#
#
# Convention : Reuss Voigt Hill
#
# Bulk Modulus (GPa) = 42.86051 51.69004 47.27527
# Shear Modulus (GPa) = 18.11395 24.97921 21.54658
#
# Velocity S-wave (km/s) = 3.17232 3.72529 3.45987
# Velocity P-wave (km/s) = 6.10167 6.87178 6.49814
#
# Compressibility (1/GPa) = 0.02333150
#
# Stress axis : x y z
#
# Youngs Moduli (GPa) = 27.64266 57.40357 41.16964
#
# Poissons Ratio (x) = 0.55686 0.46000
# Poissons Ratio (y) = 0.26816 0.26362
# Poissons Ratio (z) = 0.30886 0.36757
#
# Static dielectric constant tensor:
#      x y z
#    x 3.110680 -0.078990 -0.034160 
#    y -0.078990 3.294680 -0.094100 
#    z -0.034160 -0.094100 3.345690 
# 
# 
# High freq. dielectric constant tensor:
#      x y z
#    x 1.671280 -0.010420 -0.006690 
#    y -0.010420 1.698680 -0.002220 
#    z -0.006690 -0.002220 1.699620 
# 
# From -- ./inp_files/349070.got.cif
#   From: 2010.06.25/outbox.cif.g09.slc.cpg/sg2_175_cif.got.tgz:349070.got - 2010.06.27 13:26:56.
