data_PCOD8037897
_publ_section_title
;
Structure prediction by ZEFSAII (Michael W. Deem and Ramdas Pophale) SiO2 
 PCOD8037897
Probable space group: P -1
;
_chemical_formula_sum "Si O2"
_cell_formula_units_Z 16
_cell_length_a 9.703905
_cell_length_b 16.951080
_cell_length_c 11.667513
_cell_angle_alpha 45.112781
_cell_angle_beta 138.108367
_cell_angle_gamma 102.640618
_cell_volume 691.608278
_symmetry_space_group_name_H-M "P -1"
_symmetry_group_IT_number 2
_symmetry_cell_setting 'triclinic'
loop_
_space_group_symop_operation_xyz
x,y,z
-x,-y,-z
loop_
_atom_site_type_symbol
_atom_site_label
_atom_site_fract_x
_atom_site_fract_y
_atom_site_fract_z
Si Si1 0.607365 0.239439 0.176202
Si Si2 0.422484 0.337335 0.195582
Si Si3 0.185440 0.733336 0.204193
Si Si4 0.871047 0.752387 0.780115
Si Si5 0.191246 0.980318 0.888689
Si Si6 0.284882 0.966353 0.713879
Si Si7 0.016068 0.121697 0.851725
Si Si8 0.290664 0.553896 0.063851
O O1 0.375078 0.341280 0.024698
O O2 0.504882 0.186634 0.069614
O O3 0.869053 0.092552 0.549669
O O4 0.686219 0.324857 0.074805
O O5 0.365652 0.241930 0.323195
O O6 0.731169 0.264920 0.479443
O O7 0.241612 0.499539 0.972686
O O8 0.946132 0.821286 0.065109
O O9 0.446804 0.577719 0.570508
O O10 0.082336 0.704411 0.060364
O O11 0.280559 0.824809 0.137315
O O12 0.727972 0.912354 0.482033
O O13 0.026161 0.632687 0.898339
O O14 0.235875 0.050717 0.954351
O O15 0.362215 0.957334 0.905504
O O16 0.000000 0.000000 0.500000
O O17 0.000000 0.000000 0.000000
#
# Coordination Sequence:
#
# PCOD8037897 Si02
#       8
#     2   2   2   2   2   2   2   2
#     4  10  18  36  58  84 110 151 197 232 272 349
#     4  10  23  35  56  90 118 147 191 240 291 328
#     4  10  19  33  57  87 112 152 194 228 285 343
#     4  12  21  36  57  92 117 146 187 251 285 329
#     4   9  15  33  57  82 107 144 198 231 260 337
#     4  10  17  32  57  85 111 145 196 233 273 331
#     4   8  17  34  55  80 113 149 186 228 271 348
#     4  11  21  37  59  83 114 157 195 229 278 352
#
# _framework density 23.134484
#
# number of rings (size 3 to 8) (size 9 to 14) (size 15 to 20)
#    0.000    2.000    5.000    1.125    0.000    0.500 
#    0.000    0.625    0.000    6.750    3.250    0.000 
#    0.000    0.000    0.000    0.000    0.000    0.000 
#
# Total GULP energy -198228.284677 kJ/mol
# GULP energy per Si atom -12389.267792 kJ/mol
# Density = 2.308183 g / cm^3
# Si number density = 23.134484 Si / 1000 Ang^3
#
#
#
# Elastic Constant Matrix: (Units=GPa)
#
#
# Indices 1 2 3 4 5 6 
#
# 1 121.0243 45.7031 14.8593 -7.7160 -8.5128 -43.4557
# 2 45.7031 102.1441 17.7044 -24.0221 0.4412 -48.1868
# 3 14.8593 17.7044 43.3031 -8.4512 -8.3652 -3.4736
# 4 -7.7160 -24.0221 -8.4512 24.0478 -2.2758 -0.4867
# 5 -8.5128 0.4412 -8.3652 -2.2758 21.0405 -4.3881
# 6 -43.4557 -48.1868 -3.4736 -0.4867 -4.3881 49.6154
#
#
#
# Elastic Compliance Matrix: (Units=1/GPa)
#
#
# Indices 1 2 3 4 5 6 
#
# 1 0.014563 0.004631 -0.001525 0.010082 0.010062 0.018135
# 2 0.004631 0.036813 -0.003273 0.039133 0.012600 0.041078
# 3 -0.001525 -0.003273 0.028425 0.007264 0.011234 -0.001460
# 4 0.010082 0.039133 0.007264 0.089987 0.026426 0.050565
# 5 0.010062 0.012600 0.011234 0.026426 0.064456 0.027796
# 6 0.018135 0.041078 -0.001460 0.050565 0.027796 0.078786
#
#
# Mechanical properties :
#
#
# Convention : Reuss Voigt Hill
#
# Bulk Modulus (GPa) = 12.58377 47.00056 29.79216
# Shear Modulus (GPa) = 14.71219 31.48771 23.09995
#
# Velocity S-wave (km/s) = 2.52453 3.69327 3.16334
# Velocity P-wave (km/s) = 3.73482 6.20865 5.12329
#
# Compressibility (1/GPa) = 0.07946744
#
# Stress axis : x y z
#
# Youngs Moduli (GPa) = 68.66540 27.16437 35.17988
#
# Poissons Ratio (x) = -0.12580 0.05364
# Poissons Ratio (y) = -0.31799 0.11516
# Poissons Ratio (z) = 0.10469 0.08892
#
# Static dielectric constant tensor:
#      x y z
#    x 4.708990 -1.073180 -0.137210 
#    y -1.073180 4.923580 -0.262880 
#    z -0.137210 -0.262880 3.828330 
# 
# 
# High freq. dielectric constant tensor:
#      x y z
#    x 1.919580 -0.042350 -0.019040 
#    y -0.042350 1.919330 -0.025220 
#    z -0.019040 -0.025220 1.879880 
# 
# From -- ./inp_files/260001.got.cif
#   From: 2010.06.25/outbox.cif.g09.slc.cpg/sg2_131_cif.got.tgz:260001.got - 2010.06.27 13:26:56.
