data_PCOD8037297
_publ_section_title
;
Structure prediction by ZEFSAII (Michael W. Deem and Ramdas Pophale) SiO2 
 PCOD8037297
Probable space group: P -1
;
_chemical_formula_sum "Si O2"
_cell_formula_units_Z 16
_cell_length_a 9.536280
_cell_length_b 18.031621
_cell_length_c 13.702122
_cell_angle_alpha 153.935942
_cell_angle_beta 44.752738
_cell_angle_gamma 137.622002
_cell_volume 689.087351
_symmetry_space_group_name_H-M "P -1"
_symmetry_group_IT_number 2
_symmetry_cell_setting 'triclinic'
loop_
_space_group_symop_operation_xyz
x,y,z
-x,-y,-z
loop_
_atom_site_type_symbol
_atom_site_label
_atom_site_fract_x
_atom_site_fract_y
_atom_site_fract_z
Si Si1 0.508852 0.667145 0.126935
Si Si2 0.144603 0.138557 0.950159
Si Si3 0.150846 0.105965 0.339680
Si Si4 0.042291 0.395716 0.445199
Si Si5 0.138997 0.686460 0.193477
Si Si6 0.684849 0.089213 0.819789
Si Si7 0.639865 0.135196 0.414567
Si Si8 0.572135 0.348281 0.330575
O O1 0.725853 0.709787 0.010265
O O2 0.314166 0.641297 0.118761
O O3 0.520247 0.830026 0.386349
O O4 0.500000 0.500000 0.000000
O O5 0.295012 0.026608 0.768283
O O6 0.103062 0.226127 0.175164
O O7 0.928149 0.018350 0.863772
O O8 0.392223 0.227194 0.347507
O O9 0.002037 0.227386 0.569144
O O10 0.148659 0.983787 0.291465
O O11 0.216979 0.547254 0.594512
O O12 0.000000 0.500000 0.500000
O O13 0.838120 0.315727 0.519211
O O14 0.228189 0.820398 0.218907
O O15 0.000000 0.500000 0.000000
O O16 0.478673 0.920548 0.696157
O O17 0.620839 0.227918 0.081261
O O18 0.500000 0.500000 0.500000
#
# Coordination Sequence:
#
# PCOD8037297 Si02
#       8
#     2   2   2   2   2   2   2   2
#     4  12  28  47  74 104 140 184 236 291 348 421
#     4  12  24  47  72 101 139 183 235 288 348 414
#     4  12  26  46  73 105 144 185 234 288 350 417
#     4  12  26  44  72 104 138 181 237 288 349 414
#     4  12  28  46  72 106 144 182 233 289 358 415
#     4  12  26  46  73 105 144 185 234 288 350 417
#     4  12  24  47  72 101 139 183 235 288 348 414
#     4  12  26  46  70 104 146 185 234 289 346 415
#
# _framework density 23.219117000000001
#
# number of rings (size 3 to 8) (size 9 to 14) (size 15 to 20)
#    0.000    0.000    2.500    7.500    7.000    0.000 
#    0.000    0.000    0.000    0.000    0.000    0.000 
#    0.000    0.000    0.000    0.000    0.000    0.000 
#
# Total GULP energy -198450.577444 kJ/mol
# GULP energy per Si atom -12403.161090 kJ/mol
# Density = 2.316627 g / cm^3
# Si number density = 23.219117 Si / 1000 Ang^3
#
#
#
# Elastic Constant Matrix: (Units=GPa)
#
#
# Indices 1 2 3 4 5 6 
#
# 1 115.1381 3.6811 24.5826 11.6237 19.8995 5.4053
# 2 3.6811 75.6929 5.8436 0.4097 13.2056 15.0595
# 3 24.5826 5.8436 104.7145 1.9774 21.4803 14.5773
# 4 11.6237 0.4097 1.9774 30.7899 -3.6216 -0.6380
# 5 19.8995 13.2056 21.4803 -3.6216 44.1117 15.0023
# 6 5.4053 15.0595 14.5773 -0.6380 15.0023 48.3772
#
#
#
# Elastic Compliance Matrix: (Units=1/GPa)
#
#
# Indices 1 2 3 4 5 6 
#
# 1 0.010174 0.000319 -0.001479 -0.004268 -0.004502 0.000549
# 2 0.000319 0.014496 0.000349 -0.000822 -0.003504 -0.003577
# 3 -0.001479 0.000349 0.011025 -0.000688 -0.004191 -0.001975
# 4 -0.004268 -0.000822 -0.000688 0.034781 0.005463 -0.000295
# 5 -0.004502 -0.003504 -0.004191 0.005463 0.030455 -0.006516
# 6 0.000549 -0.003577 -0.001975 -0.000295 -0.006516 0.024335
#
#
# Mechanical properties :
#
#
# Convention : Reuss Voigt Hill
#
# Bulk Modulus (GPa) = 29.34901 40.41781 34.88341
# Shear Modulus (GPa) = 36.16724 42.08497 39.12610
#
# Velocity S-wave (km/s) = 3.95099 4.26198 4.10943
# Velocity P-wave (km/s) = 5.78629 6.45478 6.12966
#
# Compressibility (1/GPa) = 0.03407270
#
# Stress axis : x y z
#
# Youngs Moduli (GPa) = 98.29009 68.98266 90.70278
#
# Poissons Ratio (x) = -0.02198 0.13411
# Poissons Ratio (y) = -0.03132 -0.03161
# Poissons Ratio (z) = 0.14532 -0.02404
#
# Static dielectric constant tensor:
#      x y z
#    x 4.240730 0.212160 -0.248900 
#    y 0.212160 4.314380 0.727420 
#    z -0.248900 0.727420 3.474980 
# 
# 
# High freq. dielectric constant tensor:
#      x y z
#    x 1.933740 -0.003300 0.003410 
#    y -0.003300 1.928400 0.005800 
#    z 0.003410 0.005800 1.931770 
# 
# From -- ./inp_files/403493.got.cif
#   From: 2010.06.25/outbox.cif.g09.slc.cpg/sg2_202_cif.got.tgz:403493.got - 2010.06.27 13:26:56.
