data_PCOD8037916
_publ_section_title
;
Structure prediction by ZEFSAII (Michael W. Deem and Ramdas Pophale) SiO2 
 PCOD8037916
Probable space group: P -1
;
_chemical_formula_sum "Si O2"
_cell_formula_units_Z 16
_cell_length_a 12.527867
_cell_length_b 11.680487
_cell_length_c 8.867062
_cell_angle_alpha 79.933877
_cell_angle_beta 50.543618
_cell_angle_gamma 61.577715
_cell_volume 865.359999
_symmetry_space_group_name_H-M "P -1"
_symmetry_group_IT_number 2
_symmetry_cell_setting 'triclinic'
loop_
_space_group_symop_operation_xyz
x,y,z
-x,-y,-z
loop_
_atom_site_type_symbol
_atom_site_label
_atom_site_fract_x
_atom_site_fract_y
_atom_site_fract_z
Si Si1 0.654535 0.228005 0.212843
Si Si2 0.129666 0.906089 0.233562
Si Si3 0.926665 0.405482 0.568455
Si Si4 0.200926 0.630272 0.767089
Si Si5 0.953297 0.689560 0.206313
Si Si6 0.701409 0.588550 0.505641
Si Si7 0.878471 0.977680 0.216290
Si Si8 0.974715 0.186655 0.381161
O O1 0.692152 0.340637 0.218405
O O2 0.469051 0.288666 0.341190
O O3 0.708752 0.105825 0.310884
O O4 0.736944 0.177521 0.988072
O O5 0.148756 0.819956 0.385218
O O6 0.948358 0.958369 0.326485
O O7 0.128825 0.043916 0.247290
O O8 0.752826 0.494668 0.630637
O O9 0.027185 0.289355 0.382631
O O10 0.000000 0.500000 0.500000
O O11 0.933369 0.340760 0.740318
O O12 0.303898 0.495037 0.614495
O O13 0.118075 0.757530 0.703717
O O14 0.067612 0.612869 0.982473
O O15 0.823443 0.643245 0.353417
O O16 0.868576 0.846270 0.210109
O O17 0.000000 0.000000 0.000000
#
# Coordination Sequence:
#
# PCOD8037916 Si02
#       8
#     2   2   2   2   2   2   2   2
#     4  11  20  37  54  84 118 144 177 230 290 320
#     4  10  18  32  57  81 108 142 185 236 263 322
#     4   9  19  36  56  77 110 147 180 220 266 334
#     4  11  19  35  57  82 111 147 186 229 264 334
#     4  11  19  38  61  80 106 150 191 224 275 323
#     4  10  24  35  54  85 116 147 182 226 276 335
#     4  10  17  32  59  79 101 144 181 228 267 327
#     4  10  18  31  56  89  98 134 201 229 258 312
#
# _framework density 18.489415000000001
#
# number of rings (size 3 to 8) (size 9 to 14) (size 15 to 20)
#    0.000    1.750    5.000    1.500    0.000    0.500 
#    0.000    6.875    0.000    3.000    0.000    0.000 
#    0.000    0.000    0.000    0.000    0.000    0.000 
#
# Total GULP energy -198260.870332 kJ/mol
# GULP energy per Si atom -12391.304396 kJ/mol
# Density = 1.844733 g / cm^3
# Si number density = 18.489415 Si / 1000 Ang^3
#
#
#
# Elastic Constant Matrix: (Units=GPa)
#
#
# Indices 1 2 3 4 5 6 
#
# 1 72.3375 40.3818 46.6811 10.1274 5.7398 -4.6438
# 2 40.3818 104.2951 40.7331 9.7646 -1.5913 1.9554
# 3 46.6811 40.7331 97.2081 8.6274 7.3312 -14.1214
# 4 10.1274 9.7646 8.6274 31.9570 -0.0226 3.9012
# 5 5.7398 -1.5913 7.3312 -0.0226 24.3716 3.1874
# 6 -4.6438 1.9554 -14.1214 3.9012 3.1874 34.6150
#
#
#
# Elastic Compliance Matrix: (Units=1/GPa)
#
#
# Indices 1 2 3 4 5 6 
#
# 1 0.022851 -0.005466 -0.007991 -0.003518 -0.003446 0.000828
# 2 -0.005466 0.013321 -0.003609 -0.000972 0.003658 -0.003186
# 3 -0.007991 -0.003609 0.017103 -0.001805 -0.004379 0.006716
# 4 -0.003518 -0.000972 -0.001805 0.033821 0.002013 -0.005150
# 5 -0.003446 0.003658 -0.004379 0.002013 0.044285 -0.006760
# 6 0.000828 -0.003186 0.006716 -0.005150 -0.006760 0.033123
#
#
# Mechanical properties :
#
#
# Convention : Reuss Voigt Hill
#
# Bulk Modulus (GPa) = 52.23829 58.82588 55.53208
# Shear Modulus (GPa) = 24.38828 27.92504 26.15666
#
# Velocity S-wave (km/s) = 3.63580 3.89051 3.76531
# Velocity P-wave (km/s) = 6.77789 7.21571 7.00022
#
# Compressibility (1/GPa) = 0.01914305
#
# Stress axis : x y z
#
# Youngs Moduli (GPa) = 43.76186 75.07146 58.46920
#
# Poissons Ratio (x) = 0.41031 0.46721
# Poissons Ratio (y) = 0.23918 0.21104
# Poissons Ratio (z) = 0.34969 0.27097
#
# Static dielectric constant tensor:
#      x y z
#    x 3.554800 -0.215230 0.486060 
#    y -0.215230 3.984330 -0.179510 
#    z 0.486060 -0.179510 3.263040 
# 
# 
# High freq. dielectric constant tensor:
#      x y z
#    x 1.701390 0.010420 0.040580 
#    y 0.010420 1.739690 -0.006450 
#    z 0.040580 -0.006450 1.686490 
# 
# From -- ./inp_files/243622.got.cif
#   From: 2010.06.25/outbox.cif.g09.slc.cpg/sg2_122_cif.got.tgz:243622.got - 2010.06.27 13:26:56.
