data_PCOD8037601
_publ_section_title
;
Structure prediction by ZEFSAII (Michael W. Deem and Ramdas Pophale) SiO2 
 PCOD8037601
Probable space group: P -1
;
_chemical_formula_sum "Si O2"
_cell_formula_units_Z 16
_cell_length_a 13.639298
_cell_length_b 9.629247
_cell_length_c 13.823373
_cell_angle_alpha 129.892252
_cell_angle_beta 42.026946
_cell_angle_gamma 98.144816
_cell_volume 707.346582
_symmetry_space_group_name_H-M "P -1"
_symmetry_group_IT_number 2
_symmetry_cell_setting 'triclinic'
loop_
_space_group_symop_operation_xyz
x,y,z
-x,-y,-z
loop_
_atom_site_type_symbol
_atom_site_label
_atom_site_fract_x
_atom_site_fract_y
_atom_site_fract_z
Si Si1 0.866671 0.710176 0.957709
Si Si2 0.164759 0.177328 0.569433
Si Si3 0.472493 0.916331 0.382824
Si Si4 0.867949 0.748958 0.760063
Si Si5 0.525597 0.481298 0.733434
Si Si6 0.104666 0.878880 0.154989
Si Si7 0.507341 0.123816 0.958301
Si Si8 0.879820 0.050260 0.202125
O O1 0.938150 0.735854 0.812756
O O2 0.032483 0.454480 0.767479
O O3 0.672110 0.752539 0.103446
O O4 0.798488 0.916341 0.177305
O O5 0.033353 0.104735 0.656595
O O6 0.297980 0.134224 0.542378
O O7 0.291650 0.032904 0.316743
O O8 0.419898 0.748077 0.355377
O O9 0.500000 0.000000 0.500000
O O10 0.000000 0.500000 0.500000
O O11 0.875231 0.919022 0.760601
O O12 0.659083 0.826777 0.964006
O O13 0.710857 0.339769 0.462682
O O14 0.322765 0.627042 0.891431
O O15 0.535956 0.636228 0.870637
O O16 0.021221 0.906769 0.124076
O O17 0.500000 0.000000 0.000000
O O18 0.000000 0.000000 0.000000
#
# Coordination Sequence:
#
# PCOD8037601 Si02
#       8
#     2   2   2   2   2   2   2   2
#     4  12  26  46  76 109 145 199 244 312 371 442
#     4  12  28  47  78 112 150 196 253 304 379 446
#     4  12  25  48  73 111 149 193 248 310 375 440
#     4  12  26  48  75 105 153 193 251 304 373 445
#     4  12  27  47  75 106 156 189 251 311 373 440
#     4  12  26  48  75 111 145 200 243 315 375 439
#     4  12  27  49  74 111 151 200 249 306 369 452
#     4  12  27  46  74 110 148 193 258 307 375 441
#
# _framework density 22.619748999999999
#
# number of rings (size 3 to 8) (size 9 to 14) (size 15 to 20)
#    0.000    0.000    7.500    1.500    3.500    3.500 
#    0.000    0.000    0.000    0.000    0.000    0.000 
#    0.000    0.000    0.000    0.000    0.000    0.000 
#
# Total GULP energy -198299.829286 kJ/mol
# GULP energy per Si atom -12393.739330 kJ/mol
# Density = 2.256827 g / cm^3
# Si number density = 22.619749 Si / 1000 Ang^3
#
#
#
# Elastic Constant Matrix: (Units=GPa)
#
#
# Indices 1 2 3 4 5 6 
#
# 1 114.6455 38.5544 59.8766 1.9188 -5.0027 -3.1260
# 2 38.5544 118.5102 51.9868 -4.0730 -2.0458 -2.6171
# 3 59.8766 51.9868 154.6109 -2.0743 -12.1081 -3.7069
# 4 1.9188 -4.0730 -2.0743 45.3153 3.3046 -0.7383
# 5 -5.0027 -2.0458 -12.1081 3.3046 47.8417 8.6446
# 6 -3.1260 -2.6171 -3.7069 -0.7383 8.6446 39.4187
#
#
#
# Elastic Compliance Matrix: (Units=1/GPa)
#
#
# Indices 1 2 3 4 5 6 
#
# 1 0.011390 -0.002103 -0.003694 -0.000846 0.000159 0.000366
# 2 -0.002103 0.010331 -0.002683 0.000945 -0.000598 0.000416
# 3 -0.003694 -0.002683 0.008940 0.000197 0.001750 -0.000010
# 4 -0.000846 0.000945 0.000197 0.022333 -0.001686 0.000802
# 5 0.000159 -0.000598 0.001750 -0.001686 0.022318 -0.004788
# 6 0.000366 0.000416 -0.000010 0.000802 -0.004788 0.026489
#
#
# Mechanical properties :
#
#
# Convention : Reuss Voigt Hill
#
# Bulk Modulus (GPa) = 72.99355 76.51133 74.75244
# Shear Modulus (GPa) = 40.54173 42.33838 41.44005
#
# Velocity S-wave (km/s) = 4.23817 4.33106 4.28487
# Velocity P-wave (km/s) = 7.50262 7.67523 7.58942
#
# Compressibility (1/GPa) = 0.01369984
#
# Stress axis : x y z
#
# Youngs Moduli (GPa) = 87.79439 96.79830 111.85540
#
# Poissons Ratio (x) = 0.20360 0.41320
# Poissons Ratio (y) = 0.18466 0.30013
# Poissons Ratio (z) = 0.32432 0.25973
#
# Static dielectric constant tensor:
#      x y z
#    x 3.761930 0.420300 0.315350 
#    y 0.420300 4.730100 -0.108910 
#    z 0.315350 -0.108910 3.417710 
# 
# 
# High freq. dielectric constant tensor:
#      x y z
#    x 1.899580 0.008010 -0.013680 
#    y 0.008010 1.905830 -0.013430 
#    z -0.013680 -0.013430 1.902520 
# 
# From -- ./inp_files/530123.got.cif
#   From: 2010.06.25/outbox.cif.g09.slc.cpg/sg2_266_cif.got.tgz:530123.got - 2010.06.27 13:26:56.
