data_PCOD8037987
_publ_section_title
;
Structure prediction by ZEFSAII (Michael W. Deem and Ramdas Pophale) SiO2 
 PCOD8037987
Probable space group: P -1
;
_chemical_formula_sum "Si O2"
_cell_formula_units_Z 14
_cell_length_a 27.863956
_cell_length_b 13.924039
_cell_length_c 6.393446
_cell_angle_alpha 103.557888
_cell_angle_beta 120.568799
_cell_angle_gamma 25.285375
_cell_volume 720.790508
_symmetry_space_group_name_H-M "P -1"
_symmetry_group_IT_number 2
_symmetry_cell_setting 'triclinic'
loop_
_space_group_symop_operation_xyz
x,y,z
-x,-y,-z
loop_
_atom_site_type_symbol
_atom_site_label
_atom_site_fract_x
_atom_site_fract_y
_atom_site_fract_z
Si Si1 0.719697 0.963907 0.222860
Si Si2 0.525654 0.594233 0.761664
Si Si3 0.543930 0.788933 0.886639
Si Si4 0.080959 0.498942 0.261382
Si Si5 0.707939 0.812080 0.811183
Si Si6 0.273949 0.328132 0.830185
Si Si7 0.263100 0.941977 0.072099
O O1 0.844986 0.712621 0.541960
O O2 0.569780 0.262852 0.161103
O O3 0.655047 0.984570 0.942405
O O4 0.792928 0.926883 0.214716
O O5 0.595308 0.589407 0.906618
O O6 0.402951 0.779666 0.391630
O O7 0.675233 0.272415 0.919131
O O8 0.439801 0.980679 0.546313
O O9 0.434976 0.999632 0.951808
O O10 0.701716 0.595996 0.124879
O O11 0.148949 0.382275 0.116509
O O12 0.124012 0.534732 0.471819
O O13 0.889936 0.802829 0.982787
O O14 0.761871 0.629339 0.980979
#
# Coordination Sequence:
#
# PCOD8037987 Si02
#       7
#     2   2   2   2   2   2   2
#     4  11  19  37  57  81 106 143 190 222 268 314
#     4  11  22  38  55  82 108 146 185 219 270 327
#     4  10  17  35  55  83 107 138 182 226 268 320
#     4  10  21  36  54  84 111 141 182 223 272 321
#     4  10  17  33  56  83 110 134 179 229 273 311
#     4   9  19  32  58  82 108 135 181 229 273 311
#     4  11  24  37  54  77 117 149 177 223 267 324
#
# _framework density 19.423120000000001
#
# number of rings (size 3 to 8) (size 9 to 14) (size 15 to 20)
#    0.000    1.714    5.714    1.286    0.000    4.571 
#    0.000    0.714    0.000    0.857    0.000    0.000 
#    0.000    0.000    0.000    0.000    0.000    0.000 
#
# Total GULP energy -173535.440353 kJ/mol
# GULP energy per Si atom -12395.388597 kJ/mol
# Density = 1.937891 g / cm^3
# Si number density = 19.423120 Si / 1000 Ang^3
#
#
#
# Elastic Constant Matrix: (Units=GPa)
#
#
# Indices 1 2 3 4 5 6 
#
# 1 121.7765 29.9828 35.5929 5.0399 -3.0550 7.3817
# 2 29.9828 67.1060 30.6909 7.7190 -12.3835 1.2174
# 3 35.5929 30.6909 40.7858 2.0258 -3.1076 -1.9634
# 4 5.0399 7.7190 2.0258 24.1213 -6.0002 -0.7927
# 5 -3.0550 -12.3835 -3.1076 -6.0002 26.1853 13.2302
# 6 7.3817 1.2174 -1.9634 -0.7927 13.2302 29.1687
#
#
#
# Elastic Compliance Matrix: (Units=1/GPa)
#
#
# Indices 1 2 3 4 5 6 
#
# 1 0.011540 0.000140 -0.010168 -0.001183 0.002303 -0.004688
# 2 0.000140 0.027027 -0.019627 -0.003807 0.014146 -0.009004
# 3 -0.010168 -0.019627 0.047829 0.002290 -0.009910 0.011169
# 4 -0.001183 -0.003807 0.002290 0.045141 0.010051 -0.002720
# 5 0.002303 0.014146 -0.009910 0.010051 0.061060 -0.029263
# 6 -0.004688 -0.009004 0.011169 -0.002720 -0.029263 0.049796
#
#
# Mechanical properties :
#
#
# Convention : Reuss Voigt Hill
#
# Bulk Modulus (GPa) = 36.91643 46.91129 41.91386
# Shear Modulus (GPa) = 16.09112 24.78849 20.43981
#
# Velocity S-wave (km/s) = 2.88141 3.57632 3.24750
# Velocity P-wave (km/s) = 5.48796 6.42325 5.97394
#
# Compressibility (1/GPa) = 0.02708821
#
# Stress axis : x y z
#
# Youngs Moduli (GPa) = 86.65577 37.00012 20.90784
#
# Poissons Ratio (x) = -0.00519 0.21258
# Poissons Ratio (y) = -0.01216 0.41035
# Poissons Ratio (z) = 0.88108 0.72618
#
# Static dielectric constant tensor:
#      x y z
#    x 3.852650 -0.122680 -0.095400 
#    y -0.122680 3.360210 0.353950 
#    z -0.095400 0.353950 3.428490 
# 
# 
# High freq. dielectric constant tensor:
#      x y z
#    x 1.765820 -0.008860 -0.001510 
#    y -0.008860 1.727490 0.035140 
#    z -0.001510 0.035140 1.739870 
# 
# From -- ./inp_files/51679.got.cif
#   From: 2010.06.25/outbox.cif.g09.slc.cpg/sg2_26_cif.got.tgz:51679.got - 2010.06.27 13:26:56.
