data_PCOD8037491
_publ_section_title
;
Structure prediction by ZEFSAII (Michael W. Deem and Ramdas Pophale) SiO2 
 PCOD8037491
Probable space group: P -1
;
_chemical_formula_sum "Si O2"
_cell_formula_units_Z 16
_cell_length_a 12.209453
_cell_length_b 16.729230
_cell_length_c 9.218715
_cell_angle_alpha 59.422920
_cell_angle_beta 52.180156
_cell_angle_gamma 27.230608
_cell_volume 677.126324
_symmetry_space_group_name_H-M "P -1"
_symmetry_group_IT_number 2
_symmetry_cell_setting 'triclinic'
loop_
_space_group_symop_operation_xyz
x,y,z
-x,-y,-z
loop_
_atom_site_type_symbol
_atom_site_label
_atom_site_fract_x
_atom_site_fract_y
_atom_site_fract_z
Si Si1 0.016204 0.654663 0.044947
Si Si2 0.259972 0.369331 0.617846
Si Si3 0.098360 0.285882 0.248138
Si Si4 0.722454 0.149225 0.664264
Si Si5 0.573900 0.373130 0.963755
Si Si6 0.323679 0.978248 0.938468
Si Si7 0.926019 0.193988 0.598956
Si Si8 0.645944 0.149411 0.261745
O O1 0.004275 0.637943 0.899913
O O2 0.322121 0.470491 0.002680
O O3 0.855358 0.667959 0.247772
O O4 0.908546 0.815864 0.034570
O O5 0.037653 0.570701 0.654600
O O6 0.493978 0.248510 0.652914
O O7 0.361594 0.322991 0.412074
O O8 0.045486 0.208857 0.396636
O O9 0.407794 0.123737 0.144949
O O10 0.691845 0.272345 0.632082
O O11 0.730822 0.077187 0.862373
O O12 0.000000 0.000000 0.500000
O O13 0.781188 0.309122 0.753972
O O14 0.500000 0.500000 0.000000
O O15 0.725184 0.205127 0.082161
O O16 0.346414 0.932639 0.794911
O O17 0.157976 0.990692 0.639794
#
# Coordination Sequence:
#
# PCOD8037491 Si02
#       8
#     2   2   2   2   2   2   2   2
#     4  12  27  48  77 107 148 200 255 311 368 443
#     4  12  27  47  76 110 153 196 251 308 377 439
#     4  12  27  48  78 111 150 195 254 313 370 442
#     4  12  25  45  76 109 144 194 248 307 365 438
#     4  12  27  45  72 109 151 196 245 303 377 443
#     4  12  27  47  78 106 150 200 248 303 376 446
#     4  12  26  45  74 109 150 194 248 306 372 441
#     4  12  27  48  73 109 154 197 246 305 375 448
#
# _framework density 23.629269000000001
#
# number of rings (size 3 to 8) (size 9 to 14) (size 15 to 20)
#    0.000    0.000    3.750    5.625    1.750    9.000 
#    0.000    0.000    0.000    0.000    0.000    0.000 
#    0.000    0.000    0.000    0.000    0.000    0.000 
#
# Total GULP energy -198386.064658 kJ/mol
# GULP energy per Si atom -12399.129041 kJ/mol
# Density = 2.357549 g / cm^3
# Si number density = 23.629269 Si / 1000 Ang^3
#
#
#
# Elastic Constant Matrix: (Units=GPa)
#
#
# Indices 1 2 3 4 5 6 
#
# 1 83.5446 6.0677 25.6573 -8.0951 -9.6498 15.5686
# 2 6.0677 68.4004 0.4868 7.8415 -0.0281 6.5277
# 3 25.6573 0.4868 106.8473 15.7319 -6.6792 3.6467
# 4 -8.0951 7.8415 15.7319 35.5092 6.7751 4.3157
# 5 -9.6498 -0.0281 -6.6792 6.7751 48.7528 9.2784
# 6 15.5686 6.5277 3.6467 4.3157 9.2784 45.5149
#
#
#
# Elastic Compliance Matrix: (Units=1/GPa)
#
#
# Indices 1 2 3 4 5 6 
#
# 1 0.015320 -0.001442 -0.004160 0.005835 0.002757 -0.005815
# 2 -0.001442 0.015359 0.000978 -0.004104 0.000722 -0.001546
# 3 -0.004160 0.000978 0.011395 -0.006587 0.001524 0.000684
# 4 0.005835 -0.004104 -0.006587 0.034468 -0.003902 -0.003352
# 5 0.002757 0.000722 0.001524 -0.003902 0.022847 -0.005456
# 6 -0.005815 -0.001546 0.000684 -0.003352 -0.005456 0.025557
#
#
# Mechanical properties :
#
#
# Convention : Reuss Voigt Hill
#
# Bulk Modulus (GPa) = 30.46367 35.91287 33.18827
# Shear Modulus (GPa) = 34.45023 41.06077 37.75550
#
# Velocity S-wave (km/s) = 3.82245 4.17310 4.00162
# Velocity P-wave (km/s) = 5.69226 6.20090 5.95202
#
# Compressibility (1/GPa) = 0.03282599
#
# Stress axis : x y z
#
# Youngs Moduli (GPa) = 65.27574 65.10811 87.75423
#
# Poissons Ratio (x) = 0.09390 0.36509
# Poissons Ratio (y) = 0.09414 -0.08587
# Poissons Ratio (z) = 0.27157 -0.06371
#
# Static dielectric constant tensor:
#      x y z
#    x 4.790530 0.001880 -0.843880 
#    y 0.001880 3.896590 0.759420 
#    z -0.843880 0.759420 4.565530 
# 
# 
# High freq. dielectric constant tensor:
#      x y z
#    x 1.952130 0.004790 0.002660 
#    y 0.004790 1.936520 0.017960 
#    z 0.002660 0.017960 1.955250 
# 
# From -- ./inp_files/279189.got.cif
#   From: 2010.06.25/outbox.cif.g09.slc.cpg/sg2_140_cif.got.tgz:279189.got - 2010.06.27 13:26:56.
