data_PCOD8037661
_publ_section_title
;
Structure prediction by ZEFSAII (Michael W. Deem and Ramdas Pophale) SiO2 
 PCOD8037661
Probable space group: P -1
;
_chemical_formula_sum "Si O2"
_cell_formula_units_Z 14
_cell_length_a 8.086062
_cell_length_b 15.549174
_cell_length_c 21.089801
_cell_angle_alpha 156.282042
_cell_angle_beta 145.778952
_cell_angle_gamma 32.840284
_cell_volume 557.840488
_symmetry_space_group_name_H-M "P -1"
_symmetry_group_IT_number 2
_symmetry_cell_setting 'triclinic'
loop_
_space_group_symop_operation_xyz
x,y,z
-x,-y,-z
loop_
_atom_site_type_symbol
_atom_site_label
_atom_site_fract_x
_atom_site_fract_y
_atom_site_fract_z
Si Si1 0.681916 0.912811 0.116932
Si Si2 0.150946 0.674146 0.996311
Si Si3 0.198317 0.133293 0.306647
Si Si4 0.773777 0.610392 0.723388
Si Si5 0.204923 0.875219 0.580758
Si Si6 0.764490 0.362961 0.218317
Si Si7 0.479632 0.878333 0.476630
O O1 0.962937 0.741018 0.047900
O O2 0.541775 0.167072 0.211631
O O3 0.810626 0.939140 0.244630
O O4 0.403186 0.814733 0.969664
O O5 0.164937 0.897008 0.115128
O O6 0.500000 0.500000 0.000000
O O7 0.983291 0.552352 0.814278
O O8 0.529081 0.147009 0.400621
O O9 0.225039 0.132019 0.391194
O O10 0.903255 0.334244 0.315574
O O11 0.712925 0.377070 0.531583
O O12 0.938514 0.682828 0.764986
O O13 0.864938 0.972924 0.503788
O O14 0.509435 0.617232 0.298520
O O15 0.500000 0.000000 0.500000
#
# Coordination Sequence:
#
# PCOD8037661 Si02
#       7
#     2   2   2   2   2   2   2
#     4  12  27  49  77 116 155 209 259 314 398 460
#     4  12  29  48  77 115 159 203 261 327 389 460
#     4  12  27  50  76 112 157 203 267 312 386 469
#     4  12  25  50  75 115 161 204 260 321 383 466
#     4  12  27  47  81 112 158 205 262 320 388 455
#     4  12  27  49  80 112 158 206 263 315 383 469
#     4  12  27  49  76 118 158 204 254 327 392 456
#
# _framework density 25.096779000000002
#
# number of rings (size 3 to 8) (size 9 to 14) (size 15 to 20)
#    0.000    0.000    4.286    4.714    6.000    0.571 
#    0.000    0.000    0.000    0.000    0.000    0.000 
#    0.000    0.000    0.000    0.000    0.000    0.000 
#
# Total GULP energy -173649.039140 kJ/mol
# GULP energy per Si atom -12403.502796 kJ/mol
# Density = 2.503966 g / cm^3
# Si number density = 25.096779 Si / 1000 Ang^3
#
#
#
# Elastic Constant Matrix: (Units=GPa)
#
#
# Indices 1 2 3 4 5 6 
#
# 1 94.9752 27.5380 33.6414 3.1828 1.4466 5.1345
# 2 27.5380 118.6643 16.0302 14.1244 -3.1142 13.8445
# 3 33.6414 16.0302 106.0778 2.7607 5.2657 13.7484
# 4 3.1828 14.1244 2.7607 40.0120 7.4722 -4.5875
# 5 1.4466 -3.1142 5.2657 7.4722 42.3059 -6.8428
# 6 5.1345 13.8445 13.7484 -4.5875 -6.8428 43.1570
#
#
#
# Elastic Compliance Matrix: (Units=1/GPa)
#
#
# Indices 1 2 3 4 5 6 
#
# 1 0.012516 -0.002495 -0.003654 0.000214 -0.000117 0.000480
# 2 -0.002495 0.009875 -0.000260 -0.003809 0.001027 -0.003030
# 3 -0.003654 -0.000260 0.011159 -0.000446 -0.001748 -0.003361
# 4 0.000214 -0.003809 -0.000446 0.027605 -0.004533 0.003554
# 5 -0.000117 0.001027 -0.001748 -0.004533 0.025346 0.003778
# 6 0.000480 -0.003030 -0.003361 0.003554 0.003778 0.026134
#
#
# Mechanical properties :
#
#
# Convention : Reuss Voigt Hill
#
# Bulk Modulus (GPa) = 48.23681 52.68182 50.45932
# Shear Modulus (GPa) = 37.77454 41.26215 39.51834
#
# Velocity S-wave (km/s) = 3.88384 4.05918 3.97248
# Velocity P-wave (km/s) = 6.27490 6.55791 6.41797
#
# Compressibility (1/GPa) = 0.02073106
#
# Stress axis : x y z
#
# Youngs Moduli (GPa) = 79.90049 101.26376 89.61188
#
# Poissons Ratio (x) = 0.25269 0.32744
# Poissons Ratio (y) = 0.19938 0.02331
# Poissons Ratio (z) = 0.29196 0.02634
#
# Static dielectric constant tensor:
#      x y z
#    x 4.334210 0.024760 0.139590 
#    y 0.024760 4.721180 -0.030440 
#    z 0.139590 -0.030440 4.679640 
# 
# 
# High freq. dielectric constant tensor:
#      x y z
#    x 1.993830 0.002530 0.004190 
#    y 0.002530 2.012710 -0.003370 
#    z 0.004190 -0.003370 2.013600 
# 
# From -- ./inp_files/608478.got.cif
#   From: 2010.06.25/outbox.cif.g09.slc.cpg/sg2_305_cif.got.tgz:608478.got - 2010.06.27 13:26:56.
