data_PCOD8037211
_publ_section_title
;
Structure prediction by ZEFSAII (Michael W. Deem and Ramdas Pophale) SiO2 
 PCOD8037211
Probable space group: P -1
;
_chemical_formula_sum "Si O2"
_cell_formula_units_Z 16
_cell_length_a 11.534548
_cell_length_b 20.060155
_cell_length_c 5.649048
_cell_angle_alpha 58.298715
_cell_angle_beta 47.214386
_cell_angle_gamma 41.544617
_cell_volume 635.807084
_symmetry_space_group_name_H-M "P -1"
_symmetry_group_IT_number 2
_symmetry_cell_setting 'triclinic'
loop_
_space_group_symop_operation_xyz
x,y,z
-x,-y,-z
loop_
_atom_site_type_symbol
_atom_site_label
_atom_site_fract_x
_atom_site_fract_y
_atom_site_fract_z
Si Si1 0.574832 0.392552 0.682819
Si Si2 0.307776 0.934445 0.754701
Si Si3 0.940393 0.335527 0.578969
Si Si4 0.132771 0.048092 0.291883
Si Si5 0.208517 0.469605 0.358669
Si Si6 0.271615 0.305422 0.858205
Si Si7 0.320653 0.796874 0.294490
Si Si8 0.250055 0.174585 0.778792
O O1 0.500000 0.500000 0.500000
O O2 0.780343 0.337282 0.646732
O O3 0.641664 0.308606 0.548945
O O4 0.391676 0.404671 0.041917
O O5 0.527899 0.905245 0.486252
O O6 0.185063 0.988045 0.580931
O O7 0.319875 0.835606 0.957095
O O8 0.224959 0.991229 0.019508
O O9 0.808272 0.432898 0.748944
O O10 0.076923 0.228097 0.718182
O O11 0.090988 0.347132 0.213047
O O12 0.892425 0.115579 0.451056
O O13 0.201758 0.115934 0.123378
O O14 0.267975 0.399153 0.633873
O O15 0.000000 0.500000 0.500000
O O16 0.496141 0.214258 0.807552
O O17 0.228091 0.264412 0.771154
#
# Coordination Sequence:
#
# PCOD8037211 Si02
#       8
#     2   2   2   2   2   2   2   2
#     4  12  28  48  77 115 158 200 257 317 395 470
#     4  12  27  54  78 118 155 210 271 330 398 472
#     4  12  26  47  75 108 156 203 259 315 392 469
#     4  12  30  49  84 114 162 204 271 334 401 469
#     4  12  24  45  74 111 154 202 256 317 383 471
#     4  12  25  48  76 110 154 202 263 316 392 473
#     4  12  27  50  80 113 154 209 255 329 394 472
#     4  12  27  48  78 112 151 206 257 329 397 467
#
# _framework density 25.164867999999998
#
# number of rings (size 3 to 8) (size 9 to 14) (size 15 to 20)
#    0.000    0.000    2.500    6.750    7.000    1.000 
#    0.000    0.000    0.000    0.000    0.000    0.000 
#    0.000    0.000    0.000    0.000    0.000    0.000 
#
# Total GULP energy -198315.881780 kJ/mol
# GULP energy per Si atom -12394.742611 kJ/mol
# Density = 2.510759 g / cm^3
# Si number density = 25.164868 Si / 1000 Ang^3
#
#
#
# Elastic Constant Matrix: (Units=GPa)
#
#
# Indices 1 2 3 4 5 6 
#
# 1 120.5365 43.7438 20.3365 4.0081 -5.5523 -25.9981
# 2 43.7438 106.8461 44.8076 -2.4598 0.3522 -28.0481
# 3 20.3365 44.8076 96.4828 -14.0925 0.8071 -18.3789
# 4 4.0081 -2.4598 -14.0925 46.9433 2.0289 -10.4117
# 5 -5.5523 0.3522 0.8071 2.0289 44.0627 4.9829
# 6 -25.9981 -28.0481 -18.3789 -10.4117 4.9829 41.4076
#
#
#
# Elastic Compliance Matrix: (Units=1/GPa)
#
#
# Indices 1 2 3 4 5 6 
#
# 1 0.010402 -0.003170 0.000070 -0.000120 0.000856 0.004282
# 2 -0.003170 0.014189 -0.004633 0.000993 -0.001147 0.005952
# 3 0.000070 -0.004633 0.014112 0.005039 -0.000959 0.004552
# 4 -0.000120 0.000993 0.005039 0.025067 -0.002335 0.009418
# 5 0.000856 -0.001147 -0.000959 -0.002335 0.023397 -0.004068
# 6 0.004282 0.005952 0.004552 0.009418 -0.004068 0.035748
#
#
# Mechanical properties :
#
#
# Convention : Reuss Voigt Hill
#
# Bulk Modulus (GPa) = 43.03144 60.18238 51.60691
# Shear Modulus (GPa) = 34.21700 40.81455 37.51578
#
# Velocity S-wave (km/s) = 3.69143 4.03163 3.86528
# Velocity P-wave (km/s) = 5.94187 6.75568 6.36180
#
# Compressibility (1/GPa) = 0.02323882
#
# Stress axis : x y z
#
# Youngs Moduli (GPa) = 96.13907 70.47683 70.85929
#
# Poissons Ratio (x) = 0.22339 -0.00499
# Poissons Ratio (y) = 0.30473 0.32829
# Poissons Ratio (z) = -0.00677 0.32651
#
# Static dielectric constant tensor:
#      x y z
#    x 4.761210 0.006550 -0.365860 
#    y 0.006550 5.048470 -0.202520 
#    z -0.365860 -0.202520 4.872620 
# 
# 
# High freq. dielectric constant tensor:
#      x y z
#    x 2.004470 -0.011300 -0.020600 
#    y -0.011300 2.023900 -0.000130 
#    z -0.020600 -0.000130 2.013030 
# 
# From -- ./inp_files/83008.got.cif
#   From: 2010.06.25/outbox.cif.g09.slc.cpg/sg2_42_cif.got.tgz:83008.got - 2010.06.27 13:26:56.
