data_PCOD8037737
_publ_section_title
;
Structure prediction by ZEFSAII (Michael W. Deem and Ramdas Pophale) SiO2 
 PCOD8037737
Probable space group: P -1
;
_chemical_formula_sum "Si O2"
_cell_formula_units_Z 16
_cell_length_a 8.930193
_cell_length_b 14.903954
_cell_length_c 9.168546
_cell_angle_alpha 67.437160
_cell_angle_beta 99.423868
_cell_angle_gamma 140.630200
_cell_volume 696.174253
_symmetry_space_group_name_H-M "P -1"
_symmetry_group_IT_number 2
_symmetry_cell_setting 'triclinic'
loop_
_space_group_symop_operation_xyz
x,y,z
-x,-y,-z
loop_
_atom_site_type_symbol
_atom_site_label
_atom_site_fract_x
_atom_site_fract_y
_atom_site_fract_z
Si Si1 0.566168 0.993504 0.861150
Si Si2 0.140990 0.276395 0.185501
Si Si3 0.638678 0.002678 0.409045
Si Si4 0.818172 0.500058 0.462002
Si Si5 0.410084 0.565726 0.232919
Si Si6 0.568516 0.758689 0.649974
Si Si7 0.715351 0.336317 0.056537
Si Si8 0.089243 0.264413 0.836051
O O1 0.543713 0.080435 0.705600
O O2 0.370151 0.817292 0.881751
O O3 0.840732 0.088280 0.851928
O O4 0.500000 0.000000 0.000000
O O5 0.331059 0.448305 0.171390
O O6 0.223928 0.209049 0.279759
O O7 0.893496 0.174875 0.293173
O O8 0.114380 0.275195 0.008345
O O9 0.500000 0.000000 0.500000
O O10 0.688168 0.921751 0.532604
O O11 0.762411 0.519423 0.599559
O O12 0.557351 0.339335 0.457435
O O13 0.930916 0.635131 0.285974
O O14 0.000000 0.500000 0.500000
O O15 0.688501 0.678608 0.244995
O O16 0.409221 0.670304 0.093275
O O17 0.365618 0.665753 0.798747
O O18 0.000000 0.500000 0.000000
#
# Coordination Sequence:
#
# PCOD8037737 Si02
#       8
#     2   2   2   2   2   2   2   2
#     4  12  28  47  75 113 152 199 247 317 377 441
#     4  12  26  50  75 107 153 201 251 311 375 459
#     4  12  27  48  74 107 149 196 250 308 376 443
#     4  12  28  45  74 113 151 195 253 318 372 443
#     4  12  27  46  77 110 150 200 250 312 378 446
#     4  12  26  48  73 108 148 200 251 307 383 445
#     4  12  27  47  77 112 150 197 254 304 378 457
#     4  12  26  50  75 106 154 195 251 307 381 447
#
# _framework density 22.982752999999999
#
# number of rings (size 3 to 8) (size 9 to 14) (size 15 to 20)
#    0.000    0.000    5.000    4.125    8.750    0.500 
#    2.250    0.000    0.000    0.000    0.000    0.000 
#    0.000    0.000    0.000    0.000    0.000    0.000 
#
# Total GULP energy -198372.150828 kJ/mol
# GULP energy per Si atom -12398.259427 kJ/mol
# Density = 2.293044 g / cm^3
# Si number density = 22.982753 Si / 1000 Ang^3
#
#
#
# Elastic Constant Matrix: (Units=GPa)
#
#
# Indices 1 2 3 4 5 6 
#
# 1 150.5344 47.5059 67.3211 -5.4731 10.4609 16.2748
# 2 47.5059 103.4753 29.9065 -3.8834 1.7973 15.6922
# 3 67.3211 29.9065 151.3059 3.5345 13.8647 1.6152
# 4 -5.4731 -3.8834 3.5345 31.5715 0.4503 -2.6505
# 5 10.4609 1.7973 13.8647 0.4503 54.3931 -2.5996
# 6 16.2748 15.6922 1.6152 -2.6505 -2.5996 42.5579
#
#
#
# Elastic Compliance Matrix: (Units=1/GPa)
#
#
# Indices 1 2 3 4 5 6 
#
# 1 0.009550 -0.002907 -0.003597 0.001512 -0.000951 -0.002408
# 2 -0.002907 0.011802 -0.001051 0.000798 0.000280 -0.003134
# 3 -0.003597 -0.001051 0.008568 -0.001587 -0.001384 0.001254
# 4 0.001512 0.000798 -0.001587 0.032314 -0.000123 0.001193
# 5 -0.000951 0.000280 -0.001384 -0.000123 0.018982 0.001465
# 6 -0.002408 -0.003134 0.001254 0.001193 0.001465 0.025690
#
#
# Mechanical properties :
#
#
# Convention : Reuss Voigt Hill
#
# Bulk Modulus (GPa) = 67.51213 77.19809 72.35511
# Shear Modulus (GPa) = 39.38473 43.07664 41.23068
#
# Velocity S-wave (km/s) = 4.14413 4.33402 4.24014
# Velocity P-wave (km/s) = 7.23446 7.66208 7.45134
#
# Compressibility (1/GPa) = 0.01481215
#
# Stress axis : x y z
#
# Youngs Moduli (GPa) = 104.70759 84.72809 116.71562
#
# Poissons Ratio (x) = 0.24626 0.41986
# Poissons Ratio (y) = 0.30433 0.12261
# Poissons Ratio (z) = 0.37666 0.08901
#
# Static dielectric constant tensor:
#      x y z
#    x 4.344310 0.034330 0.204080 
#    y 0.034330 4.194760 -0.099870 
#    z 0.204080 -0.099870 4.443610 
# 
# 
# High freq. dielectric constant tensor:
#      x y z
#    x 1.920530 0.013960 0.007510 
#    y 0.013960 1.896570 0.001620 
#    z 0.007510 0.001620 1.934070 
# 
# From -- ./inp_files/206466.got.cif
#   From: 2010.06.25/outbox.cif.g09.slc.cpg/sg2_104_cif.got.tgz:206466.got - 2010.06.27 13:26:56.
