data_PCOD8037636
_publ_section_title
;
Structure prediction by ZEFSAII (Michael W. Deem and Ramdas Pophale) SiO2 
 PCOD8037636
Probable space group: P -1
;
_chemical_formula_sum "Si O2"
_cell_formula_units_Z 14
_cell_length_a 8.350957
_cell_length_b 8.908038
_cell_length_c 8.969509
_cell_angle_alpha 78.489466
_cell_angle_beta 77.279195
_cell_angle_gamma 59.137242
_cell_volume 555.710223
_symmetry_space_group_name_H-M "P -1"
_symmetry_group_IT_number 2
_symmetry_cell_setting 'triclinic'
loop_
_space_group_symop_operation_xyz
x,y,z
-x,-y,-z
loop_
_atom_site_type_symbol
_atom_site_label
_atom_site_fract_x
_atom_site_fract_y
_atom_site_fract_z
Si Si1 0.618456 0.818087 0.101936
Si Si2 0.339306 0.379338 0.152488
Si Si3 0.914782 0.963250 0.379658
Si Si4 0.974560 0.246589 0.877007
Si Si5 0.273125 0.692297 0.803788
Si Si6 0.611046 0.589718 0.384610
Si Si7 0.671377 0.815367 0.546161
O O1 0.511484 0.774788 0.269110
O O2 0.806081 0.809742 0.134204
O O3 0.668790 0.656849 0.012332
O O4 0.500000 0.000000 0.000000
O O5 0.147172 0.555052 0.195584
O O6 0.519802 0.404005 0.146405
O O7 0.346787 0.214036 0.269717
O O8 0.859592 0.820300 0.472216
O O9 0.044850 0.876235 0.223123
O O10 0.740080 0.149790 0.327652
O O11 0.000000 0.000000 0.500000
O O12 0.887471 0.225403 0.053731
O O13 0.241623 0.558523 0.729821
O O14 0.500000 0.500000 0.500000
O O15 0.698201 0.638601 0.496054
O O16 0.500000 0.000000 0.500000
#
# Coordination Sequence:
#
# PCOD8037636 Si02
#       7
#     2   2   2   2   2   2   2
#     4  12  27  50  83 115 164 216 264 327 407 478
#     4  12  26  47  82 109 159 211 262 327 398 473
#     4  12  29  50  77 116 160 205 265 333 404 473
#     4  12  28  51  76 118 156 205 271 326 395 483
#     4  12  27  52  76 118 158 210 262 329 400 476
#     4  12  25  48  85 117 160 208 273 327 398 476
#     4  12  25  50  78 113 160 209 269 331 403 474
#
# _framework density 25.192986999999999
#
# number of rings (size 3 to 8) (size 9 to 14) (size 15 to 20)
#    0.000    0.000    5.714    3.000    4.000    1.714 
#    0.000    0.000    0.000    0.000    0.000    0.000 
#    0.000    0.000    0.000    0.000    0.000    0.000 
#
# Total GULP energy -173455.109418 kJ/mol
# GULP energy per Si atom -12389.650673 kJ/mol
# Density = 2.513565 g / cm^3
# Si number density = 25.192987 Si / 1000 Ang^3
#
#
#
# Elastic Constant Matrix: (Units=GPa)
#
#
# Indices 1 2 3 4 5 6 
#
# 1 124.5055 57.2857 61.9562 0.2774 6.5451 15.4642
# 2 57.2857 115.4184 49.8347 -3.2389 10.7760 8.7002
# 3 61.9562 49.8347 165.0858 -8.4311 -1.2349 16.0373
# 4 0.2774 -3.2389 -8.4311 74.3398 16.5658 10.0740
# 5 6.5451 10.7760 -1.2349 16.5658 41.4173 -4.3177
# 6 15.4642 8.7002 16.0373 10.0740 -4.3177 47.0817
#
#
#
# Elastic Compliance Matrix: (Units=1/GPa)
#
#
# Indices 1 2 3 4 5 6 
#
# 1 0.011805 -0.004340 -0.002920 -0.000040 -0.001033 -0.002167
# 2 -0.004340 0.011996 -0.001896 0.001078 -0.002991 -0.000650
# 3 -0.002920 -0.001896 0.007923 0.000880 0.000681 -0.001515
# 4 -0.000040 0.001078 0.000880 0.015775 -0.007027 -0.004506
# 5 -0.001033 -0.002991 0.000681 -0.007027 0.028414 0.004769
# 6 -0.002167 -0.000650 -0.001515 -0.004506 0.004769 0.023989
#
#
# Mechanical properties :
#
#
# Convention : Reuss Voigt Hill
#
# Bulk Modulus (GPa) = 74.56275 82.57367 78.56821
# Shear Modulus (GPa) = 40.75493 48.29662 44.52578
#
# Velocity S-wave (km/s) = 4.02644 4.38318 4.20859
# Velocity P-wave (km/s) = 7.16081 7.64617 7.40747
#
# Compressibility (1/GPa) = 0.01341152
#
# Stress axis : x y z
#
# Youngs Moduli (GPa) = 84.71007 83.36444 126.21612
#
# Poissons Ratio (x) = 0.36179 0.36849
# Poissons Ratio (y) = 0.36763 0.23937
# Poissons Ratio (z) = 0.24732 0.15810
#
# Static dielectric constant tensor:
#      x y z
#    x 4.124030 0.232620 0.079460 
#    y 0.232620 4.627380 0.044730 
#    z 0.079460 0.044730 5.133070 
# 
# 
# High freq. dielectric constant tensor:
#      x y z
#    x 1.967290 0.025260 0.002700 
#    y 0.025260 2.021340 -0.006020 
#    z 0.002700 -0.006020 2.045200 
# 
# From -- ./inp_files/158020.got.cif
#   From: 2010.06.25/outbox.cif.g09.slc.cpg/sg2_80_cif.got.tgz:158020.got - 2010.06.27 13:26:56.
