data_PCOD8037738
_publ_section_title
;
Structure prediction by ZEFSAII (Michael W. Deem and Ramdas Pophale) SiO2 
 PCOD8037738
Probable space group: P -1
;
_chemical_formula_sum "Si O2"
_cell_formula_units_Z 14
_cell_length_a 8.439142
_cell_length_b 8.660531
_cell_length_c 12.190413
_cell_angle_alpha 98.581347
_cell_angle_beta 138.166710
_cell_angle_gamma 72.974317
_cell_volume 564.869588
_symmetry_space_group_name_H-M "P -1"
_symmetry_group_IT_number 2
_symmetry_cell_setting 'triclinic'
loop_
_space_group_symop_operation_xyz
x,y,z
-x,-y,-z
loop_
_atom_site_type_symbol
_atom_site_label
_atom_site_fract_x
_atom_site_fract_y
_atom_site_fract_z
Si Si1 0.052351 0.831846 0.079803
Si Si2 0.390262 0.623365 0.864482
Si Si3 0.245675 0.052477 0.632056
Si Si4 0.717298 0.843814 0.102684
Si Si5 0.173746 0.251185 0.400614
Si Si6 0.345138 0.250629 0.257347
Si Si7 0.472352 0.450133 0.667974
O O1 0.952069 0.864608 0.156953
O O2 0.336000 0.726602 0.225586
O O3 0.917350 0.714044 0.935382
O O4 0.000000 0.000000 0.000000
O O5 0.353606 0.533851 0.726277
O O6 0.116454 0.731832 0.766720
O O7 0.500000 0.500000 0.000000
O O8 0.606700 0.710976 0.973917
O O9 0.228605 0.175102 0.740045
O O10 0.277317 0.138178 0.544844
O O11 0.466536 0.885879 0.733875
O O12 0.000000 0.000000 0.500000
O O13 0.500000 0.000000 0.000000
O O14 0.319070 0.178382 0.357001
O O15 0.243620 0.420825 0.477165
O O16 0.412865 0.421574 0.322784
#
# Coordination Sequence:
#
# PCOD8037738 Si02
#       7
#     2   2   2   2   2   2   2
#     4  12  28  47  80 108 150 198 258 309 374 450
#     4  12  27  48  78 107 150 199 250 307 374 453
#     4  12  27  48  76 111 154 200 249 311 377 446
#     4  12  26  49  75 109 150 199 254 306 373 447
#     4  12  28  47  74 112 154 196 253 307 381 448
#     4  12  26  48  74 110 151 199 253 311 373 448
#     4  12  26  50  72 113 149 196 253 314 378 439
#
# _framework density 24.784483000000002
#
# number of rings (size 3 to 8) (size 9 to 14) (size 15 to 20)
#    0.000    0.000    2.857    6.000   10.000    1.143 
#    0.000    0.000    0.000    0.000    0.000    0.000 
#    0.000    0.000    0.000    0.000    0.000    0.000 
#
# Total GULP energy -173519.772893 kJ/mol
# GULP energy per Si atom -12394.269492 kJ/mol
# Density = 2.472807 g / cm^3
# Si number density = 24.784483 Si / 1000 Ang^3
#
#
#
# Elastic Constant Matrix: (Units=GPa)
#
#
# Indices 1 2 3 4 5 6 
#
# 1 139.1175 30.6204 33.4606 5.4623 -16.2290 6.5263
# 2 30.6204 85.7268 5.5385 -7.1065 2.7116 7.8410
# 3 33.4606 5.5385 97.4384 13.1957 -3.6690 4.4839
# 4 5.4623 -7.1065 13.1957 42.7832 3.7561 -6.9375
# 5 -16.2290 2.7116 -3.6690 3.7561 51.7532 1.7344
# 6 6.5263 7.8410 4.4839 -6.9375 1.7344 40.0979
#
#
#
# Elastic Compliance Matrix: (Units=1/GPa)
#
#
# Indices 1 2 3 4 5 6 
#
# 1 0.008926 -0.003138 -0.002564 -0.001271 0.002904 -0.000898
# 2 -0.003138 0.013193 -0.000007 0.002500 -0.001805 -0.001558
# 3 -0.002564 -0.000007 0.011709 -0.003561 0.000336 -0.001521
# 4 -0.001271 0.002500 -0.003561 0.026068 -0.002833 0.004749
# 5 0.002904 -0.001805 0.000336 -0.002833 0.020609 -0.001539
# 6 -0.000898 -0.001558 -0.001521 0.004749 -0.001539 0.026448
#
#
# Mechanical properties :
#
#
# Convention : Reuss Voigt Hill
#
# Bulk Modulus (GPa) = 44.62357 51.28018 47.95188
# Shear Modulus (GPa) = 39.73246 43.77107 41.75177
#
# Velocity S-wave (km/s) = 4.00824 4.20702 4.10883
# Velocity P-wave (km/s) = 6.28212 6.65838 6.47299
#
# Compressibility (1/GPa) = 0.02240968
#
# Stress axis : x y z
#
# Youngs Moduli (GPa) = 112.02804 75.79773 85.40571
#
# Poissons Ratio (x) = 0.23783 0.21900
# Poissons Ratio (y) = 0.35151 0.00062
# Poissons Ratio (z) = 0.28727 0.00055
#
# Static dielectric constant tensor:
#      x y z
#    x 4.391590 -0.046140 0.252000 
#    y -0.046140 4.765510 -0.218740 
#    z 0.252000 -0.218740 4.438790 
# 
# 
# High freq. dielectric constant tensor:
#      x y z
#    x 2.005270 0.011970 -0.007050 
#    y 0.011970 1.976480 0.010150 
#    z -0.007050 0.010150 1.999010 
# 
# From -- ./inp_files/382794.got.cif
#   From: 2010.06.25/outbox.cif.g09.slc.cpg/sg2_192_cif.got.tgz:382794.got - 2010.06.27 13:26:56.
