data_PCOD8037881
_publ_section_title
;
Structure prediction by ZEFSAII (Michael W. Deem and Ramdas Pophale) SiO2 
 PCOD8037881
Probable space group: P -1
;
_chemical_formula_sum "Si O2"
_cell_formula_units_Z 16
_cell_length_a 12.364242
_cell_length_b 18.931443
_cell_length_c 10.238744
_cell_angle_alpha 144.183524
_cell_angle_beta 107.463173
_cell_angle_gamma 47.288244
_cell_volume 838.516728
_symmetry_space_group_name_H-M "P -1"
_symmetry_group_IT_number 2
_symmetry_cell_setting 'triclinic'
loop_
_space_group_symop_operation_xyz
x,y,z
-x,-y,-z
loop_
_atom_site_type_symbol
_atom_site_label
_atom_site_fract_x
_atom_site_fract_y
_atom_site_fract_z
Si Si1 0.530997 0.550526 0.833832
Si Si2 0.097511 0.788716 0.447631
Si Si3 0.859334 0.219590 0.008022
Si Si4 0.971545 0.755493 0.105002
Si Si5 0.949743 0.508362 0.793035
Si Si6 0.601984 0.088507 0.577345
Si Si7 0.273355 0.200557 0.618484
Si Si8 0.170198 0.640379 0.522327
O O1 0.687477 0.353381 0.681997
O O2 0.353692 0.616955 0.852958
O O3 0.618467 0.510051 0.662813
O O4 0.486489 0.709823 0.131405
O O5 0.047809 0.773701 0.549342
O O6 0.068791 0.712192 0.210980
O O7 0.969723 0.007517 0.695657
O O8 0.891270 0.225676 0.179311
O O9 0.928877 0.269906 0.019604
O O10 0.762157 0.970436 0.352733
O O11 0.979495 0.604351 0.863583
O O12 0.144470 0.297774 0.593538
O O13 0.859513 0.476029 0.626622
O O14 0.817126 0.641637 0.066241
O O15 0.457798 0.111746 0.505756
O O16 0.687100 0.965848 0.559741
#
# Coordination Sequence:
#
# PCOD8037881 Si02
#       8
#     2   2   2   2   2   2   2   2
#     4  10  22  37  63  88 112 156 204 245 285 344
#     4  10  22  40  61  91 112 156 201 247 289 336
#     4  12  24  42  57  86 130 159 193 235 298 360
#     4  11  23  37  62  88 123 159 185 247 303 353
#     4  10  18  35  57  88 116 148 200 238 302 341
#     4  10  17  32  56  91 117 146 194 248 298 335
#     4   9  17  30  57  89 116 144 193 258 283 338
#     4  10  22  40  63  87 114 161 199 247 288 343
#
# _framework density 19.081313999999999
#
# number of rings (size 3 to 8) (size 9 to 14) (size 15 to 20)
#    0.750    1.000    2.500    4.125    0.000    1.000 
#    2.250    0.000    0.000    0.750    0.000    0.000 
#    0.000    0.000    0.000    0.000    0.000    0.000 
#
# Total GULP energy -198319.927257 kJ/mol
# GULP energy per Si atom -12394.995454 kJ/mol
# Density = 1.903788 g / cm^3
# Si number density = 19.081314 Si / 1000 Ang^3
#
#
#
# Elastic Constant Matrix: (Units=GPa)
#
#
# Indices 1 2 3 4 5 6 
#
# 1 126.7419 26.8070 28.8080 8.3612 -12.1298 -0.5738
# 2 26.8070 45.7013 12.9824 14.7508 -18.1679 -6.3835
# 3 28.8080 12.9824 52.0388 15.3826 -4.2931 -6.2695
# 4 8.3612 14.7508 15.3826 24.2182 -2.0114 -4.1674
# 5 -12.1298 -18.1679 -4.2931 -2.0114 26.1393 4.7425
# 6 -0.5738 -6.3835 -6.2695 -4.1674 4.7425 19.4807
#
#
#
# Elastic Compliance Matrix: (Units=1/GPa)
#
#
# Indices 1 2 3 4 5 6 
#
# 1 0.010127 -0.005388 -0.005351 0.002770 0.000795 -0.002790
# 2 -0.005388 0.041992 0.001450 -0.022014 0.024620 0.003365
# 3 -0.005351 0.001450 0.027044 -0.015187 0.000785 0.005581
# 4 0.002770 -0.022014 -0.015187 0.063132 -0.012472 0.004522
# 5 0.000795 0.024620 0.000785 -0.012472 0.056366 -0.008047
# 6 -0.002790 0.003365 0.005581 0.004522 -0.008047 0.057076
#
#
# Mechanical properties :
#
#
# Convention : Reuss Voigt Hill
#
# Bulk Modulus (GPa) = 16.50580 40.18630 28.34605
# Shear Modulus (GPa) = 16.97747 24.35996 20.66871
#
# Velocity S-wave (km/s) = 2.98609 3.57689 3.29476
# Velocity P-wave (km/s) = 4.53409 6.17779 5.41863
#
# Compressibility (1/GPa) = 0.06058478
#
# Stress axis : x y z
#
# Youngs Moduli (GPa) = 98.74959 23.81415 36.97733
#
# Poissons Ratio (x) = 0.12830 0.19788
# Poissons Ratio (y) = 0.53202 -0.05363
# Poissons Ratio (z) = 0.52844 -0.03454
#
# Static dielectric constant tensor:
#      x y z
#    x 3.551990 -0.214260 -0.063880 
#    y -0.214260 3.228900 0.256110 
#    z -0.063880 0.256110 3.360540 
# 
# 
# High freq. dielectric constant tensor:
#      x y z
#    x 1.747170 -0.019810 0.004060 
#    y -0.019810 1.712520 0.022440 
#    z 0.004060 0.022440 1.727650 
# 
# From -- ./inp_files/438520.got.cif
#   From: 2010.06.25/outbox.cif.g09.slc.cpg/sg2_220_cif.got.tgz:438520.got - 2010.06.27 13:26:56.
