data_PCOD8037998
_publ_section_title
;
Structure prediction by ZEFSAII (Michael W. Deem and Ramdas Pophale) SiO2 
 PCOD8037998
Probable space group: P -1
;
_chemical_formula_sum "Si O2"
_cell_formula_units_Z 16
_cell_length_a 13.375613
_cell_length_b 11.574290
_cell_length_c 12.171253
_cell_angle_alpha 64.727807
_cell_angle_beta 50.677095
_cell_angle_gamma 34.443373
_cell_volume 804.480471
_symmetry_space_group_name_H-M "P -1"
_symmetry_group_IT_number 2
_symmetry_cell_setting 'triclinic'
loop_
_space_group_symop_operation_xyz
x,y,z
-x,-y,-z
loop_
_atom_site_type_symbol
_atom_site_label
_atom_site_fract_x
_atom_site_fract_y
_atom_site_fract_z
Si Si1 0.558129 0.887978 0.891364
Si Si2 0.752286 0.174816 0.583584
Si Si3 0.260659 0.561788 0.412919
Si Si4 0.213764 0.996860 0.161383
Si Si5 0.371137 0.911016 0.647164
Si Si6 0.996037 0.397846 0.256345
Si Si7 0.390999 0.129987 0.692860
Si Si8 0.048655 0.041399 0.676819
O O1 0.810222 0.665052 0.809555
O O2 0.512812 0.014921 0.768399
O O3 0.412667 0.873688 0.992749
O O4 0.500000 0.000000 0.000000
O O5 0.647224 0.395807 0.589930
O O6 0.681849 0.126429 0.743369
O O7 0.000000 0.000000 0.500000
O O8 0.745032 0.133241 0.479363
O O9 0.459502 0.324010 0.329484
O O10 0.132442 0.719254 0.335194
O O11 0.098403 0.598970 0.574103
O O12 0.066402 0.004643 0.205481
O O13 0.070686 0.235329 0.180709
O O14 0.455633 0.915723 0.477943
O O15 0.323201 0.047870 0.721337
O O16 0.150092 0.013348 0.730113
O O17 0.820059 0.625198 0.231567
#
# Coordination Sequence:
#
# PCOD8037998 Si02
#       8
#     2   2   2   2   2   2   2   2
#     4  10  22  35  57  77 108 148 181 217 268 313
#     4   8  14  28  53  78 109 129 167 225 267 313
#     4   9  16  32  54  82 110 135 175 224 270 316
#     4   9  17  33  53  85 107 134 179 224 264 326
#     4  10  22  35  56  81 109 145 177 222 268 317
#     4  10  17  35  57  76 110 145 169 225 277 300
#     4  10  23  39  51  82 112 138 192 218 250 334
#     4  10  17  33  57  79 110 140 171 223 280 313
#
# _framework density 19.888611000000001
#
# number of rings (size 3 to 8) (size 9 to 14) (size 15 to 20)
#    0.000    2.750    3.750    0.750    1.750    3.500 
#    0.000    6.875    0.000    3.750    0.000    0.000 
#    0.000    0.000    0.000    0.000    0.000    0.000 
#
# Total GULP energy -198264.725810 kJ/mol
# GULP energy per Si atom -12391.545363 kJ/mol
# Density = 1.984334 g / cm^3
# Si number density = 19.888611 Si / 1000 Ang^3
#
#
#
# Elastic Constant Matrix: (Units=GPa)
#
#
# Indices 1 2 3 4 5 6 
#
# 1 103.7379 31.2574 10.1237 0.8107 -5.9899 0.5350
# 2 31.2574 73.3982 19.4632 -8.5803 -7.4388 4.8380
# 3 10.1237 19.4632 43.1795 -9.0113 -5.2241 -5.2723
# 4 0.8107 -8.5803 -9.0113 9.2109 0.3309 -0.5668
# 5 -5.9899 -7.4388 -5.2241 0.3309 22.1590 0.2851
# 6 0.5350 4.8380 -5.2723 -0.5668 0.2851 30.5856
#
#
#
# Elastic Compliance Matrix: (Units=1/GPa)
#
#
# Indices 1 2 3 4 5 6 
#
# 1 0.011509 -0.005226 -0.001796 -0.007666 0.001046 0.000164
# 2 -0.005226 0.019275 -0.004604 0.013557 0.003816 -0.003535
# 3 -0.001796 -0.004604 0.033080 0.028471 0.005253 0.006941
# 4 -0.007666 0.013557 0.028471 0.149822 0.006882 0.005610
# 5 0.001046 0.003816 0.005253 0.006882 0.047828 -0.000035
# 6 0.000164 -0.003535 0.006941 0.005610 -0.000035 0.034552
#
#
# Mechanical properties :
#
#
# Convention : Reuss Voigt Hill
#
# Bulk Modulus (GPa) = 24.62276 38.00047 31.31162
# Shear Modulus (GPa) = 15.02149 23.02253 19.02201
#
# Velocity S-wave (km/s) = 2.75122 3.40600 3.09597
# Velocity P-wave (km/s) = 4.74336 5.88353 5.34394
#
# Compressibility (1/GPa) = 0.04061283
#
# Stress axis : x y z
#
# Youngs Moduli (GPa) = 86.88837 51.88009 30.22953
#
# Poissons Ratio (x) = 0.27112 0.05429
# Poissons Ratio (y) = 0.45407 0.13917
# Poissons Ratio (z) = 0.15605 0.23885
#
# Static dielectric constant tensor:
#      x y z
#    x 3.947460 0.228510 -0.094780 
#    y 0.228510 3.710820 -0.018250 
#    z -0.094780 -0.018250 3.862330 
# 
# 
# High freq. dielectric constant tensor:
#      x y z
#    x 1.767450 0.004830 -0.017760 
#    y 0.004830 1.764950 -0.009370 
#    z -0.017760 -0.009370 1.746830 
# 
# From -- ./inp_files/451237.got.cif
#   From: 2010.06.25/outbox.cif.g09.slc.cpg/sg2_226_cif.got.tgz:451237.got - 2010.06.27 13:26:56.
