data_PCOD8037757
_publ_section_title
;
Structure prediction by ZEFSAII (Michael W. Deem and Ramdas Pophale) SiO2 
 PCOD8037757
Probable space group: P -1
;
_chemical_formula_sum "Si O2"
_cell_formula_units_Z 12
_cell_length_a 12.718114
_cell_length_b 9.542457
_cell_length_c 9.522617
_cell_angle_alpha 61.886842
_cell_angle_beta 145.167405
_cell_angle_gamma 98.836414
_cell_volume 516.110958
_symmetry_space_group_name_H-M "P -1"
_symmetry_group_IT_number 2
_symmetry_cell_setting 'triclinic'
loop_
_space_group_symop_operation_xyz
x,y,z
-x,-y,-z
loop_
_atom_site_type_symbol
_atom_site_label
_atom_site_fract_x
_atom_site_fract_y
_atom_site_fract_z
Si Si1 0.544817 0.242968 0.375289
Si Si2 0.870752 0.891960 0.771246
Si Si3 0.768293 0.463172 0.573619
Si Si4 0.187147 0.328870 0.723864
Si Si5 0.581171 0.748903 0.451362
Si Si6 0.878862 0.008437 0.223812
O O1 0.605747 0.403256 0.358556
O O2 0.436385 0.253358 0.399159
O O3 0.749920 0.051089 0.675365
O O4 0.391602 0.261143 0.073560
O O5 0.709878 0.859607 0.510801
O O6 0.022609 0.938124 0.823491
O O7 0.005597 0.707833 0.090833
O O8 0.764747 0.622548 0.400466
O O9 0.699696 0.547306 0.614751
O O10 0.107117 0.182751 0.698443
O O11 0.000000 0.500000 0.500000
O O12 0.359046 0.844605 0.087481
O O13 0.000000 0.000000 0.500000
#
# Coordination Sequence:
#
# PCOD8037757 Si02
#       6
#     2   2   2   2   2   2
#     4  12  26  48  79 111 153 197 252 308 376 447
#     4  12  26  49  80 108 149 201 253 303 375 448
#     4  12  27  47  78 112 153 197 251 309 375 446
#     4  12  28  48  76 114 154 193 253 314 370 442
#     4  12  27  48  78 112 151 197 253 309 374 443
#     4  12  29  48  77 110 156 198 249 309 381 445
#
# _framework density 23.250813999999998
#
# number of rings (size 3 to 8) (size 9 to 14) (size 15 to 20)
#    0.000    0.000    3.333    5.500    7.000    1.333 
#    0.000    0.000    0.000    0.000    0.000    0.000 
#    0.000    0.000    0.000    0.000    0.000    0.000 
#
# Total GULP energy -148890.414950 kJ/mol
# GULP energy per Si atom -12407.534579 kJ/mol
# Density = 2.319789 g / cm^3
# Si number density = 23.250814 Si / 1000 Ang^3
#
#
#
# Elastic Constant Matrix: (Units=GPa)
#
#
# Indices 1 2 3 4 5 6 
#
# 1 80.0549 65.3818 53.7145 -4.2668 8.1856 0.3253
# 2 65.3818 157.9706 52.8352 6.9684 12.9599 4.0046
# 3 53.7145 52.8352 114.3628 -0.4657 -4.6378 5.2806
# 4 -4.2668 6.9684 -0.4657 45.3005 -2.4500 9.9993
# 5 8.1856 12.9599 -4.6378 -2.4500 38.3070 0.4665
# 6 0.3253 4.0046 5.2806 9.9993 0.4665 50.6830
#
#
#
# Elastic Compliance Matrix: (Units=1/GPa)
#
#
# Indices 1 2 3 4 5 6 
#
# 1 0.024501 -0.007199 -0.008350 0.002972 -0.003629 0.000729
# 2 -0.007199 0.010046 -0.001351 -0.002327 -0.002171 -0.000128
# 3 -0.008350 -0.001351 0.013508 0.000057 0.003896 -0.001294
# 4 0.002972 -0.002327 0.000057 0.023813 0.001737 -0.004555
# 5 -0.003629 -0.002171 0.003896 0.001737 0.028208 -0.000813
# 6 0.000729 -0.000128 -0.001294 -0.004555 -0.000813 0.020777
#
#
# Mechanical properties :
#
#
# Convention : Reuss Voigt Hill
#
# Bulk Modulus (GPa) = 70.16072 77.36128 73.76100
# Shear Modulus (GPa) = 31.36658 38.88853 35.12755
#
# Velocity S-wave (km/s) = 3.67693 4.09414 3.89113
# Velocity P-wave (km/s) = 6.94748 7.46284 7.20977
#
# Compressibility (1/GPa) = 0.01425299
#
# Stress axis : x y z
#
# Youngs Moduli (GPa) = 40.81535 99.54185 74.02820
#
# Poissons Ratio (x) = 0.71665 0.61815
# Poissons Ratio (y) = 0.29385 0.10004
# Poissons Ratio (z) = 0.34081 0.13452
#
# Static dielectric constant tensor:
#      x y z
#    x -3.102610 -14.764300 -4.029700 
#    y -14.764300 -25.599700 -8.342110 
#    z -4.029700 -8.342110 1.996490 
# 
# 
# High freq. dielectric constant tensor:
#      x y z
#    x 1.925680 0.003900 0.013880 
#    y 0.003900 1.944020 0.006110 
#    z 0.013880 0.006110 1.924680 
# 
# From -- ./inp_files/133836.got.cif
#   From: 2010.06.25/outbox.cif.g09.slc.cpg/sg2_67_cif.got.tgz:133836.got - 2010.06.27 13:26:56.
