data_PCOD8037955
_publ_section_title
;
Structure prediction by ZEFSAII (Michael W. Deem and Ramdas Pophale) SiO2 
 PCOD8037955
Probable space group: P -1
;
_chemical_formula_sum "Si O2"
_cell_formula_units_Z 16
_cell_length_a 12.000000
_cell_length_b 18.000000
_cell_length_c 12.000000
_cell_angle_alpha 140.000000
_cell_angle_beta 110.000000
_cell_angle_gamma 40.000000
_cell_volume 862.732557
_symmetry_space_group_name_H-M "P -1"
_symmetry_group_IT_number 2
_symmetry_cell_setting 'triclinic'
loop_
_space_group_symop_operation_xyz
x,y,z
-x,-y,-z
loop_
_atom_site_type_symbol
_atom_site_label
_atom_site_fract_x
_atom_site_fract_y
_atom_site_fract_z
Si Si1 0.414618 0.867785 0.627315
Si Si2 0.404934 0.691149 0.588553
Si Si3 0.859457 0.695793 0.958839
Si Si4 0.134962 0.781310 0.749432
Si Si5 0.713516 0.016775 0.936370
Si Si6 0.235374 0.275446 0.283935
Si Si7 0.456560 0.142747 0.795884
Si Si8 0.642796 0.745106 0.355012
O O1 0.353460 0.792515 0.569299
O O2 0.601245 0.768598 0.655078
O O3 0.496310 0.787026 0.435406
O O4 0.202170 0.118986 0.847267
O O5 0.220498 0.743749 0.610292
O O6 0.641291 0.440054 0.368723
O O7 0.377035 0.806979 0.813657
O O8 0.753952 0.722120 0.843768
O O9 0.113091 0.482006 0.796300
O O10 0.769818 0.708200 0.053905
O O11 0.961799 0.820719 0.751379
O O12 0.000000 0.000000 0.000000
O O13 0.694790 0.910866 0.872696
O O14 0.575155 0.133001 0.909055
O O15 0.000000 0.500000 0.500000
O O16 0.413560 0.239720 0.774587
O O17 0.605606 0.909606 0.559549
#
# Coordination Sequence:
#
# PCOD8037955 Si02
#       8
#     2   2   2   2   2   2   2   2
#     4  11  20  32  51  79 110 137 173 217 261 321
#     4  10  20  35  54  80 107 134 172 219 271 321
#     4  11  19  32  48  72 106 141 174 214 258 309
#     4   9  21  36  54  78 105 136 171 215 275 322
#     4  11  19  34  52  78 109 140 173 217 261 315
#     4  12  19  30  49  81 111 138 168 211 270 315
#     4  10  21  35  49  71 109 148 187 212 243 315
#     4  10  21  34  48  73 107 152 183 210 253 298
#
# _framework density 18.545724
#
# number of rings (size 3 to 8) (size 9 to 14) (size 15 to 20)
#    0.000    1.500    5.000    2.250    0.000    1.000 
#    0.000    0.000    0.000    0.750    0.000    8.750 
#    0.000    0.000    0.000    0.000    0.000    0.000 
#
# Total GULP energy -198261.802910 kJ/mol
# GULP energy per Si atom -12391.362682 kJ/mol
# Density = 1.850351 g / cm^3
# Si number density = 18.545724 Si / 1000 Ang^3
#
#
#
# Elastic Constant Matrix: (Units=GPa)
#
#
# Indices 1 2 3 4 5 6 
#
# 1 57.0171 21.8579 8.6971 0.9971 -17.8798 27.0093
# 2 21.8579 86.8094 26.7199 -9.3105 -13.1483 25.5325
# 3 8.6971 26.7199 88.7683 9.7248 -17.1427 9.9256
# 4 0.9971 -9.3105 9.7248 34.1138 1.2439 -10.5119
# 5 -17.8798 -13.1483 -17.1427 1.2439 22.0042 -3.9669
# 6 27.0093 25.5325 9.9256 -10.5119 -3.9669 32.7477
#
#
#
# Elastic Compliance Matrix: (Units=1/GPa)
#
#
# Indices 1 2 3 4 5 6 
#
# 1 0.053685 0.002822 0.010746 -0.021250 0.045683 -0.051022
# 2 0.002822 0.016798 -0.002352 0.000717 0.008022 -0.013510
# 3 0.010746 -0.002352 0.017250 -0.010692 0.018955 -0.013394
# 4 -0.021250 0.000717 -0.010692 0.043710 -0.021946 0.031580
# 5 0.045683 0.008022 0.018955 -0.021946 0.095222 -0.045188
# 6 -0.051022 -0.013510 -0.013394 0.031580 -0.045188 0.091874
#
#
# Mechanical properties :
#
#
# Convention : Reuss Voigt Hill
#
# Bulk Modulus (GPa) = 9.07725 38.57161 23.82443
# Shear Modulus (GPa) = 15.02279 29.46111 22.24195
#
# Velocity S-wave (km/s) = 2.84921 3.99001 3.46685
# Velocity P-wave (km/s) = 3.96600 6.48615 5.37584
#
# Compressibility (1/GPa) = 0.11016555
#
# Stress axis : x y z
#
# Youngs Moduli (GPa) = 18.62735 59.52975 57.97168
#
# Poissons Ratio (x) = -0.16799 -0.62297
# Poissons Ratio (y) = -0.05256 0.13632
# Poissons Ratio (z) = -0.20017 0.13999
#
# Static dielectric constant tensor:
#      x y z
#    x 3.772130 0.273770 -0.331020 
#    y 0.273770 3.402350 0.075360 
#    z -0.331020 0.075360 3.684650 
# 
# 
# High freq. dielectric constant tensor:
#      x y z
#    x 1.709480 0.026150 -0.031300 
#    y 0.026150 1.696350 0.022170 
#    z -0.031300 0.022170 1.738270 
# 
# From -- ./inp_files/428066.got.cif
#   From: 2010.06.25/outbox.ucp.g09.slc.cvg/sg2_215_cif.got.tgz:428066.got - 2010.06.28 11:54:26.
