data_PCOD8037172
_publ_section_title
;
Structure prediction by ZEFSAII (Michael W. Deem and Ramdas Pophale) SiO2 
 PCOD8037172
Probable space group: P -1
;
_chemical_formula_sum "Si O2"
_cell_formula_units_Z 14
_cell_length_a 11.199311
_cell_length_b 6.394916
_cell_length_c 17.682016
_cell_angle_alpha 106.450742
_cell_angle_beta 151.192997
_cell_angle_gamma 73.114950
_cell_volume 582.772893
_symmetry_space_group_name_H-M "P -1"
_symmetry_group_IT_number 2
_symmetry_cell_setting 'triclinic'
loop_
_space_group_symop_operation_xyz
x,y,z
-x,-y,-z
loop_
_atom_site_type_symbol
_atom_site_label
_atom_site_fract_x
_atom_site_fract_y
_atom_site_fract_z
Si Si1 0.636352 0.242638 0.894359
Si Si2 0.705235 0.980786 0.046755
Si Si3 0.225942 0.622209 0.665695
Si Si4 0.100039 0.133727 0.380328
Si Si5 0.480427 0.565016 0.409386
Si Si6 0.390904 0.876941 0.647085
Si Si7 0.038963 0.428936 0.928160
O O1 0.455911 0.443663 0.783621
O O2 0.604908 0.039780 0.799162
O O3 0.906707 0.336464 0.053559
O O4 0.597947 0.176562 0.952548
O O5 0.732210 0.757140 0.986991
O O6 0.984925 0.998586 0.235352
O O7 0.500000 0.000000 0.000000
O O8 0.259771 0.824028 0.648047
O O9 0.000000 0.500000 0.500000
O O10 0.143230 0.715504 0.711289
O O11 0.317658 0.270004 0.483099
O O12 0.197595 0.980066 0.488083
O O13 0.500000 0.500000 0.500000
O O14 0.492316 0.352630 0.342135
O O15 0.203194 0.672589 0.250254
O O16 0.000000 0.500000 0.000000
#
# Coordination Sequence:
#
# PCOD8037172 Si02
#       7
#     2   2   2   2   2   2   2
#     4  12  26  46  74 105 146 193 243 301 365 433
#     4  12  29  48  74 109 150 191 240 303 376 432
#     4  12  24  44  75 108 141 183 244 304 362 429
#     4  12  26  45  74 109 148 191 241 303 366 430
#     4  12  27  45  69 105 146 191 244 298 358 433
#     4  12  24  45  74 106 139 189 248 299 362 433
#     4  12  27  49  72 105 149 192 248 297 356 437
#
# _framework density 24.023078999999999
#
# number of rings (size 3 to 8) (size 9 to 14) (size 15 to 20)
#    0.000    0.000    2.857    7.286    2.000   10.286 
#    0.000    0.000    0.000    0.000    0.000    0.000 
#    0.000    0.000    0.000    0.000    0.000    0.000 
#
# Total GULP energy -173469.891108 kJ/mol
# GULP energy per Si atom -12390.706508 kJ/mol
# Density = 2.396840 g / cm^3
# Si number density = 24.023079 Si / 1000 Ang^3
#
#
#
# Elastic Constant Matrix: (Units=GPa)
#
#
# Indices 1 2 3 4 5 6 
#
# 1 146.2825 66.1132 43.7357 1.7772 -5.3275 10.4381
# 2 66.1132 130.7497 58.6849 16.0050 4.2315 18.6764
# 3 43.7357 58.6849 131.4268 13.9936 -10.6649 21.6713
# 4 1.7772 16.0050 13.9936 44.7549 10.0570 -5.0734
# 5 -5.3275 4.2315 -10.6649 10.0570 34.6071 -4.2191
# 6 10.4381 18.6764 21.6713 -5.0734 -4.2191 50.3424
#
#
#
# Elastic Compliance Matrix: (Units=1/GPa)
#
#
# Indices 1 2 3 4 5 6 
#
# 1 0.009167 -0.004359 -0.001229 0.001358 0.001230 0.000485
# 2 -0.004359 0.012232 -0.003504 -0.002785 -0.002759 -0.002638
# 3 -0.001229 -0.003504 0.010785 -0.003354 0.004162 -0.003077
# 4 0.001358 -0.002785 -0.003354 0.026540 -0.007682 0.004226
# 5 0.001230 -0.002759 0.004162 -0.007682 0.033056 0.000973
# 6 0.000485 -0.002638 -0.003077 0.004226 0.000973 0.022574
#
#
# Mechanical properties :
#
#
# Convention : Reuss Voigt Hill
#
# Bulk Modulus (GPa) = 71.42733 82.83627 77.13180
# Shear Modulus (GPa) = 36.44210 41.93592 39.18901
#
# Velocity S-wave (km/s) = 3.89905 4.18263 4.04333
# Velocity P-wave (km/s) = 7.07583 7.60807 7.34677
#
# Compressibility (1/GPa) = 0.01400024
#
# Stress axis : x y z
#
# Youngs Moduli (GPa) = 109.08274 81.75375 92.72549
#
# Poissons Ratio (x) = 0.35638 0.11396
# Poissons Ratio (y) = 0.47551 0.32487
# Poissons Ratio (z) = 0.13406 0.28643
#
# Static dielectric constant tensor:
#      x y z
#    x 4.163830 0.103870 -0.266030 
#    y 0.103870 4.609950 0.352860 
#    z -0.266030 0.352860 4.527120 
# 
# 
# High freq. dielectric constant tensor:
#      x y z
#    x 1.958930 0.003730 -0.005030 
#    y 0.003730 1.961040 0.016300 
#    z -0.005030 0.016300 1.973810 
# 
# From -- ./inp_files/69071.got.cif
#   From: 2010.06.25/outbox.cif.g09.slc.cpg/sg2_35_cif.got.tgz:69071.got - 2010.06.27 13:26:56.
