data_PCOD8037377
_publ_section_title
;
Structure prediction by ZEFSAII (Michael W. Deem and Ramdas Pophale) SiO2 
 PCOD8037377
Probable space group: P -1
;
_chemical_formula_sum "Si O2"
_cell_formula_units_Z 16
_cell_length_a 13.299949
_cell_length_b 9.339648
_cell_length_c 19.833507
_cell_angle_alpha 45.061076
_cell_angle_beta 155.939757
_cell_angle_gamma 134.606368
_cell_volume 696.862284
_symmetry_space_group_name_H-M "P -1"
_symmetry_group_IT_number 2
_symmetry_cell_setting 'triclinic'
loop_
_space_group_symop_operation_xyz
x,y,z
-x,-y,-z
loop_
_atom_site_type_symbol
_atom_site_label
_atom_site_fract_x
_atom_site_fract_y
_atom_site_fract_z
Si Si1 0.012352 0.919165 0.608384
Si Si2 0.317348 0.822247 0.614752
Si Si3 0.937915 0.266929 0.017922
Si Si4 0.303201 0.469587 0.829535
Si Si5 0.512347 0.780386 0.608381
Si Si6 0.803201 0.148209 0.829536
Si Si7 0.562089 0.944864 0.982081
Si Si8 0.817352 0.468191 0.614756
O O1 0.296687 0.888653 0.800234
O O2 0.822986 0.695737 0.573137
O O3 0.000000 0.000000 0.500000
O O4 0.938405 0.089460 0.557864
O O5 0.369844 0.648449 0.755717
O O6 0.322977 0.730823 0.573131
O O7 0.529561 0.023259 0.687754
O O8 0.203320 0.195988 0.199766
O O9 0.804603 0.251904 0.868939
O O10 0.000000 0.500000 0.000000
O O11 0.750007 0.135081 0.000006
O O12 0.029562 0.472594 0.687757
O O13 0.500000 0.500000 0.000000
O O14 0.304608 0.250491 0.868938
O O15 0.438402 0.613758 0.557861
O O16 0.500000 0.000000 0.500000
O O17 0.869848 0.324092 0.755721
O O18 0.000000 0.000000 0.000000
O O19 0.500000 0.000000 0.000000
#
# Coordination Sequence:
#
# PCOD8037377 Si02
#       8
#     2   2   2   2   2   2   2   2
#     4  12  27  50  72 114 150 193 251 306 380 447
#     4  12  27  45  81 108 152 201 247 314 376 450
#     4  12  30  48  77 109 151 194 250 312 370 442
#     4  12  24  48  76 108 147 199 255 298 370 449
#     4  12  27  50  72 114 150 193 251 306 380 447
#     4  12  24  48  76 108 147 199 255 298 370 449
#     4  12  30  48  77 109 151 194 250 312 370 442
#     4  12  27  45  81 108 152 201 247 314 376 450
#
# _framework density 22.960059999999999
#
# number of rings (size 3 to 8) (size 9 to 14) (size 15 to 20)
#    0.000    0.000    5.000    3.750   10.500    1.000 
#    0.000    0.000    0.000    0.000    0.000    0.000 
#    0.000    0.000    0.000    0.000    0.000    0.000 
#
# Total GULP energy -198446.400081 kJ/mol
# GULP energy per Si atom -12402.900005 kJ/mol
# Density = 2.290780 g / cm^3
# Si number density = 22.960060 Si / 1000 Ang^3
#
#
#
# Elastic Constant Matrix: (Units=GPa)
#
#
# Indices 1 2 3 4 5 6 
#
# 1 139.6241 40.7216 22.4152 -14.0509 -20.0040 4.2485
# 2 40.7216 141.7029 22.5113 -17.9509 -15.4195 4.9860
# 3 22.4152 22.5113 74.0266 -8.1629 -8.8349 2.9737
# 4 -14.0509 -17.9509 -8.1629 39.3412 7.3147 -4.6059
# 5 -20.0040 -15.4195 -8.8349 7.3147 40.2894 -4.3338
# 6 4.2485 4.9860 2.9737 -4.6059 -4.3338 41.9042
#
#
#
# Elastic Compliance Matrix: (Units=1/GPa)
#
#
# Indices 1 2 3 4 5 6 
#
# 1 0.008467 -0.001689 -0.001542 0.001372 0.002961 -0.000091
# 2 -0.001689 0.008282 -0.001536 0.002546 0.001503 -0.000270
# 3 -0.001542 -0.001536 0.014811 0.001482 0.001584 -0.000385
# 4 0.001372 0.002546 0.001482 0.028179 -0.002893 0.002251
# 5 0.002961 0.001503 0.001584 -0.002893 0.027951 0.001981
# 6 -0.000091 -0.000270 -0.000385 0.002251 0.001981 0.024385
#
#
# Mechanical properties :
#
#
# Convention : Reuss Voigt Hill
#
# Bulk Modulus (GPa) = 45.40177 58.51666 51.95921
# Shear Modulus (GPa) = 38.77419 42.28731 40.53075
#
# Velocity S-wave (km/s) = 4.11392 4.29625 4.20607
# Velocity P-wave (km/s) = 6.51022 7.08180 6.80202
#
# Compressibility (1/GPa) = 0.02202558
#
# Stress axis : x y z
#
# Youngs Moduli (GPa) = 118.10151 120.74360 67.51931
#
# Poissons Ratio (x) = 0.20395 0.10411
# Poissons Ratio (y) = 0.19949 0.10372
# Poissons Ratio (z) = 0.18210 0.18548
#
# Static dielectric constant tensor:
#      x y z
#    x 4.625310 -0.302980 -0.172190 
#    y -0.302980 4.658080 -0.148010 
#    z -0.172190 -0.148010 4.429010 
# 
# 
# High freq. dielectric constant tensor:
#      x y z
#    x 1.918320 -0.001310 -0.003670 
#    y -0.001310 1.918660 -0.003460 
#    z -0.003670 -0.003460 1.917300 
# 
# From -- ./inp_files/383050.got.cif
#   From: 2010.06.25/outbox.cif.g09.slc.cpg/sg2_192_cif.got.tgz:383050.got - 2010.06.27 13:26:56.
