data_PCOD8037384
_publ_section_title
;
Structure prediction by ZEFSAII (Michael W. Deem and Ramdas Pophale) SiO2 
 PCOD8037384
Probable space group: P -1
;
_chemical_formula_sum "Si O2"
_cell_formula_units_Z 14
_cell_length_a 11.181203
_cell_length_b 5.287250
_cell_length_c 20.237980
_cell_angle_alpha 61.752250
_cell_angle_beta 29.958737
_cell_angle_gamma 67.809173
_cell_volume 524.888102
_symmetry_space_group_name_H-M "P -1"
_symmetry_group_IT_number 2
_symmetry_cell_setting 'triclinic'
loop_
_space_group_symop_operation_xyz
x,y,z
-x,-y,-z
loop_
_atom_site_type_symbol
_atom_site_label
_atom_site_fract_x
_atom_site_fract_y
_atom_site_fract_z
Si Si1 0.839481 0.112825 0.623335
Si Si2 0.790153 0.049802 0.427368
Si Si3 0.613366 0.314553 0.912688
Si Si4 0.088820 0.221479 0.871945
Si Si5 0.510684 0.581162 0.692412
Si Si6 0.848538 0.714871 0.311175
Si Si7 0.407710 0.678892 0.870640
O O1 0.770845 0.446224 0.602018
O O2 0.960323 0.026166 0.646023
O O3 0.561552 0.979626 0.773411
O O4 0.000000 0.000000 0.500000
O O5 0.575538 0.891455 0.591086
O O6 0.758956 0.926980 0.383160
O O7 0.725723 0.384479 0.412971
O O8 0.576735 0.436088 0.842012
O O9 0.888023 0.342786 0.789146
O O10 0.500000 0.500000 0.000000
O O11 0.500000 0.000000 0.000000
O O12 0.332848 0.397026 0.752902
O O13 0.151057 0.120358 0.780390
O O14 0.843567 0.383627 0.961315
O O15 0.000000 0.000000 0.000000
O O16 0.353707 0.648209 0.822963
#
# Coordination Sequence:
#
# PCOD8037384 Si02
#       7
#     2   2   2   2   2   2   2
#     4  12  24  48  77 120 154 199 257 328 395 461
#     4  12  27  49  79 115 153 202 263 327 392 455
#     4  12  26  45  75 113 155 197 254 326 396 456
#     4  12  29  52  76 112 158 215 263 321 394 481
#     4  12  28  47  78 112 159 208 262 318 392 478
#     4  12  28  49  77 114 154 204 264 326 391 464
#     4  12  26  47  80 114 158 203 261 328 395 471
#
# _framework density 26.672350000000002
#
# number of rings (size 3 to 8) (size 9 to 14) (size 15 to 20)
#    0.000    0.000    5.714    3.429    4.000    2.286 
#    0.000    0.000    0.000    0.000    0.000    0.000 
#    0.000    0.000    0.000    0.000    0.000    0.000 
#
# Total GULP energy -173441.129012 kJ/mol
# GULP energy per Si atom -12388.652072 kJ/mol
# Density = 2.661164 g / cm^3
# Si number density = 26.672350 Si / 1000 Ang^3
#
#
#
# Elastic Constant Matrix: (Units=GPa)
#
#
# Indices 1 2 3 4 5 6 
#
# 1 155.8022 32.4683 44.0260 -2.4171 28.9466 10.1415
# 2 32.4683 100.0805 32.1232 -5.2561 15.2378 20.1834
# 3 44.0260 32.1232 95.2292 5.6488 8.6851 -2.0601
# 4 -2.4171 -5.2561 5.6488 40.8927 -7.2166 8.4137
# 5 28.9466 15.2378 8.6851 -7.2166 52.2430 4.6678
# 6 10.1415 20.1834 -2.0601 8.4137 4.6678 42.4643
#
#
#
# Elastic Compliance Matrix: (Units=1/GPa)
#
#
# Indices 1 2 3 4 5 6 
#
# 1 0.008287 -0.000747 -0.003313 0.000520 -0.003618 -0.001490
# 2 -0.000747 0.013484 -0.004402 0.003425 -0.001694 -0.006937
# 3 -0.003313 -0.004402 0.013825 -0.003558 -0.000052 0.004265
# 4 0.000520 0.003425 -0.003558 0.027705 0.003832 -0.007835
# 5 -0.003618 -0.001694 -0.000052 0.003832 0.022316 -0.001545
# 6 -0.001490 -0.006937 0.004265 -0.007835 -0.001545 0.029131
#
#
# Mechanical properties :
#
#
# Convention : Reuss Voigt Hill
#
# Bulk Modulus (GPa) = 53.54956 63.14963 58.34959
# Shear Modulus (GPa) = 36.25910 43.28629 39.77270
#
# Velocity S-wave (km/s) = 3.69104 4.03288 3.86574
# Velocity P-wave (km/s) = 6.18752 6.73891 6.46910
#
# Compressibility (1/GPa) = 0.01867429
#
# Stress axis : x y z
#
# Youngs Moduli (GPa) = 120.66542 74.16257 72.33084
#
# Poissons Ratio (x) = 0.05537 0.23960
# Poissons Ratio (y) = 0.09009 0.31840
# Poissons Ratio (z) = 0.39971 0.32646
#
# Static dielectric constant tensor:
#      x y z
#    x 5.386080 -0.437670 -0.267590 
#    y -0.437670 4.953880 0.203690 
#    z -0.267590 0.203690 5.796550 
# 
# 
# High freq. dielectric constant tensor:
#      x y z
#    x 2.101570 -0.012330 -0.004590 
#    y -0.012330 2.065610 0.000680 
#    z -0.004590 0.000680 2.086210 
# 
# From -- ./inp_files/409953.got.cif
#   From: 2010.06.25/outbox.cif.g09.slc.cpg/sg2_205_cif.got.tgz:409953.got - 2010.06.27 13:26:56.
