data_PCOD8037285
_publ_section_title
;
Structure prediction by ZEFSAII (Michael W. Deem and Ramdas Pophale) SiO2 
 PCOD8037285
Probable space group: P -1
;
_chemical_formula_sum "Si O2"
_cell_formula_units_Z 16
_cell_length_a 11.348773
_cell_length_b 8.969509
_cell_length_c 9.128623
_cell_angle_alpha 103.470859
_cell_angle_beta 48.750224
_cell_angle_gamma 99.875457
_cell_volume 679.209530
_symmetry_space_group_name_H-M "P -1"
_symmetry_group_IT_number 2
_symmetry_cell_setting 'triclinic'
loop_
_space_group_symop_operation_xyz
x,y,z
-x,-y,-z
loop_
_atom_site_type_symbol
_atom_site_label
_atom_site_fract_x
_atom_site_fract_y
_atom_site_fract_z
Si Si1 0.234490 0.128631 0.962711
Si Si2 0.089207 0.772676 0.659863
Si Si3 0.667836 0.974625 0.430580
Si Si4 0.130531 0.689718 0.288117
Si Si5 0.665787 0.590057 0.877393
Si Si6 0.612610 0.114965 0.028174
Si Si7 0.094993 0.465948 0.766323
Si Si8 0.651581 0.714726 0.603620
O O1 0.237904 0.129548 0.784472
O O2 0.335428 0.273629 0.972878
O O3 0.053009 0.124009 0.151592
O O4 0.311493 0.973973 0.920551
O O5 0.053522 0.737430 0.513106
O O6 0.096807 0.619411 0.709695
O O7 0.254267 0.859153 0.569396
O O8 0.677789 0.888114 0.559334
O O9 0.500000 0.000000 0.500000
O O10 0.201222 0.522842 0.208887
O O11 0.255336 0.821771 0.174670
O O12 0.995500 0.675242 0.272876
O O13 0.719938 0.664062 0.693820
O O14 0.500000 0.500000 0.000000
O O15 0.533451 0.268357 0.199234
O O16 0.500000 0.000000 0.000000
O O17 0.278183 0.405214 0.602917
O O18 0.000000 0.500000 0.000000
#
# Coordination Sequence:
#
# PCOD8037285 Si02
#       8
#     2   2   2   2   2   2   2   2
#     4  12  26  47  73 104 153 193 247 301 374 440
#     4  12  27  49  74 105 146 200 247 305 375 444
#     4  12  29  48  72 107 152 193 241 310 381 443
#     4  12  26  47  76 109 146 194 249 303 370 432
#     4  12  24  46  78 108 145 195 248 307 359 440
#     4  12  25  44  73 111 148 191 248 303 361 445
#     4  12  28  48  74 111 151 191 249 307 369 442
#     4  12  25  47  72 107 143 191 248 296 365 442
#
# _framework density 23.556795000000001
#
# number of rings (size 3 to 8) (size 9 to 14) (size 15 to 20)
#    0.000    0.000    6.250    3.000    5.250    0.500 
#    0.000    1.875    0.000    0.000    0.000    0.000 
#    0.000    0.000    0.000    0.000    0.000    0.000 
#
# Total GULP energy -198217.180168 kJ/mol
# GULP energy per Si atom -12388.573760 kJ/mol
# Density = 2.350318 g / cm^3
# Si number density = 23.556795 Si / 1000 Ang^3
#
#
#
# Elastic Constant Matrix: (Units=GPa)
#
#
# Indices 1 2 3 4 5 6 
#
# 1 76.1287 38.9791 20.5283 -7.0461 -0.6949 1.8146
# 2 38.9791 81.5477 29.4474 -18.1008 9.8409 11.1940
# 3 20.5283 29.4474 137.9329 3.2220 14.0363 1.8732
# 4 -7.0461 -18.1008 3.2220 51.4869 -10.3373 -4.4401
# 5 -0.6949 9.8409 14.0363 -10.3373 36.1829 9.5422
# 6 1.8146 11.1940 1.8732 -4.4401 9.5422 30.5625
#
#
#
# Elastic Compliance Matrix: (Units=1/GPa)
#
#
# Indices 1 2 3 4 5 6 
#
# 1 0.017860 -0.008612 -0.001129 0.000167 0.002827 0.001305
# 2 -0.008612 0.019395 -0.002747 0.005050 -0.001560 -0.005203
# 3 -0.001129 -0.002747 0.008397 -0.002238 -0.003523 0.001333
# 4 0.000167 0.005050 -0.002238 0.022542 0.006025 -0.000329
# 5 0.002827 -0.001560 -0.003523 0.006025 0.033574 -0.008988
# 6 0.001305 -0.005203 0.001333 -0.000329 -0.008988 0.037225
#
#
# Mechanical properties :
#
#
# Convention : Reuss Voigt Hill
#
# Bulk Modulus (GPa) = 48.36808 52.61319 50.49063
# Shear Modulus (GPa) = 29.26341 37.42341 33.34341
#
# Velocity S-wave (km/s) = 3.52838 3.99011 3.76632
# Velocity P-wave (km/s) = 6.09724 6.60386 6.35560
#
# Compressibility (1/GPa) = 0.02067479
#
# Stress axis : x y z
#
# Youngs Moduli (GPa) = 55.99142 51.55971 119.08851
#
# Poissons Ratio (x) = 0.44406 0.13441
# Poissons Ratio (y) = 0.48222 0.32719
# Poissons Ratio (z) = 0.06319 0.14166
#
# Static dielectric constant tensor:
#      x y z
#    x 4.278920 -0.249700 -0.115170 
#    y -0.249700 4.168960 0.085040 
#    z -0.115170 0.085040 4.746990 
# 
# 
# High freq. dielectric constant tensor:
#      x y z
#    x 1.919180 -0.020580 -0.006700 
#    y -0.020580 1.934550 -0.004530 
#    z -0.006700 -0.004530 1.962930 
# 
# From -- ./inp_files/244390.got.cif
#   From: 2010.06.25/outbox.cif.g09.slc.cpg/sg2_123_cif.got.tgz:244390.got - 2010.06.27 13:26:56.
