data_PCOD8037838
_publ_section_title
;
Structure prediction by ZEFSAII (Michael W. Deem and Ramdas Pophale) SiO2 
 PCOD8037838
Probable space group: P -1
;
_chemical_formula_sum "Si O2"
_cell_formula_units_Z 16
_cell_length_a 13.557169
_cell_length_b 10.424087
_cell_length_c 9.065139
_cell_angle_alpha 66.617030
_cell_angle_beta 63.915118
_cell_angle_gamma 49.851001
_cell_volume 867.416363
_symmetry_space_group_name_H-M "P -1"
_symmetry_group_IT_number 2
_symmetry_cell_setting 'triclinic'
loop_
_space_group_symop_operation_xyz
x,y,z
-x,-y,-z
loop_
_atom_site_type_symbol
_atom_site_label
_atom_site_fract_x
_atom_site_fract_y
_atom_site_fract_z
Si Si1 0.152193 0.020037 0.480724
Si Si2 0.905897 0.736581 0.829555
Si Si3 0.854594 0.214208 0.649105
Si Si4 0.659706 0.528116 0.456512
Si Si5 0.803305 0.210036 0.009438
Si Si6 0.057025 0.167963 0.942687
Si Si7 0.837456 0.620800 0.189827
Si Si8 0.365658 0.701408 0.652400
O O1 0.172459 0.150449 0.315141
O O2 0.011761 0.133985 0.610417
O O3 0.151983 0.900445 0.414425
O O4 0.272654 0.898200 0.568332
O O5 0.052090 0.577253 0.760304
O O6 0.928818 0.848372 0.879749
O O7 0.829376 0.666282 0.998513
O O8 0.773171 0.406089 0.555269
O O9 0.777065 0.229960 0.843111
O O10 0.696075 0.657159 0.313480
O O11 0.517266 0.643816 0.577116
O O12 0.653811 0.422358 0.375743
O O13 0.669673 0.315541 0.148011
O O14 0.869464 0.014105 0.099712
O O15 0.899841 0.269782 0.961236
O O16 0.121131 0.268418 0.797413
#
# Coordination Sequence:
#
# PCOD8037838 Si02
#       8
#     2   2   2   2   2   2   2   2
#     4  10  17  32  51  86  99 132 180 219 248 303
#     4   9  16  29  55  80  99 134 173 217 254 305
#     4  10  19  29  57  76 108 132 177 218 254 305
#     4  10  20  39  52  79 102 145 174 214 257 315
#     4  11  19  33  50  81 107 137 169 219 269 302
#     4   9  18  29  52  80 105 133 167 219 261 306
#     4   9  17  31  54  78 105 138 171 213 263 310
#     4  10  23  33  56  75 112 135 175 218 262 305
#
# _framework density 18.445582000000002
#
# number of rings (size 3 to 8) (size 9 to 14) (size 15 to 20)
#    0.750    1.500    2.500    2.250    1.750    0.500 
#    0.000    1.875    0.000    0.000    0.000    0.000 
#    0.000    0.000    0.000    0.000    0.000    0.000 
#
# Total GULP energy -198214.150764 kJ/mol
# GULP energy per Si atom -12388.384423 kJ/mol
# Density = 1.840360 g / cm^3
# Si number density = 18.445582 Si / 1000 Ang^3
#
#
#
# Elastic Constant Matrix: (Units=GPa)
#
#
# Indices 1 2 3 4 5 6 
#
# 1 65.4623 31.7336 38.7497 3.7087 -28.0611 -3.1413
# 2 31.7336 67.1147 41.6221 -2.0781 -13.9425 -11.7465
# 3 38.7497 41.6221 126.3097 7.6743 -23.0083 -15.3471
# 4 3.7087 -2.0781 7.6743 29.5964 -0.5446 -2.6669
# 5 -28.0611 -13.9425 -23.0083 -0.5446 32.3943 -1.2526
# 6 -3.1413 -11.7465 -15.3471 -2.6669 -1.2526 22.9481
#
#
#
# Elastic Compliance Matrix: (Units=1/GPa)
#
#
# Indices 1 2 3 4 5 6 
#
# 1 0.029725 -0.008629 -0.002574 -0.003417 0.020097 -0.001369
# 2 -0.008629 0.023218 -0.004289 0.004575 -0.000128 0.008360
# 3 -0.002574 -0.004289 0.011707 -0.002462 0.004401 0.005236
# 4 -0.003417 0.004575 -0.002462 0.035522 -0.001978 0.004248
# 5 0.020097 -0.000128 0.004401 -0.001978 0.051633 0.008217
# 6 -0.001369 0.008360 0.005236 0.004248 0.008217 0.052112
#
#
# Mechanical properties :
#
#
# Convention : Reuss Voigt Hill
#
# Bulk Modulus (GPa) = 29.70323 53.67750 41.69036
# Shear Modulus (GPa) = 20.31494 26.77316 23.54405
#
# Velocity S-wave (km/s) = 3.32225 3.81395 3.57656
# Velocity P-wave (km/s) = 5.55469 6.96840 6.30132
#
# Compressibility (1/GPa) = 0.03366637
#
# Stress axis : x y z
#
# Youngs Moduli (GPa) = 33.64166 43.06968 85.41605
#
# Poissons Ratio (x) = 0.37166 0.21983
# Poissons Ratio (y) = 0.29030 0.36637
# Poissons Ratio (z) = 0.08658 0.18473
#
# Static dielectric constant tensor:
#      x y z
#    x 3.032540 -0.046570 -0.055890 
#    y -0.046570 3.339150 -0.046540 
#    z -0.055890 -0.046540 3.398380 
# 
# 
# High freq. dielectric constant tensor:
#      x y z
#    x 1.668530 0.005560 -0.004180 
#    y 0.005560 1.701010 -0.003200 
#    z -0.004180 -0.003200 1.722900 
# 
# From -- ./inp_files/302796.got.cif
#   From: 2010.06.25/outbox.cif.g09.slc.cpg/sg2_152_cif.got.tgz:302796.got - 2010.06.27 13:26:56.
