data_PCOD8037011
_publ_section_title
;
Structure prediction by ZEFSAII (Michael W. Deem and Ramdas Pophale) SiO2 
 PCOD8037011
Probable space group: P -1
;
_chemical_formula_sum "Si O2"
_cell_formula_units_Z 16
_cell_length_a 8.838353
_cell_length_b 9.281446
_cell_length_c 14.161211
_cell_angle_alpha 109.614023
_cell_angle_beta 48.513595
_cell_angle_gamma 79.764458
_cell_volume 675.260160
_symmetry_space_group_name_H-M "P -1"
_symmetry_group_IT_number 2
_symmetry_cell_setting 'triclinic'
loop_
_space_group_symop_operation_xyz
x,y,z
-x,-y,-z
loop_
_atom_site_type_symbol
_atom_site_label
_atom_site_fract_x
_atom_site_fract_y
_atom_site_fract_z
Si Si1 0.892937 0.908073 0.968313
Si Si2 0.844619 0.491517 0.145204
Si Si3 0.406650 0.497990 0.229090
Si Si4 0.855605 0.419399 0.459735
Si Si5 0.323020 0.260605 0.547711
Si Si6 0.018066 0.867312 0.380404
Si Si7 0.578410 0.838593 0.859907
Si Si8 0.851178 0.109375 0.328336
O O1 0.982027 0.704697 0.918461
O O2 0.971551 0.902488 0.827265
O O3 0.598228 0.049540 0.132177
O O4 0.000000 0.000000 0.000000
O O5 0.620521 0.500150 0.190704
O O6 0.763594 0.653210 0.291562
O O7 0.000000 0.500000 0.000000
O O8 0.219711 0.504392 0.386011
O O9 0.489289 0.303742 0.102579
O O10 0.266214 0.663912 0.248333
O O11 0.763102 0.576713 0.455346
O O12 0.722792 0.313093 0.473668
O O13 0.142486 0.262662 0.305928
O O14 0.214071 0.146580 0.532494
O O15 0.618215 0.109644 0.389468
O O16 0.026348 0.945999 0.293330
O O17 0.000000 0.000000 0.500000
O O18 0.500000 0.000000 0.000000
#
# Coordination Sequence:
#
# PCOD8037011 Si02
#       8
#     2   2   2   2   2   2   2   2
#     4  12  27  48  74 110 151 197 254 309 376 451
#     4  12  27  50  75 109 151 197 249 311 384 447
#     4  12  26  49  76 113 150 200 253 312 375 447
#     4  12  23  46  81 109 146 191 260 312 372 441
#     4  12  25  47  78 110 145 196 255 315 376 442
#     4  12  27  46  70 114 156 192 247 311 381 440
#     4  12  25  45  74 113 152 195 250 305 376 450
#     4  12  25  47  77 110 150 195 258 313 367 457
#
# _framework density 23.694569000000001
#
# number of rings (size 3 to 8) (size 9 to 14) (size 15 to 20)
#    0.000    0.000    7.500    1.875    1.750    1.000 
#    4.500    1.250    0.000    0.000    0.000    0.000 
#    0.000    0.000    0.000    0.000    0.000    0.000 
#
# Total GULP energy -198332.234313 kJ/mol
# GULP energy per Si atom -12395.764645 kJ/mol
# Density = 2.364064 g / cm^3
# Si number density = 23.694569 Si / 1000 Ang^3
#
#
#
# Elastic Constant Matrix: (Units=GPa)
#
#
# Indices 1 2 3 4 5 6 
#
# 1 153.7868 66.9023 48.6832 11.2546 -8.5913 4.2640
# 2 66.9023 172.4447 54.2001 -0.7111 7.1524 -18.7235
# 3 48.6832 54.2001 88.7281 -2.3234 -12.6508 -10.6574
# 4 11.2546 -0.7111 -2.3234 38.8115 1.3749 7.2660
# 5 -8.5913 7.1524 -12.6508 1.3749 35.9484 12.3296
# 6 4.2640 -18.7235 -10.6574 7.2660 12.3296 57.6344
#
#
#
# Elastic Compliance Matrix: (Units=1/GPa)
#
#
# Indices 1 2 3 4 5 6 
#
# 1 0.009209 -0.002936 -0.003254 -0.002549 0.002584 -0.002468
# 2 -0.002936 0.008792 -0.004067 0.000318 -0.005047 0.003361
# 3 -0.003254 -0.004067 0.016443 0.001549 0.005562 0.000575
# 4 -0.002549 0.000318 0.001549 0.027134 -0.000205 -0.002799
# 5 0.002584 -0.005047 0.005562 -0.000205 0.034179 -0.008088
# 6 -0.002468 0.003361 0.000575 -0.002799 -0.008088 0.020815
#
#
# Mechanical properties :
#
#
# Convention : Reuss Voigt Hill
#
# Bulk Modulus (GPa) = 71.79137 83.83675 77.81406
# Shear Modulus (GPa) = 35.27844 42.82380 39.05112
#
# Velocity S-wave (km/s) = 3.86279 4.25588 4.06409
# Velocity P-wave (km/s) = 7.08938 7.72069 7.41176
#
# Compressibility (1/GPa) = 0.01392925
#
# Stress axis : x y z
#
# Youngs Moduli (GPa) = 108.58829 113.74198 60.81525
#
# Poissons Ratio (x) = 0.33390 0.19792
# Poissons Ratio (y) = 0.31877 0.24736
# Poissons Ratio (z) = 0.35339 0.46264
#
# Static dielectric constant tensor:
#      x y z
#    x 4.651830 0.133730 0.042580 
#    y 0.133730 4.501430 0.102470 
#    z 0.042580 0.102470 4.084330 
# 
# 
# High freq. dielectric constant tensor:
#      x y z
#    x 1.972770 0.008030 -0.003590 
#    y 0.008030 1.947200 0.017160 
#    z -0.003590 0.017160 1.925860 
# 
# From -- ./inp_files/495395.got.cif
#   From: 2010.06.25/outbox.cif.g09.slc.cpg/sg2_248_cif.got.tgz:495395.got - 2010.06.27 13:26:56.
