data_PCOD8037558
_publ_section_title
;
Structure prediction by ZEFSAII (Michael W. Deem and Ramdas Pophale) SiO2 
 PCOD8037558
Probable space group: P -1
;
_chemical_formula_sum "Si O2"
_cell_formula_units_Z 10
_cell_length_a 7.883474
_cell_length_b 10.635095
_cell_length_c 8.326701
_cell_angle_alpha 55.974671
_cell_angle_beta 113.267570
_cell_angle_gamma 78.476939
_cell_volume 442.982105
_symmetry_space_group_name_H-M "P -1"
_symmetry_group_IT_number 2
_symmetry_cell_setting 'triclinic'
loop_
_space_group_symop_operation_xyz
x,y,z
-x,-y,-z
loop_
_atom_site_type_symbol
_atom_site_label
_atom_site_fract_x
_atom_site_fract_y
_atom_site_fract_z
Si Si1 0.437122 0.854986 0.589705
Si Si2 0.833138 0.449541 0.527637
Si Si3 0.615180 0.266423 0.008764
Si Si4 0.198660 0.507509 0.144136
Si Si5 0.992015 0.058597 0.775415
O O1 0.486115 0.759287 0.849931
O O2 0.582263 0.696244 0.628448
O O3 0.179046 0.964444 0.373719
O O4 0.500000 0.000000 0.500000
O O5 0.854367 0.416373 0.749652
O O6 0.911392 0.267325 0.589490
O O7 0.000000 0.500000 0.500000
O O8 0.582171 0.604201 0.278981
O O9 0.755382 0.356891 0.033495
O O10 0.768454 0.068732 0.125469
O O11 0.000000 0.500000 0.000000
O O12 0.000000 0.000000 0.000000
#
# Coordination Sequence:
#
# PCOD8037558 Si02
#       5
#     2   2   2   2   2
#     4  12  28  46  73 109 146 191 242 295 358 427
#     4  12  28  47  75 108 144 193 238 296 362 426
#     4  12  26  50  75 102 149 191 239 300 356 427
#     4  12  25  47  74 105 146 189 241 296 360 426
#     4  12  26  48  74 104 147 187 243 296 356 426
#
# _framework density 22.574273000000002
#
# number of rings (size 3 to 8) (size 9 to 14) (size 15 to 20)
#    0.000    0.000    4.000    5.400    8.400    0.800 
#    0.000    0.000    0.000    0.000    0.000    0.000 
#    0.000    0.000    0.000    0.000    0.000    0.000 
#
# Total GULP energy -124072.742533 kJ/mol
# GULP energy per Si atom -12407.274253 kJ/mol
# Density = 2.252289 g / cm^3
# Si number density = 22.574273 Si / 1000 Ang^3
#
#
#
# Elastic Constant Matrix: (Units=GPa)
#
#
# Indices 1 2 3 4 5 6 
#
# 1 125.6963 55.1094 48.5934 -20.7517 -0.8100 15.3984
# 2 55.1094 125.6504 47.6861 -22.3419 1.5545 3.7892
# 3 48.5934 47.6861 108.1729 -9.5451 -0.6469 12.5883
# 4 -20.7517 -22.3419 -9.5451 44.9330 -2.1833 9.4117
# 5 -0.8100 1.5545 -0.6469 -2.1833 59.0677 -9.2841
# 6 15.3984 3.7892 12.5883 9.4117 -9.2841 44.6464
#
#
#
# Elastic Compliance Matrix: (Units=1/GPa)
#
#
# Indices 1 2 3 4 5 6 
#
# 1 0.011614 -0.003116 -0.003060 0.003940 -0.000237 -0.003758
# 2 -0.003116 0.011148 -0.003256 0.003340 -0.000201 0.000301
# 3 -0.003060 -0.003256 0.012310 0.000031 -0.000163 -0.002180
# 4 0.003940 0.003340 0.000031 0.027292 -0.000195 -0.007445
# 5 -0.000237 -0.000201 -0.000163 -0.000195 0.017525 0.003830
# 6 -0.003758 0.000301 -0.002180 -0.007445 0.003830 0.026649
#
#
# Mechanical properties :
#
#
# Convention : Reuss Voigt Hill
#
# Bulk Modulus (GPa) = 61.69772 73.58858 67.64315
# Shear Modulus (GPa) = 38.22454 43.60481 40.91467
#
# Velocity S-wave (km/s) = 4.11941 4.39978 4.26190
# Velocity P-wave (km/s) = 7.07223 7.64722 7.36534
#
# Compressibility (1/GPa) = 0.01620805
#
# Stress axis : x y z
#
# Youngs Moduli (GPa) = 86.10208 89.70079 81.23423
#
# Poissons Ratio (x) = 0.27947 0.24859
# Poissons Ratio (y) = 0.26826 0.26453
# Poissons Ratio (z) = 0.26349 0.29210
#
# Static dielectric constant tensor:
#      x y z
#    x 4.298800 -0.072010 0.056480 
#    y -0.072010 4.423430 -0.128780 
#    z 0.056480 -0.128780 4.271160 
# 
# 
# High freq. dielectric constant tensor:
#      x y z
#    x 1.904310 -0.003520 0.003530 
#    y -0.003520 1.900960 -0.010560 
#    z 0.003530 -0.010560 1.897120 
# 
# From -- ./inp_files/147001.got.cif
#   From: 2010.06.25/outbox.cif.g09.slc.cpg/sg2_74_cif.got.tgz:147001.got - 2010.06.27 13:26:56.
