data_PCOD8037583
_publ_section_title
;
Structure prediction by ZEFSAII (Michael W. Deem and Ramdas Pophale) SiO2 
 PCOD8037583
Probable space group: P -1
;
_chemical_formula_sum "Si O2"
_cell_formula_units_Z 12
_cell_length_a 8.066861
_cell_length_b 6.959902
_cell_length_c 14.339341
_cell_angle_alpha 112.427780
_cell_angle_beta 40.739314
_cell_angle_gamma 125.000077
_cell_volume 428.261952
_symmetry_space_group_name_H-M "P -1"
_symmetry_group_IT_number 2
_symmetry_cell_setting 'triclinic'
loop_
_space_group_symop_operation_xyz
x,y,z
-x,-y,-z
loop_
_atom_site_type_symbol
_atom_site_label
_atom_site_fract_x
_atom_site_fract_y
_atom_site_fract_z
Si Si1 0.212775 0.311760 0.263619
Si Si2 0.657653 0.032909 0.207466
Si Si3 0.322004 0.124842 0.636271
Si Si4 0.353870 0.344320 0.422053
Si Si5 0.856556 0.514971 0.968919
Si Si6 0.867862 0.312595 0.736804
O O1 0.236375 0.343930 0.369354
O O2 0.057020 0.449867 0.309728
O O3 0.518483 0.410127 0.101195
O O4 0.017199 0.034245 0.273013
O O5 0.535407 0.205435 0.329362
O O6 0.991416 0.204658 0.068426
O O7 0.642722 0.853686 0.261711
O O8 0.463196 0.885475 0.175908
O O9 0.436116 0.382183 0.589110
O O10 0.500000 0.000000 0.500000
O O11 0.081809 0.221579 0.585458
O O12 0.917668 0.367710 0.835589
O O13 0.000000 0.500000 0.000000
#
# Coordination Sequence:
#
# PCOD8037583 Si02
#       6
#     2   2   2   2   2   2
#     4  12  25  49  78 111 154 204 255 314 384 453
#     4  12  27  48  78 116 155 202 257 313 385 457
#     4  12  25  47  80 113 157 201 247 318 389 447
#     4  12  26  51  77 119 157 194 259 320 378 461
#     4  12  28  52  72 114 155 205 264 313 380 458
#     4  12  26  48  83 109 155 205 256 316 389 454
#
# _framework density 28.020230999999999
#
# number of rings (size 3 to 8) (size 9 to 14) (size 15 to 20)
#    0.000    0.000    6.667    2.500    0.000    6.667 
#    0.000    0.000    0.000    0.000    0.000    0.000 
#    0.000    0.000    0.000    0.000    0.000    0.000 
#
# Total GULP energy -148901.771904 kJ/mol
# GULP energy per Si atom -12408.480992 kJ/mol
# Density = 2.795646 g / cm^3
# Si number density = 28.020231 Si / 1000 Ang^3
#
#
#
# Elastic Constant Matrix: (Units=GPa)
#
#
# Indices 1 2 3 4 5 6 
#
# 1 98.0624 11.1955 41.9153 -7.6745 9.1263 20.3880
# 2 11.1955 132.3463 25.6988 -31.7436 -0.7228 17.8811
# 3 41.9153 25.6988 122.6815 -25.7180 17.5793 30.3309
# 4 -7.6745 -31.7436 -25.7180 48.0925 14.8868 -2.2972
# 5 9.1263 -0.7228 17.5793 14.8868 42.5016 -4.8831
# 6 20.3880 17.8811 30.3309 -2.2972 -4.8831 59.2552
#
#
#
# Elastic Compliance Matrix: (Units=1/GPa)
#
#
# Indices 1 2 3 4 5 6 
#
# 1 0.012343 0.000147 -0.003054 0.000927 -0.002038 -0.002860
# 2 0.000147 0.009670 0.000855 0.007728 -0.003316 -0.003380
# 3 -0.003054 0.000855 0.014286 0.010379 -0.009669 -0.006914
# 4 0.000927 0.007728 0.010379 0.036839 -0.018187 -0.008035
# 5 -0.002038 -0.003316 -0.009669 -0.018187 0.035297 0.008855
# 6 -0.002860 -0.003380 -0.006914 -0.008035 0.008855 0.022837
#
#
# Mechanical properties :
#
#
# Convention : Reuss Voigt Hill
#
# Bulk Modulus (GPa) = 31.06174 56.74548 43.90361
# Shear Modulus (GPa) = 34.22111 48.25523 41.23817
#
# Velocity S-wave (km/s) = 3.49850 4.15439 3.84047
# Velocity P-wave (km/s) = 5.23726 6.58084 5.94712
#
# Compressibility (1/GPa) = 0.03219395
#
# Stress axis : x y z
#
# Youngs Moduli (GPa) = 81.01613 103.41649 69.99676
#
# Poissons Ratio (x) = -0.01516 0.21380
# Poissons Ratio (y) = -0.01188 -0.05986
# Poissons Ratio (z) = 0.24746 -0.08844
#
# Static dielectric constant tensor:
#      x y z
#    x 5.482460 0.027090 -0.299830 
#    y 0.027090 5.487700 -0.156530 
#    z -0.299830 -0.156530 5.765990 
# 
# 
# High freq. dielectric constant tensor:
#      x y z
#    x 2.153260 0.011330 0.003510 
#    y 0.011330 2.147910 -0.014110 
#    z 0.003510 -0.014110 2.132520 
# 
# From -- ./inp_files/326744.got.cif
#   From: 2010.06.25/outbox.cif.g09.slc.cpg/sg2_164_cif.got.tgz:326744.got - 2010.06.27 13:26:56.
