data_PCOD8037654
_publ_section_title
;
Structure prediction by ZEFSAII (Michael W. Deem and Ramdas Pophale) SiO2 
 PCOD8037654
Probable space group: P -1
;
_chemical_formula_sum "Si O2"
_cell_formula_units_Z 14
_cell_length_a 5.341743
_cell_length_b 12.071555
_cell_length_c 12.116541
_cell_angle_alpha 49.993991
_cell_angle_beta 67.145911
_cell_angle_gamma 72.755331
_cell_volume 550.273910
_symmetry_space_group_name_H-M "P -1"
_symmetry_group_IT_number 2
_symmetry_cell_setting 'triclinic'
loop_
_space_group_symop_operation_xyz
x,y,z
-x,-y,-z
loop_
_atom_site_type_symbol
_atom_site_label
_atom_site_fract_x
_atom_site_fract_y
_atom_site_fract_z
Si Si1 0.198520 0.610386 0.349074
Si Si2 0.087624 0.096596 0.324034
Si Si3 0.936813 0.361367 0.893962
Si Si4 0.653041 0.413423 0.319556
Si Si5 0.352356 0.826844 0.350454
Si Si6 0.243262 0.095004 0.933341
Si Si7 0.572882 0.282415 0.197429
O O1 0.495295 0.525696 0.357257
O O2 0.169772 0.750256 0.341253
O O3 0.000000 0.500000 0.500000
O O4 0.159034 0.660330 0.199636
O O5 0.299006 0.208361 0.260777
O O6 0.818843 0.173959 0.268004
O O7 0.233905 0.992071 0.274983
O O8 0.000000 0.000000 0.500000
O O9 0.059044 0.517267 0.794146
O O10 0.150189 0.219024 0.961400
O O11 0.682337 0.361631 0.020403
O O12 0.670370 0.256090 0.475773
O O13 0.505497 0.395680 0.237237
O O14 0.656758 0.828295 0.246518
O O15 0.500000 0.000000 0.000000
O O16 0.000000 0.000000 0.000000
#
# Coordination Sequence:
#
# PCOD8037654 Si02
#       7
#     2   2   2   2   2   2   2
#     4  12  26  45  78 113 155 204 253 320 390 458
#     4  12  28  53  79 114 155 207 262 318 383 462
#     4  12  27  50  74 117 156 200 262 315 396 460
#     4  12  27  48  77 115 155 206 256 322 387 468
#     4  12  25  49  79 113 154 200 265 321 388 461
#     4  12  26  47  74 108 151 198 248 315 377 449
#     4  12  30  51  82 114 157 206 261 320 387 460
#
# _framework density 25.441877000000002
#
# number of rings (size 3 to 8) (size 9 to 14) (size 15 to 20)
#    0.000    0.000    4.286    4.714    6.000    1.714 
#    0.000    0.000    0.000    0.000    0.000    0.000 
#    0.000    0.000    0.000    0.000    0.000    0.000 
#
# Total GULP energy -173602.615514 kJ/mol
# GULP energy per Si atom -12400.186822 kJ/mol
# Density = 2.538397 g / cm^3
# Si number density = 25.441877 Si / 1000 Ang^3
#
#
#
# Elastic Constant Matrix: (Units=GPa)
#
#
# Indices 1 2 3 4 5 6 
#
# 1 71.7855 4.1717 22.5942 -13.4898 -12.8833 13.6557
# 2 4.1717 128.6009 6.4903 7.3763 -9.5561 24.9253
# 3 22.5942 6.4903 157.5364 7.7849 -26.3967 20.8945
# 4 -13.4898 7.3763 7.7849 41.2879 6.0093 -3.4623
# 5 -12.8833 -9.5561 -26.3967 6.0093 53.7658 -4.5338
# 6 13.6557 24.9253 20.8945 -3.4623 -4.5338 40.8846
#
#
#
# Elastic Compliance Matrix: (Units=1/GPa)
#
#
# Indices 1 2 3 4 5 6 
#
# 1 0.016592 0.000229 -0.001710 0.005026 0.002267 -0.004131
# 2 0.000229 0.009194 0.000836 -0.002509 0.001864 -0.006114
# 3 -0.001710 0.000836 0.007812 -0.003022 0.003593 -0.003788
# 4 0.005026 -0.002509 -0.003022 0.027676 -0.003536 0.003347
# 5 0.002267 0.001864 0.003593 -0.003536 0.021494 -0.001646
# 6 -0.004131 -0.006114 -0.003788 0.003347 -0.001646 0.031603
#
#
# Mechanical properties :
#
#
# Convention : Reuss Voigt Hill
#
# Bulk Modulus (GPa) = 30.95203 47.15945 39.05574
# Shear Modulus (GPa) = 39.54702 48.83211 44.18957
#
# Velocity S-wave (km/s) = 3.94687 4.38580 4.17211
# Velocity P-wave (km/s) = 5.74131 6.65007 6.21233
#
# Compressibility (1/GPa) = 0.03230805
#
# Stress axis : x y z
#
# Youngs Moduli (GPa) = 60.26849 108.76735 128.00330
#
# Poissons Ratio (x) = -0.02488 0.21886
# Poissons Ratio (y) = -0.01379 -0.10698
# Poissons Ratio (z) = 0.10305 -0.09090
#
# Static dielectric constant tensor:
#      x y z
#    x 4.392070 -0.380290 -0.013360 
#    y -0.380290 5.156110 0.058230 
#    z -0.013360 0.058230 4.932960 
# 
# 
# High freq. dielectric constant tensor:
#      x y z
#    x 2.010890 -0.007690 -0.006650 
#    y -0.007690 2.035330 0.001460 
#    z -0.006650 0.001460 2.038250 
# 
# From -- ./inp_files/71131.got.cif
#   From: 2010.06.25/outbox.cif.g09.slc.cpg/sg2_36_cif.got.tgz:71131.got - 2010.06.27 13:26:56.
