data_PCOD8037215
_publ_section_title
;
Structure prediction by ZEFSAII (Michael W. Deem and Ramdas Pophale) SiO2 
 PCOD8037215
Probable space group: P -1
;
_chemical_formula_sum "Si O2"
_cell_formula_units_Z 12
_cell_length_a 9.776845
_cell_length_b 12.433182
_cell_length_c 9.954614
_cell_angle_alpha 145.021638
_cell_angle_beta 137.882888
_cell_angle_gamma 55.481476
_cell_volume 462.550804
_symmetry_space_group_name_H-M "P -1"
_symmetry_group_IT_number 2
_symmetry_cell_setting 'triclinic'
loop_
_space_group_symop_operation_xyz
x,y,z
-x,-y,-z
loop_
_atom_site_type_symbol
_atom_site_label
_atom_site_fract_x
_atom_site_fract_y
_atom_site_fract_z
Si Si1 0.069451 0.796053 0.126068
Si Si2 0.509927 0.300518 0.026898
Si Si3 0.039146 0.591579 0.479508
Si Si4 0.270841 0.113554 0.434597
Si Si5 0.484203 0.715037 0.445928
Si Si6 0.648988 0.839329 0.959865
O O1 0.264408 0.797707 0.370127
O O2 0.890668 0.903231 0.173921
O O3 0.150201 0.905591 0.159465
O O4 0.980750 0.580201 0.816022
O O5 0.737491 0.292039 0.240795
O O6 0.473526 0.508780 0.159079
O O7 0.466507 0.152842 0.719733
O O8 0.357654 0.246548 0.984392
O O9 0.000000 0.500000 0.500000
O O10 0.877175 0.733997 0.470692
O O11 0.347952 0.142797 0.367769
O O12 0.566880 0.690722 0.631758
O O13 0.500000 0.000000 0.000000
#
# Coordination Sequence:
#
# PCOD8037215 Si02
#       6
#     2   2   2   2   2   2
#     4  12  27  45  75 109 143 192 245 294 362 429
#     4  12  25  47  75 104 148 192 235 299 362 426
#     4  12  24  45  75 107 145 188 239 295 364 425
#     4  12  26  48  76 111 146 186 241 305 357 428
#     4  12  25  47  75 106 146 190 242 296 363 427
#     4  12  28  48  70 106 149 192 244 296 358 432
#
# _framework density 25.943096000000001
#
# number of rings (size 3 to 8) (size 9 to 14) (size 15 to 20)
#    0.000    0.000    5.000    4.500    0.000    8.667 
#    0.000    0.000    0.000    0.000    0.000    0.000 
#    0.000    0.000    0.000    0.000    0.000    0.000 
#
# Total GULP energy -148832.425003 kJ/mol
# GULP energy per Si atom -12402.702084 kJ/mol
# Density = 2.588405 g / cm^3
# Si number density = 25.943096 Si / 1000 Ang^3
#
#
#
# Elastic Constant Matrix: (Units=GPa)
#
#
# Indices 1 2 3 4 5 6 
#
# 1 106.5437 2.3751 8.1641 -21.2067 29.2013 -4.6320
# 2 2.3751 66.3508 -11.0499 -6.3706 18.1137 -12.7390
# 3 8.1641 -11.0499 79.5020 -6.7148 13.4207 3.3348
# 4 -21.2067 -6.3706 -6.7148 30.6170 1.3358 -2.9679
# 5 29.2013 18.1137 13.4207 1.3358 40.5721 -13.8463
# 6 -4.6320 -12.7390 3.3348 -2.9679 -13.8463 61.5125
#
#
#
# Elastic Compliance Matrix: (Units=1/GPa)
#
#
# Indices 1 2 3 4 5 6 
#
# 1 0.015899 0.005262 0.002856 0.013339 -0.015413 -0.000694
# 2 0.005262 0.021186 0.005710 0.010111 -0.014920 0.001604
# 3 0.002856 0.005710 0.015485 0.006877 -0.010453 -0.001463
# 4 0.013339 0.010111 0.006877 0.046377 -0.017572 0.001008
# 5 -0.015413 -0.014920 -0.010453 -0.017572 0.048627 0.006414
# 6 -0.000694 0.001604 -0.001463 0.001008 0.006414 0.018108
#
#
# Mechanical properties :
#
#
# Convention : Reuss Voigt Hill
#
# Bulk Modulus (GPa) = 12.46493 27.93055 20.19774
# Shear Modulus (GPa) = 30.34551 43.40080 36.87316
#
# Velocity S-wave (km/s) = 3.42379 4.09458 3.77412
# Velocity P-wave (km/s) = 4.52161 5.75704 5.17631
#
# Compressibility (1/GPa) = 0.08022509
#
# Stress axis : x y z
#
# Youngs Moduli (GPa) = 62.89781 47.20148 64.57734
#
# Poissons Ratio (x) = -0.24836 -0.18445
# Poissons Ratio (y) = -0.33095 -0.36871
# Poissons Ratio (z) = -0.17965 -0.26950
#
# Static dielectric constant tensor:
#      x y z
#    x 5.084640 -0.325820 0.293510 
#    y -0.325820 4.854890 0.006590 
#    z 0.293510 0.006590 4.942750 
# 
# 
# High freq. dielectric constant tensor:
#      x y z
#    x 2.040340 -0.021190 0.009760 
#    y -0.021190 2.045730 0.000540 
#    z 0.009760 0.000540 2.036030 
# 
# From -- ./inp_files/183653.got.cif
#   From: 2010.06.25/outbox.cif.g09.slc.cpg/sg2_92_cif.got.tgz:183653.got - 2010.06.27 13:26:56.
