data_PCOD8037689
_publ_section_title
;
Structure prediction by ZEFSAII (Michael W. Deem and Ramdas Pophale) SiO2 
 PCOD8037689
Probable space group: P -1
;
_chemical_formula_sum "Si O2"
_cell_formula_units_Z 14
_cell_length_a 16.445837
_cell_length_b 12.651554
_cell_length_c 22.001375
_cell_angle_alpha 153.697141
_cell_angle_beta 18.080739
_cell_angle_gamma 153.099154
_cell_volume 602.891737
_symmetry_space_group_name_H-M "P -1"
_symmetry_group_IT_number 2
_symmetry_cell_setting 'triclinic'
loop_
_space_group_symop_operation_xyz
x,y,z
-x,-y,-z
loop_
_atom_site_type_symbol
_atom_site_label
_atom_site_fract_x
_atom_site_fract_y
_atom_site_fract_z
Si Si1 0.994727 0.632365 0.510757
Si Si2 0.531996 0.251841 0.074409
Si Si3 0.152134 0.350261 0.855568
Si Si4 0.292560 0.975869 0.905871
Si Si5 0.490625 0.084486 0.397615
Si Si6 0.974760 0.312200 0.248996
Si Si7 0.825234 0.199654 0.721392
O O1 0.888168 0.416910 0.426178
O O2 0.000000 0.500000 0.500000
O O3 0.768347 0.777626 0.754054
O O4 0.300166 0.809410 0.372742
O O5 0.613347 0.471948 0.178815
O O6 0.761187 0.285085 0.877313
O O7 0.500000 0.000000 0.000000
O O8 0.291453 0.224007 0.640697
O O9 0.000000 0.500000 0.000000
O O10 0.956639 0.162466 0.945057
O O11 0.370804 0.803747 0.708260
O O12 0.548910 0.072901 0.817095
O O13 0.221730 0.197175 0.030982
O O14 0.727839 0.088811 0.280785
O O15 0.026770 0.543243 0.284583
O O16 0.000000 0.000000 0.500000
#
# Coordination Sequence:
#
# PCOD8037689 Si02
#       7
#     2   2   2   2   2   2   2
#     4  12  26  45  78 109 150 200 249 311 376 452
#     4  12  26  49  73 109 152 195 253 313 380 457
#     4  12  28  48  76 114 155 199 258 318 382 458
#     4  12  28  49  78 112 155 200 256 319 381 452
#     4  12  27  48  79 111 155 199 256 313 385 452
#     4  12  26  50  75 114 151 199 257 312 380 454
#     4  12  27  47  78 110 150 200 253 315 383 451
#
# _framework density 23.221416999999999
#
# number of rings (size 3 to 8) (size 9 to 14) (size 15 to 20)
#    0.000    0.000    2.857    6.857    8.000    1.714 
#    0.000    0.000    0.000    0.000    0.000    0.000 
#    0.000    0.000    0.000    0.000    0.000    0.000 
#
# Total GULP energy -173518.476297 kJ/mol
# GULP energy per Si atom -12394.176878 kJ/mol
# Density = 2.316856 g / cm^3
# Si number density = 23.221417 Si / 1000 Ang^3
#
#
#
# Elastic Constant Matrix: (Units=GPa)
#
#
# Indices 1 2 3 4 5 6 
#
# 1 132.2388 39.5328 61.3297 4.8885 5.0135 -12.6447
# 2 39.5328 87.3646 39.1688 -2.0938 -12.8991 -4.4957
# 3 61.3297 39.1688 143.8920 -4.5071 0.2490 -15.0634
# 4 4.8885 -2.0938 -4.5071 23.9521 1.7041 -4.1190
# 5 5.0135 -12.8991 0.2490 1.7041 69.3715 -1.6372
# 6 -12.6447 -4.4957 -15.0634 -4.1190 -1.6372 53.8237
#
#
#
# Elastic Compliance Matrix: (Units=1/GPa)
#
#
# Indices 1 2 3 4 5 6 
#
# 1 0.010442 -0.003352 -0.003528 -0.002837 -0.001274 0.000930
# 2 -0.003352 0.014543 -0.002505 0.001261 0.002922 -0.000088
# 3 -0.003528 -0.002505 0.009404 0.002596 -0.000266 0.001784
# 4 -0.002837 0.001261 0.002596 0.043566 -0.000558 0.003482
# 5 -0.001274 0.002922 -0.000266 -0.000558 0.015072 0.000286
# 6 0.000930 -0.000088 0.001784 0.003482 0.000286 0.019565
#
#
# Mechanical properties :
#
#
# Convention : Reuss Voigt Hill
#
# Bulk Modulus (GPa) = 64.01926 71.50645 67.76286
# Shear Modulus (GPa) = 36.61181 44.32708 40.46944
#
# Velocity S-wave (km/s) = 3.97500 4.37382 4.17917
# Velocity P-wave (km/s) = 6.97828 7.50781 7.24788
#
# Compressibility (1/GPa) = 0.01562030
#
# Stress axis : x y z
#
# Youngs Moduli (GPa) = 95.76486 68.76059 106.34136
#
# Poissons Ratio (x) = 0.23047 0.37513
# Poissons Ratio (y) = 0.32098 0.26639
# Poissons Ratio (z) = 0.33782 0.17225
#
# Static dielectric constant tensor:
#      x y z
#    x 4.537070 0.007090 0.108520 
#    y 0.007090 4.211360 -0.103050 
#    z 0.108520 -0.103050 4.421350 
# 
# 
# High freq. dielectric constant tensor:
#      x y z
#    x 1.947900 0.010600 0.005820 
#    y 0.010600 1.911000 -0.007460 
#    z 0.005820 -0.007460 1.935570 
# 
# From -- ./inp_files/274146.got.cif
#   From: 2010.06.25/outbox.cif.g09.slc.cpg/sg2_138_cif.got.tgz:274146.got - 2010.06.27 13:26:56.
