data_PCOD8037851
_publ_section_title
;
Structure prediction by ZEFSAII (Michael W. Deem and Ramdas Pophale) SiO2 
 PCOD8037851
Probable space group: P -1
;
_chemical_formula_sum "Si O2"
_cell_formula_units_Z 16
_cell_length_a 10.114548
_cell_length_b 14.252828
_cell_length_c 13.837816
_cell_angle_alpha 34.651279
_cell_angle_beta 50.709092
_cell_angle_gamma 69.133372
_cell_volume 814.000253
_symmetry_space_group_name_H-M "P -1"
_symmetry_group_IT_number 2
_symmetry_cell_setting 'triclinic'
loop_
_space_group_symop_operation_xyz
x,y,z
-x,-y,-z
loop_
_atom_site_type_symbol
_atom_site_label
_atom_site_fract_x
_atom_site_fract_y
_atom_site_fract_z
Si Si1 0.413390 0.715952 0.297930
Si Si2 0.350602 0.084784 0.495509
Si Si3 0.541678 0.318174 0.367471
Si Si4 0.307008 0.330906 0.638780
Si Si5 0.035235 0.147144 0.069716
Si Si6 0.897832 0.626758 0.971565
Si Si7 0.224628 0.929222 0.493337
Si Si8 0.282231 0.993591 0.196618
O O1 0.297178 0.525929 0.465439
O O2 0.552517 0.679600 0.336650
O O3 0.280371 0.795661 0.347839
O O4 0.520027 0.855772 0.047300
O O5 0.446662 0.277414 0.339430
O O6 0.284219 0.086309 0.414121
O O7 0.500000 0.000000 0.500000
O O8 0.182168 0.958286 0.746378
O O9 0.369346 0.274299 0.557204
O O10 0.653543 0.192469 0.447825
O O11 0.680538 0.526061 0.132251
O O12 0.106942 0.200616 0.881313
O O13 0.087367 0.326285 0.960402
O O14 0.122765 0.014680 0.188151
O O15 0.005653 0.811711 0.708275
O O16 0.000000 0.500000 0.000000
O O17 0.250093 0.020925 0.300485
#
# Coordination Sequence:
#
# PCOD8037851 Si02
#       8
#     2   2   2   2   2   2   2   2
#     4   9  18  30  50  85 112 136 168 222 269 315
#     4   9  20  36  51  77 108 141 178 222 256 316
#     4  10  17  32  54  79 106 140 180 220 260 305
#     4  10  18  31  55  80 107 136 181 222 261 309
#     4  10  21  34  54  84 108 134 180 223 266 314
#     4   9  18  30  50  77 103 135 178 222 254 301
#     4   9  18  32  53  77 107 142 174 217 267 313
#     4  10  18  31  53  81 115 137 168 218 277 317
#
# _framework density 19.656013000000002
#
# number of rings (size 3 to 8) (size 9 to 14) (size 15 to 20)
#    0.000    2.500    1.250    3.000    1.750    2.500 
#    0.000    0.000    0.000    7.500    0.000    0.000 
#    0.000    0.000    0.000    0.000    0.000    0.000 
#
# Total GULP energy -198237.285763 kJ/mol
# GULP energy per Si atom -12389.830360 kJ/mol
# Density = 1.961127 g / cm^3
# Si number density = 19.656013 Si / 1000 Ang^3
#
#
#
# Elastic Constant Matrix: (Units=GPa)
#
#
# Indices 1 2 3 4 5 6 
#
# 1 43.4614 22.5495 45.9200 6.6912 -17.4273 8.7236
# 2 22.5495 98.4364 49.1131 19.8183 -8.8682 8.9900
# 3 45.9200 49.1131 84.0868 14.4724 -10.1809 10.7696
# 4 6.6912 19.8183 14.4724 35.5207 -0.2026 -0.8626
# 5 -17.4273 -8.8682 -10.1809 -0.2026 30.7197 -0.3836
# 6 8.7236 8.9900 10.7696 -0.8626 -0.3836 36.2421
#
#
#
# Elastic Compliance Matrix: (Units=1/GPa)
#
#
# Indices 1 2 3 4 5 6 
#
# 1 0.077950 0.006695 -0.041278 -0.001607 0.032365 -0.007853
# 2 0.006695 0.015953 -0.011138 -0.005654 0.004646 -0.002344
# 3 -0.041278 -0.011138 0.039587 -0.002198 -0.013518 0.000740
# 4 -0.001607 -0.005654 -0.002198 0.032566 -0.003018 0.003186
# 5 0.032365 0.004646 -0.013518 -0.003018 0.047698 -0.004493
# 6 -0.007853 -0.002344 0.000740 0.003186 -0.004493 0.029873
#
#
# Mechanical properties :
#
#
# Convention : Reuss Voigt Hill
#
# Bulk Modulus (GPa) = 23.78241 51.23886 37.51064
# Shear Modulus (GPa) = 14.32314 27.72329 21.02321
#
# Velocity S-wave (km/s) = 2.70235 3.75963 3.27396
# Velocity P-wave (km/s) = 4.67574 6.70603 5.78072
#
# Compressibility (1/GPa) = 0.04204788
#
# Stress axis : x y z
#
# Youngs Moduli (GPa) = 12.82873 62.68241 25.26089
#
# Poissons Ratio (x) = -0.41965 1.04272
# Poissons Ratio (y) = -0.08589 0.28136
# Poissons Ratio (z) = 0.52954 0.69817
#
# Static dielectric constant tensor:
#      x y z
#    x 3.347250 0.086470 -0.287860 
#    y 0.086470 4.109720 0.121180 
#    z -0.287860 0.121180 3.885640 
# 
# 
# High freq. dielectric constant tensor:
#      x y z
#    x 1.715360 -0.009570 -0.012430 
#    y -0.009570 1.789030 0.014560 
#    z -0.012430 0.014560 1.755430 
# 
# From -- ./inp_files/305138.got.cif
#   From: 2010.06.25/outbox.cif.g09.slc.cpg/sg2_153_cif.got.tgz:305138.got - 2010.06.27 13:26:56.
