data_PCOD8037152
_publ_section_title
;
Structure prediction by ZEFSAII (Michael W. Deem and Ramdas Pophale) SiO2 
 PCOD8037152
Probable space group: P -1
;
_chemical_formula_sum "Si O2"
_cell_formula_units_Z 12
_cell_length_a 20.600742
_cell_length_b 5.211008
_cell_length_c 23.476727
_cell_angle_alpha 97.638881
_cell_angle_beta 168.593296
_cell_angle_gamma 81.855618
_cell_volume 493.178979
_symmetry_space_group_name_H-M "P -1"
_symmetry_group_IT_number 2
_symmetry_cell_setting 'triclinic'
loop_
_space_group_symop_operation_xyz
x,y,z
-x,-y,-z
loop_
_atom_site_type_symbol
_atom_site_label
_atom_site_fract_x
_atom_site_fract_y
_atom_site_fract_z
Si Si1 0.253373 0.330571 0.749771
Si Si2 0.715558 0.662572 0.474923
Si Si3 0.662214 0.226671 0.612840
Si Si4 0.823000 0.234095 0.478423
Si Si5 0.568158 0.802097 0.713261
Si Si6 0.705628 0.054475 0.039841
O O1 0.000000 0.500000 0.500000
O O2 0.047157 0.178197 0.614082
O O3 0.500000 0.500000 0.000000
O O4 0.456450 0.136384 0.878103
O O5 0.719349 0.539751 0.409877
O O6 0.579599 0.450456 0.393715
O O7 0.103262 0.717767 0.820141
O O8 0.500302 0.932094 0.302376
O O9 0.500000 0.500000 0.500000
O O10 0.607737 0.169403 0.498042
O O11 0.500000 0.000000 0.500000
O O12 0.041775 0.237728 0.956614
O O13 0.011465 0.135856 0.694415
O O14 0.487103 0.090035 0.178875
#
# Coordination Sequence:
#
# PCOD8037152 Si02
#       6
#     2   2   2   2   2   2
#     4  12  24  44  72 103 141 199 267 331 372 439
#     4  12  28  50  74 116 160 201 248 309 380 458
#     4  12  26  52  82 114 152 195 246 299 360 440
#     4  12  27  47  73 102 151 202 261 317 384 442
#     4  12  28  47  80 117 156 195 246 301 370 447
#     4  12  27  47  73 102 151 202 261 317 384 442
#
# _framework density 24.331937
#
# number of rings (size 3 to 8) (size 9 to 14) (size 15 to 20)
#    0.000    0.000    3.333    6.000    2.333    2.667 
#    0.000    0.000    0.000    0.000    0.000    0.000 
#    0.000    0.000    0.000    0.000    0.000    0.000 
#
# Total GULP energy -148772.505607 kJ/mol
# GULP energy per Si atom -12397.708801 kJ/mol
# Density = 2.427656 g / cm^3
# Si number density = 24.331937 Si / 1000 Ang^3
#
#
#
# Elastic Constant Matrix: (Units=GPa)
#
#
# Indices 1 2 3 4 5 6 
#
# 1 68.8386 35.4879 42.6137 6.0379 22.5248 11.2163
# 2 35.4879 167.9388 65.8009 17.0992 18.9550 -8.5924
# 3 42.6137 65.8009 164.2401 33.7298 -2.5907 1.2788
# 4 6.0379 17.0992 33.7298 48.9378 5.8669 11.8176
# 5 22.5248 18.9550 -2.5907 5.8669 52.5087 7.4036
# 6 11.2163 -8.5924 1.2788 11.8176 7.4036 58.5820
#
#
#
# Elastic Compliance Matrix: (Units=1/GPa)
#
#
# Indices 1 2 3 4 5 6 
#
# 1 0.022604 -0.002024 -0.006023 0.004175 -0.009140 -0.004180
# 2 -0.002024 0.007803 -0.002442 -0.001026 -0.002247 0.002076
# 3 -0.006023 -0.002442 0.009941 -0.006090 0.004461 0.001243
# 4 0.004175 -0.001026 -0.006090 0.026299 -0.003865 -0.005634
# 5 -0.009140 -0.002247 0.004461 -0.003865 0.024570 -0.001002
# 6 -0.004180 0.002076 0.001243 -0.005634 -0.001002 0.019411
#
#
# Mechanical properties :
#
#
# Convention : Reuss Voigt Hill
#
# Bulk Modulus (GPa) = 51.62461 76.53582 64.08022
# Shear Modulus (GPa) = 36.21495 49.14670 42.68082
#
# Velocity S-wave (km/s) = 3.86213 4.49914 4.19275
# Velocity P-wave (km/s) = 6.41490 7.64937 7.05917
#
# Compressibility (1/GPa) = 0.01937061
#
# Stress axis : x y z
#
# Youngs Moduli (GPa) = 44.23910 128.14836 100.59049
#
# Poissons Ratio (x) = 0.25938 0.60586
# Poissons Ratio (y) = 0.08954 0.24566
# Poissons Ratio (z) = 0.26645 0.31296
#
# Static dielectric constant tensor:
#      x y z
#    x 4.771130 -0.170330 0.144990 
#    y -0.170330 4.635600 0.143000 
#    z 0.144990 0.143000 4.643840 
# 
# 
# High freq. dielectric constant tensor:
#      x y z
#    x 1.972800 -0.007540 0.010940 
#    y -0.007540 1.982100 0.011490 
#    z 0.010940 0.011490 1.988060 
# 
# From -- ./inp_files/545280.got.cif
#   From: 2010.06.25/outbox.cif.g09.slc.cpg/sg2_273_cif.got.tgz:545280.got - 2010.06.27 13:26:56.
