data_PCOD8037031
_publ_section_title
;
Structure prediction by ZEFSAII (Michael W. Deem and Ramdas Pophale) SiO2 
 PCOD8037031
Probable space group: P -1
;
_chemical_formula_sum "Si O2"
_cell_formula_units_Z 14
_cell_length_a 9.275866
_cell_length_b 8.514486
_cell_length_c 10.768473
_cell_angle_alpha 67.825072
_cell_angle_beta 69.891972
_cell_angle_gamma 114.465936
_cell_volume 577.045573
_symmetry_space_group_name_H-M "P -1"
_symmetry_group_IT_number 2
_symmetry_cell_setting 'triclinic'
loop_
_space_group_symop_operation_xyz
x,y,z
-x,-y,-z
loop_
_atom_site_type_symbol
_atom_site_label
_atom_site_fract_x
_atom_site_fract_y
_atom_site_fract_z
Si Si1 0.309009 0.213207 0.980081
Si Si2 0.298351 0.396689 0.515938
Si Si3 0.729313 0.158872 0.011208
Si Si4 0.032878 0.905050 0.704164
Si Si5 0.159056 0.379602 0.810803
Si Si6 0.725780 0.505924 0.769531
Si Si7 0.662938 0.158917 0.301878
O O1 0.124490 0.123618 0.147299
O O2 0.259458 0.268912 0.847345
O O3 0.515485 0.426344 0.910969
O O4 0.355845 0.045106 0.993913
O O5 0.500000 0.500000 0.500000
O O6 0.152948 0.385698 0.660950
O O7 0.313603 0.537424 0.354459
O O8 0.206059 0.160550 0.555350
O O9 0.597093 0.089280 0.197021
O O10 0.772128 0.358137 0.862188
O O11 0.940899 0.237888 0.971943
O O12 0.136102 0.805151 0.748850
O O13 0.904035 0.761656 0.664712
O O14 0.294559 0.614299 0.763224
O O15 0.500000 0.000000 0.500000
#
# Coordination Sequence:
#
# PCOD8037031 Si02
#       7
#     2   2   2   2   2   2   2
#     4  12  25  47  81 107 147 205 250 307 373 457
#     4  12  26  48  78 109 150 200 255 304 375 449
#     4  12  25  51  74 111 149 200 254 310 373 442
#     4  12  25  51  75 113 150 196 253 312 373 447
#     4  12  23  47  77 105 148 204 254 300 372 455
#     4  12  28  48  75 114 157 195 247 317 377 439
#     4  12  27  45  79 111 151 195 251 313 378 446
#
# _framework density 24.261517999999999
#
# number of rings (size 3 to 8) (size 9 to 14) (size 15 to 20)
#    0.000    0.000    5.714    4.714    2.000    0.571 
#    2.571    0.000    0.000    0.000    0.000    0.000 
#    0.000    0.000    0.000    0.000    0.000    0.000 
#
# Total GULP energy -173491.031884 kJ/mol
# GULP energy per Si atom -12392.216563 kJ/mol
# Density = 2.420630 g / cm^3
# Si number density = 24.261518 Si / 1000 Ang^3
#
#
#
# Elastic Constant Matrix: (Units=GPa)
#
#
# Indices 1 2 3 4 5 6 
#
# 1 95.3789 40.5929 31.2522 -3.7074 3.6176 6.3994
# 2 40.5929 109.8015 35.6258 5.0543 6.2904 3.3036
# 3 31.2522 35.6258 83.2283 13.6308 1.0197 -3.2445
# 4 -3.7074 5.0543 13.6308 47.5065 10.4125 -6.5074
# 5 3.6176 6.2904 1.0197 10.4125 37.5032 -3.6078
# 6 6.3994 3.3036 -3.2445 -6.5074 -3.6078 34.5505
#
#
#
# Elastic Compliance Matrix: (Units=1/GPa)
#
#
# Indices 1 2 3 4 5 6 
#
# 1 0.013708 -0.003718 -0.004060 0.002664 -0.001542 -0.002224
# 2 -0.003718 0.011788 -0.003620 -0.000307 -0.001531 -0.000996
# 3 -0.004060 -0.003620 0.015906 -0.004681 0.002051 0.001924
# 4 0.002664 -0.000307 -0.004681 0.024491 -0.006587 0.003021
# 5 -0.001542 -0.001531 0.002051 -0.006587 0.029076 0.002420
# 6 -0.002224 -0.000996 0.001924 0.003021 0.002420 0.030453
#
#
# Mechanical properties :
#
#
# Convention : Reuss Voigt Hill
#
# Bulk Modulus (GPa) = 53.74375 55.92783 54.83579
# Shear Modulus (GPa) = 32.37933 35.97455 34.17694
#
# Velocity S-wave (km/s) = 3.65718 3.85487 3.75732
# Velocity P-wave (km/s) = 6.32718 6.55099 6.44006
#
# Compressibility (1/GPa) = 0.01860682
#
# Stress axis : x y z
#
# Youngs Moduli (GPa) = 72.94789 84.83176 62.87068
#
# Poissons Ratio (x) = 0.31540 0.25526
# Poissons Ratio (y) = 0.27122 0.22757
# Poissons Ratio (z) = 0.29617 0.30706
#
# Static dielectric constant tensor:
#      x y z
#    x 4.334100 0.069480 -0.133120 
#    y 0.069480 4.485310 -0.064350 
#    z -0.133120 -0.064350 4.504530 
# 
# 
# High freq. dielectric constant tensor:
#      x y z
#    x 1.962750 0.004230 -0.006010 
#    y 0.004230 1.964930 -0.004790 
#    z -0.006010 -0.004790 1.969920 
# 
# From -- ./inp_files/328528.got.cif
#   From: 2010.06.25/outbox.cif.g09.slc.cpg/sg2_165_cif.got.tgz:328528.got - 2010.06.27 13:26:56.
