data_PCOD8037892
_publ_section_title
;
Structure prediction by ZEFSAII (Michael W. Deem and Ramdas Pophale) SiO2 
 PCOD8037892
Probable space group: P -1
;
_chemical_formula_sum "Si O2"
_cell_formula_units_Z 14
_cell_length_a 6.953313
_cell_length_b 22.307219
_cell_length_c 16.032506
_cell_angle_alpha 157.813622
_cell_angle_beta 66.223915
_cell_angle_gamma 125.538572
_cell_volume 686.377778
_symmetry_space_group_name_H-M "P -1"
_symmetry_group_IT_number 2
_symmetry_cell_setting 'triclinic'
loop_
_space_group_symop_operation_xyz
x,y,z
-x,-y,-z
loop_
_atom_site_type_symbol
_atom_site_label
_atom_site_fract_x
_atom_site_fract_y
_atom_site_fract_z
Si Si1 0.097107 0.604411 0.384735
Si Si2 0.557906 0.757370 0.160016
Si Si3 0.530470 0.402228 0.290253
Si Si4 0.503214 0.034022 0.425799
Si Si5 0.128674 0.297402 0.080268
Si Si6 0.448131 0.949911 0.142714
Si Si7 0.024599 0.409669 0.796573
O O1 0.174023 0.487343 0.274026
O O2 0.071712 0.549580 0.220277
O O3 0.823530 0.553478 0.398190
O O4 0.324588 0.838375 0.663061
O O5 0.598802 0.845025 0.359443
O O6 0.419877 0.843720 0.248226
O O7 0.821790 0.814801 0.144365
O O8 0.338797 0.515511 0.876616
O O9 0.500000 0.500000 0.500000
O O10 0.329014 0.366528 0.209284
O O11 0.463325 0.192742 0.060738
O O12 0.824834 0.171600 0.536906
O O13 0.372227 0.961243 0.265331
O O14 0.834735 0.150326 0.981255
O O15 0.000000 0.500000 0.000000
#
# Coordination Sequence:
#
# PCOD8037892 Si02
#       7
#     2   2   2   2   2   2   2
#     4  10  22  40  62  90 127 156 197 254 297 350
#     4  10  17  32  57  83 117 163 197 236 288 347
#     4  11  24  44  67  86 115 161 204 250 312 362
#     4   9  18  32  55  84 117 159 200 234 287 352
#     4  11  22  38  62  91 121 156 204 250 299 356
#     4  10  22  40  59  91 126 152 196 252 298 361
#     4   9  17  33  56  82 117 161 195 232 285 349
#
# _framework density 20.396930000000001
#
# number of rings (size 3 to 8) (size 9 to 14) (size 15 to 20)
#    0.000    2.000    2.857    0.857    0.000    5.714 
#    0.000    7.857    0.000    0.000    0.000    0.000 
#    0.000    0.000    0.000    0.000    0.000    0.000 
#
# Total GULP energy -173441.768684 kJ/mol
# GULP energy per Si atom -12388.697763 kJ/mol
# Density = 2.035051 g / cm^3
# Si number density = 20.396930 Si / 1000 Ang^3
#
#
#
# Elastic Constant Matrix: (Units=GPa)
#
#
# Indices 1 2 3 4 5 6 
#
# 1 115.1852 43.6523 53.7949 -4.7355 1.2639 13.2816
# 2 43.6523 80.1166 52.2741 -5.8654 -0.0922 13.6275
# 3 53.7949 52.2741 112.4982 0.1080 -2.0459 11.1770
# 4 -4.7355 -5.8654 0.1080 39.6548 4.2701 2.2164
# 5 1.2639 -0.0922 -2.0459 4.2701 15.0194 5.0475
# 6 13.2816 13.6275 11.1770 2.2164 5.0475 9.1929
#
#
#
# Elastic Compliance Matrix: (Units=1/GPa)
#
#
# Indices 1 2 3 4 5 6 
#
# 1 0.012749 -0.002341 -0.003809 0.001641 0.001873 -0.011741
# 2 -0.002341 0.023223 -0.006751 0.003908 0.007725 -0.028019
# 3 -0.003809 -0.006751 0.014276 -0.001714 0.003915 -0.003583
# 4 0.001641 0.003908 -0.001714 0.027060 -0.004666 -0.010043
# 5 0.001873 0.007725 0.003915 -0.004666 0.091124 -0.067826
# 6 -0.011741 -0.028019 -0.003583 -0.010043 -0.067826 0.211296
#
#
# Mechanical properties :
#
#
# Convention : Reuss Voigt Hill
#
# Bulk Modulus (GPa) = 40.90813 67.47141 54.18977
# Shear Modulus (GPa) = 12.08662 23.31199 17.69931
#
# Velocity S-wave (km/s) = 2.43692 3.38437 2.94894
# Velocity P-wave (km/s) = 5.29317 6.95866 6.18226
#
# Compressibility (1/GPa) = 0.02444502
#
# Stress axis : x y z
#
# Youngs Moduli (GPa) = 78.43883 43.06018 70.04601
#
# Poissons Ratio (x) = 0.10082 0.26683
# Poissons Ratio (y) = 0.18366 0.47287
# Poissons Ratio (z) = 0.29880 0.29070
#
# Static dielectric constant tensor:
#      x y z
#    x 3.566570 0.210750 0.314050 
#    y 0.210750 3.951590 0.321670 
#    z 0.314050 0.321670 4.083680 
# 
# 
# High freq. dielectric constant tensor:
#      x y z
#    x 1.773240 0.005340 0.018020 
#    y 0.005340 1.797070 0.012240 
#    z 0.018020 0.012240 1.799100 
# 
# From -- ./inp_files/51603.got.cif
#   From: 2010.06.25/outbox.cif.g09.slc.cpg/sg2_26_cif.got.tgz:51603.got - 2010.06.27 13:26:56.
