data_PCOD8037917
_publ_section_title
;
Structure prediction by ZEFSAII (Michael W. Deem and Ramdas Pophale) SiO2 
 PCOD8037917
Probable space group: P -1
;
_chemical_formula_sum "Si O2"
_cell_formula_units_Z 14
_cell_length_a 13.071833
_cell_length_b 11.222655
_cell_length_c 11.194930
_cell_angle_alpha 142.920754
_cell_angle_beta 128.954105
_cell_angle_gamma 49.495901
_cell_volume 730.682148
_symmetry_space_group_name_H-M "P -1"
_symmetry_group_IT_number 2
_symmetry_cell_setting 'triclinic'
loop_
_space_group_symop_operation_xyz
x,y,z
-x,-y,-z
loop_
_atom_site_type_symbol
_atom_site_label
_atom_site_fract_x
_atom_site_fract_y
_atom_site_fract_z
Si Si1 0.467110 0.243676 0.163046
Si Si2 0.373312 0.455713 0.511821
Si Si3 0.844398 0.452109 0.236351
Si Si4 0.312232 0.845453 0.100263
Si Si5 0.383318 0.267425 0.866044
Si Si6 0.426651 0.886334 0.449440
Si Si7 0.845837 0.681961 0.653954
O O1 0.393871 0.346956 0.311548
O O2 0.602047 0.320113 0.300379
O O3 0.365291 0.309784 0.027810
O O4 0.500000 0.000000 0.000000
O O5 0.471825 0.319668 0.579434
O O6 0.215448 0.479202 0.449848
O O7 0.735449 0.543802 0.126113
O O8 0.846257 0.634055 0.474915
O O9 0.998064 0.349563 0.212870
O O10 0.792869 0.273518 0.118503
O O11 0.462877 0.738881 0.067659
O O12 0.317713 0.826080 0.235047
O O13 0.252984 0.084776 0.205905
O O14 0.358574 0.049475 0.635490
O O15 0.500000 0.000000 0.500000
#
# Coordination Sequence:
#
# PCOD8037917 Si02
#       7
#     2   2   2   2   2   2   2
#     4  11  22  36  60  85 108 145 199 240 270 323
#     4  11  21  37  57  85 114 149 184 237 283 324
#     4  11  23  33  56  86 116 152 184 227 286 342
#     4  11  19  35  58  83 116 151 184 230 282 335
#     4  11  19  36  57  82 114 144 193 238 272 327
#     4  10  17  32  59  82 113 141 179 230 282 329
#     4  11  21  38  53  83 121 148 184 229 284 346
#
# _framework density 19.160177999999998
#
# number of rings (size 3 to 8) (size 9 to 14) (size 15 to 20)
#    0.000    1.143    5.714    3.429    0.000    0.000 
#    0.000    0.714    0.000    0.857    0.000    0.000 
#    0.000    0.000    0.000    0.000    0.000    0.000 
#
# Total GULP energy -173510.714512 kJ/mol
# GULP energy per Si atom -12393.622465 kJ/mol
# Density = 1.911657 g / cm^3
# Si number density = 19.160178 Si / 1000 Ang^3
#
#
#
# Elastic Constant Matrix: (Units=GPa)
#
#
# Indices 1 2 3 4 5 6 
#
# 1 81.1672 60.4026 30.1628 -14.6731 14.0682 0.6976
# 2 60.4026 92.2165 44.0973 -0.3670 12.1487 -5.4840
# 3 30.1628 44.0973 91.5665 4.9335 5.8728 3.4429
# 4 -14.6731 -0.3670 4.9335 22.2316 9.2944 7.8532
# 5 14.0682 12.1487 5.8728 9.2944 35.9726 -6.4806
# 6 0.6976 -5.4840 3.4429 7.8532 -6.4806 25.8823
#
#
#
# Elastic Compliance Matrix: (Units=1/GPa)
#
#
# Indices 1 2 3 4 5 6 
#
# 1 0.053110 -0.031277 -0.002382 0.060195 -0.031476 -0.033887
# 2 -0.031277 0.033393 -0.005773 -0.032631 0.014322 0.022174
# 3 -0.002382 -0.005773 0.014705 -0.005212 0.001624 -0.001127
# 4 0.060195 -0.032631 -0.005212 0.130768 -0.056570 -0.061685
# 5 -0.031476 0.014322 0.001624 -0.056570 0.055897 0.034827
# 6 -0.033887 0.022174 -0.001127 -0.061685 0.034827 0.071835
#
#
# Mechanical properties :
#
#
# Convention : Reuss Voigt Hill
#
# Bulk Modulus (GPa) = 44.75683 59.36396 52.06039
# Shear Modulus (GPa) = 11.21024 25.50313 18.35669
#
# Velocity S-wave (km/s) = 2.42147 3.65231 3.09862
# Velocity P-wave (km/s) = 5.58820 6.98828 6.32709
#
# Compressibility (1/GPa) = 0.02234296
#
# Stress axis : x y z
#
# Youngs Moduli (GPa) = 18.82894 29.94603 68.00366
#
# Poissons Ratio (x) = 0.93662 0.16201
# Poissons Ratio (y) = 0.58891 0.39259
# Poissons Ratio (z) = 0.04486 0.17288
#
# Static dielectric constant tensor:
#      x y z
#    x 3.551760 0.171840 -0.126680 
#    y 0.171840 3.422320 -0.117040 
#    z -0.126680 -0.117040 4.316460 
# 
# 
# High freq. dielectric constant tensor:
#      x y z
#    x 1.711320 0.013260 -0.001370 
#    y 0.013260 1.723430 0.007720 
#    z -0.001370 0.007720 1.772270 
# 
# From -- ./inp_files/424587.got.cif
#   From: 2010.06.25/outbox.cif.g09.slc.cpg/sg2_213_cif.got.tgz:424587.got - 2010.06.27 13:26:56.
