data_PCOD8037644
_publ_section_title
;
Structure prediction by ZEFSAII (Michael W. Deem and Ramdas Pophale) SiO2 
 PCOD8037644
Probable space group: P -1
;
_chemical_formula_sum "Si O2"
_cell_formula_units_Z 16
_cell_length_a 17.832791
_cell_length_b 12.953881
_cell_length_c 14.036169
_cell_angle_alpha 47.523657
_cell_angle_beta 30.234126
_cell_angle_gamma 28.869018
_cell_volume 742.859286
_symmetry_space_group_name_H-M "P -1"
_symmetry_group_IT_number 2
_symmetry_cell_setting 'triclinic'
loop_
_space_group_symop_operation_xyz
x,y,z
-x,-y,-z
loop_
_atom_site_type_symbol
_atom_site_label
_atom_site_fract_x
_atom_site_fract_y
_atom_site_fract_z
Si Si1 0.548167 0.079015 0.320900
Si Si2 0.867142 0.749182 0.998737
Si Si3 0.812155 0.158037 0.024849
Si Si4 0.957310 0.135791 0.671396
Si Si5 0.578265 0.362060 0.780549
Si Si6 0.287444 0.662829 0.555293
Si Si7 0.485957 0.112514 0.032563
Si Si8 0.978198 0.444685 0.460639
O O1 0.286688 0.319986 0.426030
O O2 0.500000 0.000000 0.500000
O O3 0.650765 0.140131 0.220125
O O4 0.731730 0.877317 0.167451
O O5 0.075740 0.709634 0.780706
O O6 0.000000 0.500000 0.000000
O O7 0.651641 0.921958 0.051427
O O8 0.906879 0.097821 0.850831
O O9 0.678485 0.401494 0.044232
O O10 0.000000 0.000000 0.000000
O O11 0.752549 0.264255 0.738053
O O12 0.012024 0.255401 0.552824
O O13 0.195157 0.889467 0.521814
O O14 0.631256 0.416898 0.594210
O O15 0.585555 0.193546 0.850720
O O16 0.500000 0.500000 0.500000
O O17 0.200147 0.339711 0.221705
O O18 0.500000 0.000000 0.000000
O O19 0.000000 0.500000 0.500000
#
# Coordination Sequence:
#
# PCOD8037644 Si02
#       8
#     2   2   2   2   2   2   2   2
#     4  12  29  50  73 108 153 194 244 307 374 446
#     4  12  30  50  72 107 156 193 242 308 376 444
#     4  12  27  45  75 108 145 194 245 306 370 433
#     4  12  25  49  75 103 149 193 253 307 359 436
#     4  12  26  48  77 106 144 197 250 305 362 440
#     4  12  28  47  75 108 148 196 250 302 373 443
#     4  12  28  47  77 111 151 194 248 304 369 442
#     4  12  27  47  77 110 145 197 250 303 372 437
#
# _framework density 21.538398000000001
#
# number of rings (size 3 to 8) (size 9 to 14) (size 15 to 20)
#    0.000    0.000    5.000    3.000   12.250    0.000 
#    0.000    0.000    0.000    0.000    0.000    0.000 
#    0.000    0.000    0.000    0.000    0.000    0.000 
#
# Total GULP energy -198299.753437 kJ/mol
# GULP energy per Si atom -12393.734590 kJ/mol
# Density = 2.148938 g / cm^3
# Si number density = 21.538398 Si / 1000 Ang^3
#
#
#
# Elastic Constant Matrix: (Units=GPa)
#
#
# Indices 1 2 3 4 5 6 
#
# 1 167.8855 41.9702 49.4564 0.9145 -4.2510 -10.5699
# 2 41.9702 121.7740 19.0663 9.0619 -11.8730 6.0549
# 3 49.4564 19.0663 107.6658 1.1842 -0.2359 -3.0742
# 4 0.9145 9.0619 1.1842 50.2591 -0.3145 -3.3548
# 5 -4.2510 -11.8730 -0.2359 -0.3145 44.6458 3.8361
# 6 -10.5699 6.0549 -3.0742 -3.3548 3.8361 48.4745
#
#
#
# Elastic Compliance Matrix: (Units=1/GPa)
#
#
# Indices 1 2 3 4 5 6 
#
# 1 0.007511 -0.002244 -0.003007 0.000456 -0.000046 0.001762
# 2 -0.002244 0.009573 -0.000698 -0.001790 0.002492 -0.002050
# 3 -0.003007 -0.000698 0.010797 -0.000067 -0.000428 0.000145
# 4 0.000456 -0.001790 -0.000067 0.020328 -0.000441 0.001761
# 5 -0.000046 0.002492 -0.000428 -0.000441 0.023242 -0.002218
# 6 0.001762 -0.002050 0.000145 0.001761 -0.002218 0.021576
#
#
# Mechanical properties :
#
#
# Convention : Reuss Voigt Hill
#
# Bulk Modulus (GPa) = 62.57030 68.70124 65.63577
# Shear Modulus (GPa) = 45.35062 47.79804 46.57433
#
# Velocity S-wave (km/s) = 4.59363 4.71595 4.65519
# Velocity P-wave (km/s) = 7.56630 7.84984 7.70937
#
# Compressibility (1/GPa) = 0.01598202
#
# Stress axis : x y z
#
# Youngs Moduli (GPa) = 133.14468 104.46439 92.61810
#
# Poissons Ratio (x) = 0.23439 0.27855
# Poissons Ratio (y) = 0.29874 0.06464
# Poissons Ratio (z) = 0.40043 0.07291
#
# Static dielectric constant tensor:
#      x y z
#    x 4.153340 0.172190 -0.036630 
#    y 0.172190 4.019780 0.245200 
#    z -0.036630 0.245200 3.942380 
# 
# 
# High freq. dielectric constant tensor:
#      x y z
#    x 1.867610 0.006080 -0.001230 
#    y 0.006080 1.866660 0.007780 
#    z -0.001230 0.007780 1.856310 
# 
# From -- ./inp_files/184288.got.cif
#   From: 2010.06.25/outbox.cif.g09.slc.cpg/sg2_93_cif.got.tgz:184288.got - 2010.06.27 13:26:56.
