data_PCOD8037986
_publ_section_title
;
Structure prediction by ZEFSAII (Michael W. Deem and Ramdas Pophale) SiO2 
 PCOD8037986
Probable space group: P -1
;
_chemical_formula_sum "Si O2"
_cell_formula_units_Z 16
_cell_length_a 8.945216
_cell_length_b 8.727401
_cell_length_c 11.226552
_cell_angle_alpha 67.315916
_cell_angle_beta 80.415652
_cell_angle_gamma 79.821427
_cell_volume 791.235266
_symmetry_space_group_name_H-M "P -1"
_symmetry_group_IT_number 2
_symmetry_cell_setting 'triclinic'
loop_
_space_group_symop_operation_xyz
x,y,z
-x,-y,-z
loop_
_atom_site_type_symbol
_atom_site_label
_atom_site_fract_x
_atom_site_fract_y
_atom_site_fract_z
Si Si1 0.464098 0.184599 0.525146
Si Si2 0.925694 0.556066 0.298543
Si Si3 0.859175 0.901695 0.077983
Si Si4 0.660620 0.377047 0.291139
Si Si5 0.628408 0.977834 0.894648
Si Si6 0.797556 0.574190 0.565520
Si Si7 0.395665 0.902069 0.773863
Si Si8 0.570507 0.327975 0.695850
O O1 0.619999 0.242078 0.435683
O O2 0.322157 0.262302 0.438914
O O3 0.451209 0.271383 0.632275
O O4 0.444553 0.989865 0.614217
O O5 0.926382 0.719471 0.168962
O O6 0.825118 0.428517 0.286421
O O7 0.883757 0.612125 0.422013
O O8 0.096689 0.458770 0.321288
O O9 0.739366 0.991588 0.164484
O O10 0.778232 0.881572 0.966201
O O11 0.000000 0.000000 0.000000
O O12 0.662280 0.275368 0.196229
O O13 0.535881 0.541678 0.245287
O O14 0.559143 0.874579 0.828388
O O15 0.656425 0.165540 0.798347
O O16 0.500000 0.000000 0.000000
O O17 0.705455 0.418270 0.594671
#
# Coordination Sequence:
#
# PCOD8037986 Si02
#       8
#     2   2   2   2   2   2   2   2
#     4  10  17  35  55  83 112 148 173 219 269 341
#     4  11  20  34  56  81 109 144 183 225 263 330
#     4  11  22  41  59  77 105 152 191 222 265 324
#     4  11  19  33  56  86 116 139 172 229 287 313
#     4   9  19  36  57  78 105 144 192 222 259 324
#     4  10  18  31  56  81 108 139 187 218 266 317
#     4  10  21  36  55  84 113 139 182 230 272 322
#     4  10  17  33  56  83 106 144 183 221 263 329
#
# _framework density 20.221546
#
# number of rings (size 3 to 8) (size 9 to 14) (size 15 to 20)
#    0.000    1.750    3.750    3.375    0.000    0.000 
#    0.000    9.375    0.000    0.000    0.000    0.000 
#    0.000    0.000    0.000    0.000    0.000    0.000 
#
# Total GULP energy -198213.222066 kJ/mol
# GULP energy per Si atom -12388.326379 kJ/mol
# Density = 2.017552 g / cm^3
# Si number density = 20.221546 Si / 1000 Ang^3
#
#
#
# Elastic Constant Matrix: (Units=GPa)
#
#
# Indices 1 2 3 4 5 6 
#
# 1 123.1673 26.3825 45.7637 -20.1315 24.2018 20.2056
# 2 26.3825 77.4711 20.1446 -17.5259 17.0361 26.7941
# 3 45.7637 20.1446 98.4850 -28.6636 20.3915 7.7508
# 4 -20.1315 -17.5259 -28.6636 22.7618 -2.5392 -1.3793
# 5 24.2018 17.0361 20.3915 -2.5392 42.0845 -0.1287
# 6 20.2056 26.7941 7.7508 -1.3793 -0.1287 24.5178
#
#
#
# Elastic Compliance Matrix: (Units=1/GPa)
#
#
# Indices 1 2 3 4 5 6 
#
# 1 0.014442 0.008206 0.000462 0.017242 -0.010872 -0.020103
# 2 0.008206 0.041359 0.010232 0.046139 -0.023797 -0.052726
# 3 0.000462 0.010232 0.021318 0.032701 -0.012815 -0.016530
# 4 0.017242 0.046139 0.032701 0.127648 -0.036944 -0.067983
# 5 -0.010872 -0.023797 -0.012815 -0.036944 0.043741 0.037169
# 6 -0.020103 -0.052726 -0.016530 -0.067983 0.037169 0.116572
#
#
# Mechanical properties :
#
#
# Convention : Reuss Voigt Hill
#
# Bulk Modulus (GPa) = 8.70171 53.74501 31.22336
# Shear Modulus (GPa) = 13.67667 31.66166 22.66916
#
# Velocity S-wave (km/s) = 2.60348 3.96123 3.35183
# Velocity P-wave (km/s) = 3.65376 6.89620 5.51850
#
# Compressibility (1/GPa) = 0.11491999
#
# Stress axis : x y z
#
# Youngs Moduli (GPa) = 69.24224 24.17826 46.90898
#
# Poissons Ratio (x) = -0.19840 -0.02168
# Poissons Ratio (y) = -0.56819 -0.47998
# Poissons Ratio (z) = -0.03200 -0.24740
#
# Static dielectric constant tensor:
#      x y z
#    x 1.874580 -0.951100 -2.075360 
#    y -0.951100 2.805010 -1.368940 
#    z -2.075360 -1.368940 1.299330 
# 
# 
# High freq. dielectric constant tensor:
#      x y z
#    x 1.786900 0.019200 0.003190 
#    y 0.019200 1.768040 -0.013920 
#    z 0.003190 -0.013920 1.790440 
# 
# From -- ./inp_files/179130.got.cif
#   From: 2010.06.25/outbox.cif.g09.slc.cpg/sg2_90_cif.got.tgz:179130.got - 2010.06.27 13:26:56.
