data_PCOD8037938
_publ_section_title
;
Structure prediction by ZEFSAII (Michael W. Deem and Ramdas Pophale) SiO2 
 PCOD8037938
Probable space group: P -1
;
_chemical_formula_sum "Si O2"
_cell_formula_units_Z 16
_cell_length_a 11.946687
_cell_length_b 18.630240
_cell_length_c 10.806085
_cell_angle_alpha 127.022967
_cell_angle_beta 129.914689
_cell_angle_gamma 32.137415
_cell_volume 971.055254
_symmetry_space_group_name_H-M "P -1"
_symmetry_group_IT_number 2
_symmetry_cell_setting 'triclinic'
loop_
_space_group_symop_operation_xyz
x,y,z
-x,-y,-z
loop_
_atom_site_type_symbol
_atom_site_label
_atom_site_fract_x
_atom_site_fract_y
_atom_site_fract_z
Si Si1 0.083814 0.574281 0.511026
Si Si2 0.339970 0.299666 0.528470
Si Si3 0.044985 0.591676 0.226107
Si Si4 0.359540 0.163939 0.942659
Si Si5 0.511397 0.348380 0.891292
Si Si6 0.842879 0.349321 0.130626
Si Si7 0.656496 0.862038 0.808366
Si Si8 0.665483 0.642242 0.980953
O O1 0.239874 0.416144 0.480085
O O2 0.102654 0.602344 0.413801
O O3 0.158556 0.624331 0.698489
O O4 0.837055 0.658257 0.457476
O O5 0.521489 0.265591 0.707819
O O6 0.437055 0.172920 0.384468
O O7 0.274763 0.465116 0.185227
O O8 0.890702 0.731684 0.182121
O O9 0.905903 0.563356 0.122683
O O10 0.511411 0.016944 0.837573
O O11 0.367197 0.157274 0.088039
O O12 0.453722 0.218306 0.026755
O O13 0.293273 0.510847 0.892546
O O14 0.734501 0.302191 0.986262
O O15 0.500673 0.312752 0.983986
O O16 0.088526 0.233097 0.131864
#
# Coordination Sequence:
#
# PCOD8037938 Si02
#       8
#     2   2   2   2   2   2   2   2
#     4   9  15  27  44  72  90 114 157 191 223 263
#     4   9  16  25  48  66  92 119 152 192 221 265
#     4   9  16  27  47  71  90 118 146 194 229 260
#     4   9  18  29  48  70  95 115 153 195 227 271
#     4  10  17  33  46  71  94 123 155 183 231 276
#     4   9  20  29  49  68  99 122 146 193 230 269
#     4  10  18  31  47  73  90 118 156 192 230 264
#     4   9  17  27  49  70  90 123 149 187 228 270
#
# _framework density 16.47692
#
# number of rings (size 3 to 8) (size 9 to 14) (size 15 to 20)
#    0.750    2.000    1.250    2.250    0.000    0.000 
#    0.000    6.875    0.000    4.500    0.000    0.000 
#    0.000    0.000    0.000    0.000    0.000    0.000 
#
# Total GULP energy -198286.389117 kJ/mol
# GULP energy per Si atom -12392.899320 kJ/mol
# Density = 1.643942 g / cm^3
# Si number density = 16.476920 Si / 1000 Ang^3
#
#
#
# Elastic Constant Matrix: (Units=GPa)
#
#
# Indices 1 2 3 4 5 6 
#
# 1 63.9215 32.2222 43.1416 5.5054 -4.6496 7.8074
# 2 32.2222 77.7461 41.1067 19.7497 -1.3333 9.4847
# 3 43.1416 41.1067 112.1314 11.2905 -0.6601 -1.9251
# 4 5.5054 19.7497 11.2905 20.1128 -0.8974 -5.5085
# 5 -4.6496 -1.3333 -0.6601 -0.8974 26.4671 -4.7340
# 6 7.8074 9.4847 -1.9251 -5.5085 -4.7340 17.1348
#
#
#
# Elastic Compliance Matrix: (Units=1/GPa)
#
#
# Indices 1 2 3 4 5 6 
#
# 1 0.024654 -0.005158 -0.007773 0.000475 0.002384 -0.008441
# 2 -0.005158 0.029225 -0.006061 -0.031244 -0.005298 -0.026015
# 3 -0.007773 -0.006061 0.014011 0.002842 0.000477 0.009516
# 4 0.000475 -0.031244 0.002842 0.092908 0.010714 0.050226
# 5 0.002384 -0.005298 0.000477 0.010714 0.041307 0.016756
# 6 -0.008441 -0.026015 0.009516 0.050226 0.016756 0.098452
#
#
# Mechanical properties :
#
#
# Convention : Reuss Voigt Hill
#
# Bulk Modulus (GPa) = 33.43922 54.08222 43.76072
# Shear Modulus (GPa) = 14.34684 21.89817 18.12251
#
# Velocity S-wave (km/s) = 2.95400 3.64953 3.32003
# Velocity P-wave (km/s) = 5.65451 7.11709 6.42754
#
# Compressibility (1/GPa) = 0.02990501
#
# Stress axis : x y z
#
# Youngs Moduli (GPa) = 40.56140 34.21786 71.37390
#
# Poissons Ratio (x) = 0.17650 0.55480
# Poissons Ratio (y) = 0.20922 0.43259
# Poissons Ratio (z) = 0.31529 0.20739
#
# Static dielectric constant tensor:
#      x y z
#    x 2.808170 0.088540 -0.101300 
#    y 0.088540 2.890810 0.097330 
#    z -0.101300 0.097330 3.150670 
# 
# 
# High freq. dielectric constant tensor:
#      x y z
#    x 1.614450 0.011930 -0.020170 
#    y 0.011930 1.604960 0.009070 
#    z -0.020170 0.009070 1.632380 
# 
# From -- ./inp_files/431358.got.cif
#   From: 2010.06.25/outbox.cif.g09.slc.cpg/sg2_216_cif.got.tgz:431358.got - 2010.06.27 13:26:56.
