data_PCOD8037240
_publ_section_title
;
Structure prediction by ZEFSAII (Michael W. Deem and Ramdas Pophale) SiO2 
 PCOD8037240
Probable space group: P -1
;
_chemical_formula_sum "Si O2"
_cell_formula_units_Z 16
_cell_length_a 8.552072
_cell_length_b 26.061696
_cell_length_c 25.915493
_cell_angle_alpha 168.986030
_cell_angle_beta 139.402704
_cell_angle_gamma 40.608147
_cell_volume 713.618936
_symmetry_space_group_name_H-M "P -1"
_symmetry_group_IT_number 2
_symmetry_cell_setting 'triclinic'
loop_
_space_group_symop_operation_xyz
x,y,z
-x,-y,-z
loop_
_atom_site_type_symbol
_atom_site_label
_atom_site_fract_x
_atom_site_fract_y
_atom_site_fract_z
Si Si1 0.279694 0.623618 0.471796
Si Si2 0.355488 0.020556 0.431387
Si Si3 0.017431 0.547203 0.868739
Si Si4 0.742006 0.897896 0.988533
Si Si5 0.656954 0.586832 0.912390
Si Si6 0.270677 0.964312 0.552731
Si Si7 0.223291 0.820345 0.974318
Si Si8 0.242323 0.361109 0.450084
O O1 0.313133 0.389325 0.289646
O O2 0.544532 0.685015 0.582741
O O3 0.114308 0.517216 0.280926
O O4 0.170441 0.901102 0.746902
O O5 0.500000 0.000000 0.500000
O O6 0.176534 0.276333 0.654476
O O7 0.533919 0.071978 0.480033
O O8 0.195057 0.781246 0.139760
O O9 0.824353 0.616367 0.933780
O O10 0.948221 0.840742 0.941687
O O11 0.500000 0.000000 0.000000
O O12 0.660315 0.275199 0.624189
O O13 0.398318 0.765505 0.013133
O O14 0.742878 0.741766 0.135573
O O15 0.000000 0.000000 0.500000
O O16 0.316076 0.554376 0.703518
O O17 0.235160 0.073559 0.190474
O O18 0.000000 0.500000 0.500000
#
# Coordination Sequence:
#
# PCOD8037240 Si02
#       8
#     2   2   2   2   2   2   2   2
#     4  12  26  44  71 103 142 184 240 289 357 418
#     4  12  27  48  76 106 142 185 235 285 348 423
#     4  12  26  46  71 105 144 186 232 294 351 418
#     4  12  26  46  70 101 143 188 236 298 356 421
#     4  12  26  46  72 104 147 184 233 291 354 417
#     4  12  27  48  75 106 142 186 232 286 350 423
#     4  12  26  44  69 105 142 184 238 291 356 414
#     4  12  24  46  72 101 138 188 241 291 348 422
#
# _framework density 22.420929000000001
#
# number of rings (size 3 to 8) (size 9 to 14) (size 15 to 20)
#    0.000    0.000    1.250    9.000    7.000    0.000 
#    0.000    0.000    0.000    0.000    0.000    0.000 
#    0.000    0.000    0.000    0.000    0.000    0.000 
#
# Total GULP energy -198294.970753 kJ/mol
# GULP energy per Si atom -12393.435672 kJ/mol
# Density = 2.236990 g / cm^3
# Si number density = 22.420929 Si / 1000 Ang^3
#
#
#
# Elastic Constant Matrix: (Units=GPa)
#
#
# Indices 1 2 3 4 5 6 
#
# 1 136.5445 27.6040 20.3995 6.2261 18.2740 -4.5839
# 2 27.6040 130.3721 8.9417 13.3880 16.6295 -11.0036
# 3 20.3995 8.9417 127.5567 15.3889 15.1075 0.9507
# 4 6.2261 13.3880 15.3889 53.5337 9.6431 -1.1809
# 5 18.2740 16.6295 15.1075 9.6431 50.4190 0.9945
# 6 -4.5839 -11.0036 0.9507 -1.1809 0.9945 37.0810
#
#
#
# Elastic Compliance Matrix: (Units=1/GPa)
#
#
# Indices 1 2 3 4 5 6 
#
# 1 0.008047 -0.001304 -0.000946 0.000079 -0.002232 0.000695
# 2 -0.001304 0.008577 0.000029 -0.001568 -0.002112 0.002390
# 3 -0.000946 0.000029 0.008448 -0.002008 -0.001807 -0.000340
# 4 0.000079 -0.001568 -0.002008 0.020146 -0.002769 0.000312
# 5 -0.002232 -0.002112 -0.001807 -0.002769 0.022441 -0.001546
# 6 0.000695 0.002390 -0.000340 0.000312 -0.001546 0.027823
#
#
# Mechanical properties :
#
#
# Convention : Reuss Voigt Hill
#
# Bulk Modulus (GPa) = 48.47426 56.48486 52.47956
# Shear Modulus (GPa) = 46.81688 50.70862 48.76275
#
# Velocity S-wave (km/s) = 4.57452 4.76086 4.66862
# Velocity P-wave (km/s) = 7.04050 7.44772 7.24697
#
# Compressibility (1/GPa) = 0.02062950
#
# Stress axis : x y z
#
# Youngs Moduli (GPa) = 124.27126 116.59642 118.37559
#
# Poissons Ratio (x) = 0.15201 0.11197
# Poissons Ratio (y) = 0.16202 -0.00341
# Poissons Ratio (z) = 0.11755 -0.00336
#
# Static dielectric constant tensor:
#      x y z
#    x 4.305850 -0.072020 -0.041590 
#    y -0.072020 4.198590 -0.063350 
#    z -0.041590 -0.063350 4.409810 
# 
# 
# High freq. dielectric constant tensor:
#      x y z
#    x 1.898820 -0.001120 -0.004110 
#    y -0.001120 1.904910 0.001200 
#    z -0.004110 0.001200 1.904490 
# 
# From -- ./inp_files/617671.got.cif
#   From: 2010.06.25/outbox.cif.g09.slc.cpg/sg2_309_cif.got.tgz:617671.got - 2010.06.27 13:26:56.
