data_PCOD8037819
_publ_section_title
;
Structure prediction by ZEFSAII (Michael W. Deem and Ramdas Pophale) SiO2 
 PCOD8037819
Probable space group: P -1
;
_chemical_formula_sum "Si O2"
_cell_formula_units_Z 12
_cell_length_a 8.521228
_cell_length_b 8.521241
_cell_length_c 11.545083
_cell_angle_alpha 93.151842
_cell_angle_beta 86.236576
_cell_angle_gamma 33.219328
_cell_volume 448.916230
_symmetry_space_group_name_H-M "P -1"
_symmetry_group_IT_number 2
_symmetry_cell_setting 'triclinic'
loop_
_space_group_symop_operation_xyz
x,y,z
-x,-y,-z
loop_
_atom_site_type_symbol
_atom_site_label
_atom_site_fract_x
_atom_site_fract_y
_atom_site_fract_z
Si Si1 0.542681 0.124420 0.435108
Si Si2 0.910569 0.456701 0.142486
Si Si3 0.685786 0.446943 0.357514
Si Si4 0.096535 0.820087 0.322028
Si Si5 0.501940 0.081437 0.177972
Si Si6 0.689310 0.477791 0.935108
O O1 0.363383 0.411541 0.519373
O O2 0.415696 0.216550 0.315171
O O3 0.500000 0.000000 0.500000
O O4 0.887467 0.876547 0.403847
O O5 0.712234 0.537764 0.249999
O O6 0.248025 0.176831 0.151587
O O7 0.801016 0.729629 0.148107
O O8 0.892167 0.382760 0.019372
O O9 0.418477 0.550876 0.351895
O O10 0.974758 0.100386 0.348413
O O11 0.098623 0.769131 0.184830
O O12 0.527302 0.208684 0.096153
O O13 0.500000 0.500000 0.000000
#
# Coordination Sequence:
#
# PCOD8037819 Si02
#       6
#     2   2   2   2   2   2
#     4  12  28  53  84 119 161 212 268 333 396 478
#     4  12  27  52  81 115 160 213 260 329 401 469
#     4  12  27  52  81 115 160 213 260 329 401 469
#     4  12  28  53  77 119 160 207 268 323 401 471
#     4  12  28  53  77 119 160 207 268 323 401 471
#     4  12  28  53  84 119 161 212 268 333 396 478
#
# _framework density 26.731044000000001
#
# number of rings (size 3 to 8) (size 9 to 14) (size 15 to 20)
#    0.000    0.000    3.333    5.000    0.000    6.667 
#    0.000    0.000    0.000    0.000    0.000    0.000 
#    0.000    0.000    0.000    0.000    0.000    0.000 
#
# Total GULP energy -148930.464017 kJ/mol
# GULP energy per Si atom -12410.872001 kJ/mol
# Density = 2.667020 g / cm^3
# Si number density = 26.731044 Si / 1000 Ang^3
#
#
#
# Elastic Constant Matrix: (Units=GPa)
#
#
# Indices 1 2 3 4 5 6 
#
# 1 120.5003 13.2614 56.5352 -11.7563 -8.5353 26.5412
# 2 13.2614 56.1164 6.9820 -0.3121 -6.6999 -8.2085
# 3 56.5352 6.9820 149.8055 -1.6327 7.6993 15.2822
# 4 -11.7563 -0.3121 -1.6327 52.5358 7.3498 5.7211
# 5 -8.5353 -6.6999 7.6993 7.3498 78.3114 -9.4689
# 6 26.5412 -8.2085 15.2822 5.7211 -9.4689 19.9242
#
#
#
# Elastic Compliance Matrix: (Units=1/GPa)
#
#
# Indices 1 2 3 4 5 6 
#
# 1 0.016947 -0.007721 -0.003145 0.006854 -0.002343 -0.026425
# 2 -0.007721 0.023903 -0.001005 -0.004957 0.004740 0.024579
# 3 -0.003145 -0.001005 0.008353 0.000165 -0.001686 -0.003480
# 4 0.006854 -0.004957 0.000165 0.023329 -0.004306 -0.020044
# 5 -0.002343 0.004740 -0.001686 -0.004306 0.015287 0.014869
# 6 -0.026425 0.024579 -0.003480 -0.020044 0.014869 0.111009
#
#
# Mechanical properties :
#
#
# Convention : Reuss Voigt Hill
#
# Bulk Modulus (GPa) = 39.27577 53.33104 46.30341
# Shear Modulus (GPa) = 21.63960 46.79720 34.21840
#
# Velocity S-wave (km/s) = 2.84831 4.18864 3.58173
# Velocity P-wave (km/s) = 5.05391 6.58690 5.87066
#
# Compressibility (1/GPa) = 0.02546099
#
# Stress axis : x y z
#
# Youngs Moduli (GPa) = 59.00703 41.83501 119.72405
#
# Poissons Ratio (x) = 0.32299 0.37653
# Poissons Ratio (y) = 0.45557 0.12037
# Poissons Ratio (z) = 0.18558 0.04206
#
# Static dielectric constant tensor:
#      x y z
#    x 5.107220 0.162920 0.037060 
#    y 0.162920 4.531950 -0.053840 
#    z 0.037060 -0.053840 5.285090 
# 
# 
# High freq. dielectric constant tensor:
#      x y z
#    x 2.093780 0.006990 0.001480 
#    y 0.006990 2.069130 -0.002360 
#    z 0.001480 -0.002360 2.101690 
# 
# From -- ./inp_files/379093.got.cif
#   From: 2010.06.25/outbox.cif.g09.slc.cpg/sg2_190_cif.got.tgz:379093.got - 2010.06.27 13:26:56.
