data_PCOD8037206
_publ_section_title
;
Structure prediction by ZEFSAII (Michael W. Deem and Ramdas Pophale) SiO2 
 PCOD8037206
Probable space group: P -1
;
_chemical_formula_sum "Si O2"
_cell_formula_units_Z 16
_cell_length_a 11.418018
_cell_length_b 18.603405
_cell_length_c 9.069630
_cell_angle_alpha 150.023365
_cell_angle_beta 133.937191
_cell_angle_gamma 54.388930
_cell_volume 692.209255
_symmetry_space_group_name_H-M "P -1"
_symmetry_group_IT_number 2
_symmetry_cell_setting 'triclinic'
loop_
_space_group_symop_operation_xyz
x,y,z
-x,-y,-z
loop_
_atom_site_type_symbol
_atom_site_label
_atom_site_fract_x
_atom_site_fract_y
_atom_site_fract_z
Si Si1 0.696371 0.326000 0.743444
Si Si2 0.346772 0.246906 0.170722
Si Si3 0.828523 0.017154 0.302567
Si Si4 0.172621 0.518204 0.603322
Si Si5 0.175162 0.487033 0.061090
Si Si6 0.709980 0.313704 0.258599
Si Si7 0.832080 0.029366 0.980387
Si Si8 0.353015 0.217197 0.774808
O O1 0.523117 0.309644 0.484410
O O2 0.767895 0.172636 0.566635
O O3 0.822256 0.421988 0.924402
O O4 0.688030 0.416876 0.048492
O O5 0.217314 0.365079 0.304025
O O6 0.345362 0.206845 0.926284
O O7 0.303317 0.101884 0.964840
O O8 0.843393 0.995824 0.103008
O O9 0.000000 0.000000 0.500000
O O10 0.168437 0.636013 0.678044
O O11 0.000000 0.500000 0.500000
O O12 0.309933 0.552030 0.410031
O O13 0.220379 0.322958 0.782411
O O14 0.000000 0.500000 0.000000
O O15 0.793494 0.194435 0.217326
O O16 0.531910 0.265842 0.958773
O O17 0.687958 0.936604 0.608686
O O18 0.000000 0.000000 0.000000
#
# Coordination Sequence:
#
# PCOD8037206 Si02
#       8
#     2   2   2   2   2   2   2   2
#     4  12  27  47  72 104 146 190 238 292 359 423
#     4  12  26  48  74 108 145 186 237 295 360 423
#     4  12  28  48  73 104 148 188 235 294 357 424
#     4  12  28  45  73 108 146 190 236 293 359 424
#     4  12  24  45  74 102 142 188 238 293 350 418
#     4  12  25  49  74 103 147 187 243 292 353 420
#     4  12  28  46  74 109 140 189 241 292 354 425
#     4  12  26  47  78 107 141 188 238 298 354 420
#
# _framework density 23.114398999999999
#
# number of rings (size 3 to 8) (size 9 to 14) (size 15 to 20)
#    0.000    0.000    3.750    5.250   10.500    0.000 
#    0.000    0.000    0.000    0.000    0.000    0.000 
#    0.000    0.000    0.000    0.000    0.000    0.000 
#
# Total GULP energy -198489.338377 kJ/mol
# GULP energy per Si atom -12405.583649 kJ/mol
# Density = 2.306179 g / cm^3
# Si number density = 23.114399 Si / 1000 Ang^3
#
#
#
# Elastic Constant Matrix: (Units=GPa)
#
#
# Indices 1 2 3 4 5 6 
#
# 1 110.1188 48.6863 18.4744 11.9153 5.3135 21.9658
# 2 48.6863 127.3712 29.8352 8.5262 3.0634 21.8903
# 3 18.4744 29.8352 91.0474 -8.4211 -11.5711 27.7228
# 4 11.9153 8.5262 -8.4211 40.7588 9.8308 4.2755
# 5 5.3135 3.0634 -11.5711 9.8308 36.7130 -3.3932
# 6 21.9658 21.8903 27.7228 4.2755 -3.3932 50.0134
#
#
#
# Elastic Compliance Matrix: (Units=1/GPa)
#
#
# Indices 1 2 3 4 5 6 
#
# 1 0.011700 -0.003620 -0.000599 -0.002147 -0.001294 -0.003127
# 2 -0.003620 0.010145 -0.002353 -0.001178 -0.000888 -0.001506
# 3 -0.000599 -0.002353 0.014758 0.003649 0.003313 -0.006975
# 4 -0.002147 -0.001178 0.003649 0.028027 -0.006259 -0.003385
# 5 -0.001294 -0.000888 0.003313 -0.006259 0.030378 0.001717
# 6 -0.003127 -0.001506 -0.006975 -0.003385 0.001717 0.026299
#
#
# Mechanical properties :
#
#
# Convention : Reuss Voigt Hill
#
# Bulk Modulus (GPa) = 42.62678 58.05881 50.34280
# Shear Modulus (GPa) = 35.14395 40.93313 38.03854
#
# Velocity S-wave (km/s) = 3.90351 4.21276 4.06108
# Velocity P-wave (km/s) = 6.22882 6.98826 6.61944
#
# Compressibility (1/GPa) = 0.02345943
#
# Stress axis : x y z
#
# Youngs Moduli (GPa) = 85.46658 98.57145 67.75895
#
# Poissons Ratio (x) = 0.35682 0.04058
# Poissons Ratio (y) = 0.30938 0.15945
# Poissons Ratio (z) = 0.05119 0.23196
#
# Static dielectric constant tensor:
#      x y z
#    x 4.246120 0.143210 -0.079270 
#    y 0.143210 4.373300 0.171990 
#    z -0.079270 0.171990 4.856400 
# 
# 
# High freq. dielectric constant tensor:
#      x y z
#    x 1.919790 0.008570 0.004370 
#    y 0.008570 1.923410 0.000740 
#    z 0.004370 0.000740 1.933220 
# 
# From -- ./inp_files/190832.got.cif
#   From: 2010.06.25/outbox.cif.g09.slc.cpg/sg2_96_cif.got.tgz:190832.got - 2010.06.27 13:26:56.
