data_PCOD8037029
_publ_section_title
;
Structure prediction by ZEFSAII (Michael W. Deem and Ramdas Pophale) SiO2 
 PCOD8037029
Probable space group: P -1
;
_chemical_formula_sum "Si O2"
_cell_formula_units_Z 16
_cell_length_a 16.399823
_cell_length_b 19.359675
_cell_length_c 8.739592
_cell_angle_alpha 38.963366
_cell_angle_beta 41.078470
_cell_angle_gamma 21.032780
_cell_volume 621.367415
_symmetry_space_group_name_H-M "P -1"
_symmetry_group_IT_number 2
_symmetry_cell_setting 'triclinic'
loop_
_space_group_symop_operation_xyz
x,y,z
-x,-y,-z
loop_
_atom_site_type_symbol
_atom_site_label
_atom_site_fract_x
_atom_site_fract_y
_atom_site_fract_z
Si Si1 0.034872 0.846425 0.205691
Si Si2 0.451017 0.160920 0.839847
Si Si3 0.526129 0.221478 0.322808
Si Si4 0.284153 0.227767 0.464613
Si Si5 0.889151 0.797635 0.997671
Si Si6 0.844453 0.534825 0.027299
Si Si7 0.589076 0.513837 0.483487
Si Si8 0.727646 0.373917 0.071169
O O1 0.167724 0.703118 0.412921
O O2 0.149162 0.730047 0.084725
O O3 0.778086 0.989203 0.324597
O O4 0.000000 0.000000 0.000000
O O5 0.475858 0.231632 0.552058
O O6 0.192719 0.375919 0.907094
O O7 0.500000 0.000000 0.000000
O O8 0.645595 0.039757 0.903640
O O9 0.345614 0.292264 0.354623
O O10 0.481079 0.383524 0.072897
O O11 0.116562 0.282760 0.714381
O O12 0.500000 0.000000 0.500000
O O13 0.159595 0.359359 0.262532
O O14 0.093174 0.728781 0.870258
O O15 0.937778 0.698899 0.935031
O O16 0.625596 0.611345 0.204374
O O17 0.500000 0.500000 0.500000
O O18 0.396574 0.646046 0.663075
#
# Coordination Sequence:
#
# PCOD8037029 Si02
#       8
#     2   2   2   2   2   2   2   2
#     4  12  28  47  75 107 144 194 246 296 366 437
#     4  12  27  47  70 110 149 189 246 309 363 435
#     4  12  25  48  72 106 147 190 242 300 367 435
#     4  12  23  47  76 104 146 192 244 299 359 441
#     4  12  25  47  76 107 143 193 250 291 376 431
#     4  12  26  45  76 105 148 193 243 307 365 435
#     4  12  25  51  75 110 151 190 244 303 367 438
#     4  12  27  48  76 106 147 198 243 299 367 444
#
# _framework density 25.749659000000001
#
# number of rings (size 3 to 8) (size 9 to 14) (size 15 to 20)
#    0.000    0.000    6.250    3.000    1.750    0.500 
#    0.000    1.250    0.000    0.000    0.000    0.000 
#    0.000    0.000    0.000    0.000    0.000    0.000 
#
# Total GULP energy -198291.285536 kJ/mol
# GULP energy per Si atom -12393.205346 kJ/mol
# Density = 2.569105 g / cm^3
# Si number density = 25.749659 Si / 1000 Ang^3
#
#
#
# Elastic Constant Matrix: (Units=GPa)
#
#
# Indices 1 2 3 4 5 6 
#
# 1 53.1159 13.6916 -15.0038 -12.0343 19.5874 18.7798
# 2 13.6916 137.6166 13.0199 19.2003 14.6848 8.3546
# 3 -15.0038 13.0199 100.4989 18.2189 11.7418 10.5811
# 4 -12.0343 19.2003 18.2189 44.2923 2.9197 7.6745
# 5 19.5874 14.6848 11.7418 2.9197 40.2858 -3.9756
# 6 18.7798 8.3546 10.5811 7.6745 -3.9756 40.6725
#
#
#
# Elastic Compliance Matrix: (Units=1/GPa)
#
#
# Indices 1 2 3 4 5 6 
#
# 1 0.049083 -0.003266 0.011418 0.017466 -0.030349 -0.031225
# 2 -0.003266 0.008301 -0.000773 -0.004238 -0.000834 0.000722
# 3 0.011418 -0.000773 0.013978 0.000061 -0.010312 -0.009769
# 4 0.017466 -0.004238 0.000061 0.032330 -0.010725 -0.014359
# 5 -0.030349 -0.000834 -0.010312 -0.010725 0.045974 0.023385
# 6 -0.031225 0.000722 -0.009769 -0.014359 0.023385 0.046392
#
#
# Mechanical properties :
#
#
# Convention : Reuss Voigt Hill
#
# Bulk Modulus (GPa) = 11.61191 34.96075 23.28633
# Shear Modulus (GPa) = 23.80868 43.68504 33.74686
#
# Velocity S-wave (km/s) = 3.04406 4.12336 3.62411
# Velocity P-wave (km/s) = 4.10784 6.02297 5.15512
#
# Compressibility (1/GPa) = 0.08611848
#
# Stress axis : x y z
#
# Youngs Moduli (GPa) = 20.37357 120.46563 71.54326
#
# Poissons Ratio (x) = 0.39348 -0.81688
# Poissons Ratio (y) = 0.06655 0.05533
# Poissons Ratio (z) = -0.23263 0.09317
#
# Static dielectric constant tensor:
#      x y z
#    x 4.780300 0.184830 0.009240 
#    y 0.184830 6.336710 0.318490 
#    z 0.009240 0.318490 4.886990 
# 
# 
# High freq. dielectric constant tensor:
#      x y z
#    x 2.032400 -0.001270 0.001600 
#    y -0.001270 2.045490 0.019140 
#    z 0.001600 0.019140 2.040400 
# 
# From -- ./inp_files/338069.got.cif
#   From: 2010.06.25/outbox.cif.g09.slc.cpg/sg2_170_cif.got.tgz:338069.got - 2010.06.27 13:26:56.
