data_PCOD8037381
_publ_section_title
;
Structure prediction by ZEFSAII (Michael W. Deem and Ramdas Pophale) SiO2 
 PCOD8037381
Probable space group: P -1
;
_chemical_formula_sum "Si O2"
_cell_formula_units_Z 14
_cell_length_a 15.401593
_cell_length_b 9.453913
_cell_length_c 8.125008
_cell_angle_alpha 121.567671
_cell_angle_beta 36.002291
_cell_angle_gamma 109.567609
_cell_volume 583.164934
_symmetry_space_group_name_H-M "P -1"
_symmetry_group_IT_number 2
_symmetry_cell_setting 'triclinic'
loop_
_space_group_symop_operation_xyz
x,y,z
-x,-y,-z
loop_
_atom_site_type_symbol
_atom_site_label
_atom_site_fract_x
_atom_site_fract_y
_atom_site_fract_z
Si Si1 0.839322 0.580557 0.855891
Si Si2 0.710958 0.178017 0.216026
Si Si3 0.730565 0.804279 0.888747
Si Si4 0.984059 0.695546 0.192314
Si Si5 0.583501 0.189894 0.764920
Si Si6 0.376908 0.640775 0.849153
Si Si7 0.865456 0.907242 0.210201
O O1 0.714674 0.660049 0.959406
O O2 0.000000 0.500000 0.500000
O O3 0.776844 0.434647 0.961590
O O4 0.872041 0.731878 0.006231
O O5 0.625984 0.259510 0.562069
O O6 0.625980 0.208703 0.188361
O O7 0.850977 0.266664 0.028035
O O8 0.745894 0.976639 0.066418
O O9 0.891913 0.726213 0.519642
O O10 0.588682 0.837081 0.003039
O O11 0.890837 0.846565 0.320099
O O12 0.000000 0.500000 0.000000
O O13 0.701666 0.021346 0.518788
O O14 0.588147 0.312231 0.988060
O O15 0.500000 0.500000 0.500000
O O16 0.000000 0.000000 0.000000
#
# Coordination Sequence:
#
# PCOD8037381 Si02
#       7
#     2   2   2   2   2   2   2
#     4  12  26  48  76 111 150 195 253 313 376 450
#     4  12  26  52  77 108 152 201 255 307 379 458
#     4  12  27  48  78 111 153 197 256 318 374 454
#     4  12  27  46  75 114 150 198 256 313 377 452
#     4  12  28  49  81 110 153 200 256 313 385 448
#     4  12  30  48  74 112 155 196 249 316 385 448
#     4  12  24  48  77 107 148 198 255 308 371 458
#
# _framework density 24.006930000000001
#
# number of rings (size 3 to 8) (size 9 to 14) (size 15 to 20)
#    0.000    0.000    2.857    6.000    8.000    2.286 
#    0.000    0.000    0.000    0.000    0.000    0.000 
#    0.000    0.000    0.000    0.000    0.000    0.000 
#
# Total GULP energy -173448.595868 kJ/mol
# GULP energy per Si atom -12389.185419 kJ/mol
# Density = 2.395229 g / cm^3
# Si number density = 24.006930 Si / 1000 Ang^3
#
#
#
# Elastic Constant Matrix: (Units=GPa)
#
#
# Indices 1 2 3 4 5 6 
#
# 1 97.6229 33.1736 26.4835 -3.9721 22.5518 1.7971
# 2 33.1736 102.6955 19.8136 -3.3143 12.0954 -6.7841
# 3 26.4835 19.8136 133.6798 -5.9048 21.9341 16.5285
# 4 -3.9721 -3.3143 -5.9048 36.1959 1.3553 3.5778
# 5 22.5518 12.0954 21.9341 1.3553 48.2918 1.6130
# 6 1.7971 -6.7841 16.5285 3.5778 1.6130 55.2778
#
#
#
# Elastic Compliance Matrix: (Units=1/GPa)
#
#
# Indices 1 2 3 4 5 6 
#
# 1 0.012830 -0.003362 -0.001183 0.001121 -0.004630 -0.000413
# 2 -0.003362 0.011260 -0.001076 0.000338 -0.000832 0.001815
# 3 -0.001183 -0.001076 0.008796 0.001594 -0.003127 -0.002736
# 4 0.001121 0.000338 0.001594 0.028340 -0.002053 -0.002246
# 5 -0.004630 -0.000832 -0.003127 -0.002053 0.024542 0.000400
# 6 -0.000413 0.001815 -0.002736 -0.002246 0.000400 0.019278
#
#
# Mechanical properties :
#
#
# Convention : Reuss Voigt Hill
#
# Bulk Modulus (GPa) = 46.20303 54.77107 50.48705
# Shear Modulus (GPa) = 40.48491 44.92160 42.70326
#
# Velocity S-wave (km/s) = 4.11102 4.33042 4.22214
# Velocity P-wave (km/s) = 6.46695 6.91864 6.69661
#
# Compressibility (1/GPa) = 0.02164360
#
# Stress axis : x y z
#
# Youngs Moduli (GPa) = 77.94480 88.81080 113.68708
#
# Poissons Ratio (x) = 0.29857 0.13451
# Poissons Ratio (y) = 0.26204 0.12232
# Poissons Ratio (z) = 0.09222 0.09555
#
# Static dielectric constant tensor:
#      x y z
#    x 4.365330 -0.139800 0.241040 
#    y -0.139800 4.348580 -0.101100 
#    z 0.241040 -0.101100 4.227670 
# 
# 
# High freq. dielectric constant tensor:
#      x y z
#    x 1.966970 -0.016890 0.000450 
#    y -0.016890 1.962930 -0.000300 
#    z 0.000450 -0.000300 1.964330 
# 
# From -- ./inp_files/329370.got.cif
#   From: 2010.06.25/outbox.cif.g09.slc.cpg/sg2_165_cif.got.tgz:329370.got - 2010.06.27 13:26:56.
