data_PCOD8037625
_publ_section_title
;
Structure prediction by ZEFSAII (Michael W. Deem and Ramdas Pophale) SiO2 
 PCOD8037625
Probable space group: P -1
;
_chemical_formula_sum "Si O2"
_cell_formula_units_Z 10
_cell_length_a 9.186504
_cell_length_b 9.282399
_cell_length_c 9.099351
_cell_angle_alpha 42.708737
_cell_angle_beta 75.595105
_cell_angle_gamma 103.611960
_cell_volume 393.154600
_symmetry_space_group_name_H-M "P -1"
_symmetry_group_IT_number 2
_symmetry_cell_setting 'triclinic'
loop_
_space_group_symop_operation_xyz
x,y,z
-x,-y,-z
loop_
_atom_site_type_symbol
_atom_site_label
_atom_site_fract_x
_atom_site_fract_y
_atom_site_fract_z
Si Si1 0.417020 0.949934 0.398107
Si Si2 0.429355 0.485206 0.690683
Si Si3 0.025061 0.969263 0.185699
Si Si4 0.729443 0.524810 0.765191
Si Si5 0.960881 0.227207 0.261066
O O1 0.500000 0.000000 0.500000
O O2 0.354317 0.660148 0.576266
O O3 0.229689 0.937951 0.460770
O O4 0.592154 0.196512 0.065893
O O5 0.500000 0.500000 0.500000
O O6 0.592508 0.596088 0.691462
O O7 0.254288 0.164425 0.013417
O O8 0.926802 0.060261 0.247984
O O9 0.898954 0.644450 0.506228
O O10 0.000000 0.000000 0.000000
O O11 0.850350 0.695994 0.754908
O O12 0.000000 0.500000 0.000000
#
# Coordination Sequence:
#
# PCOD8037625 Si02
#       5
#     2   2   2   2   2
#     4  12  26  48  79 113 151 194 259 313 369 454
#     4  12  27  50  75 113 156 196 251 315 378 450
#     4  12  26  49  76 111 158 197 247 312 379 450
#     4  12  27  48  83 111 149 204 253 310 384 443
#     4  12  25  48  78 113 150 197 256 310 369 454
#
# _framework density 25.435289000000001
#
# number of rings (size 3 to 8) (size 9 to 14) (size 15 to 20)
#    0.000    0.000    6.000    3.000    0.000    6.400 
#    0.000    5.000    0.000    0.000    0.000    0.000 
#    0.000    0.000    0.000    0.000    0.000    0.000 
#
# Total GULP energy -123903.928130 kJ/mol
# GULP energy per Si atom -12390.392813 kJ/mol
# Density = 2.537740 g / cm^3
# Si number density = 25.435289 Si / 1000 Ang^3
#
#
#
# Elastic Constant Matrix: (Units=GPa)
#
#
# Indices 1 2 3 4 5 6 
#
# 1 140.0178 56.8943 52.5392 5.1960 -19.6461 18.8180
# 2 56.8943 103.7948 34.5300 21.9407 -0.2109 8.6325
# 3 52.5392 34.5300 240.3998 -0.6131 -22.7616 14.9632
# 4 5.1960 21.9407 -0.6131 35.6927 12.6574 -7.6073
# 5 -19.6461 -0.2109 -22.7616 12.6574 48.4576 -0.6938
# 6 18.8180 8.6325 14.9632 -7.6073 -0.6938 40.3288
#
#
#
# Elastic Compliance Matrix: (Units=1/GPa)
#
#
# Indices 1 2 3 4 5 6 
#
# 1 0.010624 -0.005059 -0.001005 -0.000600 0.003919 -0.003547
# 2 -0.005059 0.014731 -0.000918 -0.008722 -0.000170 -0.002100
# 3 -0.001005 -0.000918 0.004751 -0.000087 0.001828 -0.001083
# 4 -0.000600 -0.008722 -0.000087 0.039158 -0.010416 0.009386
# 5 0.003919 -0.000170 0.001828 -0.010416 0.025747 -0.003992
# 6 -0.003547 -0.002100 -0.001083 0.009386 -0.003992 0.029004
#
#
# Mechanical properties :
#
#
# Convention : Reuss Voigt Hill
#
# Bulk Modulus (GPa) = 61.94975 85.79325 73.87150
# Shear Modulus (GPa) = 34.87738 47.57909 41.22823
#
# Velocity S-wave (km/s) = 3.70702 4.32973 4.03042
# Velocity P-wave (km/s) = 6.53692 7.66803 7.12495
#
# Compressibility (1/GPa) = 0.01614212
#
# Stress axis : x y z
#
# Youngs Moduli (GPa) = 94.13041 67.88453 210.46591
#
# Poissons Ratio (x) = 0.34345 0.21147
# Poissons Ratio (y) = 0.47623 0.19317
# Poissons Ratio (z) = 0.09458 0.06231
#
# Static dielectric constant tensor:
#      x y z
#    x 5.223710 0.034410 -0.194070 
#    y 0.034410 4.729950 -0.390050 
#    z -0.194070 -0.390050 5.864570 
# 
# 
# High freq. dielectric constant tensor:
#      x y z
#    x 2.008780 0.027660 -0.012460 
#    y 0.027660 1.989430 -0.005980 
#    z -0.012460 -0.005980 2.060470 
# 
# From -- ./inp_files/144113.got.cif
#   From: 2010.06.25/outbox.cif.g09.slc.cpg/sg2_73_cif.got.tgz:144113.got - 2010.06.27 13:26:56.
