data_PCOD8037809
_publ_section_title
;
Structure prediction by ZEFSAII (Michael W. Deem and Ramdas Pophale) SiO2 
 PCOD8037809
Probable space group: P -1
;
_chemical_formula_sum "Si O2"
_cell_formula_units_Z 12
_cell_length_a 14.216949
_cell_length_b 5.457760
_cell_length_c 12.012348
_cell_angle_alpha 102.255944
_cell_angle_beta 147.706520
_cell_angle_gamma 76.022187
_cell_volume 483.160424
_symmetry_space_group_name_H-M "P -1"
_symmetry_group_IT_number 2
_symmetry_cell_setting 'triclinic'
loop_
_space_group_symop_operation_xyz
x,y,z
-x,-y,-z
loop_
_atom_site_type_symbol
_atom_site_label
_atom_site_fract_x
_atom_site_fract_y
_atom_site_fract_z
Si Si1 0.005129 0.281920 0.575691
Si Si2 0.451421 0.540362 0.327926
Si Si3 0.081619 0.885486 0.958032
Si Si4 0.482727 0.220052 0.912761
Si Si5 0.725782 0.864594 0.997226
Si Si6 0.771671 0.634043 0.507675
O O1 0.000000 0.500000 0.500000
O O2 0.841338 0.352098 0.504897
O O3 0.190379 0.289288 0.826989
O O4 0.000000 0.000000 0.500000
O O5 0.500000 0.500000 0.500000
O O6 0.265484 0.715218 0.150841
O O7 0.432247 0.274886 0.224497
O O8 0.615516 0.649321 0.443340
O O9 0.123579 0.114303 0.942828
O O10 0.940580 0.739438 0.739613
O O11 0.000000 0.000000 0.000000
O O12 0.299867 0.213349 0.660686
O O13 0.644529 0.146576 0.980960
O O14 0.500000 0.500000 0.000000
O O15 0.500000 0.000000 0.000000
#
# Coordination Sequence:
#
# PCOD8037809 Si02
#       6
#     2   2   2   2   2   2
#     4  12  27  49  81 123 163 217 271 329 405 488
#     4  12  29  52  80 118 157 211 274 339 413 487
#     4  12  29  52  80 118 157 211 274 339 413 487
#     4  12  27  49  81 123 163 217 271 329 405 488
#     4  12  27  50  78 116 168 202 275 334 398 494
#     4  12  27  52  84 116 164 214 265 338 406 482
#
# _framework density 24.836473999999999
#
# number of rings (size 3 to 8) (size 9 to 14) (size 15 to 20)
#    0.000    0.000    3.333    5.000    4.667    5.333 
#    0.000    0.000    0.000    0.000    0.000    0.000 
#    0.000    0.000    0.000    0.000    0.000    0.000 
#
# Total GULP energy -148759.408991 kJ/mol
# GULP energy per Si atom -12396.617416 kJ/mol
# Density = 2.477995 g / cm^3
# Si number density = 24.836474 Si / 1000 Ang^3
#
#
#
# Elastic Constant Matrix: (Units=GPa)
#
#
# Indices 1 2 3 4 5 6 
#
# 1 42.1102 36.4073 46.7100 -0.5823 -5.7506 -11.8581
# 2 36.4073 136.9897 57.6711 -8.1342 -16.8503 -5.8990
# 3 46.7100 57.6711 201.2647 -18.1945 -18.1120 6.2555
# 4 -0.5823 -8.1342 -18.1945 35.9338 -2.3709 6.9512
# 5 -5.7506 -16.8503 -18.1120 -2.3709 51.2027 -5.4672
# 6 -11.8581 -5.8990 6.2555 6.9512 -5.4672 50.3573
#
#
#
# Elastic Compliance Matrix: (Units=1/GPa)
#
#
# Indices 1 2 3 4 5 6 
#
# 1 0.043515 -0.007766 -0.008934 -0.007804 0.000041 0.011529
# 2 -0.007766 0.010011 -0.000660 0.002072 0.002219 -0.000619
# 3 -0.008934 -0.000660 0.007874 0.004486 0.001385 -0.003628
# 4 -0.007804 0.002072 0.004486 0.031807 0.002192 -0.006305
# 5 0.000041 0.002219 0.001385 0.002192 0.021079 0.002083
# 6 0.011529 -0.000619 -0.003628 -0.006305 0.002083 0.024047
#
#
# Mechanical properties :
#
#
# Convention : Reuss Voigt Hill
#
# Bulk Modulus (GPa) = 37.48031 73.54903 55.51467
# Shear Modulus (GPa) = 27.48058 43.47052 35.47555
#
# Velocity S-wave (km/s) = 3.32996 4.18816 3.78347
# Velocity P-wave (km/s) = 5.46886 7.28459 6.44103
#
# Compressibility (1/GPa) = 0.02668068
#
# Stress axis : x y z
#
# Youngs Moduli (GPa) = 22.98047 99.89174 126.99901
#
# Poissons Ratio (x) = 0.77573 1.13461
# Poissons Ratio (y) = 0.17846 0.08382
# Poissons Ratio (z) = 0.20531 0.06593
#
# Static dielectric constant tensor:
#      x y z
#    x 4.962240 -0.527530 -0.099280 
#    y -0.527530 4.734360 -0.249990 
#    z -0.099280 -0.249990 4.826380 
# 
# 
# High freq. dielectric constant tensor:
#      x y z
#    x 2.007080 -0.018450 -0.005530 
#    y -0.018450 1.990260 -0.015820 
#    z -0.005530 -0.015820 2.012620 
# 
# From -- ./inp_files/442224.got.cif
#   From: 2010.06.25/outbox.cif.g09.slc.cpg/sg2_222_cif.got.tgz:442224.got - 2010.06.27 13:26:56.
