data_PCOD8037979
_publ_section_title
;
Structure prediction by ZEFSAII (Michael W. Deem and Ramdas Pophale) SiO2 
 PCOD8037979
Probable space group: P -1
;
_chemical_formula_sum "Si O2"
_cell_formula_units_Z 14
_cell_length_a 13.537809
_cell_length_b 10.099951
_cell_length_c 16.728144
_cell_angle_alpha 69.788229
_cell_angle_beta 137.740343
_cell_angle_gamma 143.626269
_cell_volume 709.971980
_symmetry_space_group_name_H-M "P -1"
_symmetry_group_IT_number 2
_symmetry_cell_setting 'triclinic'
loop_
_space_group_symop_operation_xyz
x,y,z
-x,-y,-z
loop_
_atom_site_type_symbol
_atom_site_label
_atom_site_fract_x
_atom_site_fract_y
_atom_site_fract_z
Si Si1 0.107190 0.799805 0.776858
Si Si2 0.061961 0.254631 0.015400
Si Si3 0.495742 0.615973 0.788654
Si Si4 0.773653 0.417221 0.086556
Si Si5 0.192123 0.308282 0.829528
Si Si6 0.772346 0.690716 0.723206
Si Si7 0.172481 0.275083 0.510329
O O1 0.081452 0.610364 0.797838
O O2 0.843975 0.643988 0.704934
O O3 0.063777 0.822376 0.656231
O O4 0.415504 0.108849 0.936258
O O5 0.281268 0.331639 0.082536
O O6 0.143194 0.321827 0.142706
O O7 0.115962 0.450203 0.964342
O O8 0.709602 0.928975 0.863209
O O9 0.234427 0.390289 0.745472
O O10 0.337357 0.498305 0.632788
O O11 0.887710 0.624092 0.177656
O O12 0.500000 0.500000 0.000000
O O13 0.935903 0.977987 0.754248
O O14 0.419170 0.424225 0.564610
O O15 0.000000 0.000000 0.500000
#
# Coordination Sequence:
#
# PCOD8037979 Si02
#       7
#     2   2   2   2   2   2   2
#     4  11  23  39  54  88 122 156 186 236 301 346
#     4  10  17  33  55  86 107 146 193 247 279 322
#     4  10  19  32  57  85 112 141 202 242 274 329
#     4  11  22  36  60  85 122 150 191 246 291 339
#     4  12  18  36  64  89 109 149 204 242 275 335
#     4  11  21  36  64  86 111 152 205 237 278 346
#     4  11  23  38  59  84 119 156 193 237 287 352
#
# _framework density 19.719090000000001
#
# number of rings (size 3 to 8) (size 9 to 14) (size 15 to 20)
#    0.000    1.143    4.286    4.714    0.000    0.571 
#    0.000    5.000    0.000    0.000    0.000    0.000 
#    0.000    0.000    0.000    0.000    0.000    0.000 
#
# Total GULP energy -173626.839990 kJ/mol
# GULP energy per Si atom -12401.917142 kJ/mol
# Density = 1.967421 g / cm^3
# Si number density = 19.719090 Si / 1000 Ang^3
#
#
#
# Elastic Constant Matrix: (Units=GPa)
#
#
# Indices 1 2 3 4 5 6 
#
# 1 86.4745 39.9816 28.5116 -14.1607 3.3235 4.3253
# 2 39.9816 127.3537 40.3899 -17.5925 16.6740 9.8479
# 3 28.5116 40.3899 80.4163 -12.2763 0.4510 -4.5736
# 4 -14.1607 -17.5925 -12.2763 34.6129 8.6948 1.0923
# 5 3.3235 16.6740 0.4510 8.6948 15.2368 -2.2421
# 6 4.3253 9.8479 -4.5736 1.0923 -2.2421 31.4872
#
#
#
# Elastic Compliance Matrix: (Units=1/GPa)
#
#
# Indices 1 2 3 4 5 6 
#
# 1 0.014769 -0.002218 -0.003519 0.004664 -0.003685 -0.002270
# 2 -0.002218 0.015610 -0.005622 0.011293 -0.023980 -0.007493
# 3 -0.003519 -0.005622 0.016700 -0.000403 0.007422 0.005210
# 4 0.004664 0.011293 -0.000403 0.047111 -0.041545 -0.008824
# 5 -0.003685 -0.023980 0.007422 -0.041545 0.118959 0.018996
# 6 -0.002270 -0.007493 0.005210 -0.008824 0.018996 0.036830
#
#
# Mechanical properties :
#
#
# Convention : Reuss Voigt Hill
#
# Bulk Modulus (GPa) = 41.04797 56.89006 48.96902
# Shear Modulus (GPa) = 17.80522 28.62480 23.21501
#
# Velocity S-wave (km/s) = 3.00816 3.81416 3.43488
# Velocity P-wave (km/s) = 5.73820 6.95054 6.37326
#
# Compressibility (1/GPa) = 0.02436174
#
# Stress axis : x y z
#
# Youngs Moduli (GPa) = 67.71027 64.05948 59.88167
#
# Poissons Ratio (x) = 0.14210 0.21070
# Poissons Ratio (y) = 0.15020 0.33664
# Poissons Ratio (z) = 0.23824 0.36013
#
# Static dielectric constant tensor:
#      x y z
#    x 3.552260 0.051110 -0.089870 
#    y 0.051110 3.259220 0.107390 
#    z -0.089870 0.107390 3.594110 
# 
# 
# High freq. dielectric constant tensor:
#      x y z
#    x 1.758310 0.022820 -0.017640 
#    y 0.022820 1.775950 0.009220 
#    z -0.017640 0.009220 1.751120 
# 
# From -- ./inp_files/224076.got.cif
#   From: 2010.06.25/outbox.cif.g09.slc.cpg/sg2_113_cif.got.tgz:224076.got - 2010.06.27 13:26:56.
