data_PCOD8037839
_publ_section_title
;
Structure prediction by ZEFSAII (Michael W. Deem and Ramdas Pophale) SiO2 
 PCOD8037839
Probable space group: P -1
;
_chemical_formula_sum "Si O2"
_cell_formula_units_Z 16
_cell_length_a 12.875859
_cell_length_b 17.841173
_cell_length_c 14.361043
_cell_angle_alpha 50.296714
_cell_angle_beta 50.987453
_cell_angle_gamma 20.513455
_cell_volume 883.465919
_symmetry_space_group_name_H-M "P -1"
_symmetry_group_IT_number 2
_symmetry_cell_setting 'triclinic'
loop_
_space_group_symop_operation_xyz
x,y,z
-x,-y,-z
loop_
_atom_site_type_symbol
_atom_site_label
_atom_site_fract_x
_atom_site_fract_y
_atom_site_fract_z
Si Si1 0.599045 0.870844 0.172914
Si Si2 0.140098 0.009485 0.023224
Si Si3 0.686806 0.744414 0.022581
Si Si4 0.122059 0.572270 0.374068
Si Si5 0.806742 0.412018 0.877800
Si Si6 0.717876 0.118833 0.158532
Si Si7 0.276624 0.056634 0.572460
Si Si8 0.444926 0.181932 0.568311
O O1 0.666328 0.758771 0.134907
O O2 0.469284 0.889598 0.315477
O O3 0.907511 0.711578 0.160014
O O4 0.363154 0.111521 0.096638
O O5 0.236325 0.966950 0.896068
O O6 0.424833 0.843115 0.059029
O O7 0.868052 0.261952 0.996957
O O8 0.022916 0.975660 0.131030
O O9 0.000000 0.500000 0.000000
O O10 0.260860 0.537649 0.234652
O O11 0.367148 0.345037 0.464909
O O12 0.039268 0.706223 0.393732
O O13 0.831959 0.702545 0.401267
O O14 0.530498 0.636346 0.912002
O O15 0.604419 0.115245 0.301280
O O16 0.500000 0.000000 0.500000
O O17 0.266646 0.033598 0.487334
#
# Coordination Sequence:
#
# PCOD8037839 Si02
#       8
#     2   2   2   2   2   2   2   2
#     4   9  20  32  53  78 104 128 180 223 258 304
#     4  10  22  34  52  76 110 142 174 213 259 319
#     4  10  20  37  54  74 100 139 181 228 258 292
#     4   9  16  27  45  72 108 131 161 203 259 313
#     4  10  17  32  52  77 109 136 165 212 262 318
#     4  11  20  33  50  79 113 142 167 207 268 324
#     4  10  19  28  47  74 108 139 167 204 255 313
#     4   9  17  29  45  74 103 133 160 212 264 304
#
# _framework density 18.110489000000001
#
# number of rings (size 3 to 8) (size 9 to 14) (size 15 to 20)
#    0.000    2.250    2.500    1.125    3.500    1.000 
#    0.000    0.000    0.000    0.750    0.000    1.750 
#    0.000    0.000    0.000    0.000    0.000    0.000 
#
# Total GULP energy -198307.785960 kJ/mol
# GULP energy per Si atom -12394.236623 kJ/mol
# Density = 1.806927 g / cm^3
# Si number density = 18.110489 Si / 1000 Ang^3
#
#
#
# Elastic Constant Matrix: (Units=GPa)
#
#
# Indices 1 2 3 4 5 6 
#
# 1 82.5730 30.6386 43.6451 -7.4867 15.0753 22.5441
# 2 30.6386 72.5410 18.8425 -13.0407 4.6139 28.5888
# 3 43.6451 18.8425 94.6305 -3.9207 14.5200 -0.8025
# 4 -7.4867 -13.0407 -3.9207 13.4946 0.3167 4.1733
# 5 15.0753 4.6139 14.5200 0.3167 29.8358 7.5148
# 6 22.5441 28.5888 -0.8025 4.1733 7.5148 22.8608
#
#
#
# Elastic Compliance Matrix: (Units=1/GPa)
#
#
# Indices 1 2 3 4 5 6 
#
# 1 -0.022560 -0.084168 0.027279 -0.135524 -0.028357 0.162524
# 2 -0.084168 -0.131137 0.063890 -0.249419 -0.043483 0.309065
# 3 0.027279 0.063890 -0.013483 0.113742 0.015198 -0.133032
# 4 -0.135524 -0.249419 0.113742 -0.375681 -0.081576 0.544949
# 5 -0.028357 -0.043483 0.015198 -0.081576 0.025528 0.089376
# 6 0.162524 0.309065 -0.133032 0.544949 0.089376 -0.636563
#
#
# Mechanical properties :
#
#
# Convention : Reuss Voigt Hill
#
# Bulk Modulus (GPa) = -6.52830 48.44409 20.95789
# Shear Modulus (GPa) = -4.10186 23.67947 9.78880
#
# Velocity S-wave (km/s) = -1.50659 3.61986 2.32740
# Velocity P-wave (km/s) = 2.57662 6.65420 4.33817
#
# Compressibility (1/GPa) = -0.15317917
#
# Stress axis : x y z
#
# Youngs Moduli (GPa) = -44.32533 -7.62560 -74.16648
#
# Poissons Ratio (x) = -0.64183 2.02318
# Poissons Ratio (y) = -3.73079 4.73852
# Poissons Ratio (z) = 1.20914 0.48720
#
# Static dielectric constant tensor:
#      x y z
#    x 3.340960 0.428380 0.149770 
#    y 0.428380 3.302050 0.033700 
#    z 0.149770 0.033700 3.458990 
# 
# 
# High freq. dielectric constant tensor:
#      x y z
#    x 1.683750 0.042570 0.004780 
#    y 0.042570 1.684580 0.002340 
#    z 0.004780 0.002340 1.697140 
# 
# From -- ./inp_files/436648.got.cif
#   From: 2010.06.25/outbox.cif.g09.slc.cpg/sg2_219_cif.got.tgz:436648.got - 2010.06.27 13:26:56.
