data_PCOD8037045
_publ_section_title
;
Structure prediction by ZEFSAII (Michael W. Deem and Ramdas Pophale) SiO2 
 PCOD8037045
Probable space group: P -1
;
_chemical_formula_sum "Si O2"
_cell_formula_units_Z 16
_cell_length_a 9.063321
_cell_length_b 11.886694
_cell_length_c 12.921154
_cell_angle_alpha 83.503954
_cell_angle_beta 43.082076
_cell_angle_gamma 56.747604
_cell_volume 687.198515
_symmetry_space_group_name_H-M "P -1"
_symmetry_group_IT_number 2
_symmetry_cell_setting 'triclinic'
loop_
_space_group_symop_operation_xyz
x,y,z
-x,-y,-z
loop_
_atom_site_type_symbol
_atom_site_label
_atom_site_fract_x
_atom_site_fract_y
_atom_site_fract_z
Si Si1 0.595667 0.939332 0.574828
Si Si2 0.136024 0.920766 0.830716
Si Si3 0.528706 0.427333 0.326688
Si Si4 0.044039 0.469110 0.280414
Si Si5 0.222310 0.438565 0.798176
Si Si6 0.656289 0.110372 0.681806
Si Si7 0.387449 0.807980 0.074177
Si Si8 0.240685 0.630444 0.259893
O O1 0.445933 0.873852 0.677356
O O2 0.943754 0.800898 0.430341
O O3 0.500000 0.000000 0.500000
O O4 0.503607 0.064479 0.697159
O O5 0.227534 0.757701 0.792846
O O6 0.910423 0.038811 0.843445
O O7 0.000000 0.000000 0.000000
O O8 0.711477 0.458005 0.291410
O O9 0.475672 0.520172 0.240474
O O10 0.214553 0.500401 0.525516
O O11 0.167322 0.532822 0.268492
O O12 0.922220 0.567440 0.227059
O O13 0.315866 0.281928 0.138656
O O14 0.534005 0.270498 0.682105
O O15 0.000000 0.500000 0.000000
O O16 0.578047 0.133805 0.842130
O O17 0.000000 0.000000 0.500000
O O18 0.380549 0.672813 0.105627
#
# Coordination Sequence:
#
# PCOD8037045 Si02
#       8
#     2   2   2   2   2   2   2   2
#     4  12  24  47  78 109 144 198 249 300 365 449
#     4  12  29  47  72 111 153 192 244 308 381 430
#     4  12  27  49  72 108 154 190 240 311 379 433
#     4  12  26  44  73 108 153 189 244 312 371 432
#     4  12  26  49  73 108 143 197 251 296 365 448
#     4  12  24  46  79 105 147 189 256 303 355 436
#     4  12  26  49  72 114 143 203 253 300 364 445
#     4  12  23  48  76 107 143 201 255 292 358 448
#
# _framework density 23.282937
#
# number of rings (size 3 to 8) (size 9 to 14) (size 15 to 20)
#    0.000    0.000    6.250    2.625    5.250    0.000 
#    2.250    1.250    0.000    0.000    0.000    0.000 
#    0.000    0.000    0.000    0.000    0.000    0.000 
#
# Total GULP energy -198266.076025 kJ/mol
# GULP energy per Si atom -12391.629752 kJ/mol
# Density = 2.322994 g / cm^3
# Si number density = 23.282937 Si / 1000 Ang^3
#
#
#
# Elastic Constant Matrix: (Units=GPa)
#
#
# Indices 1 2 3 4 5 6 
#
# 1 85.3008 31.6905 7.5780 10.1166 11.1419 0.1146
# 2 31.6905 134.2737 27.6942 19.6462 -3.3362 -10.6043
# 3 7.5780 27.6942 93.0189 19.7482 -6.5582 2.7660
# 4 10.1166 19.6462 19.7482 32.9466 -5.5864 3.5398
# 5 11.1419 -3.3362 -6.5582 -5.5864 37.5905 11.1063
# 6 0.1146 -10.6043 2.7660 3.5398 11.1063 38.1677
#
#
#
# Elastic Compliance Matrix: (Units=1/GPa)
#
#
# Indices 1 2 3 4 5 6 
#
# 1 0.013864 -0.002807 0.000079 -0.003618 -0.005183 0.001016
# 2 -0.002807 0.009308 -0.001805 -0.003974 -0.000177 0.003145
# 3 0.000079 -0.001805 0.012740 -0.006192 0.001499 -0.001287
# 4 -0.003618 -0.003974 -0.006192 0.039497 0.007420 -0.006467
# 5 -0.005183 -0.000177 0.001499 0.007420 0.032529 -0.010296
# 6 0.001016 0.003145 -0.001287 -0.006467 -0.010296 0.030760
#
#
# Mechanical properties :
#
#
# Convention : Reuss Voigt Hill
#
# Bulk Modulus (GPa) = 37.25054 49.61320 43.43187
# Shear Modulus (GPa) = 31.90546 38.11635 35.01090
#
# Velocity S-wave (km/s) = 3.70582 4.05049 3.88198
# Velocity P-wave (km/s) = 5.86043 6.57498 6.22796
#
# Compressibility (1/GPa) = 0.02684525
#
# Stress axis : x y z
#
# Youngs Moduli (GPa) = 72.12961 107.43674 78.49357
#
# Poissons Ratio (x) = 0.30163 -0.00620
# Poissons Ratio (y) = 0.20250 0.14165
# Poissons Ratio (z) = -0.00569 0.19389
#
# Static dielectric constant tensor:
#      x y z
#    x 16.227660 7.718170 1.402540 
#    y 7.718170 9.908170 0.922590 
#    z 1.402540 0.922590 4.339020 
# 
# 
# High freq. dielectric constant tensor:
#      x y z
#    x 1.947200 -0.001570 -0.003830 
#    y -0.001570 1.919100 0.011040 
#    z -0.003830 0.011040 1.924730 
# 
# From -- ./inp_files/190016.got.cif
#   From: 2010.06.25/outbox.cif.g09.slc.cpg/sg2_96_cif.got.tgz:190016.got - 2010.06.27 13:26:56.
