data_PCOD8037051
_publ_section_title
;
Structure prediction by ZEFSAII (Michael W. Deem and Ramdas Pophale) SiO2 
 PCOD8037051
Probable space group: P -1
;
_chemical_formula_sum "Si O2"
_cell_formula_units_Z 16
_cell_length_a 10.366205
_cell_length_b 18.154153
_cell_length_c 8.078978
_cell_angle_alpha 37.685169
_cell_angle_beta 43.446820
_cell_angle_gamma 47.902012
_cell_volume 622.326028
_symmetry_space_group_name_H-M "P -1"
_symmetry_group_IT_number 2
_symmetry_cell_setting 'triclinic'
loop_
_space_group_symop_operation_xyz
x,y,z
-x,-y,-z
loop_
_atom_site_type_symbol
_atom_site_label
_atom_site_fract_x
_atom_site_fract_y
_atom_site_fract_z
Si Si1 0.092295 0.704254 0.408885
Si Si2 0.561297 0.890302 0.285538
Si Si3 0.844169 0.056706 0.681871
Si Si4 0.295788 0.658297 0.623931
Si Si5 0.704601 0.867821 0.554727
Si Si6 0.801090 0.084272 0.239650
Si Si7 0.973708 0.480974 0.747630
Si Si8 0.330063 0.273922 0.839387
O O1 0.245947 0.637455 0.517603
O O2 0.988836 0.605976 0.599293
O O3 0.930006 0.806806 0.466514
O O4 0.205951 0.773776 0.050495
O O5 0.624887 0.837188 0.504920
O O6 0.323306 0.912835 0.474067
O O7 0.661269 0.794567 0.223754
O O8 0.636348 0.015928 0.954576
O O9 0.804189 0.203907 0.463936
O O10 0.000000 0.000000 0.500000
O O11 0.975379 0.992375 0.830121
O O12 0.524398 0.635149 0.467735
O O13 0.234188 0.550473 0.978550
O O14 0.680866 0.016845 0.340853
O O15 0.612264 0.816112 0.894980
O O16 0.120188 0.361804 0.900367
O O17 0.000000 0.500000 0.500000
#
# Coordination Sequence:
#
# PCOD8037051 Si02
#       8
#     2   2   2   2   2   2   2   2
#     4  12  25  48  77 104 146 199 245 300 368 433
#     4  12  26  44  74 115 153 190 239 299 368 445
#     4  12  24  41  74 109 151 194 234 297 371 435
#     4  12  26  48  74 105 144 190 247 300 364 435
#     4  12  23  48  78 108 153 191 238 303 370 439
#     4  12  24  44  74 112 151 191 238 297 371 444
#     4  12  29  51  74 103 144 195 252 309 363 429
#     4  12  28  50  75 112 147 191 248 305 366 436
#
# _framework density 25.709996
#
# number of rings (size 3 to 8) (size 9 to 14) (size 15 to 20)
#    0.000    0.000    3.750    6.375    3.500    2.500 
#    2.250    0.000    0.000    0.000    0.000    0.000 
#    0.000    0.000    0.000    0.000    0.000    0.000 
#
# Total GULP energy -198396.872217 kJ/mol
# GULP energy per Si atom -12399.804514 kJ/mol
# Density = 2.565148 g / cm^3
# Si number density = 25.709996 Si / 1000 Ang^3
#
#
#
# Elastic Constant Matrix: (Units=GPa)
#
#
# Indices 1 2 3 4 5 6 
#
# 1 58.1399 5.2654 52.4638 1.4356 -11.4214 18.2922
# 2 5.2654 61.3431 28.2211 3.0356 -7.0502 17.5955
# 3 52.4638 28.2211 215.1365 -1.7226 -19.1552 21.6672
# 4 1.4356 3.0356 -1.7226 39.9586 4.1892 -7.2282
# 5 -11.4214 -7.0502 -19.1552 4.1892 53.9282 2.3527
# 6 18.2922 17.5955 21.6672 -7.2282 2.3527 45.3815
#
#
#
# Elastic Compliance Matrix: (Units=1/GPa)
#
#
# Indices 1 2 3 4 5 6 
#
# 1 0.026028 0.003966 -0.005429 -0.003842 0.004850 -0.010300
# 2 0.003966 0.020251 -0.002448 -0.003771 0.003306 -0.009054
# 3 -0.005429 -0.002448 0.006346 0.000608 0.000730 0.000166
# 4 -0.003842 -0.003771 0.000608 0.027153 -0.003515 0.007227
# 5 0.004850 0.003306 0.000730 -0.003515 0.020763 -0.005222
# 6 -0.010300 -0.009054 0.000166 0.007227 -0.005222 0.031040
#
#
# Mechanical properties :
#
#
# Convention : Reuss Voigt Hill
#
# Bulk Modulus (GPa) = 22.31981 56.28001 39.29991
# Shear Modulus (GPa) = 32.39669 44.43160 38.41415
#
# Velocity S-wave (km/s) = 3.55361 4.16165 3.86959
# Velocity P-wave (km/s) = 5.05349 6.71046 5.94004
#
# Compressibility (1/GPa) = 0.04480326
#
# Stress axis : x y z
#
# Youngs Moduli (GPa) = 38.42001 49.38075 157.57155
#
# Poissons Ratio (x) = -0.19582 0.85546
# Poissons Ratio (y) = -0.15236 0.38566
# Poissons Ratio (z) = 0.20858 0.12086
#
# Static dielectric constant tensor:
#      x y z
#    x 6.413010 -0.108990 -0.451530 
#    y -0.108990 5.080280 0.012220 
#    z -0.451530 0.012220 4.937260 
# 
# 
# High freq. dielectric constant tensor:
#      x y z
#    x 2.051410 0.006080 -0.002370 
#    y 0.006080 2.013030 0.021770 
#    z -0.002370 0.021770 2.042240 
# 
# From -- ./inp_files/282594.got.cif
#   From: 2010.06.25/outbox.cif.g09.slc.cpg/sg2_142_cif.got.tgz:282594.got - 2010.06.27 13:26:56.
