data_PCOD8037310
_publ_section_title
;
Structure prediction by ZEFSAII (Michael W. Deem and Ramdas Pophale) SiO2 
 PCOD8037310
Probable space group: P -1
;
_chemical_formula_sum "Si O2"
_cell_formula_units_Z 16
_cell_length_a 11.742892
_cell_length_b 8.876791
_cell_length_c 8.359378
_cell_angle_alpha 115.681123
_cell_angle_beta 111.674459
_cell_angle_gamma 58.658946
_cell_volume 658.884529
_symmetry_space_group_name_H-M "P -1"
_symmetry_group_IT_number 2
_symmetry_cell_setting 'triclinic'
loop_
_space_group_symop_operation_xyz
x,y,z
-x,-y,-z
loop_
_atom_site_type_symbol
_atom_site_label
_atom_site_fract_x
_atom_site_fract_y
_atom_site_fract_z
Si Si1 0.144085 0.833540 0.052325
Si Si2 0.394125 0.149531 0.185071
Si Si3 0.244020 0.121558 0.794578
Si Si4 0.031330 0.835265 0.321655
Si Si5 0.757433 0.495547 0.570436
Si Si6 0.566950 0.201239 0.785464
Si Si7 0.272138 0.444194 0.787548
Si Si8 0.613202 0.242525 0.460103
O O1 0.169999 0.635608 0.903776
O O2 0.140214 0.825713 0.239173
O O3 0.283942 0.847151 0.082960
O O4 0.000000 0.000000 0.000000
O O5 0.259207 0.320131 0.257899
O O6 0.499533 0.242089 0.276184
O O7 0.454323 0.981451 0.266754
O O8 0.366090 0.081270 0.966194
O O9 0.223475 0.294782 0.755779
O O10 0.104002 0.158394 0.830973
O O11 0.261161 0.951834 0.607754
O O12 0.093601 0.652330 0.376700
O O13 0.000000 0.000000 0.500000
O O14 0.751923 0.538719 0.403310
O O15 0.645540 0.417471 0.521361
O O16 0.435350 0.374832 0.874381
O O17 0.562256 0.242056 0.613833
#
# Coordination Sequence:
#
# PCOD8037310 Si02
#       8
#     2   2   2   2   2   2   2   2
#     4  12  27  47  75 112 154 197 250 316 376 448
#     4  12  26  44  74 112 148 192 246 314 377 440
#     4  12  27  47  76 110 153 195 251 313 377 445
#     4  12  25  50  75 104 150 205 250 300 375 459
#     4  12  26  45  77 107 149 201 252 304 376 446
#     4  12  25  48  76 109 153 198 250 312 381 446
#     4  12  28  46  75 114 152 193 258 310 380 440
#     4  12  24  47  74 107 150 198 244 310 375 449
#
# _framework density 24.283463000000001
#
# number of rings (size 3 to 8) (size 9 to 14) (size 15 to 20)
#    0.000    0.000    5.000    4.500    1.750    3.500 
#    0.000    0.000    0.000    0.000    0.000    0.000 
#    0.000    0.000    0.000    0.000    0.000    0.000 
#
# Total GULP energy -198280.876279 kJ/mol
# GULP energy per Si atom -12392.554767 kJ/mol
# Density = 2.422819 g / cm^3
# Si number density = 24.283463 Si / 1000 Ang^3
#
#
#
# Elastic Constant Matrix: (Units=GPa)
#
#
# Indices 1 2 3 4 5 6 
#
# 1 95.3974 21.7857 10.1884 -3.8708 1.1331 -16.2590
# 2 21.7857 131.0063 30.1317 10.7476 -16.9114 -11.6336
# 3 10.1884 30.1317 73.3199 6.6141 -11.3475 8.3161
# 4 -3.8708 10.7476 6.6141 38.6994 -12.9461 -3.6927
# 5 1.1331 -16.9114 -11.3475 -12.9461 37.0800 -8.0445
# 6 -16.2590 -11.6336 8.3161 -3.6927 -8.0445 55.4286
#
#
#
# Elastic Compliance Matrix: (Units=1/GPa)
#
#
# Indices 1 2 3 4 5 6 
#
# 1 0.011671 -0.001431 -0.001626 0.002184 0.000018 0.003515
# 2 -0.001431 0.009384 -0.003320 -0.000738 0.003596 0.002520
# 3 -0.001626 -0.003320 0.016092 -0.001586 0.002173 -0.003378
# 4 0.002184 -0.000738 -0.001586 0.030527 0.010705 0.004311
# 5 0.000018 0.003596 0.002173 0.010705 0.034341 0.006131
# 6 0.003515 0.002520 -0.003378 0.004311 0.006131 0.021285
#
#
# Mechanical properties :
#
#
# Convention : Reuss Voigt Hill
#
# Bulk Modulus (GPa) = 40.99994 47.10392 44.05193
# Shear Modulus (GPa) = 34.67761 42.08279 38.38020
#
# Velocity S-wave (km/s) = 3.78303 4.16743 3.97987
# Velocity P-wave (km/s) = 6.00019 6.52658 6.26891
#
# Compressibility (1/GPa) = 0.02439028
#
# Stress axis : x y z
#
# Youngs Moduli (GPa) = 85.68582 106.56992 62.14300
#
# Poissons Ratio (x) = 0.15254 0.10107
# Poissons Ratio (y) = 0.12265 0.20632
# Poissons Ratio (z) = 0.13936 0.35382
#
# Static dielectric constant tensor:
#      x y z
#    x 4.751250 -0.310410 -0.055090 
#    y -0.310410 4.661350 0.235720 
#    z -0.055090 0.235720 4.278470 
# 
# 
# High freq. dielectric constant tensor:
#      x y z
#    x 1.976340 -0.014680 -0.003480 
#    y -0.014680 1.983370 0.007340 
#    z -0.003480 0.007340 1.958070 
# 
# From -- ./inp_files/245602.got.cif
#   From: 2010.06.25/outbox.cif.g09.slc.cpg/sg2_123_cif.got.tgz:245602.got - 2010.06.27 13:26:56.
