data_PCOD8037184
_publ_section_title
;
Structure prediction by ZEFSAII (Michael W. Deem and Ramdas Pophale) SiO2 
 PCOD8037184
Probable space group: P -1
;
_chemical_formula_sum "Si O2"
_cell_formula_units_Z 16
_cell_length_a 9.346193
_cell_length_b 11.887299
_cell_length_c 8.676813
_cell_angle_alpha 56.665206
_cell_angle_beta 61.057456
_cell_angle_gamma 79.972536
_cell_volume 699.229259
_symmetry_space_group_name_H-M "P -1"
_symmetry_group_IT_number 2
_symmetry_cell_setting 'triclinic'
loop_
_space_group_symop_operation_xyz
x,y,z
-x,-y,-z
loop_
_atom_site_type_symbol
_atom_site_label
_atom_site_fract_x
_atom_site_fract_y
_atom_site_fract_z
Si Si1 0.282687 0.692569 0.600129
Si Si2 0.111045 0.699226 0.984745
Si Si3 0.466598 0.046293 0.817439
Si Si4 0.726999 0.695966 0.592038
Si Si5 0.981441 0.434969 0.386407
Si Si6 0.867031 0.878348 0.124617
Si Si7 0.544020 0.246312 0.071269
Si Si8 0.508620 0.486681 0.688844
O O1 0.155633 0.743085 0.752324
O O2 0.422093 0.818103 0.399620
O O3 0.198430 0.640504 0.518703
O O4 0.358693 0.572756 0.746418
O O5 0.264300 0.721623 0.006859
O O6 0.036364 0.543167 0.144758
O O7 0.955972 0.770567 0.066461
O O8 0.279901 0.070901 0.930007
O O9 0.491965 0.916626 0.796456
O O10 0.500000 0.000000 0.000000
O O11 0.775685 0.829019 0.367202
O O12 0.571455 0.708746 0.769422
O O13 0.679641 0.565772 0.603069
O O14 0.891713 0.675298 0.614071
O O15 0.000000 0.500000 0.500000
O O16 0.000000 0.000000 0.000000
O O17 0.498510 0.332606 0.877322
O O18 0.500000 0.500000 0.500000
#
# Coordination Sequence:
#
# PCOD8037184 Si02
#       8
#     2   2   2   2   2   2   2   2
#     4  12  28  48  76 109 152 190 253 306 362 446
#     4  12  25  47  77 110 145 192 248 309 370 432
#     4  12  29  49  73 110 150 197 244 301 372 445
#     4  12  25  47  75 109 144 197 250 297 374 442
#     4  12  26  46  76 111 148 191 243 311 374 428
#     4  12  27  45  74 105 148 198 246 297 371 448
#     4  12  26  47  78 109 150 194 244 310 371 438
#     4  12  24  44  78 110 142 192 249 303 360 439
#
# _framework density 22.882338000000001
#
# number of rings (size 3 to 8) (size 9 to 14) (size 15 to 20)
#    0.000    0.000    6.250    3.000    5.250    2.000 
#    0.000    1.250    0.000    0.000    0.000    0.000 
#    0.000    0.000    0.000    0.000    0.000    0.000 
#
# Total GULP energy -198253.428985 kJ/mol
# GULP energy per Si atom -12390.839312 kJ/mol
# Density = 2.283026 g / cm^3
# Si number density = 22.882338 Si / 1000 Ang^3
#
#
#
# Elastic Constant Matrix: (Units=GPa)
#
#
# Indices 1 2 3 4 5 6 
#
# 1 159.3910 56.6673 49.1638 -10.5695 -3.4034 -9.1276
# 2 56.6673 84.6049 37.1150 -7.9004 2.6722 -2.4711
# 3 49.1638 37.1150 117.2708 8.1873 -4.5079 -1.2561
# 4 -10.5695 -7.9004 8.1873 35.2402 6.5404 -0.2164
# 5 -3.4034 2.6722 -4.5079 6.5404 36.5416 -5.3769
# 6 -9.1276 -2.4711 -1.2561 -0.2164 -5.3769 43.5463
#
#
#
# Elastic Compliance Matrix: (Units=1/GPa)
#
#
# Indices 1 2 3 4 5 6 
#
# 1 0.008924 -0.004740 -0.002335 0.002024 0.000769 0.001639
# 2 -0.004740 0.017103 -0.003811 0.003837 -0.002919 -0.000474
# 3 -0.002335 -0.003811 0.011114 -0.004551 0.002227 -0.000133
# 4 0.002024 0.003837 -0.004551 0.032091 -0.006415 -0.000122
# 5 0.000769 -0.002919 0.002227 -0.006415 0.029616 0.003685
# 6 0.001639 -0.000474 -0.000133 -0.000122 0.003685 0.023731
#
#
# Mechanical properties :
#
#
# Convention : Reuss Voigt Hill
#
# Bulk Modulus (GPa) = 65.06680 71.90654 68.48667
# Shear Modulus (GPa) = 33.45049 37.62034 35.53542
#
# Velocity S-wave (km/s) = 3.82756 4.05912 3.94504
# Velocity P-wave (km/s) = 6.93042 7.31172 7.12362
#
# Compressibility (1/GPa) = 0.01536882
#
# Stress axis : x y z
#
# Youngs Moduli (GPa) = 112.05924 58.46976 89.97446
#
# Poissons Ratio (x) = 0.27715 0.21011
# Poissons Ratio (y) = 0.53117 0.34288
# Poissons Ratio (z) = 0.26168 0.22282
#
# Static dielectric constant tensor:
#      x y z
#    x 4.350110 -0.175820 0.128080 
#    y -0.175820 3.983550 -0.128020 
#    z 0.128080 -0.128020 3.969310 
# 
# 
# High freq. dielectric constant tensor:
#      x y z
#    x 1.921660 -0.012610 -0.005110 
#    y -0.012610 1.903640 0.000460 
#    z -0.005110 0.000460 1.906520 
# 
# From -- ./inp_files/184854.got.cif
#   From: 2010.06.25/outbox.cif.g09.slc.cpg/sg2_93_cif.got.tgz:184854.got - 2010.06.27 13:26:56.
