data_PCOD8037805
_publ_section_title
;
Structure prediction by ZEFSAII (Michael W. Deem and Ramdas Pophale) SiO2 
 PCOD8037805
Probable space group: P -1
;
_chemical_formula_sum "Si O2"
_cell_formula_units_Z 14
_cell_length_a 13.055316
_cell_length_b 8.136886
_cell_length_c 10.423783
_cell_angle_alpha 91.143713
_cell_angle_beta 39.755358
_cell_angle_gamma 66.528815
_cell_volume 539.887172
_symmetry_space_group_name_H-M "P -1"
_symmetry_group_IT_number 2
_symmetry_cell_setting 'triclinic'
loop_
_space_group_symop_operation_xyz
x,y,z
-x,-y,-z
loop_
_atom_site_type_symbol
_atom_site_label
_atom_site_fract_x
_atom_site_fract_y
_atom_site_fract_z
Si Si1 0.489228 0.819008 0.969369
Si Si2 0.082798 0.477215 0.565553
Si Si3 0.386863 0.912436 0.558216
Si Si4 0.935516 0.927319 0.754244
Si Si5 0.986188 0.360001 0.912440
Si Si6 0.336888 0.684017 0.802661
Si Si7 0.597242 0.289547 0.704639
O O1 0.540388 0.667182 0.038355
O O2 0.663904 0.671594 0.689364
O O3 0.251753 0.928115 0.164593
O O4 0.500000 0.000000 0.000000
O O5 0.976311 0.707993 0.733237
O O6 0.029364 0.373605 0.720509
O O7 0.000000 0.500000 0.500000
O O8 0.441804 0.711336 0.583870
O O9 0.447395 0.829694 0.353145
O O10 0.500000 0.000000 0.500000
O O11 0.141931 0.114144 0.803756
O O12 0.154946 0.865447 0.501252
O O13 0.848651 0.072505 0.967057
O O14 0.000000 0.500000 0.000000
O O15 0.757657 0.430516 0.147983
O O16 0.514769 0.521061 0.735140
#
# Coordination Sequence:
#
# PCOD8037805 Si02
#       7
#     2   2   2   2   2   2   2
#     4  12  27  48  79 113 159 208 263 322 399 473
#     4  12  27  49  81 119 161 207 265 327 397 478
#     4  12  28  48  80 112 159 206 265 330 400 472
#     4  12  28  48  81 110 162 201 266 320 402 464
#     4  12  27  50  83 116 161 211 268 328 404 476
#     4  12  28  51  79 116 157 206 269 330 398 471
#     4  12  28  50  77 112 158 206 266 328 394 473
#
# _framework density 25.931345
#
# number of rings (size 3 to 8) (size 9 to 14) (size 15 to 20)
#    0.000    0.000    2.857    5.571    8.000    4.571 
#    0.000    0.000    0.000    0.000    0.000    0.000 
#    0.000    0.000    0.000    0.000    0.000    0.000 
#
# Total GULP energy -173546.214031 kJ/mol
# GULP energy per Si atom -12396.158145 kJ/mol
# Density = 2.587232 g / cm^3
# Si number density = 25.931345 Si / 1000 Ang^3
#
#
#
# Elastic Constant Matrix: (Units=GPa)
#
#
# Indices 1 2 3 4 5 6 
#
# 1 142.4176 57.0620 40.9059 -17.2958 -14.5371 17.6652
# 2 57.0620 145.2809 56.2607 -16.0946 -4.2948 -12.5277
# 3 40.9059 56.2607 128.7320 -7.7142 -9.5139 -6.1208
# 4 -17.2958 -16.0946 -7.7142 61.8949 -0.9951 3.4868
# 5 -14.5371 -4.2948 -9.5139 -0.9951 32.2386 5.5118
# 6 17.6652 -12.5277 -6.1208 3.4868 5.5118 40.4647
#
#
#
# Elastic Compliance Matrix: (Units=1/GPa)
#
#
# Indices 1 2 3 4 5 6 
#
# 1 0.010633 -0.003773 -0.001547 0.002270 0.005091 -0.006933
# 2 -0.003773 0.009965 -0.003040 0.000874 -0.002008 0.004471
# 3 -0.001547 -0.003040 0.009752 -0.000038 0.001604 0.000994
# 4 0.002270 0.000874 -0.000038 0.017187 0.002085 -0.002491
# 5 0.005091 -0.002008 0.001604 0.002085 0.034872 -0.007531
# 6 -0.006933 0.004471 0.000994 -0.002491 -0.007531 0.030515
#
#
# Mechanical properties :
#
#
# Convention : Reuss Voigt Hill
#
# Bulk Modulus (GPa) = 73.36724 80.54307 76.95516
# Shear Modulus (GPa) = 37.26139 44.39978 40.83058
#
# Velocity S-wave (km/s) = 3.79479 4.14237 3.97238
# Velocity P-wave (km/s) = 6.89601 7.34891 7.12606
#
# Compressibility (1/GPa) = 0.01363006
#
# Stress axis : x y z
#
# Youngs Moduli (GPa) = 94.04692 100.34823 102.54567
#
# Poissons Ratio (x) = 0.37862 0.15865
# Poissons Ratio (y) = 0.35485 0.31171
# Poissons Ratio (z) = 0.14551 0.30503
#
# Static dielectric constant tensor:
#      x y z
#    x 4.953860 -0.100890 -0.107440 
#    y -0.100890 4.818980 0.394000 
#    z -0.107440 0.394000 4.874360 
# 
# 
# High freq. dielectric constant tensor:
#      x y z
#    x 2.049670 0.003360 -0.002510 
#    y 0.003360 2.045470 0.018430 
#    z -0.002510 0.018430 2.043910 
# 
# From -- ./inp_files/238828.got.cif
#   From: 2010.06.25/outbox.cif.g09.slc.cpg/sg2_120_cif.got.tgz:238828.got - 2010.06.27 13:26:56.
