data_PCOD8037197
_publ_section_title
;
Structure prediction by ZEFSAII (Michael W. Deem and Ramdas Pophale) SiO2 
 PCOD8037197
Probable space group: P -1
;
_chemical_formula_sum "Si O2"
_cell_formula_units_Z 14
_cell_length_a 8.486583
_cell_length_b 8.052020
_cell_length_c 24.813737
_cell_angle_alpha 50.164707
_cell_angle_beta 38.709902
_cell_angle_gamma 33.467383
_cell_volume 584.509763
_symmetry_space_group_name_H-M "P -1"
_symmetry_group_IT_number 2
_symmetry_cell_setting 'triclinic'
loop_
_space_group_symop_operation_xyz
x,y,z
-x,-y,-z
loop_
_atom_site_type_symbol
_atom_site_label
_atom_site_fract_x
_atom_site_fract_y
_atom_site_fract_z
Si Si1 0.574403 0.423005 0.338687
Si Si2 0.629798 0.692660 0.170814
Si Si3 0.277798 0.221691 0.218150
Si Si4 0.153566 0.120191 0.780257
Si Si5 0.232840 0.061193 0.100675
Si Si6 0.240533 0.578605 0.505713
Si Si7 0.547142 0.971915 0.392223
O O1 0.465076 0.638028 0.272542
O O2 0.344399 0.615986 0.412392
O O3 0.507915 0.218309 0.382503
O O4 0.976393 0.223396 0.289768
O O5 0.030258 0.379890 0.118041
O O6 0.585607 0.969758 0.145159
O O7 0.426394 0.792575 0.148019
O O8 0.114760 0.558078 0.183723
O O9 0.454960 0.096423 0.255312
O O10 0.181825 0.170240 0.700104
O O11 0.032091 0.944452 0.857320
O O12 0.500000 0.000000 0.000000
O O13 0.500000 0.500000 0.500000
O O14 0.831419 0.885369 0.559087
O O15 0.282992 0.293101 0.554820
#
# Coordination Sequence:
#
# PCOD8037197 Si02
#       7
#     2   2   2   2   2   2   2
#     4  12  26  45  75 102 148 191 249 288 356 428
#     4  12  24  48  75 104 144 191 233 289 368 427
#     4  12  25  43  75 104 145 190 236 291 357 431
#     4  12  24  45  72 107 139 192 238 298 363 426
#     4  12  27  50  78 108 142 184 242 298 358 440
#     4  12  28  44  65 106 148 189 244 305 350 402
#     4  12  26  43  70  99 143 192 247 292 354 421
#
# _framework density 23.951695999999998
#
# number of rings (size 3 to 8) (size 9 to 14) (size 15 to 20)
#    0.000    0.000    4.286    5.143    6.000    0.000 
#    0.000    4.286    0.000    0.000    0.000    0.000 
#    0.000    0.000    0.000    0.000    0.000    0.000 
#
# Total GULP energy -173567.558154 kJ/mol
# GULP energy per Si atom -12397.682725 kJ/mol
# Density = 2.389718 g / cm^3
# Si number density = 23.951696 Si / 1000 Ang^3
#
#
#
# Elastic Constant Matrix: (Units=GPa)
#
#
# Indices 1 2 3 4 5 6 
#
# 1 68.6945 5.7789 47.5081 -4.9026 5.4475 -6.0495
# 2 5.7789 128.2025 44.4782 8.4526 5.2189 -5.4057
# 3 47.5081 44.4782 135.4395 9.6798 4.0448 0.0378
# 4 -4.9026 8.4526 9.6798 30.7976 -3.8642 14.2022
# 5 5.4475 5.2189 4.0448 -3.8642 17.9299 0.3869
# 6 -6.0495 -5.4057 0.0378 14.2022 0.3869 43.9461
#
#
#
# Elastic Compliance Matrix: (Units=1/GPa)
#
#
# Indices 1 2 3 4 5 6 
#
# 1 0.020738 0.001843 -0.008036 0.003938 -0.004216 0.001853
# 2 0.001843 0.009299 -0.003421 -0.002623 -0.003110 0.002276
# 3 -0.008036 -0.003421 0.011601 -0.003852 -0.000004 -0.000292
# 4 0.003938 -0.002623 -0.003852 0.042549 0.009900 -0.013615
# 5 -0.004216 -0.003110 -0.000004 0.009900 0.060195 -0.004692
# 6 0.001853 0.002276 -0.000292 -0.013615 -0.004692 0.027732
#
#
# Mechanical properties :
#
#
# Convention : Reuss Voigt Hill
#
# Bulk Modulus (GPa) = 44.61895 58.65185 51.63540
# Shear Modulus (GPa) = 25.14963 34.17278 29.66121
#
# Velocity S-wave (km/s) = 3.24391 3.78132 3.52287
# Velocity P-wave (km/s) = 5.71837 6.60342 6.17677
#
# Compressibility (1/GPa) = 0.02241200
#
# Stress axis : x y z
#
# Youngs Moduli (GPa) = 48.22076 107.53439 86.20019
#
# Poissons Ratio (x) = -0.19821 0.69267
# Poissons Ratio (y) = -0.08888 0.29487
# Poissons Ratio (z) = 0.38748 0.36784
#
# Static dielectric constant tensor:
#      x y z
#    x 4.525370 0.012110 0.131770 
#    y 0.012110 4.649560 0.021400 
#    z 0.131770 0.021400 3.999910 
# 
# 
# High freq. dielectric constant tensor:
#      x y z
#    x 1.960470 0.000140 0.012330 
#    y 0.000140 1.973830 0.003740 
#    z 0.012330 0.003740 1.912170 
# 
# From -- ./inp_files/226715.got.cif
#   From: 2010.06.25/outbox.cif.g09.slc.cpg/sg2_114_cif.got.tgz:226715.got - 2010.06.27 13:26:56.
