data_PCOD8037269
_publ_section_title
;
Structure prediction by ZEFSAII (Michael W. Deem and Ramdas Pophale) SiO2 
 PCOD8037269
Probable space group: P -1
;
_chemical_formula_sum "Si O2"
_cell_formula_units_Z 16
_cell_length_a 9.502314
_cell_length_b 21.980259
_cell_length_c 12.883252
_cell_angle_alpha 26.765037
_cell_angle_beta 34.913313
_cell_angle_gamma 45.719534
_cell_volume 687.484004
_symmetry_space_group_name_H-M "P -1"
_symmetry_group_IT_number 2
_symmetry_cell_setting 'triclinic'
loop_
_space_group_symop_operation_xyz
x,y,z
-x,-y,-z
loop_
_atom_site_type_symbol
_atom_site_label
_atom_site_fract_x
_atom_site_fract_y
_atom_site_fract_z
Si Si1 0.184128 0.045972 0.411301
Si Si2 0.187592 0.612504 0.332173
Si Si3 0.378153 0.722823 0.261466
Si Si4 0.379979 0.359537 0.331710
Si Si5 0.000198 0.076280 0.778944
Si Si6 0.530914 0.186556 0.315043
Si Si7 0.365938 0.337738 0.602394
Si Si8 0.234411 0.043129 0.080145
O O1 0.306493 0.925836 0.574735
O O2 0.000000 0.000000 0.500000
O O3 0.977249 0.080560 0.566725
O O4 0.384688 0.168419 0.071891
O O5 0.330763 0.630064 0.329290
O O6 0.184691 0.454636 0.539856
O O7 0.912971 0.646553 0.463662
O O8 0.319560 0.708373 0.015818
O O9 0.438978 0.638870 0.455706
O O10 0.135759 0.790057 0.334139
O O11 0.441530 0.249811 0.378828
O O12 0.498816 0.340412 0.403930
O O13 0.500000 0.500000 0.000000
O O14 0.284782 0.118794 0.504972
O O15 0.000000 0.000000 0.000000
O O16 0.832884 0.954444 0.003392
O O17 0.210745 0.186198 0.934390
O O18 0.500000 0.000000 0.000000
#
# Coordination Sequence:
#
# PCOD8037269 Si02
#       8
#     2   2   2   2   2   2   2   2
#     4  12  26  44  74 113 149 195 254 316 385 448
#     4  12  28  51  74 113 154 203 258 308 382 464
#     4  12  26  48  75 112 158 198 248 318 384 454
#     4  12  27  48  78 108 151 202 257 315 369 456
#     4  12  24  46  75 111 149 197 255 308 383 454
#     4  12  27  49  80 113 153 203 258 315 386 453
#     4  12  26  48  76 109 152 198 251 311 382 448
#     4  12  26  46  73 108 151 195 247 319 378 447
#
# _framework density 23.273268000000002
#
# number of rings (size 3 to 8) (size 9 to 14) (size 15 to 20)
#    0.000    0.000    6.250    3.000    5.250    1.000 
#    0.000    2.500    0.000    0.000    0.000    0.000 
#    0.000    0.000    0.000    0.000    0.000    0.000 
#
# Total GULP energy -198238.464804 kJ/mol
# GULP energy per Si atom -12389.904050 kJ/mol
# Density = 2.322030 g / cm^3
# Si number density = 23.273268 Si / 1000 Ang^3
#
#
#
# Elastic Constant Matrix: (Units=GPa)
#
#
# Indices 1 2 3 4 5 6 
#
# 1 163.0920 49.9336 54.7206 13.9980 9.5866 9.4718
# 2 49.9336 112.8389 37.6073 11.3303 -6.9765 -2.6462
# 3 54.7206 37.6073 120.3387 22.9144 -4.9006 -13.0704
# 4 13.9980 11.3303 22.9144 40.7396 1.0540 -6.0314
# 5 9.5866 -6.9765 -4.9006 1.0540 40.6574 3.1855
# 6 9.4718 -2.6462 -13.0704 -6.0314 3.1855 48.3035
#
#
#
# Elastic Compliance Matrix: (Units=1/GPa)
#
#
# Indices 1 2 3 4 5 6 
#
# 1 0.008435 -0.002820 -0.003226 -0.000614 -0.002643 -0.002584
# 2 -0.002820 0.010973 -0.001807 -0.001071 0.002328 0.000378
# 3 -0.003226 -0.001807 0.011596 -0.004513 0.001731 0.002994
# 4 -0.000614 -0.001071 -0.004513 0.027993 -0.001499 0.002435
# 5 -0.002643 0.002328 0.001731 -0.001499 0.025927 -0.000783
# 6 -0.002584 0.000378 0.002994 0.002435 -0.000783 0.022395
#
#
# Mechanical properties :
#
#
# Convention : Reuss Voigt Hill
#
# Bulk Modulus (GPa) = 65.36531 75.64361 70.50446
# Shear Modulus (GPa) = 39.02426 42.87398 40.94912
#
# Velocity S-wave (km/s) = 4.09930 4.29674 4.19918
# Velocity P-wave (km/s) = 7.11004 7.56233 7.33967
#
# Compressibility (1/GPa) = 0.01529864
#
# Stress axis : x y z
#
# Youngs Moduli (GPa) = 118.54826 91.13523 86.23302
#
# Poissons Ratio (x) = 0.25701 0.27817
# Poissons Ratio (y) = 0.33432 0.15583
# Poissons Ratio (z) = 0.38242 0.16468
#
# Static dielectric constant tensor:
#      x y z
#    x 4.655120 0.311340 0.214200 
#    y 0.311340 4.241080 0.134610 
#    z 0.214200 0.134610 4.450280 
# 
# 
# High freq. dielectric constant tensor:
#      x y z
#    x 1.954170 0.011150 0.007670 
#    y 0.011150 1.920700 0.010860 
#    z 0.007670 0.010860 1.918680 
# 
# From -- ./inp_files/405234.got.cif
#   From: 2010.06.25/outbox.cif.g09.slc.cpg/sg2_203_cif.got.tgz:405234.got - 2010.06.27 13:26:56.
