data_PCOD8037312
_publ_section_title
;
Structure prediction by ZEFSAII (Michael W. Deem and Ramdas Pophale) SiO2 
 PCOD8037312
Probable space group: P -1
;
_chemical_formula_sum "Si O2"
_cell_formula_units_Z 14
_cell_length_a 19.668668
_cell_length_b 11.450135
_cell_length_c 14.688214
_cell_angle_alpha 41.112329
_cell_angle_beta 20.025110
_cell_angle_gamma 31.894533
_cell_volume 580.296519
_symmetry_space_group_name_H-M "P -1"
_symmetry_group_IT_number 2
_symmetry_cell_setting 'triclinic'
loop_
_space_group_symop_operation_xyz
x,y,z
-x,-y,-z
loop_
_atom_site_type_symbol
_atom_site_label
_atom_site_fract_x
_atom_site_fract_y
_atom_site_fract_z
Si Si1 0.601967 0.325393 0.394169
Si Si2 0.451838 0.620548 0.763525
Si Si3 0.774520 0.763309 0.118745
Si Si4 0.116522 0.517494 0.572167
Si Si5 0.849530 0.875741 0.152683
Si Si6 0.204195 0.035986 0.200373
Si Si7 0.262286 0.443086 0.227963
O O1 0.500000 0.500000 0.500000
O O2 0.537686 0.473012 0.295072
O O3 0.474941 0.200794 0.625570
O O4 0.901319 0.140105 0.146783
O O5 0.725817 0.474642 0.550909
O O6 0.371760 0.866241 0.690322
O O7 0.258248 0.634071 0.068768
O O8 0.748291 0.875166 0.182010
O O9 0.845551 0.873272 0.892774
O O10 0.000000 0.500000 0.000000
O O11 0.103316 0.314371 0.725907
O O12 0.261607 0.470353 0.321890
O O13 0.843769 0.772823 0.778633
O O14 0.000000 0.000000 0.500000
O O15 0.495224 0.799827 0.975723
O O16 0.000000 0.500000 0.500000
#
# Coordination Sequence:
#
# PCOD8037312 Si02
#       7
#     2   2   2   2   2   2   2
#     4  12  25  44  75 111 151 197 260 323 383 458
#     4  12  26  48  76 113 154 206 259 320 393 465
#     4  12  24  47  74 113 149 201 258 322 385 461
#     4  12  25  52  77 111 152 208 259 319 393 467
#     4  12  26  45  78 110 156 198 261 326 390 460
#     4  12  27  48  79 109 155 205 260 315 388 472
#     4  12  30  50  76 114 162 204 261 322 392 470
#
# _framework density 24.125596000000002
#
# number of rings (size 3 to 8) (size 9 to 14) (size 15 to 20)
#    0.000    0.000    5.714    3.000    6.000    0.571 
#    0.000    0.000    0.000    0.000    0.000    0.000 
#    0.000    0.000    0.000    0.000    0.000    0.000 
#
# Total GULP energy -173494.931131 kJ/mol
# GULP energy per Si atom -12392.495081 kJ/mol
# Density = 2.407069 g / cm^3
# Si number density = 24.125596 Si / 1000 Ang^3
#
#
#
# Elastic Constant Matrix: (Units=GPa)
#
#
# Indices 1 2 3 4 5 6 
#
# 1 151.0672 38.0070 65.4123 -3.2505 9.7634 3.7993
# 2 38.0070 134.0446 55.8857 -2.8100 19.1320 -1.3573
# 3 65.4123 55.8857 147.8247 -10.9159 3.2909 -2.9614
# 4 -3.2505 -2.8100 -10.9159 53.6107 -3.5358 10.3300
# 5 9.7634 19.1320 3.2909 -3.5358 60.5463 -1.7807
# 6 3.7993 -1.3573 -2.9614 10.3300 -1.7807 27.4161
#
#
#
# Elastic Compliance Matrix: (Units=1/GPa)
#
#
# Indices 1 2 3 4 5 6 
#
# 1 0.008413 -0.000842 -0.003414 0.000025 -0.000952 -0.001648
# 2 -0.000842 0.009385 -0.003142 -0.000419 -0.002677 0.000226
# 3 -0.003414 -0.003142 0.009565 0.001484 0.001136 0.000865
# 4 0.000025 -0.000419 0.001484 0.020448 0.001021 -0.007502
# 5 -0.000952 -0.002677 0.001136 0.001021 0.017539 0.000877
# 6 -0.001648 0.000226 0.000865 -0.007502 0.000877 0.039692
#
#
# Mechanical properties :
#
#
# Convention : Reuss Voigt Hill
#
# Bulk Modulus (GPa) = 79.58178 83.50518 81.54348
# Shear Modulus (GPa) = 40.31360 46.55670 43.43515
#
# Velocity S-wave (km/s) = 4.09221 4.39767 4.24769
# Velocity P-wave (km/s) = 7.44220 7.77650 7.61118
#
# Compressibility (1/GPa) = 0.01256569
#
# Stress axis : x y z
#
# Youngs Moduli (GPa) = 118.85715 106.55863 104.54638
#
# Poissons Ratio (x) = 0.08975 0.35697
# Poissons Ratio (y) = 0.10011 0.32848
# Poissons Ratio (z) = 0.40583 0.33480
#
# Static dielectric constant tensor:
#      x y z
#    x 4.330860 0.194640 0.731900 
#    y 0.194640 4.421700 -0.399750 
#    z 0.731900 -0.399750 4.733150 
# 
# 
# High freq. dielectric constant tensor:
#      x y z
#    x 1.959110 0.001450 0.011470 
#    y 0.001450 1.954980 -0.000460 
#    z 0.011470 -0.000460 1.979930 
# 
# From -- ./inp_files/541085.got.cif
#   From: 2010.06.25/outbox.cif.g09.slc.cpg/sg2_271_cif.got.tgz:541085.got - 2010.06.27 13:26:56.
