data_PCOD8037180
_publ_section_title
;
Structure prediction by ZEFSAII (Michael W. Deem and Ramdas Pophale) SiO2 
 PCOD8037180
Probable space group: P -1
;
_chemical_formula_sum "Si O2"
_cell_formula_units_Z 12
_cell_length_a 9.223011
_cell_length_b 9.917216
_cell_length_c 8.222320
_cell_angle_alpha 103.181821
_cell_angle_beta 50.950190
_cell_angle_gamma 80.562182
_cell_volume 519.470246
_symmetry_space_group_name_H-M "P -1"
_symmetry_group_IT_number 2
_symmetry_cell_setting 'triclinic'
loop_
_space_group_symop_operation_xyz
x,y,z
-x,-y,-z
loop_
_atom_site_type_symbol
_atom_site_label
_atom_site_fract_x
_atom_site_fract_y
_atom_site_fract_z
Si Si1 0.349416 0.165726 0.704410
Si Si2 0.984223 0.093341 0.375115
Si Si3 0.092922 0.800298 0.039201
Si Si4 0.365330 0.685945 0.500683
Si Si5 0.348752 0.163022 0.088562
Si Si6 0.525317 0.400078 0.113068
O O1 0.433254 0.283123 0.599760
O O2 0.500000 0.000000 0.500000
O O3 0.348881 0.176445 0.900134
O O4 0.123673 0.211760 0.805484
O O5 0.123087 0.188339 0.314372
O O6 0.750796 0.211841 0.545853
O O7 0.000000 0.000000 0.500000
O O8 0.059644 0.975002 0.137400
O O9 0.206055 0.737842 0.773698
O O10 0.233394 0.699619 0.058631
O O11 0.434604 0.508744 0.363859
O O12 0.403992 0.293149 0.163166
O O13 0.500000 0.000000 0.000000
O O14 0.500000 0.500000 0.000000
#
# Coordination Sequence:
#
# PCOD8037180 Si02
#       6
#     2   2   2   2   2   2
#     4  12  25  45  78 111 145 193 252 303 367 440
#     4  12  24  44  76 110 146 193 251 308 363 437
#     4  12  26  47  75 108 148 198 251 301 370 447
#     4  12  25  47  73 108 155 192 243 314 368 434
#     4  12  25  47  76 109 144 195 254 296 366 453
#     4  12  27  50  74 108 156 194 243 314 375 436
#
# _framework density 23.100455
#
# number of rings (size 3 to 8) (size 9 to 14) (size 15 to 20)
#    0.000    0.000    6.667    4.000    0.000    1.333 
#    0.000    0.000    0.000    0.000    0.000    0.000 
#    0.000    0.000    0.000    0.000    0.000    0.000 
#
# Total GULP energy -148870.803727 kJ/mol
# GULP energy per Si atom -12405.900311 kJ/mol
# Density = 2.304788 g / cm^3
# Si number density = 23.100455 Si / 1000 Ang^3
#
#
#
# Elastic Constant Matrix: (Units=GPa)
#
#
# Indices 1 2 3 4 5 6 
#
# 1 158.7463 65.6640 54.6525 2.5008 -35.1758 28.3426
# 2 65.6640 127.3823 40.9113 12.7256 -18.0411 39.0672
# 3 54.6525 40.9113 102.6809 -0.4940 -20.5451 33.8649
# 4 2.5008 12.7256 -0.4940 39.6386 5.9988 0.5721
# 5 -35.1758 -18.0411 -20.5451 5.9988 47.3979 3.6964
# 6 28.3426 39.0672 33.8649 0.5721 3.6964 52.1735
#
#
#
# Elastic Compliance Matrix: (Units=1/GPa)
#
#
# Indices 1 2 3 4 5 6 
#
# 1 0.009884 -0.002884 -0.002341 -0.000522 0.005450 -0.002071
# 2 -0.002884 0.012904 -0.000124 -0.004437 0.003922 -0.008245
# 3 -0.002341 -0.000124 0.015012 -0.000323 0.005447 -0.008762
# 4 -0.000522 -0.004437 -0.000323 0.027534 -0.006008 0.003939
# 5 0.005450 0.003922 0.005447 -0.006008 0.030657 -0.011540
# 6 -0.002071 -0.008245 -0.008762 0.003939 -0.011540 0.032927
#
#
# Mechanical properties :
#
#
# Convention : Reuss Voigt Hill
#
# Bulk Modulus (GPa) = 36.89564 79.02946 57.96255
# Shear Modulus (GPa) = 33.63607 43.01413 38.32510
#
# Velocity S-wave (km/s) = 3.82000 4.31983 4.07758
# Velocity P-wave (km/s) = 5.95508 7.69199 6.87858
#
# Compressibility (1/GPa) = 0.02710347
#
# Stress axis : x y z
#
# Youngs Moduli (GPa) = 101.17560 77.49420 66.61195
#
# Poissons Ratio (x) = 0.22350 0.15591
# Poissons Ratio (y) = 0.29180 0.00824
# Poissons Ratio (z) = 0.23681 0.00959
#
# Static dielectric constant tensor:
#      x y z
#    x 4.757620 0.107850 -0.084270 
#    y 0.107850 4.321770 0.212210 
#    z -0.084270 0.212210 4.252180 
# 
# 
# High freq. dielectric constant tensor:
#      x y z
#    x 1.934810 -0.001100 0.001320 
#    y -0.001100 1.911680 0.003460 
#    z 0.001320 0.003460 1.918120 
# 
# From -- ./inp_files/151814.got.cif
#   From: 2010.06.25/outbox.cif.g09.slc.cpg/sg2_76_cif.got.tgz:151814.got - 2010.06.27 13:26:56.
