data_PCOD8037753
_publ_section_title
;
Structure prediction by ZEFSAII (Michael W. Deem and Ramdas Pophale) SiO2 
 PCOD8037753
Probable space group: P -1
;
_chemical_formula_sum "Si O2"
_cell_formula_units_Z 10
_cell_length_a 11.622961
_cell_length_b 5.969863
_cell_length_c 13.855656
_cell_angle_alpha 115.865960
_cell_angle_beta 31.781008
_cell_angle_gamma 127.181284
_cell_volume 396.488897
_symmetry_space_group_name_H-M "P -1"
_symmetry_group_IT_number 2
_symmetry_cell_setting 'triclinic'
loop_
_space_group_symop_operation_xyz
x,y,z
-x,-y,-z
loop_
_atom_site_type_symbol
_atom_site_label
_atom_site_fract_x
_atom_site_fract_y
_atom_site_fract_z
Si Si1 0.245574 0.287033 0.843981
Si Si2 0.930473 0.838187 0.253280
Si Si3 0.686788 0.181474 0.557618
Si Si4 0.960199 0.225222 0.629613
Si Si5 0.558725 0.088966 0.119826
O O1 0.198020 0.374176 0.786064
O O2 0.469179 0.214696 0.667050
O O3 0.312655 0.563564 0.915401
O O4 0.000000 0.000000 0.000000
O O5 0.892739 0.687471 0.355862
O O6 0.803209 0.036568 0.378024
O O7 0.232708 0.011171 0.052045
O O8 0.923738 0.494551 0.466491
O O9 0.593776 0.008335 0.689884
O O10 0.659544 0.084103 0.837234
O O11 0.000000 0.000000 0.500000
#
# Coordination Sequence:
#
# PCOD8037753 Si02
#       5
#     2   2   2   2   2
#     4  12  27  50  76 109 151 192 247 305 363 438
#     4  12  28  46  79 110 145 198 246 298 374 432
#     4  12  26  48  79 105 152 189 249 300 368 428
#     4  12  26  50  75 111 149 192 246 306 363 437
#     4  12  27  51  76 108 152 192 247 303 364 442
#
# _framework density 25.221385999999999
#
# number of rings (size 3 to 8) (size 9 to 14) (size 15 to 20)
#    0.000    0.000    6.000    2.400    2.800    4.000 
#    0.000    0.000    0.000    0.000    0.000    0.000 
#    0.000    0.000    0.000    0.000    0.000    0.000 
#
# Total GULP energy -123936.429212 kJ/mol
# GULP energy per Si atom -12393.642921 kJ/mol
# Density = 2.516398 g / cm^3
# Si number density = 25.221386 Si / 1000 Ang^3
#
#
#
# Elastic Constant Matrix: (Units=GPa)
#
#
# Indices 1 2 3 4 5 6 
#
# 1 105.6512 -1.1930 3.8450 -4.6793 -20.3133 -8.0651
# 2 -1.1930 100.4563 38.7372 -29.3408 -2.1787 -9.5579
# 3 3.8450 38.7372 157.4663 3.0235 -35.2619 -15.8716
# 4 -4.6793 -29.3408 3.0235 42.7578 -4.6371 -4.3829
# 5 -20.3133 -2.1787 -35.2619 -4.6371 50.0528 -0.7177
# 6 -8.0651 -9.5579 -15.8716 -4.3829 -0.7177 15.2987
#
#
#
# Elastic Compliance Matrix: (Units=1/GPa)
#
#
# Indices 1 2 3 4 5 6 
#
# 1 0.011690 0.001871 0.001719 0.004246 0.006583 0.010641
# 2 0.001871 0.015863 -0.002849 0.012562 0.000772 0.011575
# 3 0.001719 -0.002849 0.009616 -0.000695 0.007417 0.009251
# 4 0.004246 0.012562 -0.000695 0.035115 0.005316 0.019675
# 5 0.006583 0.000772 0.007417 0.005316 0.028610 0.014512
# 6 0.010641 0.011575 0.009251 0.019675 0.014512 0.094122
#
#
# Mechanical properties :
#
#
# Convention : Reuss Voigt Hill
#
# Bulk Modulus (GPa) = 25.87281 49.59470 37.73375
# Shear Modulus (GPa) = 24.22296 43.10083 33.66189
#
# Velocity S-wave (km/s) = 3.10242 4.13837 3.65726
# Velocity P-wave (km/s) = 4.80769 6.52236 5.72953
#
# Compressibility (1/GPa) = 0.03865061
#
# Stress axis : x y z
#
# Youngs Moduli (GPa) = 85.54575 63.04119 103.99126
#
# Poissons Ratio (x) = -0.11797 -0.17879
# Poissons Ratio (y) = -0.16008 0.29632
# Poissons Ratio (z) = -0.14708 0.17964
#
# Static dielectric constant tensor:
#      x y z
#    x 5.313500 0.383100 -0.448260 
#    y 0.383100 4.463870 -0.259460 
#    z -0.448260 -0.259460 4.967720 
# 
# 
# High freq. dielectric constant tensor:
#      x y z
#    x 2.019620 0.004110 -0.013320 
#    y 0.004110 1.982490 -0.002080 
#    z -0.013320 -0.002080 2.032150 
# 
# From -- ./inp_files/16074.got.cif
#   From: 2010.06.25/outbox.cif.g09.slc.cpg/sg2_9_cif.got.tgz:16074.got - 2010.06.27 13:26:56.
