data_PCOD8037890
_publ_section_title
;
Structure prediction by ZEFSAII (Michael W. Deem and Ramdas Pophale) SiO2 
 PCOD8037890
Probable space group: P -1
;
_chemical_formula_sum "Si O2"
_cell_formula_units_Z 16
_cell_length_a 17.590847
_cell_length_b 8.856405
_cell_length_c 20.415086
_cell_angle_alpha 31.729016
_cell_angle_beta 29.389870
_cell_angle_gamma 42.294022
_cell_volume 820.832395
_symmetry_space_group_name_H-M "P -1"
_symmetry_group_IT_number 2
_symmetry_cell_setting 'triclinic'
loop_
_space_group_symop_operation_xyz
x,y,z
-x,-y,-z
loop_
_atom_site_type_symbol
_atom_site_label
_atom_site_fract_x
_atom_site_fract_y
_atom_site_fract_z
Si Si1 0.306813 0.894876 0.343591
Si Si2 0.592298 0.210884 0.026335
Si Si3 0.837099 0.605987 0.656785
Si Si4 0.038601 0.705800 0.114167
Si Si5 0.235249 0.552093 0.647561
Si Si6 0.123055 0.432155 0.578524
Si Si7 0.643137 0.075365 0.184084
Si Si8 0.703758 0.918829 0.519089
O O1 0.328796 0.711033 0.461080
O O2 0.222666 0.712931 0.418246
O O3 0.479568 0.986740 0.155477
O O4 0.211791 0.184764 0.323762
O O5 0.636419 0.065861 0.114940
O O6 0.500000 0.500000 0.000000
O O7 0.745133 0.299603 0.838828
O O8 0.807778 0.759280 0.553836
O O9 0.015505 0.530080 0.562750
O O10 0.948601 0.461068 0.229678
O O11 0.974069 0.695838 0.240707
O O12 0.226351 0.685088 0.981229
O O13 0.000000 0.000000 0.000000
O O14 0.261894 0.739374 0.624372
O O15 0.306912 0.239175 0.714542
O O16 0.239062 0.184502 0.556935
O O17 0.478303 0.157641 0.308912
#
# Coordination Sequence:
#
# PCOD8037890 Si02
#       8
#     2   2   2   2   2   2   2   2
#     4   9  19  34  55  84 106 141 195 222 260 336
#     4  10  17  32  57  83 103 138 198 223 254 324
#     4  10  19  36  57  79 110 150 185 219 270 340
#     4   9  20  37  58  79 105 146 191 218 261 335
#     4   9  19  36  57  81 107 145 191 222 263 336
#     4  11  21  36  56  84 115 143 177 235 285 308
#     4  11  18  35  62  78 107 151 185 223 270 327
#     4  11  22  35  55  88 114 139 182 234 278 319
#
# _framework density 19.492408999999999
#
# number of rings (size 3 to 8) (size 9 to 14) (size 15 to 20)
#    0.000    2.000    5.000    1.125    0.000    0.000 
#    0.000   10.000    0.000    0.000    0.000    0.000 
#    0.000    0.000    0.000    0.000    0.000    0.000 
#
# Total GULP energy -198252.013740 kJ/mol
# GULP energy per Si atom -12390.750859 kJ/mol
# Density = 1.944804 g / cm^3
# Si number density = 19.492409 Si / 1000 Ang^3
#
#
#
# Elastic Constant Matrix: (Units=GPa)
#
#
# Indices 1 2 3 4 5 6 
#
# 1 64.5121 27.3005 42.3336 7.5579 -25.7987 -9.6592
# 2 27.3005 62.8382 30.5984 6.1613 -10.3278 6.1612
# 3 42.3336 30.5984 99.4881 -10.1688 -27.9222 6.4534
# 4 7.5579 6.1613 -10.1688 17.3020 -2.9034 2.7475
# 5 -25.7987 -10.3278 -27.9222 -2.9034 37.0895 -7.7758
# 6 -9.6592 6.1612 6.4534 2.7475 -7.7758 26.2425
#
#
#
# Elastic Compliance Matrix: (Units=1/GPa)
#
#
# Indices 1 2 3 4 5 6 
#
# 1 0.047581 -0.009714 -0.015727 -0.027967 0.023390 0.033520
# 2 -0.009714 0.022914 -0.004759 -0.006349 -0.006343 -0.009000
# 3 -0.015727 -0.004759 0.022655 0.024430 0.004286 -0.011531
# 4 -0.027967 -0.006349 0.024430 0.090378 -0.000899 -0.024540
# 5 0.023390 -0.006343 0.004286 -0.000899 0.049620 0.023841
# 6 0.033520 -0.009000 -0.011531 -0.024540 0.023841 0.065026
#
#
# Mechanical properties :
#
#
# Convention : Reuss Voigt Hill
#
# Bulk Modulus (GPa) = 30.53476 47.47814 39.00645
# Shear Modulus (GPa) = 13.53207 24.56719 19.04963
#
# Velocity S-wave (km/s) = 2.63767 3.55399 3.12955
# Velocity P-wave (km/s) = 4.99753 6.42271 5.75441
#
# Compressibility (1/GPa) = 0.03274956
#
# Stress axis : x y z
#
# Youngs Moduli (GPa) = 21.01662 43.64122 44.13997
#
# Poissons Ratio (x) = 0.42393 0.69420
# Poissons Ratio (y) = 0.20416 0.21008
# Poissons Ratio (z) = 0.33053 0.20770
#
# Static dielectric constant tensor:
#      x y z
#    x 3.744680 -0.129770 -0.551780 
#    y -0.129770 3.304630 -0.099490 
#    z -0.551780 -0.099490 3.901990 
# 
# 
# High freq. dielectric constant tensor:
#      x y z
#    x 1.757890 -0.024960 -0.020900 
#    y -0.024960 1.715190 -0.011760 
#    z -0.020900 -0.011760 1.775240 
# 
# From -- ./inp_files/245066.got.cif
#   From: 2010.06.25/outbox.cif.g09.slc.cpg/sg2_123_cif.got.tgz:245066.got - 2010.06.27 13:26:56.
