data_PCOD8037376
_publ_section_title
;
Structure prediction by ZEFSAII (Michael W. Deem and Ramdas Pophale) SiO2 
 PCOD8037376
Probable space group: P -1
;
_chemical_formula_sum "Si O2"
_cell_formula_units_Z 16
_cell_length_a 12.063444
_cell_length_b 15.113495
_cell_length_c 17.683633
_cell_angle_alpha 30.662188
_cell_angle_beta 30.908897
_cell_angle_gamma 52.978782
_cell_volume 722.008894
_symmetry_space_group_name_H-M "P -1"
_symmetry_group_IT_number 2
_symmetry_cell_setting 'triclinic'
loop_
_space_group_symop_operation_xyz
x,y,z
-x,-y,-z
loop_
_atom_site_type_symbol
_atom_site_label
_atom_site_fract_x
_atom_site_fract_y
_atom_site_fract_z
Si Si1 0.553178 0.822409 0.079085
Si Si2 0.416363 0.277035 0.242096
Si Si3 0.761531 0.650358 0.201889
Si Si4 0.816345 0.167139 0.059837
Si Si5 0.889097 0.563424 0.447913
Si Si6 0.403848 0.260894 0.430095
Si Si7 0.002000 0.936471 0.627398
Si Si8 0.020619 0.456569 0.103286
O O1 0.721053 0.798073 0.062736
O O2 0.274522 0.625160 0.374211
O O3 0.500000 0.000000 0.000000
O O4 0.722290 0.862311 0.876699
O O5 0.287060 0.212217 0.449007
O O6 0.213557 0.112720 0.425199
O O7 0.500000 0.500000 0.000000
O O8 0.670946 0.272145 0.098852
O O9 0.500000 0.500000 0.500000
O O10 0.946049 0.779868 0.066118
O O11 0.847618 0.509986 0.214619
O O12 0.899211 0.245509 0.866790
O O13 0.636878 0.924904 0.356148
O O14 0.700213 0.623042 0.548137
O O15 0.000000 0.500000 0.500000
O O16 0.695655 0.413387 0.128743
O O17 0.083023 0.777957 0.674026
O O18 0.000000 0.000000 0.500000
O O19 0.000000 0.500000 0.000000
#
# Coordination Sequence:
#
# PCOD8037376 Si02
#       8
#     2   2   2   2   2   2   2   2
#     4  12  29  50  74 109 151 199 249 311 384 453
#     4  12  27  47  77 108 153 195 246 312 379 449
#     4  12  26  49  77 107 150 198 251 314 379 451
#     4  12  27  46  76 111 144 199 252 308 381 447
#     4  12  28  50  73 108 156 199 248 312 381 452
#     4  12  25  49  75 107 149 195 257 312 373 450
#     4  12  28  47  76 110 146 197 252 307 377 444
#     4  12  24  48  76 106 148 190 252 313 367 443
#
# _framework density 22.160392000000002
#
# number of rings (size 3 to 8) (size 9 to 14) (size 15 to 20)
#    0.000    0.000    5.000    3.750    8.750    0.000 
#    2.250    0.000    0.000    0.000    0.000    0.000 
#    0.000    0.000    0.000    0.000    0.000    0.000 
#
# Total GULP energy -198244.529811 kJ/mol
# GULP energy per Si atom -12390.283113 kJ/mol
# Density = 2.210995 g / cm^3
# Si number density = 22.160392 Si / 1000 Ang^3
#
#
#
# Elastic Constant Matrix: (Units=GPa)
#
#
# Indices 1 2 3 4 5 6 
#
# 1 128.6697 34.3755 40.9371 -20.3904 20.6095 2.5092
# 2 34.3755 175.8413 48.3663 -7.9210 14.0159 -14.6509
# 3 40.9371 48.3663 110.4919 -10.0449 15.7863 -0.3327
# 4 -20.3904 -7.9210 -10.0449 44.2213 3.4425 8.5607
# 5 20.6095 14.0159 15.7863 3.4425 50.9648 -1.8216
# 6 2.5092 -14.6509 -0.3327 8.5607 -1.8216 39.4638
#
#
#
# Elastic Compliance Matrix: (Units=1/GPa)
#
#
# Indices 1 2 3 4 5 6 
#
# 1 0.010144 -0.001021 -0.002399 0.004648 -0.003471 -0.002213
# 2 -0.001021 0.006839 -0.002553 -0.000289 -0.000564 0.002619
# 3 -0.002399 -0.002553 0.011470 0.001411 -0.002015 -0.001098
# 4 0.004648 -0.000289 0.001411 0.026587 -0.004260 -0.006355
# 5 -0.003471 -0.000564 -0.002015 -0.004260 0.022161 0.001941
# 6 -0.002213 0.002619 -0.001098 -0.006355 0.001941 0.027912
#
#
# Mechanical properties :
#
#
# Convention : Reuss Voigt Hill
#
# Bulk Modulus (GPa) = 60.58810 73.59563 67.09186
# Shear Modulus (GPa) = 40.79565 46.35159 43.57362
#
# Velocity S-wave (km/s) = 4.29526 4.57841 4.43909
# Velocity P-wave (km/s) = 7.21104 7.82506 7.52432
#
# Compressibility (1/GPa) = 0.01650489
#
# Stress axis : x y z
#
# Youngs Moduli (GPa) = 98.58291 146.22020 87.18532
#
# Poissons Ratio (x) = 0.14935 0.20919
# Poissons Ratio (y) = 0.10069 0.22259
# Poissons Ratio (z) = 0.23654 0.37331
#
# Static dielectric constant tensor:
#      x y z
#    x 4.355460 -0.199980 0.349120 
#    y -0.199980 4.016910 0.185000 
#    z 0.349120 0.185000 3.916210 
# 
# 
# High freq. dielectric constant tensor:
#      x y z
#    x 1.892640 -0.003640 0.006490 
#    y -0.003640 1.887570 0.000060 
#    z 0.006490 0.000060 1.880120 
# 
# From -- ./inp_files/217703.got.cif
#   From: 2010.06.25/outbox.cif.g09.slc.cpg/sg2_109_cif.got.tgz:217703.got - 2010.06.27 13:26:56.
