data_PCOD8037822
_publ_section_title
;
Structure prediction by ZEFSAII (Michael W. Deem and Ramdas Pophale) SiO2 
 PCOD8037822
Probable space group: P -1
;
_chemical_formula_sum "Si O2"
_cell_formula_units_Z 12
_cell_length_a 16.340621
_cell_length_b 15.345444
_cell_length_c 9.578694
_cell_angle_alpha 99.254915
_cell_angle_beta 81.303218
_cell_angle_gamma 151.776836
_cell_volume 1120.855487
_symmetry_space_group_name_H-M "P -1"
_symmetry_group_IT_number 2
_symmetry_cell_setting 'triclinic'
loop_
_space_group_symop_operation_xyz
x,y,z
-x,-y,-z
loop_
_atom_site_type_symbol
_atom_site_label
_atom_site_fract_x
_atom_site_fract_y
_atom_site_fract_z
Si Si1 0.165043 0.270811 0.183951
Si Si2 0.165595 0.271367 0.870826
Si Si3 0.474744 0.581066 0.684844
Si Si4 0.474220 0.580539 0.369959
Si Si5 0.216366 0.110597 0.816305
Si Si6 0.784185 0.889958 0.870571
O O1 0.296176 0.440149 0.301465
O O2 0.196903 0.196901 0.157837
O O3 0.199403 0.339073 0.036161
O O4 0.966524 0.104595 0.237436
O O5 0.297009 0.441040 0.773241
O O6 0.197605 0.197607 0.842333
O O7 0.967198 0.105276 0.833738
O O8 0.465619 0.608866 0.536918
O O9 0.500224 0.500226 0.658197
O O10 0.634712 0.778690 0.772749
O O11 0.633857 0.777882 0.301001
O O12 0.266445 0.126775 0.964164
#
# Coordination Sequence:
#
# PCOD8037822 Si02
#       6
#     2   2   2   2   2   2
#     4   8  13  20  27  31  34  41  50  55  57  62
#     4   8  13  20  27  31  34  41  50  55  57  62
#     4   9  15  19  23  31  39  43  45  51  61  67
#     4   9  15  19  23  31  39  43  45  51  61  67
#     4   8  13  20  27  31  34  41  50  55  57  62
#     4   8  13  20  27  31  34  41  50  55  57  62
#
# _framework density 10.706108
#
# number of rings (size 3 to 8) (size 9 to 14) (size 15 to 20)
#    0.000    3.667    0.000    3.000    0.000    5.333 
#    0.000    6.667    0.000    0.000    0.000    0.000 
#    0.000    0.000    0.000    0.000    0.000    0.000 
#
# Total GULP energy -148673.251310 kJ/mol
# GULP energy per Si atom -12389.437609 kJ/mol
# Density = 1.068174 g / cm^3
# Si number density = 10.706108 Si / 1000 Ang^3
#
#
#
# Elastic Constant Matrix: (Units=GPa)
#
#
# Indices 1 2 3 4 5 6 
#
# 1 4.7090 18.2759 15.6752 0.7016 3.7224 8.5308
# 2 18.2759 79.8730 60.8861 -6.8207 10.0762 35.1212
# 3 15.6752 60.8861 92.9023 -7.4245 16.7396 26.2906
# 4 0.7016 -6.8207 -7.4245 12.5000 4.1178 -0.4152
# 5 3.7224 10.0762 16.7396 4.1178 5.5168 5.5089
# 6 8.5308 35.1212 26.2906 -0.4152 5.5089 16.0031
#
#
#
# Elastic Compliance Matrix: (Units=1/GPa)
#
#
# Indices 1 2 3 4 5 6 
#
# 1 70.765178**********-36.905041**********154.877042233.291665
# 2 **********113.148593 -1.909793 49.512777 35.152927**********
# 3 -36.905041 -1.909793 29.585976 61.591273********** 21.048723
# 4 ********** 49.512777 61.591273153.665913**********-45.903241
# 5 154.877042 35.152927********************558.594427**********
# 6 233.291665********** 21.048723-45.903241**********310.163274
#
#
# Mechanical properties :
#
#
# Convention : Reuss Voigt Hill
#
# Bulk Modulus (GPa) = -0.00929 40.79542 20.39307
# Shear Modulus (GPa) = 0.00329 12.31379 6.15854
#
# Velocity S-wave (km/s) = 0.05547 3.39509 2.40101
# Velocity P-wave (km/s) = 0.06777 7.31822 5.17454
#
# Compressibility (1/GPa) = -107.64818640
#
# Stress axis : x y z
#
# Youngs Moduli (GPa) = 0.01413 0.00884 0.03380
#
# Poissons Ratio (x) = 1.07610 1.24738
# Poissons Ratio (y) = 1.72061 0.06455
# Poissons Ratio (z) = 0.52151 0.01688
#
# Static dielectric constant tensor:
#      x y z
#    x 1.721800 0.441390 0.180720 
#    y 0.441390 2.483670 -0.084670 
#    z 0.180720 -0.084670 2.492760 
# 
# 
# High freq. dielectric constant tensor:
#      x y z
#    x 1.307490 0.054970 0.023980 
#    y 0.054970 1.402340 -0.011140 
#    z 0.023980 -0.011140 1.411230 
# 
# From -- ./inp_files/168425.got.cif
#   From: 2010.06.25/outbox.cif.g09.slc.cpg/sg2_85_cif.got.tgz:168425.got - 2010.06.27 13:26:56.
