data_PCOD8037482
_publ_section_title
;
Structure prediction by ZEFSAII (Michael W. Deem and Ramdas Pophale) SiO2 
 PCOD8037482
Probable space group: P -1
;
_chemical_formula_sum "Si O2"
_cell_formula_units_Z 16
_cell_length_a 8.675817
_cell_length_b 11.242416
_cell_length_c 9.269034
_cell_angle_alpha 126.301044
_cell_angle_beta 93.317880
_cell_angle_gamma 98.413357
_cell_volume 708.831306
_symmetry_space_group_name_H-M "P -1"
_symmetry_group_IT_number 2
_symmetry_cell_setting 'triclinic'
loop_
_space_group_symop_operation_xyz
x,y,z
-x,-y,-z
loop_
_atom_site_type_symbol
_atom_site_label
_atom_site_fract_x
_atom_site_fract_y
_atom_site_fract_z
Si Si1 0.897965 0.008324 0.138425
Si Si2 0.639805 0.187580 0.272916
Si Si3 0.838928 0.594594 0.215823
Si Si4 0.434168 0.688088 0.938268
Si Si5 0.417436 0.974102 0.323066
Si Si6 0.220568 0.334457 0.045845
Si Si7 0.895598 0.454685 0.603595
Si Si8 0.117719 0.088999 0.453335
O O1 0.748157 0.077053 0.141470
O O2 0.839413 0.845518 0.091418
O O3 0.010586 0.119021 0.334969
O O4 0.000000 0.000000 0.000000
O O5 0.554208 0.237639 0.165695
O O6 0.504220 0.100403 0.307523
O O7 0.741017 0.327642 0.467235
O O8 0.716918 0.449844 0.166218
O O9 0.784571 0.748852 0.367187
O O10 0.008832 0.602396 0.302880
O O11 0.850713 0.590841 0.040287
O O12 0.589346 0.622857 0.925836
O O13 0.418436 0.807076 0.147018
O O14 0.236522 0.986194 0.336690
O O15 0.500000 0.000000 0.500000
O O16 0.163083 0.399089 0.236485
O O17 0.000000 0.500000 0.500000
O O18 0.000000 0.000000 0.500000
#
# Coordination Sequence:
#
# PCOD8037482 Si02
#       8
#     2   2   2   2   2   2   2   2
#     4  12  25  45  75 105 144 193 252 302 363 432
#     4  12  26  50  73 108 149 195 248 306 370 439
#     4  12  27  48  75 109 148 193 246 306 369 438
#     4  12  28  49  74 109 153 191 246 301 374 444
#     4  12  28  46  76 108 148 196 247 306 368 438
#     4  12  28  46  74 106 149 197 243 306 369 438
#     4  12  27  49  73 110 150 194 245 304 370 436
#     4  12  26  47  74 107 144 190 246 301 364 436
#
# _framework density 22.572367
#
# number of rings (size 3 to 8) (size 9 to 14) (size 15 to 20)
#    0.000    0.000    5.000    4.125    7.000    0.500 
#    0.000    0.000    0.000    0.000    0.000    0.000 
#    0.000    0.000    0.000    0.000    0.000    0.000 
#
# Total GULP energy -198531.728417 kJ/mol
# GULP energy per Si atom -12408.233026 kJ/mol
# Density = 2.252099 g / cm^3
# Si number density = 22.572367 Si / 1000 Ang^3
#
#
#
# Elastic Constant Matrix: (Units=GPa)
#
#
# Indices 1 2 3 4 5 6 
#
# 1 96.5660 12.9770 44.1441 -2.9836 -9.8692 -1.1946
# 2 12.9770 99.5316 44.1355 -5.5370 0.5477 7.1595
# 3 44.1441 44.1355 145.4768 2.3382 -5.8687 2.9514
# 4 -2.9836 -5.5370 2.3382 44.7936 -2.6669 4.2034
# 5 -9.8692 0.5477 -5.8687 -2.6669 43.0084 -2.5283
# 6 -1.1946 7.1595 2.9514 4.2034 -2.5283 41.3371
#
#
#
# Elastic Compliance Matrix: (Units=1/GPa)
#
#
# Indices 1 2 3 4 5 6 
#
# 1 0.012325 0.000026 -0.003681 0.001100 0.002432 0.000651
# 2 0.000026 0.011905 -0.003634 0.001815 -0.000648 -0.002026
# 3 -0.003681 -0.003634 0.009127 -0.001149 0.000376 0.000011
# 4 0.001100 0.001815 -0.001149 0.022993 0.001354 -0.002456
# 5 0.002432 -0.000648 0.000376 0.001354 0.024040 0.001488
# 6 0.000651 -0.002026 0.000011 -0.002456 0.001488 0.024901
#
#
# Mechanical properties :
#
#
# Convention : Reuss Voigt Hill
#
# Bulk Modulus (GPa) = 53.24768 60.45416 56.85092
# Shear Modulus (GPa) = 39.64175 41.84899 40.74537
#
# Velocity S-wave (km/s) = 4.19526 4.31047 4.25326
# Velocity P-wave (km/s) = 6.86352 7.18429 7.02574
#
# Compressibility (1/GPa) = 0.01878016
#
# Stress axis : x y z
#
# Youngs Moduli (GPa) = 81.13365 83.99584 109.56747
#
# Poissons Ratio (x) = -0.00220 0.40329
# Poissons Ratio (y) = -0.00212 0.39817
# Poissons Ratio (z) = 0.29863 0.30524
#
# Static dielectric constant tensor:
#      x y z
#    x 4.021910 -0.190880 -0.262380 
#    y -0.190880 3.925630 -0.289530 
#    z -0.262380 -0.289530 3.386350 
# 
# 
# High freq. dielectric constant tensor:
#      x y z
#    x 1.894220 -0.001020 0.005240 
#    y -0.001020 1.897310 -0.002050 
#    z 0.005240 -0.002050 1.910940 
# 
# From -- ./inp_files/190840.got.cif
#   From: 2010.06.25/outbox.cif.g09.slc.cpg/sg2_96_cif.got.tgz:190840.got - 2010.06.27 13:26:56.
