data_PCOD8037745
_publ_section_title
;
Structure prediction by ZEFSAII (Michael W. Deem and Ramdas Pophale) SiO2 
 PCOD8037745
Probable space group: P -1
;
_chemical_formula_sum "Si O2"
_cell_formula_units_Z 14
_cell_length_a 5.604387
_cell_length_b 8.815738
_cell_length_c 13.483253
_cell_angle_alpha 115.330348
_cell_angle_beta 74.514907
_cell_angle_gamma 102.970162
_cell_volume 575.596004
_symmetry_space_group_name_H-M "P -1"
_symmetry_group_IT_number 2
_symmetry_cell_setting 'triclinic'
loop_
_space_group_symop_operation_xyz
x,y,z
-x,-y,-z
loop_
_atom_site_type_symbol
_atom_site_label
_atom_site_fract_x
_atom_site_fract_y
_atom_site_fract_z
Si Si1 0.963099 0.326336 0.218789
Si Si2 0.900483 0.860407 0.666692
Si Si3 0.747826 0.595813 0.451665
Si Si4 0.214678 0.524939 0.067187
Si Si5 0.579839 0.140236 0.786411
Si Si6 0.717566 0.025927 0.065462
Si Si7 0.652916 0.880162 0.389329
O O1 0.892564 0.461445 0.343277
O O2 0.726747 0.219299 0.159765
O O3 0.086964 0.190053 0.233572
O O4 0.150775 0.406210 0.136149
O O5 0.904094 0.695099 0.550707
O O6 0.653642 0.951622 0.708957
O O7 0.113250 0.005293 0.650063
O O8 0.500000 0.500000 0.500000
O O9 0.711634 0.731993 0.411278
O O10 0.206583 0.719863 0.155007
O O11 0.500000 0.500000 0.000000
O O12 0.000000 0.500000 0.000000
O O13 0.501089 0.211734 0.710189
O O14 0.350770 0.115277 0.881890
O O15 0.500000 0.000000 0.000000
O O16 0.000000 0.000000 0.000000
O O17 0.500000 0.000000 0.500000
#
# Coordination Sequence:
#
# PCOD8037745 Si02
#       7
#     2   2   2   2   2   2   2
#     4  12  27  49  80 113 157 206 254 334 396 457
#     4  12  26  50  77 115 153 203 258 312 397 488
#     4  12  27  46  78 116 160 197 256 320 396 481
#     4  12  31  53  78 118 159 208 273 334 395 458
#     4  12  27  49  80 108 154 208 257 319 400 466
#     4  12  26  50  79 110 151 203 268 323 377 463
#     4  12  26  48  76 113 153 204 255 312 390 482
#
# _framework density 24.322614000000002
#
# number of rings (size 3 to 8) (size 9 to 14) (size 15 to 20)
#    0.000    0.000    2.857    6.000    8.000    1.143 
#    0.000    0.000    0.000    0.000    0.000    0.000 
#    0.000    0.000    0.000    0.000    0.000    0.000 
#
# Total GULP energy -173520.853620 kJ/mol
# GULP energy per Si atom -12394.346687 kJ/mol
# Density = 2.426725 g / cm^3
# Si number density = 24.322614 Si / 1000 Ang^3
#
#
#
# Elastic Constant Matrix: (Units=GPa)
#
#
# Indices 1 2 3 4 5 6 
#
# 1 133.2673 48.2448 68.9301 -11.8425 18.9681 8.5977
# 2 48.2448 167.6888 62.5891 -28.6235 15.9579 12.1662
# 3 68.9301 62.5891 140.9633 -8.3185 32.4547 11.7945
# 4 -11.8425 -28.6235 -8.3185 65.0142 11.0674 7.6947
# 5 18.9681 15.9579 32.4547 11.0674 40.2205 3.7493
# 6 8.5977 12.1662 11.7945 7.6947 3.7493 36.5255
#
#
#
# Elastic Compliance Matrix: (Units=1/GPa)
#
#
# Indices 1 2 3 4 5 6 
#
# 1 0.010393 -0.001028 -0.004155 0.001252 -0.001403 -0.000882
# 2 -0.001028 0.008054 -0.002289 0.003617 -0.001645 -0.002295
# 3 -0.004155 -0.002289 0.011942 0.001137 -0.006928 -0.001644
# 4 0.001252 0.003617 0.001137 0.019277 -0.007770 -0.005130
# 5 -0.001403 -0.001645 -0.006928 -0.007770 0.033786 0.001284
# 6 -0.000882 -0.002295 -0.001644 -0.005130 0.001284 0.029830
#
#
# Mechanical properties :
#
#
# Convention : Reuss Voigt Hill
#
# Bulk Modulus (GPa) = 64.74694 89.04971 76.89832
# Shear Modulus (GPa) = 37.48843 45.82907 41.65875
#
# Velocity S-wave (km/s) = 3.93020 4.34547 4.14304
# Velocity P-wave (km/s) = 6.87555 7.86567 7.38722
#
# Compressibility (1/GPa) = 0.01544475
#
# Stress axis : x y z
#
# Youngs Moduli (GPa) = 96.22092 124.15978 83.73856
#
# Poissons Ratio (x) = 0.12764 0.34792
# Poissons Ratio (y) = 0.09892 0.19169
# Poissons Ratio (z) = 0.39978 0.28423
#
# Static dielectric constant tensor:
#      x y z
#    x 4.343280 0.055470 0.029860 
#    y 0.055470 4.871970 0.246040 
#    z 0.029860 0.246040 4.999670 
# 
# 
# High freq. dielectric constant tensor:
#      x y z
#    x 1.956590 0.007450 0.009130 
#    y 0.007450 1.992380 -0.004210 
#    z 0.009130 -0.004210 1.994710 
# 
# From -- ./inp_files/368795.got.cif
#   From: 2010.06.25/outbox.cif.g09.slc.cpg/sg2_185_cif.got.tgz:368795.got - 2010.06.27 13:26:56.
