data_PCOD8037360
_publ_section_title
;
Structure prediction by ZEFSAII (Michael W. Deem and Ramdas Pophale) SiO2 
 PCOD8037360
Probable space group: P -1
;
_chemical_formula_sum "Si O2"
_cell_formula_units_Z 14
_cell_length_a 8.908093
_cell_length_b 12.027541
_cell_length_c 13.799701
_cell_angle_alpha 30.892907
_cell_angle_beta 60.696586
_cell_angle_gamma 68.134621
_cell_volume 658.245702
_symmetry_space_group_name_H-M "P -1"
_symmetry_group_IT_number 2
_symmetry_cell_setting 'triclinic'
loop_
_space_group_symop_operation_xyz
x,y,z
-x,-y,-z
loop_
_atom_site_type_symbol
_atom_site_label
_atom_site_fract_x
_atom_site_fract_y
_atom_site_fract_z
Si Si1 0.786679 0.481460 0.344612
Si Si2 0.741936 0.981666 0.353390
Si Si3 0.075217 0.203574 0.385778
Si Si4 0.948160 0.966066 0.930879
Si Si5 0.192120 0.610877 0.376337
Si Si6 0.655660 0.466481 0.046222
Si Si7 0.493919 0.410259 0.337938
O O1 0.741368 0.459233 0.488383
O O2 0.609084 0.424015 0.386951
O O3 0.920173 0.312338 0.402375
O O4 0.866516 0.724713 0.112945
O O5 0.799945 0.869105 0.516589
O O6 0.565812 0.842973 0.476956
O O7 0.703233 0.222844 0.207582
O O8 0.881903 0.975695 0.229707
O O9 0.177126 0.372508 0.154159
O O10 0.000000 0.000000 0.500000
O O11 0.806426 0.128736 0.826550
O O12 0.000000 0.000000 0.000000
O O13 0.323306 0.535442 0.311184
O O14 0.000000 0.500000 0.500000
O O15 0.604216 0.521105 0.131153
O O16 0.500000 0.500000 0.000000
#
# Coordination Sequence:
#
# PCOD8037360 Si02
#       7
#     2   2   2   2   2   2   2
#     4  12  26  47  71 110 144 184 245 299 358 424
#     4  12  25  49  71 105 144 192 241 289 362 431
#     4  12  27  47  76 106 145 193 238 296 361 428
#     4  12  25  43  78 103 137 193 240 291 355 431
#     4  12  24  48  74 102 143 190 239 293 360 424
#     4  12  28  46  74 107 147 189 244 294 359 430
#     4  12  27  46  73 108 148 188 241 301 357 425
#
# _framework density 21.268654000000002
#
# number of rings (size 3 to 8) (size 9 to 14) (size 15 to 20)
#    0.000    0.000    7.143    1.714    6.000    1.714 
#    0.000    0.000    0.000    0.000    0.000    0.000 
#    0.000    0.000    0.000    0.000    0.000    0.000 
#
# Total GULP energy -173716.493412 kJ/mol
# GULP energy per Si atom -12408.320958 kJ/mol
# Density = 2.122025 g / cm^3
# Si number density = 21.268654 Si / 1000 Ang^3
#
#
#
# Elastic Constant Matrix: (Units=GPa)
#
#
# Indices 1 2 3 4 5 6 
#
# 1 126.7772 37.0679 39.4921 -5.8040 -0.2111 13.8473
# 2 37.0679 130.0058 50.3352 5.6188 4.1610 -5.2826
# 3 39.4921 50.3352 116.6584 -7.1483 2.3498 4.8775
# 4 -5.8040 5.6188 -7.1483 51.1835 5.1654 3.9772
# 5 -0.2111 4.1610 2.3498 5.1654 37.4270 -4.6551
# 6 13.8473 -5.2826 4.8775 3.9772 -4.6551 44.9337
#
#
#
# Elastic Compliance Matrix: (Units=1/GPa)
#
#
# Indices 1 2 3 4 5 6 
#
# 1 0.009552 -0.002075 -0.002129 0.001267 -0.000140 -0.003083
# 2 -0.002075 0.009951 -0.003807 -0.002012 -0.000307 0.002369
# 3 -0.002129 -0.003807 0.011118 0.001896 -0.000703 -0.001239
# 4 0.001267 -0.002012 0.001896 0.020714 -0.003119 -0.002990
# 5 -0.000140 -0.000307 -0.000703 -0.003119 0.027627 0.003222
# 6 -0.003083 0.002369 -0.001239 -0.002990 0.003222 0.024217
#
#
# Mechanical properties :
#
#
# Convention : Reuss Voigt Hill
#
# Bulk Modulus (GPa) = 68.50118 69.69240 69.09679
# Shear Modulus (GPa) = 40.30081 43.14525 41.72303
#
# Velocity S-wave (km/s) = 4.35770 4.50887 4.43393
# Velocity P-wave (km/s) = 7.58927 7.74243 7.66623
#
# Compressibility (1/GPa) = 0.01459829
#
# Stress axis : x y z
#
# Youngs Moduli (GPa) = 104.68694 100.49556 89.94676
#
# Poissons Ratio (x) = 0.20851 0.19150
# Poissons Ratio (y) = 0.21721 0.34245
# Poissons Ratio (z) = 0.22289 0.38261
#
# Static dielectric constant tensor:
#      x y z
#    x 4.100680 0.189580 0.434580 
#    y 0.189580 4.349970 0.286830 
#    z 0.434580 0.286830 4.554720 
# 
# 
# High freq. dielectric constant tensor:
#      x y z
#    x 1.836100 -0.000350 0.005210 
#    y -0.000350 1.857160 0.001350 
#    z 0.005210 0.001350 1.845810 
# 
# From -- ./inp_files/68203.got.cif
#   From: 2010.06.25/outbox.cif.g09.slc.cpg/sg2_35_cif.got.tgz:68203.got - 2010.06.27 13:26:56.
