data_PCOD8037165
_publ_section_title
;
Structure prediction by ZEFSAII (Michael W. Deem and Ramdas Pophale) SiO2 
 PCOD8037165
Probable space group: P -1
;
_chemical_formula_sum "Si O2"
_cell_formula_units_Z 12
_cell_length_a 9.143715
_cell_length_b 8.440449
_cell_length_c 9.674658
_cell_angle_alpha 101.017050
_cell_angle_beta 46.053236
_cell_angle_gamma 90.355177
_cell_volume 519.165875
_symmetry_space_group_name_H-M "P -1"
_symmetry_group_IT_number 2
_symmetry_cell_setting 'triclinic'
loop_
_space_group_symop_operation_xyz
x,y,z
-x,-y,-z
loop_
_atom_site_type_symbol
_atom_site_label
_atom_site_fract_x
_atom_site_fract_y
_atom_site_fract_z
Si Si1 0.909583 0.334656 0.013501
Si Si2 0.769438 0.176372 0.585738
Si Si3 0.862274 0.674078 0.582186
Si Si4 0.745608 0.831362 0.414641
Si Si5 0.564825 0.333430 0.009018
Si Si6 0.379662 0.675296 0.561400
O O1 0.721295 0.356483 0.032342
O O2 0.095872 0.190771 0.821437
O O3 0.828713 0.280073 0.204482
O O4 0.000000 0.500000 0.000000
O O5 0.668963 0.199753 0.807130
O O6 0.673066 0.323363 0.567074
O O7 0.012573 0.181241 0.436857
O O8 0.735590 0.004713 0.521188
O O9 0.827168 0.680905 0.441357
O O10 0.000000 0.500000 0.500000
O O11 0.641929 0.719529 0.807460
O O12 0.516198 0.816682 0.515879
O O13 0.500000 0.500000 0.000000
O O14 0.500000 0.500000 0.500000
#
# Coordination Sequence:
#
# PCOD8037165 Si02
#       6
#     2   2   2   2   2   2
#     4  12  26  43  74 101 138 187 234 284 346 418
#     4  12  28  44  73 106 144 181 229 300 350 403
#     4  12  24  44  74 104 137 185 236 282 345 420
#     4  12  26  47  69 106 147 178 233 294 352 407
#     4  12  25  44  72 105 136 183 239 284 344 417
#     4  12  25  46  73 103 139 189 236 283 344 425
#
# _framework density 23.113999
#
# number of rings (size 3 to 8) (size 9 to 14) (size 15 to 20)
#    0.000    0.000    6.667    3.000    2.333    2.667 
#    0.000    0.000    0.000    0.000    0.000    0.000 
#    0.000    0.000    0.000    0.000    0.000    0.000 
#
# Total GULP energy -148835.699524 kJ/mol
# GULP energy per Si atom -12402.974960 kJ/mol
# Density = 2.306139 g / cm^3
# Si number density = 23.113999 Si / 1000 Ang^3
#
#
#
# Elastic Constant Matrix: (Units=GPa)
#
#
# Indices 1 2 3 4 5 6 
#
# 1 113.9192 12.2424 55.2209 -15.3941 -4.8150 28.8166
# 2 12.2424 52.2207 49.7750 1.6936 -14.5189 25.1900
# 3 55.2209 49.7750 175.1775 -14.1706 -17.1907 27.6788
# 4 -15.3941 1.6936 -14.1706 39.1372 7.1247 -0.5873
# 5 -4.8150 -14.5189 -17.1907 7.1247 42.9403 -14.3453
# 6 28.8166 25.1900 27.6788 -0.5873 -14.3453 50.5834
#
#
#
# Elastic Compliance Matrix: (Units=1/GPa)
#
#
# Indices 1 2 3 4 5 6 
#
# 1 0.012432 0.003402 -0.003626 0.003677 -0.001958 -0.007305
# 2 0.003402 0.034377 -0.008661 -0.004378 0.004931 -0.012971
# 3 -0.003626 -0.008661 0.009315 0.002251 0.000505 0.001451
# 4 0.003677 -0.004378 0.002251 0.029021 -0.005802 -0.002455
# 5 -0.001958 0.004931 0.000505 -0.005802 0.027990 0.006254
# 6 -0.007305 -0.012971 0.001451 -0.002455 0.006254 0.031341
#
#
# Mechanical properties :
#
#
# Convention : Reuss Voigt Hill
#
# Bulk Modulus (GPa) = 26.07325 63.97712 45.02518
# Shear Modulus (GPa) = 28.56625 41.47078 35.01852
#
# Velocity S-wave (km/s) = 3.51933 4.24038 3.89657
# Velocity P-wave (km/s) = 5.27437 7.19121 6.30605
#
# Compressibility (1/GPa) = 0.03835349
#
# Stress axis : x y z
#
# Youngs Moduli (GPa) = 80.43641 29.08909 107.35498
#
# Poissons Ratio (x) = -0.09896 0.38928
# Poissons Ratio (y) = -0.27363 0.92982
# Poissons Ratio (z) = 0.29167 0.25194
#
# Static dielectric constant tensor:
#      x y z
#    x 4.692010 0.130650 -0.011760 
#    y 0.130650 3.969500 -0.329930 
#    z -0.011760 -0.329930 4.749910 
# 
# 
# High freq. dielectric constant tensor:
#      x y z
#    x 1.934270 0.015200 0.001060 
#    y 0.015200 1.905860 -0.011740 
#    z 0.001060 -0.011740 1.923780 
# 
# From -- ./inp_files/149738.got.cif
#   From: 2010.06.25/outbox.cif.g09.slc.cpg/sg2_75_cif.got.tgz:149738.got - 2010.06.27 13:26:56.
