data_PCOD8037266
_publ_section_title
;
Structure prediction by ZEFSAII (Michael W. Deem and Ramdas Pophale) SiO2 
 PCOD8037266
Probable space group: P -1
;
_chemical_formula_sum "Si O2"
_cell_formula_units_Z 12
_cell_length_a 25.287189
_cell_length_b 25.750981
_cell_length_c 8.366583
_cell_angle_alpha 148.663754
_cell_angle_beta 150.560182
_cell_angle_gamma 11.131568
_cell_volume 516.974422
_symmetry_space_group_name_H-M "P -1"
_symmetry_group_IT_number 2
_symmetry_cell_setting 'triclinic'
loop_
_space_group_symop_operation_xyz
x,y,z
-x,-y,-z
loop_
_atom_site_type_symbol
_atom_site_label
_atom_site_fract_x
_atom_site_fract_y
_atom_site_fract_z
Si Si1 0.190923 0.744471 0.392608
Si Si2 0.207524 0.092810 0.737805
Si Si3 0.180070 0.438163 0.874877
Si Si4 0.895727 0.405790 0.243376
Si Si5 0.551150 0.066441 0.372721
Si Si6 0.178755 0.755845 0.766993
O O1 0.500000 0.500000 0.500000
O O2 0.173175 0.754633 0.560776
O O3 0.123410 0.692763 0.009227
O O4 0.000000 0.000000 0.500000
O O5 0.980675 0.202546 0.472461
O O6 0.297912 0.001893 0.552994
O O7 0.014744 0.357923 0.952716
O O8 0.490525 0.860223 0.984672
O O9 0.196715 0.504201 0.947961
O O10 0.000000 0.500000 0.500000
O O11 0.720410 0.634294 0.495667
O O12 0.235786 0.136012 0.448986
O O13 0.500000 0.000000 0.000000
O O14 0.500000 0.500000 0.000000
O O15 0.000000 0.000000 0.000000
#
# Coordination Sequence:
#
# PCOD8037266 Si02
#       6
#     2   2   2   2   2   2
#     4  12  28  48  73 105 141 189 244 298 360 423
#     4  12  26  46  71 105 147 183 238 295 357 432
#     4  12  24  46  75 104 140 188 235 296 362 430
#     4  12  26  46  73 104 147 185 238 298 354 429
#     4  12  26  46  73 109 146 189 236 290 362 432
#     4  12  28  48  73 104 143 187 242 300 361 425
#
# _framework density 23.211980000000001
#
# number of rings (size 3 to 8) (size 9 to 14) (size 15 to 20)
#    0.000    0.000    1.667    8.000    9.333    0.000 
#    0.000    0.000    0.000    0.000    0.000    0.000 
#    0.000    0.000    0.000    0.000    0.000    0.000 
#
# Total GULP energy -148718.195880 kJ/mol
# GULP energy per Si atom -12393.182990 kJ/mol
# Density = 2.315915 g / cm^3
# Si number density = 23.211980 Si / 1000 Ang^3
#
#
#
# Elastic Constant Matrix: (Units=GPa)
#
#
# Indices 1 2 3 4 5 6 
#
# 1 97.5044 13.2140 5.6147 -0.8323 1.9386 3.0063
# 2 13.2140 156.6846 57.2445 -0.1199 15.9785 -1.5474
# 3 5.6147 57.2445 120.5622 10.3856 13.9122 2.5007
# 4 -0.8323 -0.1199 10.3856 61.8323 -3.0863 -0.7197
# 5 1.9386 15.9785 13.9122 -3.0863 35.9585 -1.6547
# 6 3.0063 -1.5474 2.5007 -0.7197 -1.6547 28.6027
#
#
#
# Elastic Compliance Matrix: (Units=1/GPa)
#
#
# Indices 1 2 3 4 5 6 
#
# 1 0.010414 -0.000853 -0.000043 0.000122 -0.000208 -0.001146
# 2 -0.000853 0.007974 -0.003570 0.000510 -0.002039 0.000728
# 3 -0.000043 -0.003570 0.010495 -0.001920 -0.002697 -0.001311
# 4 0.000122 0.000510 -0.001920 0.016604 0.001968 0.000714
# 5 -0.000208 -0.002039 -0.002697 0.001968 0.030028 0.001934
# 6 -0.001146 0.000728 -0.001311 0.000714 0.001934 0.035366
#
#
# Mechanical properties :
#
#
# Convention : Reuss Voigt Hill
#
# Bulk Modulus (GPa) = 50.11917 58.54419 54.33168
# Shear Modulus (GPa) = 39.53655 45.19056 42.36356
#
# Velocity S-wave (km/s) = 4.13156 4.41711 4.27672
# Velocity P-wave (km/s) = 6.66322 7.16176 6.91699
#
# Compressibility (1/GPa) = 0.01995245
#
# Stress axis : x y z
#
# Youngs Moduli (GPa) = 96.02012 125.40694 95.27893
#
# Poissons Ratio (x) = 0.10692 0.00409
# Poissons Ratio (y) = 0.08187 0.34017
# Poissons Ratio (z) = 0.00412 0.44774
#
# Static dielectric constant tensor:
#      x y z
#    x 4.599620 0.055480 -0.030540 
#    y 0.055480 4.522580 -0.015910 
#    z -0.030540 -0.015910 4.543220 
# 
# 
# High freq. dielectric constant tensor:
#      x y z
#    x 1.928680 -0.005840 -0.000150 
#    y -0.005840 1.937630 0.005100 
#    z -0.000150 0.005100 1.939890 
# 
# From -- ./inp_files/87548.got.cif
#   From: 2010.06.25/outbox.cif.g09.slc.cpg/sg2_44_cif.got.tgz:87548.got - 2010.06.27 13:26:56.
