data_PCOD8037350
_publ_section_title
;
Structure prediction by ZEFSAII (Michael W. Deem and Ramdas Pophale) SiO2 
 PCOD8037350
Probable space group: P -1
;
_chemical_formula_sum "Si O2"
_cell_formula_units_Z 12
_cell_length_a 8.679409
_cell_length_b 9.883617
_cell_length_c 12.573632
_cell_angle_alpha 141.594781
_cell_angle_beta 123.240373
_cell_angle_gamma 75.290698
_cell_volume 527.429661
_symmetry_space_group_name_H-M "P -1"
_symmetry_group_IT_number 2
_symmetry_cell_setting 'triclinic'
loop_
_space_group_symop_operation_xyz
x,y,z
-x,-y,-z
loop_
_atom_site_type_symbol
_atom_site_label
_atom_site_fract_x
_atom_site_fract_y
_atom_site_fract_z
Si Si1 0.315512 0.280820 0.273959
Si Si2 0.396136 0.832216 0.073078
Si Si3 0.525086 0.776818 0.321270
Si Si4 0.002212 0.479124 0.362344
Si Si5 0.303268 0.277220 0.018130
Si Si6 0.977224 0.928060 0.567251
O O1 0.500000 0.500000 0.500000
O O2 0.289678 0.230321 0.108804
O O3 0.126929 0.320833 0.276904
O O4 0.348123 0.066465 0.214251
O O5 0.460572 0.750732 0.158223
O O6 0.211914 0.630218 0.834372
O O7 0.569310 0.863549 0.073511
O O8 0.390443 0.549644 0.192806
O O9 0.751955 0.807813 0.440591
O O10 0.500000 0.000000 0.500000
O O11 0.087259 0.740371 0.510392
O O12 0.000000 0.500000 0.500000
O O13 0.081320 0.159410 0.818481
O O14 0.000000 0.000000 0.500000
#
# Coordination Sequence:
#
# PCOD8037350 Si02
#       6
#     2   2   2   2   2   2
#     4  12  27  45  72 107 143 188 244 293 353 427
#     4  12  24  48  72 103 146 190 237 294 359 416
#     4  12  28  46  74 107 147 187 235 298 353 426
#     4  12  27  47  74 105 145 189 240 297 355 423
#     4  12  25  48  74 106 145 188 238 296 354 423
#     4  12  26  48  75 105 143 189 239 289 361 420
#
# _framework density 22.751847999999999
#
# number of rings (size 3 to 8) (size 9 to 14) (size 15 to 20)
#    0.000    0.000    3.333    6.500    7.000    0.667 
#    0.000    0.000    0.000    0.000    0.000    0.000 
#    0.000    0.000    0.000    0.000    0.000    0.000 
#
# Total GULP energy -148860.817983 kJ/mol
# GULP energy per Si atom -12405.068165 kJ/mol
# Density = 2.270006 g / cm^3
# Si number density = 22.751848 Si / 1000 Ang^3
#
#
#
# Elastic Constant Matrix: (Units=GPa)
#
#
# Indices 1 2 3 4 5 6 
#
# 1 95.0559 30.1818 21.2207 -6.6327 -11.2022 -11.1398
# 2 30.1818 102.9622 27.6504 14.6352 -4.3115 -7.7065
# 3 21.2207 27.6504 138.6846 -5.7285 20.5711 -10.8392
# 4 -6.6327 14.6352 -5.7285 58.7432 -3.2506 -8.3517
# 5 -11.2022 -4.3115 20.5711 -3.2506 47.8008 1.7289
# 6 -11.1398 -7.7065 -10.8392 -8.3517 1.7289 32.4186
#
#
#
# Elastic Compliance Matrix: (Units=1/GPa)
#
#
# Indices 1 2 3 4 5 6 
#
# 1 0.012955 -0.003413 -0.001392 0.002897 0.003389 0.003740
# 2 -0.003413 0.011815 -0.002119 -0.003487 0.000941 -0.000021
# 3 -0.001392 -0.002119 0.008732 0.001343 -0.004275 0.002511
# 4 0.002897 -0.003487 0.001343 0.019183 0.000892 0.005510
# 5 0.003389 0.000941 -0.004275 0.000892 0.023738 -0.001077
# 6 0.003740 -0.000021 0.002511 0.005510 -0.001077 0.034443
#
#
# Mechanical properties :
#
#
# Convention : Reuss Voigt Hill
#
# Bulk Modulus (GPa) = 50.88332 54.97873 52.93103
# Shear Modulus (GPa) = 38.09069 44.96918 41.52994
#
# Velocity S-wave (km/s) = 4.09611 4.45062 4.27704
# Velocity P-wave (km/s) = 6.69208 7.11531 6.90693
#
# Compressibility (1/GPa) = 0.01965280
#
# Stress axis : x y z
#
# Youngs Moduli (GPa) = 77.19283 84.63631 114.52291
#
# Poissons Ratio (x) = 0.28890 0.15946
# Poissons Ratio (y) = 0.26349 0.24263
# Poissons Ratio (z) = 0.10749 0.17931
#
# Static dielectric constant tensor:
#      x y z
#    x 3.610420 0.201710 -0.026630 
#    y 0.201710 4.021380 0.055900 
#    z -0.026630 0.055900 4.524210 
# 
# 
# High freq. dielectric constant tensor:
#      x y z
#    x 1.896270 -0.003600 0.002610 
#    y -0.003600 1.911720 -0.000610 
#    z 0.002610 -0.000610 1.928070 
# 
# From -- ./inp_files/148802.got.cif
#   From: 2010.06.25/outbox.cif.g09.slc.cpg/sg2_75_cif.got.tgz:148802.got - 2010.06.27 13:26:56.
