data_PCOD8037475
_publ_section_title
;
Structure prediction by ZEFSAII (Michael W. Deem and Ramdas Pophale) SiO2 
 PCOD8037475
Probable space group: P -1
;
_chemical_formula_sum "Si O2"
_cell_formula_units_Z 12
_cell_length_a 8.558450
_cell_length_b 16.990790
_cell_length_c 10.967432
_cell_angle_alpha 25.474079
_cell_angle_beta 57.975984
_cell_angle_gamma 58.777522
_cell_volume 578.110726
_symmetry_space_group_name_H-M "P -1"
_symmetry_group_IT_number 2
_symmetry_cell_setting 'triclinic'
loop_
_space_group_symop_operation_xyz
x,y,z
-x,-y,-z
loop_
_atom_site_type_symbol
_atom_site_label
_atom_site_fract_x
_atom_site_fract_y
_atom_site_fract_z
Si Si1 0.920078 0.496622 0.172111
Si Si2 0.327774 0.157618 0.844570
Si Si3 0.499223 0.517274 0.334760
Si Si4 0.872867 0.857380 0.299328
Si Si5 0.334436 0.897266 0.762830
Si Si6 0.008296 0.157208 0.178595
O O1 0.706616 0.486778 0.242865
O O2 0.002445 0.324421 0.457450
O O3 0.955356 0.666694 0.004468
O O4 0.000000 0.500000 0.000000
O O5 0.383122 0.360661 0.553690
O O6 0.262220 0.175944 0.707753
O O7 0.169041 0.115528 0.067082
O O8 0.500000 0.000000 0.000000
O O9 0.500000 0.500000 0.500000
O O10 0.407814 0.720131 0.057439
O O11 0.765104 0.940036 0.344205
O O12 0.000000 0.000000 0.000000
O O13 0.194522 0.823797 0.825301
O O14 0.500000 0.000000 0.500000
O O15 0.000000 0.000000 0.500000
#
# Coordination Sequence:
#
# PCOD8037475 Si02
#       6
#     2   2   2   2   2   2
#     4  12  27  47  72 106 144 188 233 292 356 423
#     4  12  27  45  74 108 142 186 242 296 348 422
#     4  12  25  45  73 104 141 184 240 288 350 418
#     4  12  25  45  73 104 141 184 240 288 350 418
#     4  12  27  47  72 106 144 188 233 292 356 423
#     4  12  27  47  72 104 148 188 234 296 360 416
#
# _framework density 20.757269999999998
#
# number of rings (size 3 to 8) (size 9 to 14) (size 15 to 20)
#    0.000    0.000    3.333    7.000    4.667    1.333 
#    0.000    3.333    0.000    0.000    0.000    0.000 
#    0.000    0.000    0.000    0.000    0.000    0.000 
#
# Total GULP energy -148760.191124 kJ/mol
# GULP energy per Si atom -12396.682594 kJ/mol
# Density = 2.071003 g / cm^3
# Si number density = 20.757270 Si / 1000 Ang^3
#
#
#
# Elastic Constant Matrix: (Units=GPa)
#
#
# Indices 1 2 3 4 5 6 
#
# 1 114.8746 0.5417 27.7611 2.8707 1.4088 -2.4173
# 2 0.5417 72.0886 8.2566 9.8975 -6.5714 -8.4952
# 3 27.7611 8.2566 134.2380 -8.5128 4.1485 -9.3656
# 4 2.8707 9.8975 -8.5128 44.1430 -8.3875 -1.7455
# 5 1.4088 -6.5714 4.1485 -8.3875 48.3858 1.0290
# 6 -2.4173 -8.4952 -9.3656 -1.7455 1.0290 41.8776
#
#
#
# Elastic Compliance Matrix: (Units=1/GPa)
#
#
# Indices 1 2 3 4 5 6 
#
# 1 0.009214 0.000297 -0.001978 -0.001090 -0.000250 0.000111
# 2 0.000297 0.014870 -0.001039 -0.003166 0.001495 0.002632
# 3 -0.001978 -0.001039 0.008170 0.001908 -0.000487 0.001594
# 4 -0.001090 -0.003166 0.001908 0.024527 0.003676 0.000653
# 5 -0.000250 0.001495 -0.000487 0.003676 0.021561 -0.000197
# 6 0.000111 0.002632 0.001594 0.000653 -0.000197 0.024808
#
#
# Mechanical properties :
#
#
# Convention : Reuss Voigt Hill
#
# Bulk Modulus (GPa) = 37.29360 43.81333 40.55346
# Shear Modulus (GPa) = 42.54365 45.85738 44.20052
#
# Velocity S-wave (km/s) = 4.53214 4.70533 4.61955
# Velocity P-wave (km/s) = 6.73740 7.11853 6.93059
#
# Compressibility (1/GPa) = 0.02681425
#
# Stress axis : x y z
#
# Youngs Moduli (GPa) = 108.52716 67.25045 122.40557
#
# Poissons Ratio (x) = -0.01999 0.24206
# Poissons Ratio (y) = -0.03226 0.12722
# Poissons Ratio (z) = 0.21462 0.06990
#
# Static dielectric constant tensor:
#      x y z
#    x 3.879050 -0.069710 -0.109900 
#    y -0.069710 3.985450 0.108290 
#    z -0.109900 0.108290 4.018020 
# 
# 
# High freq. dielectric constant tensor:
#      x y z
#    x 1.837030 0.002520 -0.002360 
#    y 0.002520 1.829980 0.001910 
#    z -0.002360 0.001910 1.837260 
# 
# From -- ./inp_files/149058.got.cif
#   From: 2010.06.25/outbox.cif.g09.slc.cpg/sg2_75_cif.got.tgz:149058.got - 2010.06.27 13:26:56.
