data_PCOD8037830
_publ_section_title
;
Structure prediction by ZEFSAII (Michael W. Deem and Ramdas Pophale) SiO2 
 PCOD8037830
Probable space group: P -1
;
_chemical_formula_sum "Si O2"
_cell_formula_units_Z 16
_cell_length_a 17.574635
_cell_length_b 19.983512
_cell_length_c 11.568927
_cell_angle_alpha 138.780265
_cell_angle_beta 40.857189
_cell_angle_gamma 159.765125
_cell_volume 902.918390
_symmetry_space_group_name_H-M "P -1"
_symmetry_group_IT_number 2
_symmetry_cell_setting 'triclinic'
loop_
_space_group_symop_operation_xyz
x,y,z
-x,-y,-z
loop_
_atom_site_type_symbol
_atom_site_label
_atom_site_fract_x
_atom_site_fract_y
_atom_site_fract_z
Si Si1 0.505014 0.634214 0.320842
Si Si2 0.322116 0.018250 0.443629
Si Si3 0.339297 0.811763 0.866100
Si Si4 0.593035 0.353860 0.316193
Si Si5 0.984505 0.941769 0.115866
Si Si6 0.031466 0.186127 0.254410
Si Si7 0.967898 0.249860 0.796109
Si Si8 0.121262 0.002607 0.292195
O O1 0.482973 0.622640 0.469026
O O2 0.716205 0.722165 0.156556
O O3 0.272512 0.417919 0.254723
O O4 0.567512 0.791467 0.404758
O O5 0.201836 0.924242 0.332612
O O6 0.141530 0.860428 0.548579
O O7 0.539312 0.105252 0.293432
O O8 0.313625 0.680385 0.778972
O O9 0.104328 0.697024 0.991054
O O10 0.500000 0.000000 0.000000
O O11 0.790873 0.554422 0.280864
O O12 0.385035 0.183788 0.249070
O O13 0.111233 0.013412 0.181495
O O14 0.066343 0.925807 0.901000
O O15 0.049714 0.105627 0.218098
O O16 0.998553 0.192010 0.788142
O O17 0.000000 0.000000 0.500000
#
# Coordination Sequence:
#
# PCOD8037830 Si02
#       8
#     2   2   2   2   2   2   2   2
#     4  10  17  32  51  75 103 133 175 218 259 301
#     4   9  17  31  52  79 101 127 168 222 268 299
#     4   9  17  34  54  80 109 131 172 229 266 302
#     4  11  20  32  56  82 106 142 175 208 273 319
#     4  10  22  34  50  74 104 144 180 215 255 307
#     4  10  19  35  54  73 100 139 187 219 251 309
#     4  11  20  34  53  80 111 138 176 219 266 314
#     4  12  22  36  49  77 119 144 167 212 264 324
#
# _framework density 17.720317999999999
#
# number of rings (size 3 to 8) (size 9 to 14) (size 15 to 20)
#    0.000    1.750    6.250    1.500    0.000    1.500 
#    0.000    0.000    0.000    0.750    0.000    4.375 
#    0.000    0.000    0.000    0.000    0.000    0.000 
#
# Total GULP energy -198218.348376 kJ/mol
# GULP energy per Si atom -12388.646774 kJ/mol
# Density = 1.767999 g / cm^3
# Si number density = 17.720318 Si / 1000 Ang^3
#
#
#
# Elastic Constant Matrix: (Units=GPa)
#
#
# Indices 1 2 3 4 5 6 
#
# 1 69.8982 14.9462 36.1481 -2.1083 3.3246 -6.5824
# 2 14.9462 86.3082 17.8180 -3.2705 -4.6264 -11.0805
# 3 36.1481 17.8180 99.3937 -13.9965 8.5429 -2.3379
# 4 -2.1083 -3.2705 -13.9965 26.8109 -3.2142 1.0001
# 5 3.3246 -4.6264 8.5429 -3.2142 19.1393 0.4959
# 6 -6.5824 -11.0805 -2.3379 1.0001 0.4959 14.8620
#
#
#
# Elastic Compliance Matrix: (Units=1/GPa)
#
#
# Indices 1 2 3 4 5 6 
#
# 1 0.018591 -0.001164 -0.006659 -0.002536 -0.001133 0.006528
# 2 -0.001164 0.013648 -0.002086 0.000660 0.004306 0.009144
# 3 -0.006659 -0.002086 0.014045 0.006107 -0.004525 -0.002555
# 4 -0.002536 0.000660 0.006107 0.041044 0.004834 -0.002594
# 5 -0.001133 0.004306 -0.004525 0.004834 0.056323 -0.000208
# 6 0.006528 0.009144 -0.002555 -0.002594 -0.000208 0.076774
#
#
# Mechanical properties :
#
#
# Convention : Reuss Voigt Hill
#
# Bulk Modulus (GPa) = 37.78051 43.71385 40.74718
# Shear Modulus (GPa) = 20.07514 24.60830 22.34172
#
# Velocity S-wave (km/s) = 3.36949 3.73058 3.55462
# Velocity P-wave (km/s) = 6.04191 6.57865 6.31598
#
# Compressibility (1/GPa) = 0.02646868
#
# Stress axis : x y z
#
# Youngs Moduli (GPa) = 53.78916 73.26977 71.19755
#
# Poissons Ratio (x) = 0.08526 0.47409
# Poissons Ratio (y) = 0.06259 0.14849
# Poissons Ratio (z) = 0.35817 0.15281
#
# Static dielectric constant tensor:
#      x y z
#    x 2.932860 -0.050040 -0.160980 
#    y -0.050040 3.471480 -0.386540 
#    z -0.160980 -0.386540 3.841960 
# 
# 
# High freq. dielectric constant tensor:
#      x y z
#    x 1.625630 -0.016160 -0.000980 
#    y -0.016160 1.697020 -0.015260 
#    z -0.000980 -0.015260 1.697140 
# 
# From -- ./inp_files/421341.got.cif
#   From: 2010.06.25/outbox.cif.g09.slc.cpg/sg2_211_cif.got.tgz:421341.got - 2010.06.27 13:26:56.
