data_PCOD8037617
_publ_section_title
;
Structure prediction by ZEFSAII (Michael W. Deem and Ramdas Pophale) SiO2 
 PCOD8037617
Probable space group: P -1
;
_chemical_formula_sum "Si O2"
_cell_formula_units_Z 14
_cell_length_a 5.736801
_cell_length_b 21.675643
_cell_length_c 11.196953
_cell_angle_alpha 31.445370
_cell_angle_beta 91.764677
_cell_angle_gamma 71.760748
_cell_volume 551.336966
_symmetry_space_group_name_H-M "P -1"
_symmetry_group_IT_number 2
_symmetry_cell_setting 'triclinic'
loop_
_space_group_symop_operation_xyz
x,y,z
-x,-y,-z
loop_
_atom_site_type_symbol
_atom_site_label
_atom_site_fract_x
_atom_site_fract_y
_atom_site_fract_z
Si Si1 0.881790 0.267392 0.744852
Si Si2 0.140903 0.300073 0.462723
Si Si3 0.771194 0.059550 0.789892
Si Si4 0.720792 0.019064 0.398165
Si Si5 0.121569 0.341622 0.821068
Si Si6 0.736242 0.498238 0.771536
Si Si7 0.859415 0.252812 0.328110
O O1 0.524573 0.366430 0.545312
O O2 0.015496 0.307007 0.578602
O O3 0.920880 0.306527 0.812110
O O4 0.075220 0.083391 0.060878
O O5 0.455852 0.123304 0.739387
O O6 0.189614 0.425593 0.255558
O O7 0.935636 0.326223 0.306932
O O8 0.687361 0.204583 0.473188
O O9 0.000000 0.000000 0.000000
O O10 0.500000 0.000000 0.500000
O O11 0.854312 0.898503 0.489450
O O12 0.487587 0.197380 0.049949
O O13 0.000000 0.000000 0.500000
O O14 0.000000 0.500000 0.500000
O O15 0.043272 0.367911 0.916634
O O16 0.642877 0.402863 0.988947
#
# Coordination Sequence:
#
# PCOD8037617 Si02
#       7
#     2   2   2   2   2   2   2
#     4  12  27  48  79 112 158 205 272 331 409 481
#     4  12  25  48  76 110 154 201 275 323 412 472
#     4  12  26  46  73 108 149 205 258 326 399 486
#     4  12  31  56  83 121 165 216 274 337 416 495
#     4  12  28  50  82 115 155 214 269 341 403 491
#     4  12  27  49  76 115 157 207 267 333 415 480
#     4  12  29  47  79 110 161 204 266 331 410 483
#
# _framework density 25.392817999999998
#
# number of rings (size 3 to 8) (size 9 to 14) (size 15 to 20)
#    0.000    0.000    5.714    2.143   10.000    3.429 
#    0.000    0.000    0.000    0.000    0.000    0.000 
#    0.000    0.000    0.000    0.000    0.000    0.000 
#
# Total GULP energy -173499.127401 kJ/mol
# GULP energy per Si atom -12392.794814 kJ/mol
# Density = 2.533502 g / cm^3
# Si number density = 25.392818 Si / 1000 Ang^3
#
#
#
# Elastic Constant Matrix: (Units=GPa)
#
#
# Indices 1 2 3 4 5 6 
#
# 1 80.7971 23.0095 26.6767 -5.1988 -3.2095 15.2745
# 2 23.0095 123.0393 25.4582 -21.8703 -3.9285 19.7528
# 3 26.6767 25.4582 134.5929 -12.3080 -14.2639 16.1126
# 4 -5.1988 -21.8703 -12.3080 38.8309 -0.0858 -4.9753
# 5 -3.2095 -3.9285 -14.2639 -0.0858 43.3149 -5.4319
# 6 15.2745 19.7528 16.1126 -4.9753 -5.4319 42.4103
#
#
#
# Elastic Compliance Matrix: (Units=1/GPa)
#
#
# Indices 1 2 3 4 5 6 
#
# 1 0.014210 -0.001684 -0.002111 -0.000175 -0.000245 -0.003583
# 2 -0.001684 0.009949 -0.000718 0.004744 0.000152 -0.003179
# 3 -0.002111 -0.000718 0.008605 0.001834 0.002409 -0.001651
# 4 -0.000175 0.004744 0.001834 0.029077 0.001169 0.000717
# 5 -0.000245 0.000152 0.002409 0.001169 0.024171 0.002335
# 6 -0.003583 -0.003179 -0.001651 0.000717 0.002335 0.027361
#
#
# Mechanical properties :
#
#
# Convention : Reuss Voigt Hill
#
# Bulk Modulus (GPa) = 42.12618 54.30202 48.21410
# Shear Modulus (GPa) = 38.37005 42.46356 40.41681
#
# Velocity S-wave (km/s) = 3.89145 4.09377 3.99389
# Velocity P-wave (km/s) = 6.06770 6.61638 6.34797
#
# Compressibility (1/GPa) = 0.02373821
#
# Stress axis : x y z
#
# Youngs Moduli (GPa) = 70.37469 100.50944 116.21739
#
# Poissons Ratio (x) = 0.16928 0.24531
# Poissons Ratio (y) = 0.11853 0.08340
# Poissons Ratio (z) = 0.14855 0.07213
#
# Static dielectric constant tensor:
#      x y z
#    x 4.535800 -0.442470 0.210350 
#    y -0.442470 4.358580 0.532380 
#    z 0.210350 0.532380 3.915440 
# 
# 
# High freq. dielectric constant tensor:
#      x y z
#    x 2.000490 -0.001330 -0.009430 
#    y -0.001330 2.033560 -0.015990 
#    z -0.009430 -0.015990 2.025540 
# 
# From -- ./inp_files/70622.got.cif
#   From: 2010.06.25/outbox.cif.g09.slc.cpg/sg2_36_cif.got.tgz:70622.got - 2010.06.27 13:26:56.
