data_PCOD8037286
_publ_section_title
;
Structure prediction by ZEFSAII (Michael W. Deem and Ramdas Pophale) SiO2 
 PCOD8037286
Probable space group: P -1
;
_chemical_formula_sum "Si O2"
_cell_formula_units_Z 16
_cell_length_a 9.042849
_cell_length_b 24.518719
_cell_length_c 9.346704
_cell_angle_alpha 25.713814
_cell_angle_beta 60.412653
_cell_angle_gamma 52.678034
_cell_volume 706.706470
_symmetry_space_group_name_H-M "P -1"
_symmetry_group_IT_number 2
_symmetry_cell_setting 'triclinic'
loop_
_space_group_symop_operation_xyz
x,y,z
-x,-y,-z
loop_
_atom_site_type_symbol
_atom_site_label
_atom_site_fract_x
_atom_site_fract_y
_atom_site_fract_z
Si Si1 0.409247 0.891321 0.329086
Si Si2 0.421228 0.254012 0.139889
Si Si3 0.471242 0.359777 0.357921
Si Si4 0.283503 0.118592 0.315523
Si Si5 0.101957 0.389825 0.585206
Si Si6 0.143421 0.518284 0.781796
Si Si7 0.316549 0.712730 0.296793
Si Si8 0.988647 0.015624 0.298017
O O1 0.427251 0.866579 0.550504
O O2 0.496131 0.746057 0.541286
O O3 0.185559 0.960242 0.251302
O O4 0.500000 0.000000 0.000000
O O5 0.269577 0.208502 0.249393
O O6 0.299127 0.366512 0.042669
O O7 0.522071 0.309349 0.844190
O O8 0.254162 0.429407 0.343620
O O9 0.607415 0.260519 0.651390
O O10 0.500000 0.500000 0.000000
O O11 0.136877 0.053448 0.549520
O O12 0.500000 0.000000 0.500000
O O13 0.215707 0.227346 0.958753
O O14 0.000000 0.500000 0.500000
O O15 0.946593 0.402570 0.510468
O O16 0.272432 0.580783 0.648775
O O17 0.000000 0.500000 0.000000
O O18 0.117229 0.825978 0.071286
O O19 0.000000 0.000000 0.500000
#
# Coordination Sequence:
#
# PCOD8037286 Si02
#       8
#     2   2   2   2   2   2   2   2
#     4  12  31  49  75 111 158 196 243 318 389 439
#     4  12  25  49  73 106 146 198 245 311 366 451
#     4  12  28  50  71 109 153 193 242 316 382 435
#     4  12  24  46  78 109 144 185 257 306 365 435
#     4  12  25  46  77 106 145 198 251 307 365 455
#     4  12  27  45  70 109 149 191 245 311 373 442
#     4  12  25  47  76 103 145 198 251 296 369 454
#     4  12  26  47  78 109 145 197 252 303 367 466
#
# _framework density 22.640234
#
# number of rings (size 3 to 8) (size 9 to 14) (size 15 to 20)
#    0.000    0.000    5.000    3.375   10.500    1.500 
#    0.000    0.000    0.000    0.000    0.000    0.000 
#    0.000    0.000    0.000    0.000    0.000    0.000 
#
# Total GULP energy -198252.811281 kJ/mol
# GULP energy per Si atom -12390.800705 kJ/mol
# Density = 2.258870 g / cm^3
# Si number density = 22.640234 Si / 1000 Ang^3
#
#
#
# Elastic Constant Matrix: (Units=GPa)
#
#
# Indices 1 2 3 4 5 6 
#
# 1 148.0703 44.6728 32.8688 6.4369 -16.1097 -4.4697
# 2 44.6728 112.7148 35.8226 3.6104 -19.7610 -18.4839
# 3 32.8688 35.8226 86.7353 -3.6193 -11.1372 1.6561
# 4 6.4369 3.6104 -3.6193 34.8645 2.1270 5.0588
# 5 -16.1097 -19.7610 -11.1372 2.1270 62.2903 1.7731
# 6 -4.4697 -18.4839 1.6561 5.0588 1.7731 43.4631
#
#
#
# Elastic Compliance Matrix: (Units=1/GPa)
#
#
# Indices 1 2 3 4 5 6 
#
# 1 0.008087 -0.002315 -0.002040 -0.001538 0.001043 0.000061
# 2 -0.002315 0.012516 -0.004161 -0.002240 0.002551 0.005400
# 3 -0.002040 -0.004161 0.014276 0.002662 0.000695 -0.002862
# 4 -0.001538 -0.002240 0.002662 0.030246 -0.001532 -0.004670
# 5 0.001043 0.002551 0.000695 -0.001532 0.017291 0.000639
# 6 0.000061 0.005400 -0.002862 -0.004670 0.000639 0.025937
#
#
# Mechanical properties :
#
#
# Convention : Reuss Voigt Hill
#
# Bulk Modulus (GPa) = 56.03005 63.80544 59.91774
# Shear Modulus (GPa) = 38.07061 43.73398 40.90230
#
# Velocity S-wave (km/s) = 4.10512 4.39987 4.25505
# Velocity P-wave (km/s) = 6.87539 7.35223 7.11781
#
# Compressibility (1/GPa) = 0.01784757
#
# Stress axis : x y z
#
# Youngs Moduli (GPa) = 123.65690 79.89571 70.04713
#
# Poissons Ratio (x) = 0.18492 0.14290
# Poissons Ratio (y) = 0.28621 0.29149
# Poissons Ratio (z) = 0.25226 0.33247
#
# Static dielectric constant tensor:
#      x y z
#    x 3.440830 0.328490 -0.259680 
#    y 0.328490 3.950060 -0.043980 
#    z -0.259680 -0.043980 3.992560 
# 
# 
# High freq. dielectric constant tensor:
#      x y z
#    x 1.923500 0.001690 0.008550 
#    y 0.001690 1.886010 -0.005260 
#    z 0.008550 -0.005260 1.904850 
# 
# From -- ./inp_files/225833.got.cif
#   From: 2010.06.25/outbox.cif.g09.slc.cpg/sg2_113_cif.got.tgz:225833.got - 2010.06.27 13:26:56.
