data_PCOD8037146
_publ_section_title
;
Structure prediction by ZEFSAII (Michael W. Deem and Ramdas Pophale) SiO2 
 PCOD8037146
Probable space group: P -1
;
_chemical_formula_sum "Si O2"
_cell_formula_units_Z 16
_cell_length_a 22.582898
_cell_length_b 9.267407
_cell_length_c 9.638301
_cell_angle_alpha 149.759550
_cell_angle_beta 44.932449
_cell_angle_gamma 124.995333
_cell_volume 713.374297
_symmetry_space_group_name_H-M "P -1"
_symmetry_group_IT_number 2
_symmetry_cell_setting 'triclinic'
loop_
_space_group_symop_operation_xyz
x,y,z
-x,-y,-z
loop_
_atom_site_type_symbol
_atom_site_label
_atom_site_fract_x
_atom_site_fract_y
_atom_site_fract_z
Si Si1 0.238621 0.785376 0.232976
Si Si2 0.530830 0.777659 0.883881
Si Si3 0.022797 0.554625 0.849705
Si Si4 0.306328 0.969557 0.738050
Si Si5 0.114738 0.087711 0.122550
Si Si6 0.128956 0.293379 0.968030
Si Si7 0.362051 0.801335 0.804138
Si Si8 0.361589 0.550678 0.061476
O O1 0.312273 0.598923 0.039363
O O2 0.208294 0.071347 0.607110
O O3 0.159426 0.608933 0.191128
O O4 0.278354 0.870138 0.092394
O O5 0.592480 0.516094 0.498933
O O6 0.454835 0.642799 0.972607
O O7 0.500000 0.000000 0.000000
O O8 0.577251 0.950476 0.065782
O O9 0.053591 0.256420 0.475815
O O10 0.000000 0.500000 0.000000
O O11 0.941801 0.710706 0.035019
O O12 0.098317 0.755352 0.882144
O O13 0.333900 0.804963 0.695531
O O14 0.310209 0.730131 0.414631
O O15 0.210996 0.121166 0.029602
O O16 0.368065 0.212462 0.804908
O O17 0.092497 0.209877 0.107450
#
# Coordination Sequence:
#
# PCOD8037146 Si02
#       8
#     2   2   2   2   2   2   2   2
#     4  12  24  44  71 102 133 182 237 279 333 413
#     4  12  26  45  72 101 141 185 232 288 344 411
#     4  12  28  44  71 104 140 177 226 281 346 402
#     4  12  27  45  72 104 140 179 231 290 347 404
#     4  12  24  48  70  98 140 182 223 278 342 413
#     4  12  25  45  71 102 135 185 229 280 337 411
#     4  12  28  44  70 106 138 184 230 290 351 401
#     4  12  24  46  71  99 138 183 234 284 342 415
#
# _framework density 22.428616999999999
#
# number of rings (size 3 to 8) (size 9 to 14) (size 15 to 20)
#    0.000    0.000    3.750    6.000    5.250    3.000 
#    0.000    0.000    0.000    0.000    0.000    0.000 
#    0.000    0.000    0.000    0.000    0.000    0.000 
#
# Total GULP energy -198573.368368 kJ/mol
# GULP energy per Si atom -12410.835523 kJ/mol
# Density = 2.237757 g / cm^3
# Si number density = 22.428617 Si / 1000 Ang^3
#
#
#
# Elastic Constant Matrix: (Units=GPa)
#
#
# Indices 1 2 3 4 5 6 
#
# 1 91.1300 53.5435 19.9542 -8.9599 11.3027 -2.9673
# 2 53.5435 117.2948 7.1244 -6.1688 13.8556 1.4716
# 3 19.9542 7.1244 93.5182 -4.6923 9.8970 -2.0339
# 4 -8.9599 -6.1688 -4.6923 38.9013 5.4874 10.1673
# 5 11.3027 13.8556 9.8970 5.4874 27.0965 3.2009
# 6 -2.9673 1.4716 -2.0339 10.1673 3.2009 34.9373
#
#
#
# Elastic Compliance Matrix: (Units=1/GPa)
#
#
# Indices 1 2 3 4 5 6 
#
# 1 0.016124 -0.006737 -0.002460 0.002497 -0.003013 0.001059
# 2 -0.006737 0.012079 0.000968 0.001299 -0.003859 -0.001049
# 3 -0.002460 0.000968 0.011657 0.001469 -0.004068 0.000374
# 4 0.002497 0.001299 0.001469 0.029722 -0.007348 -0.007734
# 5 -0.003013 -0.003859 -0.004068 -0.007348 0.043365 -0.002165
# 6 0.001059 -0.001049 0.000374 -0.007734 -0.002165 0.031228
#
#
# Mechanical properties :
#
#
# Convention : Reuss Voigt Hill
#
# Bulk Modulus (GPa) = 42.73100 51.46523 47.09812
# Shear Modulus (GPa) = 29.68529 34.94174 32.31352
#
# Velocity S-wave (km/s) = 3.64200 3.95132 3.79981
# Velocity P-wave (km/s) = 6.06456 6.61916 6.34792
#
# Compressibility (1/GPa) = 0.02340221
#
# Stress axis : x y z
#
# Youngs Moduli (GPa) = 62.01925 82.78518 85.78809
#
# Poissons Ratio (x) = 0.55773 0.21104
# Poissons Ratio (y) = 0.41783 -0.08305
# Poissons Ratio (z) = 0.15257 -0.08014
#
# Static dielectric constant tensor:
#      x y z
#    x 4.026910 0.086190 0.065930 
#    y 0.086190 4.055180 0.021280 
#    z 0.065930 0.021280 4.036180 
# 
# 
# High freq. dielectric constant tensor:
#      x y z
#    x 1.887690 0.005380 0.008460 
#    y 0.005380 1.892920 0.000670 
#    z 0.008460 0.000670 1.895140 
# 
# From -- ./inp_files/53641.got.cif
#   From: 2010.06.25/outbox.cif.g09.slc.cpg/sg2_27_cif.got.tgz:53641.got - 2010.06.27 13:26:56.
