data_PCOD8037861
_publ_section_title
;
Structure prediction by ZEFSAII (Michael W. Deem and Ramdas Pophale) SiO2 
 PCOD8037861
Probable space group: P -1
;
_chemical_formula_sum "Si O2"
_cell_formula_units_Z 16
_cell_length_a 6.480631
_cell_length_b 16.683750
_cell_length_c 11.815189
_cell_angle_alpha 58.383017
_cell_angle_beta 54.517112
_cell_angle_gamma 75.972443
_cell_volume 882.294208
_symmetry_space_group_name_H-M "P -1"
_symmetry_group_IT_number 2
_symmetry_cell_setting 'triclinic'
loop_
_space_group_symop_operation_xyz
x,y,z
-x,-y,-z
loop_
_atom_site_type_symbol
_atom_site_label
_atom_site_fract_x
_atom_site_fract_y
_atom_site_fract_z
Si Si1 0.951536 0.367202 0.057905
Si Si2 0.787577 0.540724 0.883234
Si Si3 0.712343 0.037200 0.210301
Si Si4 0.617231 0.689809 0.685654
Si Si5 0.755673 0.860696 0.652793
Si Si6 0.890449 0.830465 0.877180
Si Si7 0.614901 0.093830 0.954677
Si Si8 0.100648 0.144502 0.630066
O O1 0.670385 0.353028 0.216215
O O2 0.153338 0.397513 0.068559
O O3 0.029885 0.273276 0.041578
O O4 0.957396 0.450798 0.898638
O O5 0.811962 0.610319 0.714641
O O6 0.500000 0.500000 0.000000
O O7 0.437906 0.059799 0.325701
O O8 0.938467 0.091102 0.168493
O O9 0.735031 0.925826 0.300370
O O10 0.751546 0.064514 0.047072
O O11 0.598693 0.759880 0.748571
O O12 0.741946 0.751186 0.495078
O O13 0.928114 0.850541 0.716164
O O14 0.932339 0.890713 0.465075
O O15 0.598173 0.835696 0.002046
O O16 0.823165 0.150231 0.766993
O O17 0.500000 0.000000 0.000000
#
# Coordination Sequence:
#
# PCOD8037861 Si02
#       8
#     2   2   2   2   2   2   2   2
#     4  10  17  32  55  83 109 143 171 224 279 329
#     4   9  18  31  54  83 115 134 170 223 284 332
#     4  11  21  37  55  76 110 146 192 229 265 325
#     4   9  18  33  51  81 110 135 177 223 272 318
#     4   9  20  33  52  80 108 135 180 230 274 308
#     4  11  20  35  57  80 113 143 187 225 270 328
#     4  11  24  39  51  75 111 156 193 224 264 322
#     4  10  20  38  53  75 114 150 182 228 271 316
#
# _framework density 18.134540999999999
#
# number of rings (size 3 to 8) (size 9 to 14) (size 15 to 20)
#    0.750    1.250    3.750    0.750    0.000    0.500 
#    6.750    0.000    0.000    0.750    0.000    8.750 
#    0.000    0.000    0.000    0.000    0.000    0.000 
#
# Total GULP energy -198260.694051 kJ/mol
# GULP energy per Si atom -12391.293378 kJ/mol
# Density = 1.809327 g / cm^3
# Si number density = 18.134541 Si / 1000 Ang^3
#
#
#
# Elastic Constant Matrix: (Units=GPa)
#
#
# Indices 1 2 3 4 5 6 
#
# 1 94.5205 29.9036 39.5310 -7.6006 8.7974 1.0074
# 2 29.9036 54.9162 45.3107 -16.0796 6.8113 -22.1857
# 3 39.5310 45.3107 110.6251 -2.7574 3.0744 -11.4599
# 4 -7.6006 -16.0796 -2.7574 34.7920 0.5699 6.6611
# 5 8.7974 6.8113 3.0744 0.5699 16.9238 -5.5049
# 6 1.0074 -22.1857 -11.4599 6.6611 -5.5049 40.2559
#
#
#
# Elastic Compliance Matrix: (Units=1/GPa)
#
#
# Indices 1 2 3 4 5 6 
#
# 1 0.014727 -0.007131 -0.002775 0.000975 -0.006302 -0.006112
# 2 -0.007131 0.046371 -0.013976 0.015385 -0.006998 0.018253
# 3 -0.002775 -0.013976 0.015320 -0.005566 0.003880 -0.001820
# 4 0.000975 0.015385 -0.005566 0.035734 -0.006886 0.000016
# 5 -0.006302 -0.006998 0.003880 -0.006886 0.067224 0.007738
# 6 -0.006112 0.018253 -0.001820 0.000016 0.007738 0.035591
#
#
# Mechanical properties :
#
#
# Convention : Reuss Voigt Hill
#
# Bulk Modulus (GPa) = 34.90013 54.39472 44.64743
# Shear Modulus (GPa) = 18.36318 28.08210 23.22264
#
# Velocity S-wave (km/s) = 3.18560 3.93942 3.58239
# Velocity P-wave (km/s) = 5.72867 7.12406 6.46413
#
# Compressibility (1/GPa) = 0.02865319
#
# Stress axis : x y z
#
# Youngs Moduli (GPa) = 67.90431 21.56515 65.27220
#
# Poissons Ratio (x) = 0.15379 0.18114
# Poissons Ratio (y) = 0.48426 0.91223
# Poissons Ratio (z) = 0.18845 0.30139
#
# Static dielectric constant tensor:
#      x y z
#    x 3.522030 -0.200890 0.190290 
#    y -0.200890 3.460750 -0.264980 
#    z 0.190290 -0.264980 3.266190 
# 
# 
# High freq. dielectric constant tensor:
#      x y z
#    x 1.714680 -0.008560 0.006840 
#    y -0.008560 1.689010 -0.024130 
#    z 0.006840 -0.024130 1.674050 
# 
# From -- ./inp_files/368954.got.cif
#   From: 2010.06.25/outbox.cif.g09.slc.cpg/sg2_185_cif.got.tgz:368954.got - 2010.06.27 13:26:56.
