data_PCOD8037370
_publ_section_title
;
Structure prediction by ZEFSAII (Michael W. Deem and Ramdas Pophale) SiO2 
 PCOD8037370
Probable space group: P -1
;
_chemical_formula_sum "Si O2"
_cell_formula_units_Z 14
_cell_length_a 16.415799
_cell_length_b 11.011332
_cell_length_c 11.110577
_cell_angle_alpha 132.126856
_cell_angle_beta 42.223166
_cell_angle_gamma 147.472249
_cell_volume 719.707048
_symmetry_space_group_name_H-M "P -1"
_symmetry_group_IT_number 2
_symmetry_cell_setting 'triclinic'
loop_
_space_group_symop_operation_xyz
x,y,z
-x,-y,-z
loop_
_atom_site_type_symbol
_atom_site_label
_atom_site_fract_x
_atom_site_fract_y
_atom_site_fract_z
Si Si1 0.229811 0.638721 0.732479
Si Si2 0.745483 0.107117 0.802187
Si Si3 0.990024 0.236287 0.255424
Si Si4 0.086915 0.483969 0.542379
Si Si5 0.912030 0.186359 0.905352
Si Si6 0.864909 0.783149 0.148777
Si Si7 0.594050 0.293017 0.202209
O O1 0.219689 0.563991 0.556700
O O2 0.400166 0.739203 0.680672
O O3 0.082352 0.435533 0.845021
O O4 0.202226 0.809217 0.877310
O O5 0.803662 0.046060 0.810177
O O6 0.896679 0.279029 0.659618
O O7 0.598622 0.871819 0.737529
O O8 0.686267 0.228896 0.992489
O O9 0.114369 0.392677 0.336743
O O10 0.885316 0.301203 0.382320
O O11 0.106657 0.288842 0.053533
O O12 0.855362 0.967978 0.257929
O O13 0.975245 0.090840 0.850674
O O14 0.688282 0.552406 0.242018
#
# Coordination Sequence:
#
# PCOD8037370 Si02
#       7
#     2   2   2   2   2   2   2
#     4   8  13  25  46  68  90 115 152 193 224 263
#     4   9  16  28  50  73  93 117 151 195 232 270
#     4  10  20  28  50  66  98 122 156 188 218 272
#     4  10  17  32  47  73  89 123 155 189 226 272
#     4   8  13  25  46  68  90 115 152 193 224 263
#     4  10  17  32  47  73  89 123 155 189 226 272
#     4   9  16  28  50  73  93 117 151 195 232 270
#
# _framework density 19.452358
#
# number of rings (size 3 to 8) (size 9 to 14) (size 15 to 20)
#    0.000    2.857    2.857    1.714    0.000    0.000 
#    0.000    7.143    0.000   10.286    0.000    0.000 
#    0.000    0.000    0.000    0.000    0.000    0.000 
#
# Total GULP energy -173453.490247 kJ/mol
# GULP energy per Si atom -12389.535018 kJ/mol
# Density = 1.940808 g / cm^3
# Si number density = 19.452358 Si / 1000 Ang^3
#
#
#
# Elastic Constant Matrix: (Units=GPa)
#
#
# Indices 1 2 3 4 5 6 
#
# 1 125.3691 60.8470 35.9107 7.8949 31.6106 18.3104
# 2 60.8470 81.0773 11.0220 17.6116 -2.5322 3.5144
# 3 35.9107 11.0220 45.2388 15.4554 15.8172 -1.5457
# 4 7.8949 17.6116 15.4554 18.7994 2.4962 0.2979
# 5 31.6106 -2.5322 15.8172 2.4962 25.3478 7.4316
# 6 18.3104 3.5144 -1.5457 0.2979 7.4316 34.3031
#
#
#
# Elastic Compliance Matrix: (Units=1/GPa)
#
#
# Indices 1 2 3 4 5 6 
#
# 1 0.049763 -0.045869 -0.029586 0.053191 -0.049633 -0.012905
# 2 -0.045869 0.058165 0.027221 -0.064338 0.049556 0.009574
# 3 -0.029586 0.027221 0.059449 -0.062752 0.004208 0.015316
# 4 0.053191 -0.064338 -0.062752 0.148744 -0.043409 -0.016516
# 5 -0.049633 0.049556 0.004208 -0.043409 0.108385 -0.001499
# 6 -0.012905 0.009574 0.015316 -0.016516 -0.001499 0.036218
#
#
# Mechanical properties :
#
#
# Convention : Reuss Voigt Hill
#
# Bulk Modulus (GPa) = 14.10265 51.91604 33.00934
# Shear Modulus (GPa) = 8.60836 25.28376 16.94606
#
# Velocity S-wave (km/s) = 2.10594 3.60916 2.95474
# Velocity P-wave (km/s) = 3.63027 6.64189 5.35227
#
# Compressibility (1/GPa) = 0.07090868
#
# Stress axis : x y z
#
# Youngs Moduli (GPa) = 20.09530 17.19232 16.82109
#
# Poissons Ratio (x) = 0.78859 0.49767
# Poissons Ratio (y) = 0.92175 -0.45788
# Poissons Ratio (z) = 0.59454 -0.46799
#
# Static dielectric constant tensor:
#      x y z
#    x 3.958590 0.050600 0.317790 
#    y 0.050600 3.274550 0.212090 
#    z 0.317790 0.212090 3.221100 
# 
# 
# High freq. dielectric constant tensor:
#      x y z
#    x 1.768320 -0.006050 0.030550 
#    y -0.006050 1.718290 0.020040 
#    z 0.030550 0.020040 1.722800 
# 
# From -- ./inp_files/167954.got.cif
#   From: 2010.06.25/outbox.cif.g09.slc.cpg/sg2_84_cif.got.tgz:167954.got - 2010.06.27 13:26:56.
