data_PCOD8037279
_publ_section_title
;
Structure prediction by ZEFSAII (Michael W. Deem and Ramdas Pophale) SiO2 
 PCOD8037279
Probable space group: P -1
;
_chemical_formula_sum "Si O2"
_cell_formula_units_Z 16
_cell_length_a 8.604866
_cell_length_b 12.766333
_cell_length_c 18.447104
_cell_angle_alpha 151.448490
_cell_angle_beta 50.981962
_cell_angle_gamma 128.323965
_cell_volume 740.119775
_symmetry_space_group_name_H-M "P -1"
_symmetry_group_IT_number 2
_symmetry_cell_setting 'triclinic'
loop_
_space_group_symop_operation_xyz
x,y,z
-x,-y,-z
loop_
_atom_site_type_symbol
_atom_site_label
_atom_site_fract_x
_atom_site_fract_y
_atom_site_fract_z
Si Si1 0.931653 0.907474 0.848256
Si Si2 0.656904 0.022206 0.769228
Si Si3 0.506648 0.671590 0.885092
Si Si4 0.942383 0.749233 0.589846
Si Si5 0.132880 0.813552 0.334184
Si Si6 0.656584 0.226322 0.601165
Si Si7 0.251170 0.687858 0.692535
Si Si8 0.158966 0.626365 0.846362
O O1 0.717270 0.833577 0.905703
O O2 0.945000 0.767385 0.686513
O O3 0.108793 0.868385 0.826958
O O4 0.958416 0.168625 0.981857
O O5 0.696712 0.105562 0.726462
O O6 0.859283 0.955591 0.703506
O O7 0.483814 0.803025 0.685822
O O8 0.599262 0.224103 0.954445
O O9 0.533845 0.426361 0.750382
O O10 0.371481 0.663712 0.848369
O O11 0.795675 0.517938 0.473708
O O12 0.170583 0.750549 0.496708
O O13 0.244134 0.758016 0.339876
O O14 0.986549 0.592470 0.213990
O O15 0.000000 0.000000 0.500000
O O16 0.500000 0.000000 0.500000
O O17 0.206312 0.592291 0.727848
#
# Coordination Sequence:
#
# PCOD8037279 Si02
#       8
#     2   2   2   2   2   2   2   2
#     4  12  25  45  73 109 146 187 240 303 362 421
#     4  12  27  45  75 106 145 189 243 294 364 428
#     4  12  26  47  72 107 146 189 243 296 360 429
#     4  12  25  48  71 109 145 191 241 294 359 434
#     4  12  26  49  72 106 144 190 241 296 358 429
#     4  12  28  47  73 104 148 192 239 295 362 431
#     4  12  25  45  75 107 142 190 246 296 354 427
#     4  12  24  46  76  99 148 192 234 298 360 421
#
# _framework density 21.618120999999999
#
# number of rings (size 3 to 8) (size 9 to 14) (size 15 to 20)
#    0.000    0.000    6.250    3.000    3.500    3.000 
#    0.000    0.000    0.000    0.000    0.000    0.000 
#    0.000    0.000    0.000    0.000    0.000    0.000 
#
# Total GULP energy -198566.687248 kJ/mol
# GULP energy per Si atom -12410.417953 kJ/mol
# Density = 2.156892 g / cm^3
# Si number density = 21.618121 Si / 1000 Ang^3
#
#
#
# Elastic Constant Matrix: (Units=GPa)
#
#
# Indices 1 2 3 4 5 6 
#
# 1 85.8073 19.1636 22.2964 -1.5703 -11.5009 -6.4944
# 2 19.1636 96.9691 43.8716 -0.5359 2.9459 -0.4484
# 3 22.2964 43.8716 141.5093 8.1795 -10.8653 -0.1101
# 4 -1.5703 -0.5359 8.1795 44.7786 -4.7034 7.5314
# 5 -11.5009 2.9459 -10.8653 -4.7034 40.8622 7.7080
# 6 -6.4944 -0.4484 -0.1101 7.5314 7.7080 36.2431
#
#
#
# Elastic Compliance Matrix: (Units=1/GPa)
#
#
# Indices 1 2 3 4 5 6 
#
# 1 0.013002 -0.002127 -0.001177 0.000752 0.003315 0.001439
# 2 -0.002127 0.012514 -0.003762 0.000469 -0.002484 0.000193
# 3 -0.001177 -0.003762 0.008664 -0.001374 0.002162 -0.000406
# 4 0.000752 0.000469 -0.001374 0.023939 0.003626 -0.005610
# 5 0.003315 -0.002484 0.002162 0.003626 0.027724 -0.006080
# 6 0.001439 0.000193 -0.000406 -0.005610 -0.006080 0.030309
#
#
# Mechanical properties :
#
#
# Convention : Reuss Voigt Hill
#
# Bulk Modulus (GPa) = 49.88232 54.99433 52.43832
# Shear Modulus (GPa) = 36.50539 40.30704 38.40621
#
# Velocity S-wave (km/s) = 4.11377 4.32267 4.21952
# Velocity P-wave (km/s) = 6.75933 7.09987 6.93170
#
# Compressibility (1/GPa) = 0.02004718
#
# Stress axis : x y z
#
# Youngs Moduli (GPa) = 76.91238 79.91077 115.42573
#
# Poissons Ratio (x) = 0.16996 0.13586
# Poissons Ratio (y) = 0.16358 0.43425
# Poissons Ratio (z) = 0.09053 0.30064
#
# Static dielectric constant tensor:
#      x y z
#    x 4.175410 -0.026080 -0.066850 
#    y -0.026080 3.836810 0.066310 
#    z -0.066850 0.066310 4.049000 
# 
# 
# High freq. dielectric constant tensor:
#      x y z
#    x 1.864300 -0.006210 -0.002330 
#    y -0.006210 1.847950 0.004800 
#    z -0.002330 0.004800 1.866920 
# 
# From -- ./inp_files/242960.got.cif
#   From: 2010.06.25/outbox.cif.g09.slc.cpg/sg2_122_cif.got.tgz:242960.got - 2010.06.27 13:26:56.
