data_PCOD8037607
_publ_section_title
;
Structure prediction by ZEFSAII (Michael W. Deem and Ramdas Pophale) SiO2 
 PCOD8037607
Probable space group: P -1
;
_chemical_formula_sum "Si O2"
_cell_formula_units_Z 10
_cell_length_a 8.236093
_cell_length_b 8.805799
_cell_length_c 8.269478
_cell_angle_alpha 119.085654
_cell_angle_beta 51.355199
_cell_angle_gamma 126.403948
_cell_volume 370.592546
_symmetry_space_group_name_H-M "P -1"
_symmetry_group_IT_number 2
_symmetry_cell_setting 'triclinic'
loop_
_space_group_symop_operation_xyz
x,y,z
-x,-y,-z
loop_
_atom_site_type_symbol
_atom_site_label
_atom_site_fract_x
_atom_site_fract_y
_atom_site_fract_z
Si Si1 0.932295 0.910158 0.669863
Si Si2 0.446794 0.509534 0.349815
Si Si3 0.182111 0.921586 0.893078
Si Si4 0.879681 0.514802 0.920334
Si Si5 0.675936 0.202901 0.613856
O O1 0.161730 0.900625 0.604235
O O2 0.744660 0.694894 0.682469
O O3 0.000000 0.000000 0.500000
O O4 0.822264 0.041477 0.891184
O O5 0.500000 0.500000 0.500000
O O6 0.360081 0.671285 0.442612
O O7 0.663010 0.555908 0.123016
O O8 0.073756 0.695496 0.801461
O O9 0.438518 0.026299 0.718431
O O10 0.000000 0.000000 0.000000
O O11 0.802554 0.330767 0.756796
O O12 0.000000 0.500000 0.000000
#
# Coordination Sequence:
#
# PCOD8037607 Si02
#       5
#     2   2   2   2   2
#     4  12  28  48  76 114 153 197 258 315 375 455
#     4  12  25  48  74 112 154 199 257 313 379 454
#     4  12  26  49  78 112 150 197 258 309 384 453
#     4  12  26  48  80 111 153 204 250 313 385 452
#     4  12  27  53  78 108 159 204 248 321 378 451
#
# _framework density 26.983816000000001
#
# number of rings (size 3 to 8) (size 9 to 14) (size 15 to 20)
#    0.000    0.000    4.000    6.000    2.800    4.000 
#    3.600    0.000    0.000    0.000    0.000    0.000 
#    0.000    0.000    0.000    0.000    0.000    0.000 
#
# Total GULP energy -123972.381721 kJ/mol
# GULP energy per Si atom -12397.238172 kJ/mol
# Density = 2.692240 g / cm^3
# Si number density = 26.983816 Si / 1000 Ang^3
#
#
#
# Elastic Constant Matrix: (Units=GPa)
#
#
# Indices 1 2 3 4 5 6 
#
# 1 147.4901 47.8668 29.4352 -10.8138 -2.2751 2.6568
# 2 47.8668 192.6370 34.1420 -30.8591 -10.9793 34.3740
# 3 29.4352 34.1420 175.8552 -14.6023 -25.8590 14.7146
# 4 -10.8138 -30.8591 -14.6023 39.3305 0.8368 4.1078
# 5 -2.2751 -10.9793 -25.8590 0.8368 48.1276 -3.3495
# 6 2.6568 34.3740 14.7146 4.1078 -3.3495 58.1530
#
#
#
# Elastic Compliance Matrix: (Units=1/GPa)
#
#
# Indices 1 2 3 4 5 6 
#
# 1 0.007587 -0.001889 -0.001061 0.000118 -0.000575 0.000997
# 2 -0.001889 0.007505 -0.000101 0.005795 0.001143 -0.004668
# 3 -0.001061 -0.000101 0.006693 0.002203 0.003377 -0.001546
# 4 0.000118 0.005795 0.002203 0.031429 0.001539 -0.006119
# 5 -0.000575 0.001143 0.003377 0.001539 0.022778 -0.000300
# 6 0.000997 -0.004668 -0.001546 -0.006119 -0.000300 0.020716
#
#
# Mechanical properties :
#
#
# Convention : Reuss Voigt Hill
#
# Bulk Modulus (GPa) = 63.76967 82.09670 72.93318
# Shear Modulus (GPa) = 46.28055 56.09143 51.18599
#
# Velocity S-wave (km/s) = 4.14590 4.56423 4.36008
# Velocity P-wave (km/s) = 6.82655 7.63326 7.24115
#
# Compressibility (1/GPa) = 0.01568144
#
# Stress axis : x y z
#
# Youngs Moduli (GPa) = 131.80837 133.25114 149.41697
#
# Poissons Ratio (x) = 0.25169 0.15859
# Poissons Ratio (y) = 0.24896 0.01511
# Poissons Ratio (z) = 0.13990 0.01347
#
# Static dielectric constant tensor:
#      x y z
#    x 5.451470 0.083780 -0.454270 
#    y 0.083780 5.134660 0.943600 
#    z -0.454270 0.943600 10.029220 
# 
# 
# High freq. dielectric constant tensor:
#      x y z
#    x 2.103210 0.011430 0.009410 
#    y 0.011430 2.101120 -0.005920 
#    z 0.009410 -0.005920 2.129480 
# 
# From -- ./inp_files/143879.got.cif
#   From: 2010.06.25/outbox.cif.g09.slc.cpg/sg2_72_cif.got.tgz:143879.got - 2010.06.27 13:26:56.
