data_PCOD8037098
_publ_section_title
;
Structure prediction by ZEFSAII (Michael W. Deem and Ramdas Pophale) SiO2 
 PCOD8037098
Probable space group: P -1
;
_chemical_formula_sum "Si O2"
_cell_formula_units_Z 16
_cell_length_a 12.291660
_cell_length_b 15.537068
_cell_length_c 15.312688
_cell_angle_alpha 35.725313
_cell_angle_beta 28.946914
_cell_angle_gamma 56.454311
_cell_volume 685.608252
_symmetry_space_group_name_H-M "P -1"
_symmetry_group_IT_number 2
_symmetry_cell_setting 'triclinic'
loop_
_space_group_symop_operation_xyz
x,y,z
-x,-y,-z
loop_
_atom_site_type_symbol
_atom_site_label
_atom_site_fract_x
_atom_site_fract_y
_atom_site_fract_z
Si Si1 0.846299 0.757800 0.459821
Si Si2 0.056633 0.437359 0.302447
Si Si3 0.130859 0.171974 0.207912
Si Si4 0.757767 0.298217 0.355257
Si Si5 0.447425 0.785437 0.823439
Si Si6 0.729157 0.979122 0.169476
Si Si7 0.472140 0.819920 0.193591
Si Si8 0.445660 0.412930 0.938964
O O1 0.837793 0.645070 0.637555
O O2 0.681879 0.843106 0.537706
O O3 0.702881 0.618203 0.594627
O O4 0.156039 0.906474 0.094806
O O5 0.737416 0.330195 0.603657
O O6 0.167788 0.632504 0.099276
O O7 0.186444 0.421669 0.135380
O O8 0.884266 0.185309 0.344221
O O9 0.240957 0.149942 0.056231
O O10 0.380159 0.338900 0.947539
O O11 0.000000 0.000000 0.500000
O O12 0.623851 0.257801 0.578402
O O13 0.509936 0.223277 0.521366
O O14 0.000000 0.500000 0.000000
O O15 0.404971 0.943313 0.740330
O O16 0.510801 0.716527 0.924190
O O17 0.000000 0.000000 0.000000
O O18 0.500000 0.000000 0.000000
#
# Coordination Sequence:
#
# PCOD8037098 Si02
#       8
#     2   2   2   2   2   2   2   2
#     4   9  21  39  66 101 139 168 231 299 351 412
#     4   9  18  37  67 106 139 171 225 304 358 415
#     4  12  24  42  74 105 142 192 242 294 357 429
#     4  12  30  51  70 105 156 190 233 300 369 435
#     4   9  21  39  65 104 137 172 229 300 357 400
#     4  12  28  44  69  94 131 193 243 279 342 439
#     4  12  24  42  73 108 142 191 246 293 357 433
#     4   9  18  37  68 104 138 172 220 299 364 407
#
# _framework density 23.336940999999999
#
# number of rings (size 3 to 8) (size 9 to 14) (size 15 to 20)
#    0.000    1.500    2.500    3.000    5.250    5.000 
#    0.000    0.000    0.000    0.000    0.000    0.000 
#    0.000    0.000    0.000    0.000    0.000    0.000 
#
# Total GULP energy -198219.927525 kJ/mol
# GULP energy per Si atom -12388.745470 kJ/mol
# Density = 2.328383 g / cm^3
# Si number density = 23.336941 Si / 1000 Ang^3
#
#
#
# Elastic Constant Matrix: (Units=GPa)
#
#
# Indices 1 2 3 4 5 6 
#
# 1 72.3867 35.6823 30.9365 -2.4151 -17.0656 4.6394
# 2 35.6823 122.5358 50.1226 19.1160 0.4220 8.8704
# 3 30.9365 50.1226 132.8114 -3.7427 -7.3878 13.8496
# 4 -2.4151 19.1160 -3.7427 38.6911 7.9651 -3.0752
# 5 -17.0656 0.4220 -7.3878 7.9651 42.9998 0.1985
# 6 4.6394 8.8704 13.8496 -3.0752 0.1985 29.5242
#
#
#
# Elastic Compliance Matrix: (Units=1/GPa)
#
#
# Indices 1 2 3 4 5 6 
#
# 1 0.018823 -0.004955 -0.002044 0.001998 0.006799 -0.000348
# 2 -0.004955 0.012205 -0.003519 -0.006528 -0.001473 -0.001908
# 3 -0.002044 -0.003519 0.009732 0.002214 0.000499 -0.002960
# 4 0.001998 -0.006528 0.002214 0.030631 -0.004454 0.003829
# 5 0.006799 -0.001473 0.000499 -0.004454 0.026887 -0.001505
# 6 -0.000348 -0.001908 -0.002960 0.003829 -0.001505 0.036296
#
#
# Mechanical properties :
#
#
# Convention : Reuss Voigt Hill
#
# Bulk Modulus (GPa) = 50.69806 62.35741 56.52774
# Shear Modulus (GPa) = 30.82941 36.30918 33.56929
#
# Velocity S-wave (km/s) = 3.63858 3.94873 3.79682
# Velocity P-wave (km/s) = 6.27884 6.89699 6.59516
#
# Compressibility (1/GPa) = 0.01972462
#
# Stress axis : x y z
#
# Youngs Moduli (GPa) = 53.12765 81.93577 102.75091
#
# Poissons Ratio (x) = 0.40600 0.20998
# Poissons Ratio (y) = 0.26325 0.36156
# Poissons Ratio (z) = 0.10857 0.28831
#
# Static dielectric constant tensor:
#      x y z
#    x 4.184320 0.287590 -0.390990 
#    y 0.287590 4.220510 -0.068140 
#    z -0.390990 -0.068140 4.936410 
# 
# 
# High freq. dielectric constant tensor:
#      x y z
#    x 1.905540 0.013160 -0.016380 
#    y 0.013160 1.921640 0.005610 
#    z -0.016380 0.005610 1.929960 
# 
# From -- ./inp_files/522242.got.cif
#   From: 2010.06.25/outbox.cif.g09.slc.cpg/sg2_262_cif.got.tgz:522242.got - 2010.06.27 13:26:56.
