data_PCOD8037214
_publ_section_title
;
Structure prediction by ZEFSAII (Michael W. Deem and Ramdas Pophale) SiO2 
 PCOD8037214
Probable space group: P -1
;
_chemical_formula_sum "Si O2"
_cell_formula_units_Z 16
_cell_length_a 9.545086
_cell_length_b 11.553232
_cell_length_c 14.288181
_cell_angle_alpha 102.473679
_cell_angle_beta 46.163681
_cell_angle_gamma 66.025697
_cell_volume 681.333116
_symmetry_space_group_name_H-M "P -1"
_symmetry_group_IT_number 2
_symmetry_cell_setting 'triclinic'
loop_
_space_group_symop_operation_xyz
x,y,z
-x,-y,-z
loop_
_atom_site_type_symbol
_atom_site_label
_atom_site_fract_x
_atom_site_fract_y
_atom_site_fract_z
Si Si1 0.285677 0.643475 0.860261
Si Si2 0.296110 0.520133 0.029016
Si Si3 0.723798 0.002020 0.871239
Si Si4 0.441817 0.627930 0.478260
Si Si5 0.676439 0.110113 0.713230
Si Si6 0.807828 0.648943 0.413588
Si Si7 0.576955 0.011877 0.222265
Si Si8 0.355752 0.306969 0.232741
O O1 0.202763 0.640544 0.002297
O O2 0.474473 0.451486 0.680759
O O3 0.516193 0.646493 0.755555
O O4 0.953846 0.837374 0.997987
O O5 0.453664 0.326036 0.880280
O O6 0.500000 0.500000 0.000000
O O7 0.005533 0.634546 0.250358
O O8 0.083279 0.827909 0.705536
O O9 0.753973 0.996152 0.746879
O O10 0.500000 0.000000 0.000000
O O11 0.567536 0.195295 0.021400
O O12 0.500000 0.500000 0.500000
O O13 0.679148 0.615665 0.395443
O O14 0.509088 0.084353 0.728019
O O15 0.000000 0.000000 0.500000
O O16 0.516432 0.867065 0.622905
O O17 0.999412 0.504786 0.392407
O O18 0.394626 0.162239 0.244440
#
# Coordination Sequence:
#
# PCOD8037214 Si02
#       8
#     2   2   2   2   2   2   2   2
#     4  12  27  48  76 111 155 196 254 315 375 460
#     4  12  25  49  75 107 153 204 255 306 380 459
#     4  12  24  45  75 106 149 197 249 315 379 445
#     4  12  27  44  72 114 152 194 251 314 383 446
#     4  12  26  44  74 109 152 197 253 308 380 458
#     4  12  26  46  76 110 154 202 252 316 381 450
#     4  12  27  45  75 113 152 196 259 314 380 448
#     4  12  24  47  77 107 152 200 250 315 382 442
#
# _framework density 23.483371000000002
#
# number of rings (size 3 to 8) (size 9 to 14) (size 15 to 20)
#    0.000    0.000    3.750    6.000    1.750    3.500 
#    0.000    0.000    0.000    0.000    0.000    0.000 
#    0.000    0.000    0.000    0.000    0.000    0.000 
#
# Total GULP energy -198250.330498 kJ/mol
# GULP energy per Si atom -12390.645656 kJ/mol
# Density = 2.342992 g / cm^3
# Si number density = 23.483371 Si / 1000 Ang^3
#
#
#
# Elastic Constant Matrix: (Units=GPa)
#
#
# Indices 1 2 3 4 5 6 
#
# 1 134.9787 26.3890 47.3092 1.8783 0.1341 28.7018
# 2 26.3890 93.6279 15.8454 -12.1552 -5.7295 9.7289
# 3 47.3092 15.8454 120.9328 4.6581 -9.3501 16.7472
# 4 1.8783 -12.1552 4.6581 49.5106 3.7019 1.7901
# 5 0.1341 -5.7295 -9.3501 3.7019 47.1496 2.4675
# 6 28.7018 9.7289 16.7472 1.7901 2.4675 39.8079
#
#
#
# Elastic Compliance Matrix: (Units=1/GPa)
#
#
# Indices 1 2 3 4 5 6 
#
# 1 0.009955 -0.001815 -0.002929 -0.000312 -0.000520 -0.005455
# 2 -0.001815 0.011929 -0.000667 0.003029 0.001165 -0.001534
# 3 -0.002929 -0.000667 0.009984 -0.001076 0.002097 -0.002007
# 4 -0.000312 0.003029 -0.001076 0.021197 -0.001460 -0.000925
# 5 -0.000520 0.001165 0.002097 -0.001460 0.021992 -0.002089
# 6 -0.005455 -0.001534 -0.002007 -0.000925 -0.002089 0.030444
#
#
# Mechanical properties :
#
#
# Convention : Reuss Voigt Hill
#
# Bulk Modulus (GPa) = 47.51811 58.73629 53.12720
# Shear Modulus (GPa) = 40.53852 44.62667 42.58259
#
# Velocity S-wave (km/s) = 4.15934 4.36403 4.26292
# Velocity P-wave (km/s) = 6.58373 7.10346 6.84853
#
# Compressibility (1/GPa) = 0.02104461
#
# Stress axis : x y z
#
# Youngs Moduli (GPa) = 100.45099 83.82901 100.16188
#
# Poissons Ratio (x) = 0.15219 0.29340
# Poissons Ratio (y) = 0.18237 0.06680
# Poissons Ratio (z) = 0.29425 0.05591
#
# Static dielectric constant tensor:
#      x y z
#    x 4.328980 -0.094180 0.229220 
#    y -0.094180 4.267160 -0.061280 
#    z 0.229220 -0.061280 4.252610 
# 
# 
# High freq. dielectric constant tensor:
#      x y z
#    x 1.942730 0.008270 0.012360 
#    y 0.008270 1.928990 -0.005790 
#    z 0.012360 -0.005790 1.948490 
# 
# From -- ./inp_files/500527.got.cif
#   From: 2010.06.25/outbox.cif.g09.slc.cpg/sg2_251_cif.got.tgz:500527.got - 2010.06.27 13:26:56.
