data_PCOD8037237
_publ_section_title
;
Structure prediction by ZEFSAII (Michael W. Deem and Ramdas Pophale) SiO2 
 PCOD8037237
Probable space group: P -1
;
_chemical_formula_sum "Si O2"
_cell_formula_units_Z 14
_cell_length_a 12.333245
_cell_length_b 8.648719
_cell_length_c 15.042536
_cell_angle_alpha 58.556674
_cell_angle_beta 152.191552
_cell_angle_gamma 115.901718
_cell_volume 637.406697
_symmetry_space_group_name_H-M "P -1"
_symmetry_group_IT_number 2
_symmetry_cell_setting 'triclinic'
loop_
_space_group_symop_operation_xyz
x,y,z
-x,-y,-z
loop_
_atom_site_type_symbol
_atom_site_label
_atom_site_fract_x
_atom_site_fract_y
_atom_site_fract_z
Si Si1 0.145387 0.161829 0.023147
Si Si2 0.391999 0.870461 0.722798
Si Si3 0.762351 0.439148 0.588852
Si Si4 0.358380 0.191195 0.350449
Si Si5 0.105835 0.204509 0.338061
Si Si6 0.251341 0.512205 0.639715
Si Si7 0.401639 0.813669 0.952953
O O1 0.988485 0.307230 0.810912
O O2 0.345253 0.080323 0.125256
O O3 0.251147 0.256210 0.158692
O O4 0.000000 0.000000 0.000000
O O5 0.344577 0.705220 0.673137
O O6 0.356126 0.815898 0.814497
O O7 0.213716 0.039888 0.524473
O O8 0.527279 0.338699 0.466270
O O9 0.767360 0.613585 0.602422
O O10 0.769406 0.510762 0.472963
O O11 0.150945 0.166886 0.277628
O O12 0.500000 0.000000 0.500000
O O13 0.831708 0.224029 0.151650
O O14 0.000000 0.500000 0.500000
O O15 0.415649 0.351273 0.846576
O O16 0.500000 0.000000 0.000000
#
# Coordination Sequence:
#
# PCOD8037237 Si02
#       7
#     2   2   2   2   2   2   2
#     4  12  25  43  76 104 137 186 239 286 346 422
#     4  12  24  46  71 101 142 186 239 283 347 428
#     4  12  25  46  69 108 141 180 236 294 356 407
#     4  12  24  48  71 105 139 187 240 284 351 423
#     4  12  26  45  70 102 149 183 228 301 353 413
#     4  12  24  46  74 100 141 187 238 288 341 427
#     4  12  27  45  69 109 143 186 234 292 360 408
#
# _framework density 21.963998
#
# number of rings (size 3 to 8) (size 9 to 14) (size 15 to 20)
#    0.000    0.000    4.286    5.571    2.000    0.571 
#    2.571    0.000    0.000    0.000    0.000    0.000 
#    0.000    0.000    0.000    0.000    0.000    0.000 
#
# Total GULP energy -173700.802767 kJ/mol
# GULP energy per Si atom -12407.200198 kJ/mol
# Density = 2.191401 g / cm^3
# Si number density = 21.963998 Si / 1000 Ang^3
#
#
#
# Elastic Constant Matrix: (Units=GPa)
#
#
# Indices 1 2 3 4 5 6 
#
# 1 141.2327 2.1675 23.0842 11.0330 18.7126 15.0448
# 2 2.1675 121.8330 15.1857 1.9009 22.9818 1.8607
# 3 23.0842 15.1857 116.4010 -8.9644 15.2120 7.9169
# 4 11.0330 1.9009 -8.9644 41.3193 0.7939 1.4982
# 5 18.7126 22.9818 15.2120 0.7939 42.5116 4.9857
# 6 15.0448 1.8607 7.9169 1.4982 4.9857 34.7335
#
#
#
# Elastic Compliance Matrix: (Units=1/GPa)
#
#
# Indices 1 2 3 4 5 6 
#
# 1 0.008171 0.000687 -0.001294 -0.002335 -0.003141 -0.002729
# 2 0.000687 0.009247 -0.000745 -0.000678 -0.005037 0.000129
# 3 -0.001294 -0.000745 0.009537 0.002542 -0.002330 -0.001349
# 4 -0.002335 -0.000678 0.002542 0.025430 0.000085 -0.000641
# 5 -0.003141 -0.005037 -0.002330 0.000085 0.028691 -0.001961
# 6 -0.002729 0.000129 -0.001349 -0.000641 -0.001961 0.030582
#
#
# Mechanical properties :
#
#
# Convention : Reuss Voigt Hill
#
# Bulk Modulus (GPa) = 41.23703 51.14905 46.19304
# Shear Modulus (GPa) = 40.83440 46.31483 43.57462
#
# Velocity S-wave (km/s) = 4.31647 4.59701 4.45894
# Velocity P-wave (km/s) = 6.60743 7.17739 6.89830
#
# Compressibility (1/GPa) = 0.02425005
#
# Stress axis : x y z
#
# Youngs Moduli (GPa) = 122.38804 108.13817 104.85766
#
# Poissons Ratio (x) = -0.07424 0.13564
# Poissons Ratio (y) = -0.08402 0.07815
# Poissons Ratio (z) = 0.15832 0.08060
#
# Static dielectric constant tensor:
#      x y z
#    x 4.166380 0.110870 0.025440 
#    y 0.110870 4.178790 0.175090 
#    z 0.025440 0.175090 4.296160 
# 
# 
# High freq. dielectric constant tensor:
#      x y z
#    x 1.882450 0.007120 -0.000580 
#    y 0.007120 1.874130 0.000790 
#    z -0.000580 0.000790 1.875030 
# 
# From -- ./inp_files/186306.got.cif
#   From: 2010.06.25/outbox.cif.g09.slc.cpg/sg2_94_cif.got.tgz:186306.got - 2010.06.27 13:26:56.
