data_PCOD8037919
_publ_section_title
;
Structure prediction by ZEFSAII (Michael W. Deem and Ramdas Pophale) SiO2 
 PCOD8037919
Probable space group: P -1
;
_chemical_formula_sum "Si O2"
_cell_formula_units_Z 16
_cell_length_a 10.827520
_cell_length_b 10.976656
_cell_length_c 14.229830
_cell_angle_alpha 128.748198
_cell_angle_beta 53.821756
_cell_angle_gamma 87.352944
_cell_volume 799.602859
_symmetry_space_group_name_H-M "P -1"
_symmetry_group_IT_number 2
_symmetry_cell_setting 'triclinic'
loop_
_space_group_symop_operation_xyz
x,y,z
-x,-y,-z
loop_
_atom_site_type_symbol
_atom_site_label
_atom_site_fract_x
_atom_site_fract_y
_atom_site_fract_z
Si Si1 0.635266 0.040943 0.506234
Si Si2 0.433127 0.477561 0.730555
Si Si3 0.935474 0.384535 0.921598
Si Si4 0.276775 0.458536 0.606986
Si Si5 0.235603 0.520322 0.448150
Si Si6 0.096592 0.282999 0.440303
Si Si7 0.868931 0.583526 0.860413
Si Si8 0.440932 0.005300 0.278117
O O1 0.590132 0.075168 0.653513
O O2 0.870843 0.854830 0.292399
O O3 0.500000 0.000000 0.500000
O O4 0.583206 0.239523 0.579356
O O5 0.389829 0.493607 0.646208
O O6 0.555455 0.557242 0.730556
O O7 0.225444 0.610069 0.945709
O O8 0.834094 0.486716 0.915026
O O9 0.000000 0.500000 0.000000
O O10 0.237891 0.574128 0.581830
O O11 0.407201 0.211872 0.413219
O O12 0.056137 0.566208 0.801814
O O13 0.217506 0.344840 0.365657
O O14 0.035031 0.723196 0.581090
O O15 0.270636 0.061865 0.306011
O O16 0.932995 0.455204 0.673682
O O17 0.666509 0.822282 0.048363
#
# Coordination Sequence:
#
# PCOD8037919 Si02
#       8
#     2   2   2   2   2   2   2   2
#     4  12  19  32  54  87 119 146 178 217 282 345
#     4  12  22  33  58  87 121 145 178 231 281 341
#     4  12  19  32  54  87 119 146 178 217 282 345
#     4  10  20  35  56  83 117 142 187 231 268 344
#     4   9  21  42  58  78 109 157 189 234 280 307
#     4   9  20  42  62  74 110 147 202 236 261 333
#     4  10  17  32  59  87 106 146 188 222 280 334
#     4  10  17  32  59  87 106 146 188 222 280 334
#
# _framework density 20.009934999999999
#
# number of rings (size 3 to 8) (size 9 to 14) (size 15 to 20)
#    0.000    1.750    7.500    0.375    0.000    0.000 
#    0.000   17.500    0.000    7.500    0.000    0.000 
#    0.000    0.000    0.000    0.000    0.000    0.000 
#
# Total GULP energy -198293.687251 kJ/mol
# GULP energy per Si atom -12393.355453 kJ/mol
# Density = 1.996439 g / cm^3
# Si number density = 20.009935 Si / 1000 Ang^3
#
#
#
# Elastic Constant Matrix: (Units=GPa)
#
#
# Indices 1 2 3 4 5 6 
#
# 1 87.2023 57.5276 31.6078 -6.9857 -26.4002 -14.2354
# 2 57.5276 80.7510 41.1106 -12.3656 -12.4347 -25.4816
# 3 31.6078 41.1106 140.3812 14.3574 -26.6487 -1.2018
# 4 -6.9857 -12.3656 14.3574 34.4291 -1.7222 -13.8584
# 5 -26.4002 -12.4347 -26.6487 -1.7222 26.5283 0.1822
# 6 -14.2354 -25.4816 -1.2018 -13.8584 0.1822 31.0850
#
#
#
# Elastic Compliance Matrix: (Units=1/GPa)
#
#
# Indices 1 2 3 4 5 6 
#
# 1 0.032283 -0.028010 0.006617 -0.010070 0.025077 -0.012557
# 2 -0.028010 0.076179 -0.024121 0.061810 -0.012910 0.076318
# 3 0.006617 -0.024121 0.017101 -0.024861 0.011030 -0.027230
# 4 -0.010070 0.061810 -0.024861 0.094691 -0.000475 0.087313
# 5 0.025077 -0.012910 0.011030 -0.000475 0.067645 0.000720
# 6 -0.012557 0.076318 -0.027230 0.087313 0.000720 0.126849
#
#
# Mechanical properties :
#
#
# Convention : Reuss Voigt Hill
#
# Bulk Modulus (GPa) = 28.95745 63.20294 46.08020
# Shear Modulus (GPa) = 9.66580 30.28106 19.97343
#
# Velocity S-wave (km/s) = 2.20022 3.89434 3.16282
# Velocity P-wave (km/s) = 4.57795 7.20247 6.03461
#
# Compressibility (1/GPa) = 0.03453343
#
# Stress axis : x y z
#
# Youngs Moduli (GPa) = 30.97582 13.12705 58.47658
#
# Poissons Ratio (x) = 0.36769 -0.38693
# Poissons Ratio (y) = 0.86765 1.41052
# Poissons Ratio (z) = -0.20496 0.31664
#
# Static dielectric constant tensor:
#      x y z
#    x 3.585450 -0.550820 -0.287060 
#    y -0.550820 4.313190 0.074600 
#    z -0.287060 0.074600 3.632000 
# 
# 
# High freq. dielectric constant tensor:
#      x y z
#    x 1.758930 -0.039550 -0.026810 
#    y -0.039550 1.780500 -0.015300 
#    z -0.026810 -0.015300 1.770780 
# 
# From -- ./inp_files/435964.got.cif
#   From: 2010.06.25/outbox.cif.g09.slc.cpg/sg2_218_cif.got.tgz:435964.got - 2010.06.27 13:26:56.
