data_PCOD8037196
_publ_section_title
;
Structure prediction by ZEFSAII (Michael W. Deem and Ramdas Pophale) SiO2 
 PCOD8037196
Probable space group: P -1
;
_chemical_formula_sum "Si O2"
_cell_formula_units_Z 16
_cell_length_a 13.029534
_cell_length_b 8.941069
_cell_length_c 8.955318
_cell_angle_alpha 45.912468
_cell_angle_beta 93.756989
_cell_angle_gamma 86.188115
_cell_volume 738.554170
_symmetry_space_group_name_H-M "P -1"
_symmetry_group_IT_number 2
_symmetry_cell_setting 'triclinic'
loop_
_space_group_symop_operation_xyz
x,y,z
-x,-y,-z
loop_
_atom_site_type_symbol
_atom_site_label
_atom_site_fract_x
_atom_site_fract_y
_atom_site_fract_z
Si Si1 0.536678 0.518178 0.824442
Si Si2 0.786915 0.849666 0.310097
Si Si3 0.908222 0.648753 0.970298
Si Si4 0.001253 0.040945 0.798635
Si Si5 0.397064 0.894994 0.054619
Si Si6 0.346180 0.767183 0.467189
Si Si7 0.854275 0.447101 0.413932
Si Si8 0.709845 0.806483 0.659130
O O1 0.589020 0.288249 0.938288
O O2 0.440420 0.599719 0.652429
O O3 0.619243 0.673734 0.713869
O O4 0.500000 0.500000 0.000000
O O5 0.878551 0.991446 0.216425
O O6 0.827525 0.608566 0.435864
O O7 0.746835 0.873404 0.456874
O O8 0.697468 0.930440 0.126963
O O9 0.802769 0.664062 0.855101
O O10 0.888574 0.566369 0.189884
O O11 0.939747 0.880669 0.817536
O O12 0.000000 0.500000 0.000000
O O13 0.950977 0.278809 0.592486
O O14 0.000000 0.000000 0.000000
O O15 0.366555 0.801733 0.272233
O O16 0.500000 0.000000 0.000000
O O17 0.242034 0.670297 0.551574
O O18 0.338448 0.987876 0.397256
#
# Coordination Sequence:
#
# PCOD8037196 Si02
#       8
#     2   2   2   2   2   2   2   2
#     4  12  25  44  70 101 140 182 232 289 349 417
#     4  12  26  43  73  99 140 182 232 288 345 416
#     4  12  28  45  72 103 144 184 231 290 345 413
#     4  12  26  47  72 104 139 185 237 284 344 412
#     4  12  25  46  71 104 137 184 235 285 350 413
#     4  12  24  45  71  99 141 181 234 288 347 414
#     4  12  25  48  70 103 139 186 231 285 348 408
#     4  12  26  45  67 105 138 183 231 285 353 411
#
# _framework density 21.663948999999999
#
# number of rings (size 3 to 8) (size 9 to 14) (size 15 to 20)
#    0.000    0.000    2.500    7.875    5.250    1.000 
#    0.000    0.000    0.000    0.000    0.000    0.000 
#    0.000    0.000    0.000    0.000    0.000    0.000 
#
# Total GULP energy -198549.097229 kJ/mol
# GULP energy per Si atom -12409.318577 kJ/mol
# Density = 2.161464 g / cm^3
# Si number density = 21.663949 Si / 1000 Ang^3
#
#
#
# Elastic Constant Matrix: (Units=GPa)
#
#
# Indices 1 2 3 4 5 6 
#
# 1 131.3280 14.1130 38.8173 0.9536 -7.7489 4.0022
# 2 14.1130 115.9700 21.0037 -0.0059 -15.4822 -9.1133
# 3 38.8173 21.0037 130.8785 14.6929 3.6635 -10.4010
# 4 0.9536 -0.0059 14.6929 41.9546 -2.1054 -4.1104
# 5 -7.7489 -15.4822 3.6635 -2.1054 49.6130 -2.3168
# 6 4.0022 -9.1133 -10.4010 -4.1104 -2.3168 37.5407
#
#
#
# Elastic Compliance Matrix: (Units=1/GPa)
#
#
# Indices 1 2 3 4 5 6 
#
# 1 0.008593 -0.000505 -0.002709 0.000660 0.001336 -0.001635
# 2 -0.000505 0.009534 -0.001386 0.000879 0.003142 0.002274
# 3 -0.002709 -0.001386 0.009217 -0.003042 -0.001568 0.002076
# 4 0.000660 0.000879 -0.003042 0.025187 0.001772 0.002167
# 5 0.001336 0.003142 -0.001568 0.001772 0.021616 0.001714
# 6 -0.001635 0.002274 0.002076 0.002167 0.001714 0.028282
#
#
# Mechanical properties :
#
#
# Convention : Reuss Voigt Hill
#
# Bulk Modulus (GPa) = 55.11603 58.44938 56.78270
# Shear Modulus (GPa) = 42.48884 46.10450 44.29667
#
# Velocity S-wave (km/s) = 4.43343 4.61821 4.52676
# Velocity P-wave (km/s) = 7.19052 7.44820 7.32050
#
# Compressibility (1/GPa) = 0.01814354
#
# Stress axis : x y z
#
# Youngs Moduli (GPa) = 116.36827 104.89158 108.49549
#
# Poissons Ratio (x) = 0.05299 0.29392
# Poissons Ratio (y) = 0.05878 0.15038
# Poissons Ratio (z) = 0.31525 0.14538
#
# Static dielectric constant tensor:
#      x y z
#    x 2.139370 -0.557750 -0.491330 
#    y -0.557750 3.972810 -0.219230 
#    z -0.491330 -0.219230 3.953550 
# 
# 
# High freq. dielectric constant tensor:
#      x y z
#    x 1.877220 0.000470 -0.000520 
#    y 0.000470 1.864920 0.000250 
#    z -0.000520 0.000250 1.866250 
# 
# From -- ./inp_files/48570.got.cif
#   From: 2010.06.25/outbox.cif.g09.slc.cpg/sg2_25_cif.got.tgz:48570.got - 2010.06.27 13:26:56.
