data_PCOD8037977
_publ_section_title
;
Structure prediction by ZEFSAII (Michael W. Deem and Ramdas Pophale) SiO2 
 PCOD8037977
Probable space group: P -1
;
_chemical_formula_sum "Si O2"
_cell_formula_units_Z 16
_cell_length_a 9.000000
_cell_length_b 15.000000
_cell_length_c 27.000000
_cell_angle_alpha 20.000000
_cell_angle_beta 40.000000
_cell_angle_gamma 50.000000
_cell_volume 750.501489
_symmetry_space_group_name_H-M "P -1"
_symmetry_group_IT_number 2
_symmetry_cell_setting 'triclinic'
loop_
_space_group_symop_operation_xyz
x,y,z
-x,-y,-z
loop_
_atom_site_type_symbol
_atom_site_label
_atom_site_fract_x
_atom_site_fract_y
_atom_site_fract_z
Si Si1 0.455657 0.198826 0.725644
Si Si2 0.230077 0.879475 0.748767
Si Si3 0.180522 0.480568 0.887713
Si Si4 0.616722 0.323027 0.814645
Si Si5 0.262661 0.493046 0.420643
Si Si6 0.834943 0.407939 0.436343
Si Si7 0.373620 0.155243 0.264515
Si Si8 0.780043 0.362150 0.969746
O O1 0.532297 0.254741 0.734374
O O2 0.712902 0.273308 0.590247
O O3 0.312874 0.401075 0.642778
O O4 0.266312 0.882494 0.931460
O O5 0.219820 0.788736 0.740353
O O6 0.458113 0.803817 0.751403
O O7 0.283901 0.198065 0.581895
O O8 0.970677 0.725248 0.923104
O O9 0.433953 0.427079 0.840312
O O10 0.034733 0.429823 0.899439
O O11 0.680918 0.485844 0.662252
O O12 0.878156 0.400785 0.734950
O O13 0.500000 0.000000 0.000000
O O14 0.000000 0.500000 0.500000
O O15 0.805973 0.162113 0.532359
O O16 0.550525 0.249334 0.123416
O O17 0.212244 0.354488 0.207145
#
# Coordination Sequence:
#
# PCOD8037977 Si02
#       8
#     2   2   2   2   2   2   2   2
#     4  10  20  38  66  96 126 166 219 266 315 387
#     4  10  22  43  68  93 124 171 223 269 318 394
#     4  10  23  42  65  93 133 170 213 270 330 384
#     4  12  26  42  62  96 136 172 213 272 335 384
#     4  12  24  40  67  97 127 166 224 268 322 389
#     4  10  20  38  65  92 129 169 213 266 322 387
#     4   9  18  36  62  93 121 163 219 261 315 382
#     4   9  19  34  63  94 124 165 211 263 319 381
#
# _framework density 21.319078000000001
#
# number of rings (size 3 to 8) (size 9 to 14) (size 15 to 20)
#    0.000    1.750    2.500    1.500    3.500    4.500 
#    0.000    4.375    0.000    0.000    0.000    0.000 
#    0.000    0.000    0.000    0.000    0.000    0.000 
#
# Total GULP energy -198327.563837 kJ/mol
# GULP energy per Si atom -12395.472740 kJ/mol
# Density = 2.127056 g / cm^3
# Si number density = 21.319078 Si / 1000 Ang^3
#
#
#
# Elastic Constant Matrix: (Units=GPa)
#
#
# Indices 1 2 3 4 5 6 
#
# 1 92.4710 44.6653 36.2944 -6.1708 -30.4661 2.9332
# 2 44.6653 118.3944 48.9364 -17.8540 -11.9356 -0.0749
# 3 36.2944 48.9364 81.1646 -24.8988 -26.1407 -5.4367
# 4 -6.1708 -17.8540 -24.8988 49.0667 4.1778 -8.3383
# 5 -30.4661 -11.9356 -26.1407 4.1778 38.9848 -5.9600
# 6 2.9332 -0.0749 -5.4367 -8.3383 -5.9600 34.8398
#
#
#
# Elastic Compliance Matrix: (Units=1/GPa)
#
#
# Indices 1 2 3 4 5 6 
#
# 1 0.017453 -0.004991 -0.001671 -0.001447 0.011118 -0.000185
# 2 -0.004991 0.012810 -0.006944 0.000706 -0.004910 -0.001307
# 3 -0.001671 -0.006944 0.025627 0.010615 0.013999 0.009060
# 4 -0.001447 0.000706 0.010615 0.026978 0.004694 0.009040
# 5 0.011118 -0.004910 0.013999 0.004694 0.043211 0.009753
# 6 -0.000185 -0.001307 0.009060 0.009040 0.009753 0.033961
#
#
# Mechanical properties :
#
#
# Convention : Reuss Voigt Hill
#
# Bulk Modulus (GPa) = 34.87080 61.31357 48.09219
# Shear Modulus (GPa) = 25.40489 35.38720 30.39605
#
# Velocity S-wave (km/s) = 3.45577 4.07859 3.78003
# Velocity P-wave (km/s) = 5.68465 7.14158 6.45436
#
# Compressibility (1/GPa) = 0.02867729
#
# Stress axis : x y z
#
# Youngs Moduli (GPa) = 57.29659 78.06286 39.02180
#
# Poissons Ratio (x) = 0.38963 0.06520
# Poissons Ratio (y) = 0.28598 0.27098
# Poissons Ratio (z) = 0.09573 0.54209
#
# Static dielectric constant tensor:
#      x y z
#    x 3.910330 0.072130 -0.179920 
#    y 0.072130 3.970880 -0.237790 
#    z -0.179920 -0.237790 3.987280 
# 
# 
# High freq. dielectric constant tensor:
#      x y z
#    x 1.839010 -0.000070 -0.023090 
#    y -0.000070 1.839950 -0.025740 
#    z -0.023090 -0.025740 1.823520 
# 
# From -- ./inp_files/515119.got.cif
#   From: 2010.06.25/outbox.ucp.g09.slc.cvg/sg2_258_cif.got.tgz:515119.got - 2010.06.28 11:54:26.
