data_PCOD8037343
_publ_section_title
;
Structure prediction by ZEFSAII (Michael W. Deem and Ramdas Pophale) SiO2 
 PCOD8037343
Probable space group: P -1
;
_chemical_formula_sum "Si O2"
_cell_formula_units_Z 10
_cell_length_a 8.722412
_cell_length_b 8.199838
_cell_length_c 13.461977
_cell_angle_alpha 113.982295
_cell_angle_beta 56.006000
_cell_angle_gamma 147.193713
_cell_volume 428.168582
_symmetry_space_group_name_H-M "P -1"
_symmetry_group_IT_number 2
_symmetry_cell_setting 'triclinic'
loop_
_space_group_symop_operation_xyz
x,y,z
-x,-y,-z
loop_
_atom_site_type_symbol
_atom_site_label
_atom_site_fract_x
_atom_site_fract_y
_atom_site_fract_z
Si Si1 0.738476 0.259615 0.194054
Si Si2 0.713783 0.618944 0.728992
Si Si3 0.844131 0.092151 0.797913
Si Si4 0.624159 0.981754 0.360292
Si Si5 0.097114 0.242349 0.959752
O O1 0.877873 0.559482 0.253580
O O2 0.498275 0.093254 0.148013
O O3 0.543910 0.016712 0.294422
O O4 0.032591 0.371617 0.077452
O O5 0.534534 0.338088 0.653792
O O6 0.468145 0.509422 0.870353
O O7 0.855825 0.905569 0.692002
O O8 0.998598 0.737238 0.707127
O O9 0.890688 0.089893 0.896983
O O10 0.500000 0.000000 0.500000
O O11 0.000000 0.000000 0.000000
#
# Coordination Sequence:
#
# PCOD8037343 Si02
#       5
#     2   2   2   2   2
#     4  12  26  43  70 107 142 182 225 285 350 403
#     4  12  24  48  71 102 139 182 234 281 350 410
#     4  12  25  44  68 109 145 177 222 286 354 416
#     4  12  27  50  74  98 135 188 244 285 335 412
#     4  12  25  43  74 105 146 182 225 281 346 430
#
# _framework density 23.355287000000001
#
# number of rings (size 3 to 8) (size 9 to 14) (size 15 to 20)
#    0.000    0.000    6.000    3.000    2.800    1.600 
#    0.000    6.000    0.000    0.000    0.000    0.000 
#    0.000    0.000    0.000    0.000    0.000    0.000 
#
# Total GULP energy -123953.262187 kJ/mol
# GULP energy per Si atom -12395.326219 kJ/mol
# Density = 2.330213 g / cm^3
# Si number density = 23.355287 Si / 1000 Ang^3
#
#
#
# Elastic Constant Matrix: (Units=GPa)
#
#
# Indices 1 2 3 4 5 6 
#
# 1 131.0829 53.0900 69.6696 -9.9002 -6.3102 2.9444
# 2 53.0900 164.8846 48.4550 7.4909 -11.7334 -11.2002
# 3 69.6696 48.4550 109.9894 12.7575 -3.6944 -7.5185
# 4 -9.9002 7.4909 12.7575 23.2139 -0.3619 -11.7117
# 5 -6.3102 -11.7334 -3.6944 -0.3619 10.1213 1.3443
# 6 2.9444 -11.2002 -7.5185 -11.7117 1.3443 50.9969
#
#
#
# Elastic Compliance Matrix: (Units=1/GPa)
#
#
# Indices 1 2 3 4 5 6 
#
# 1 0.014805 -0.002223 -0.009721 0.012420 0.003551 -0.000017
# 2 -0.002223 0.007887 -0.001527 -0.002051 0.006996 0.000980
# 3 -0.009721 -0.001527 0.017391 -0.013355 -0.001930 -0.000226
# 4 0.012420 -0.002051 -0.013355 0.061977 0.001239 0.011064
# 5 0.003551 0.006996 -0.001930 0.001239 0.108670 -0.001533
# 6 -0.000017 0.000980 -0.000226 0.011064 -0.001533 0.022373
#
#
# Mechanical properties :
#
#
# Convention : Reuss Voigt Hill
#
# Bulk Modulus (GPa) = 76.09632 83.15403 79.62518
# Shear Modulus (GPa) = 18.90897 32.51591 25.71244
#
# Velocity S-wave (km/s) = 2.84847 3.73531 3.32162
# Velocity P-wave (km/s) = 6.59327 7.36781 6.99127
#
# Compressibility (1/GPa) = 0.01314124
#
# Stress axis : x y z
#
# Youngs Moduli (GPa) = 67.54367 126.79360 57.50236
#
# Poissons Ratio (x) = 0.28186 0.55899
# Poissons Ratio (y) = 0.15015 0.08778
# Poissons Ratio (z) = 0.65660 0.19356
#
# Static dielectric constant tensor:
#      x y z
#    x 4.718320 -0.219890 -0.200010 
#    y -0.219890 4.686460 0.011500 
#    z -0.200010 0.011500 3.791090 
# 
# 
# High freq. dielectric constant tensor:
#      x y z
#    x 1.948670 -0.008030 -0.014200 
#    y -0.008030 1.950860 0.005510 
#    z -0.014200 0.005510 1.864780 
# 
# From -- ./inp_files/39151.got.cif
#   From: 2010.06.25/outbox.cif.g09.slc.cpg/sg2_20_cif.got.tgz:39151.got - 2010.06.27 13:26:56.
