data_PCOD8037675
_publ_section_title
;
Structure prediction by ZEFSAII (Michael W. Deem and Ramdas Pophale) SiO2 
 PCOD8037675
Probable space group: P -1
;
_chemical_formula_sum "Si O2"
_cell_formula_units_Z 14
_cell_length_a 9.555778
_cell_length_b 8.734551
_cell_length_c 15.270531
_cell_angle_alpha 74.855128
_cell_angle_beta 38.054598
_cell_angle_gamma 53.935954
_cell_volume 580.401958
_symmetry_space_group_name_H-M "P -1"
_symmetry_group_IT_number 2
_symmetry_cell_setting 'triclinic'
loop_
_space_group_symop_operation_xyz
x,y,z
-x,-y,-z
loop_
_atom_site_type_symbol
_atom_site_label
_atom_site_fract_x
_atom_site_fract_y
_atom_site_fract_z
Si Si1 0.048092 0.575108 0.113658
Si Si2 0.283854 0.512088 0.446324
Si Si3 0.182068 0.224090 0.612683
Si Si4 0.238029 0.085927 0.272371
Si Si5 0.343207 0.691654 0.231972
Si Si6 0.141912 0.076725 0.972930
Si Si7 0.888286 0.297607 0.237691
O O1 0.953302 0.659748 0.246071
O O2 0.890005 0.752796 0.093815
O O3 0.927291 0.459086 0.164085
O O4 0.403781 0.421706 0.950291
O O5 0.189687 0.370098 0.519750
O O6 0.410501 0.510319 0.289642
O O7 0.539051 0.420409 0.408722
O O8 0.011372 0.754972 0.558773
O O9 0.970810 0.186949 0.680047
O O10 0.500000 0.000000 0.500000
O O11 0.103298 0.168323 0.230786
O O12 0.339703 0.857186 0.264405
O O13 0.506328 0.089582 0.154647
O O14 0.977763 0.144914 0.136198
O O15 0.000000 0.000000 0.000000
#
# Coordination Sequence:
#
# PCOD8037675 Si02
#       7
#     2   2   2   2   2   2   2
#     4  12  27  50  76 107 156 205 258 307 384 454
#     4  12  27  49  77 113 156 203 252 321 386 452
#     4  12  30  48  76 116 158 201 257 322 384 451
#     4  12  27  47  80 114 153 201 259 314 388 453
#     4  12  27  49  79 110 158 202 260 312 387 457
#     4  12  29  46  79 113 154 198 260 317 381 454
#     4  12  25  52  76 111 154 204 254 314 383 461
#
# _framework density 24.121213999999998
#
# number of rings (size 3 to 8) (size 9 to 14) (size 15 to 20)
#    0.000    0.000    4.286    4.286   10.000    0.000 
#    0.000    0.000    0.000    0.000    0.000    0.000 
#    0.000    0.000    0.000    0.000    0.000    0.000 
#
# Total GULP energy -173632.413015 kJ/mol
# GULP energy per Si atom -12402.315215 kJ/mol
# Density = 2.406631 g / cm^3
# Si number density = 24.121214 Si / 1000 Ang^3
#
#
#
# Elastic Constant Matrix: (Units=GPa)
#
#
# Indices 1 2 3 4 5 6 
#
# 1 112.0526 3.9625 22.5969 19.2472 -35.3057 19.7026
# 2 3.9625 86.1762 31.5947 9.2584 -8.5346 8.3791
# 3 22.5969 31.5947 102.6410 20.7212 -22.7983 24.8334
# 4 19.2472 9.2584 20.7212 33.8202 -5.7554 -3.1615
# 5 -35.3057 -8.5346 -22.7983 -5.7554 48.2026 4.6573
# 6 19.7026 8.3791 24.8334 -3.1615 4.6573 36.3963
#
#
#
# Elastic Compliance Matrix: (Units=1/GPa)
#
#
# Indices 1 2 3 4 5 6 
#
# 1 0.018408 0.001740 0.006247 -0.013590 0.016859 -0.017966
# 2 0.001740 0.013324 -0.002784 -0.002798 0.002238 -0.002639
# 3 0.006247 -0.002784 0.019811 -0.014417 0.013591 -0.019249
# 4 -0.013590 -0.002798 -0.014417 0.046737 -0.013977 0.023686
# 5 0.016859 0.002238 0.013591 -0.013977 0.040697 -0.025336
# 6 -0.017966 -0.002639 -0.019249 0.023686 -0.025336 0.056242
#
#
# Mechanical properties :
#
#
# Convention : Reuss Voigt Hill
#
# Bulk Modulus (GPa) = 16.14257 46.35313 31.24785
# Shear Modulus (GPa) = 24.33521 39.86485 32.10003
#
# Velocity S-wave (km/s) = 3.17972 4.06974 3.65194
# Velocity P-wave (km/s) = 4.49306 6.42979 5.54661
#
# Compressibility (1/GPa) = 0.06194802
#
# Stress axis : x y z
#
# Youngs Moduli (GPa) = 54.32328 75.05483 50.47697
#
# Poissons Ratio (x) = -0.13059 -0.31531
# Poissons Ratio (y) = -0.09452 0.14053
# Poissons Ratio (z) = -0.33934 0.20895
#
# Static dielectric constant tensor:
#      x y z
#    x 4.399690 0.099540 -0.185770 
#    y 0.099540 4.479280 -0.007350 
#    z -0.185770 -0.007350 4.570420 
# 
# 
# High freq. dielectric constant tensor:
#      x y z
#    x 1.967550 -0.004490 -0.012780 
#    y -0.004490 1.959970 -0.000670 
#    z -0.012780 -0.000670 1.972350 
# 
# From -- ./inp_files/156474.got.cif
#   From: 2010.06.25/outbox.cif.g09.slc.cpg/sg2_79_cif.got.tgz:156474.got - 2010.06.27 13:26:56.
