data_PCOD8037087
_publ_section_title
;
Structure prediction by ZEFSAII (Michael W. Deem and Ramdas Pophale) SiO2 
 PCOD8037087
Probable space group: P -1
;
_chemical_formula_sum "Si O2"
_cell_formula_units_Z 16
_cell_length_a 13.633762
_cell_length_b 13.032519
_cell_length_c 11.231882
_cell_angle_alpha 88.225844
_cell_angle_beta 19.959917
_cell_angle_gamma 90.519176
_cell_volume 676.660615
_symmetry_space_group_name_H-M "P -1"
_symmetry_group_IT_number 2
_symmetry_cell_setting 'triclinic'
loop_
_space_group_symop_operation_xyz
x,y,z
-x,-y,-z
loop_
_atom_site_type_symbol
_atom_site_label
_atom_site_fract_x
_atom_site_fract_y
_atom_site_fract_z
Si Si1 0.898092 0.677448 0.723880
Si Si2 0.488739 0.069105 0.126734
Si Si3 0.628812 0.457326 0.736776
Si Si4 0.617076 0.802995 0.218915
Si Si5 0.885346 0.058630 0.242440
Si Si6 0.958865 0.796429 0.419803
Si Si7 0.016448 0.354541 0.802991
Si Si8 0.580168 0.616830 0.445412
O O1 0.970582 0.703054 0.502403
O O2 0.183322 0.638954 0.457003
O O3 0.642783 0.584358 0.032639
O O4 0.787860 0.780540 0.903132
O O5 0.355547 0.165959 0.218675
O O6 0.285380 0.017800 0.465420
O O7 0.797423 0.108192 0.832418
O O8 0.500000 0.000000 0.000000
O O9 0.810348 0.549177 0.460697
O O10 0.500000 0.500000 0.000000
O O11 0.303808 0.845189 0.566409
O O12 0.594468 0.693592 0.315201
O O13 0.808659 0.895900 0.058219
O O14 0.000000 0.000000 0.000000
O O15 0.965290 0.753839 0.279348
O O16 0.123500 0.357881 0.818234
O O17 0.678628 0.361589 0.174730
O O18 0.500000 0.500000 0.500000
#
# Coordination Sequence:
#
# PCOD8037087 Si02
#       8
#     2   2   2   2   2   2   2   2
#     4  12  25  45  72 105 142 187 240 287 360 426
#     4  12  26  48  74 103 143 183 240 301 366 430
#     4  12  24  42  67 104 148 187 229 292 352 429
#     4  12  26  49  75 103 144 190 239 294 354 435
#     4  12  28  48  74 107 144 188 244 301 367 425
#     4  12  26  43  75 105 139 182 234 301 360 428
#     4  12  26  43  70 103 143 185 237 288 360 422
#     4  12  27  47  73 104 145 190 239 288 353 429
#
# _framework density 23.645531999999999
#
# number of rings (size 3 to 8) (size 9 to 14) (size 15 to 20)
#    0.000    0.000    1.250    9.000    7.000    0.000 
#    0.000    0.000    0.000    0.000    0.000    0.000 
#    0.000    0.000    0.000    0.000    0.000    0.000 
#
# Total GULP energy -198330.777905 kJ/mol
# GULP energy per Si atom -12395.673619 kJ/mol
# Density = 2.359171 g / cm^3
# Si number density = 23.645532 Si / 1000 Ang^3
#
#
#
# Elastic Constant Matrix: (Units=GPa)
#
#
# Indices 1 2 3 4 5 6 
#
# 1 90.7228 31.7244 15.8972 2.7561 3.5559 9.7347
# 2 31.7244 93.1472 16.6694 14.1225 4.4507 16.6714
# 3 15.8972 16.6694 91.7353 14.9435 5.2400 3.4326
# 4 2.7561 14.1225 14.9435 59.5269 -0.3830 3.5742
# 5 3.5559 4.4507 5.2400 -0.3830 39.6798 0.4942
# 6 9.7347 16.6714 3.4326 3.5742 0.4942 59.5893
#
#
#
# Elastic Compliance Matrix: (Units=1/GPa)
#
#
# Indices 1 2 3 4 5 6 
#
# 1 0.012791 -0.004012 -0.001557 0.000803 -0.000471 -0.000922
# 2 -0.004012 0.013238 -0.001141 -0.002505 -0.000964 -0.002824
# 3 -0.001557 -0.001141 0.011884 -0.002653 -0.001328 0.000059
# 4 0.000803 -0.002505 -0.002653 0.018049 0.000738 -0.000366
# 5 -0.000471 -0.000964 -0.001328 0.000738 0.025532 0.000167
# 6 -0.000922 -0.002824 0.000059 -0.000366 0.000167 0.017739
#
#
# Mechanical properties :
#
#
# Convention : Reuss Voigt Hill
#
# Bulk Modulus (GPa) = 40.82974 44.90971 42.86972
# Shear Modulus (GPa) = 41.38431 45.84683 43.61557
#
# Velocity S-wave (km/s) = 4.18807 4.40810 4.29949
# Velocity P-wave (km/s) = 6.37899 6.70392 6.54347
#
# Compressibility (1/GPa) = 0.02449195
#
# Stress axis : x y z
#
# Youngs Moduli (GPa) = 78.17763 75.54175 84.14757
#
# Poissons Ratio (x) = 0.30308 0.13102
# Poissons Ratio (y) = 0.31366 0.09605
# Poissons Ratio (z) = 0.12172 0.08622
#
# Static dielectric constant tensor:
#      x y z
#    x 4.316410 0.123510 -0.165340 
#    y 0.123510 4.409680 0.129570 
#    z -0.165340 0.129570 4.519780 
# 
# 
# High freq. dielectric constant tensor:
#      x y z
#    x 1.943160 0.007760 -0.003690 
#    y 0.007760 1.950020 0.002110 
#    z -0.003690 0.002110 1.954640 
# 
# From -- ./inp_files/452434.got.cif
#   From: 2010.06.25/outbox.cif.g09.slc.cpg/sg2_227_cif.got.tgz:452434.got - 2010.06.27 13:26:56.
