data_PCOD8037246
_publ_section_title
;
Structure prediction by ZEFSAII (Michael W. Deem and Ramdas Pophale) SiO2 
 PCOD8037246
Probable space group: P -1
;
_chemical_formula_sum "Si O2"
_cell_formula_units_Z 16
_cell_length_a 8.760739
_cell_length_b 9.338748
_cell_length_c 12.086116
_cell_angle_alpha 96.163527
_cell_angle_beta 104.181010
_cell_angle_gamma 46.972145
_cell_volume 698.320704
_symmetry_space_group_name_H-M "P -1"
_symmetry_group_IT_number 2
_symmetry_cell_setting 'triclinic'
loop_
_space_group_symop_operation_xyz
x,y,z
-x,-y,-z
loop_
_atom_site_type_symbol
_atom_site_label
_atom_site_fract_x
_atom_site_fract_y
_atom_site_fract_z
Si Si1 0.869128 0.798087 0.179330
Si Si2 0.297286 0.205436 0.526594
Si Si3 0.682732 0.194182 0.279097
Si Si4 0.077790 0.789546 0.515188
Si Si5 0.335641 0.582879 0.882835
Si Si6 0.083359 0.106623 0.048153
Si Si7 0.542704 0.791647 0.209419
Si Si8 0.256989 0.469561 0.363211
O O1 0.674583 0.806542 0.147658
O O2 0.082093 0.584598 0.243287
O O3 0.819996 0.962011 0.269016
O O4 0.890249 0.829774 0.058619
O O5 0.382977 0.222060 0.654967
O O6 0.203734 0.380316 0.437717
O O7 0.113212 0.204879 0.516968
O O8 0.500000 0.000000 0.500000
O O9 0.810270 0.257288 0.350478
O O10 0.623041 0.287259 0.155758
O O11 0.484315 0.288988 0.333865
O O12 0.250263 0.627576 0.440043
O O13 0.000000 0.000000 0.500000
O O14 0.408926 0.406036 0.806234
O O15 0.095573 0.702688 0.894058
O O16 0.500000 0.500000 0.000000
O O17 0.294098 0.976494 0.151897
O O18 0.000000 0.000000 0.000000
#
# Coordination Sequence:
#
# PCOD8037246 Si02
#       8
#     2   2   2   2   2   2   2   2
#     4  12  26  49  74 112 150 194 251 308 374 449
#     4  12  28  49  77 113 156 201 249 301 378 453
#     4  12  26  45  74 105 150 197 248 306 371 439
#     4  12  24  46  72 109 149 194 251 301 364 442
#     4  12  26  47  76 110 141 190 255 311 371 438
#     4  12  26  49  80 107 144 195 250 314 374 439
#     4  12  27  48  76 108 152 193 247 309 375 445
#     4  12  26  47  73 108 157 195 250 304 374 439
#
# _framework density 22.912109000000001
#
# number of rings (size 3 to 8) (size 9 to 14) (size 15 to 20)
#    0.000    0.000    5.000    4.125    3.500    2.500 
#    0.000    0.000    0.000    0.000    0.000    0.000 
#    0.000    0.000    0.000    0.000    0.000    0.000 
#
# Total GULP energy -198339.407945 kJ/mol
# GULP energy per Si atom -12396.212997 kJ/mol
# Density = 2.285996 g / cm^3
# Si number density = 22.912109 Si / 1000 Ang^3
#
#
#
# Elastic Constant Matrix: (Units=GPa)
#
#
# Indices 1 2 3 4 5 6 
#
# 1 110.2153 40.8569 58.2597 -10.6654 1.9850 -1.5666
# 2 40.8569 119.4712 35.9411 -12.7213 -5.9048 -4.1300
# 3 58.2597 35.9411 106.6763 -26.8208 -4.4820 0.7768
# 4 -10.6654 -12.7213 -26.8208 42.4591 -1.1427 -2.2644
# 5 1.9850 -5.9048 -4.4820 -1.1427 51.9038 -2.4224
# 6 -1.5666 -4.1300 0.7768 -2.2644 -2.4224 39.3410
#
#
#
# Elastic Compliance Matrix: (Units=1/GPa)
#
#
# Indices 1 2 3 4 5 6 
#
# 1 0.013707 -0.002829 -0.007076 -0.001904 -0.001490 0.000187
# 2 -0.002829 0.010021 -0.001413 0.001492 0.001212 0.001128
# 3 -0.007076 -0.001413 0.015739 0.007775 0.001631 -0.000193
# 4 -0.001904 0.001492 0.007775 0.028565 0.001621 0.001671
# 5 -0.001490 0.001212 0.001631 0.001621 0.019700 0.001342
# 6 0.000187 0.001128 -0.000193 0.001671 0.001342 0.025727
#
#
# Mechanical properties :
#
#
# Convention : Reuss Voigt Hill
#
# Bulk Modulus (GPa) = 59.41326 67.38648 63.39987
# Shear Modulus (GPa) = 35.28431 40.16112 37.72271
#
# Velocity S-wave (km/s) = 3.92852 4.19123 4.06200
# Velocity P-wave (km/s) = 6.82385 7.27300 7.05200
#
# Compressibility (1/GPa) = 0.01683126
#
# Stress axis : x y z
#
# Youngs Moduli (GPa) = 72.95409 99.79491 63.53487
#
# Poissons Ratio (x) = 0.28232 0.44955
# Poissons Ratio (y) = 0.20638 0.08980
# Poissons Ratio (z) = 0.51619 0.14105
#
# Static dielectric constant tensor:
#      x y z
#    x 4.511010 -0.186820 0.133340 
#    y -0.186820 4.296460 -0.307900 
#    z 0.133340 -0.307900 4.676270 
# 
# 
# High freq. dielectric constant tensor:
#      x y z
#    x 1.902940 -0.001880 -0.001100 
#    y -0.001880 1.925930 -0.008160 
#    z -0.001100 -0.008160 1.924940 
# 
# From -- ./inp_files/382377.got.cif
#   From: 2010.06.25/outbox.cif.g09.slc.cpg/sg2_192_cif.got.tgz:382377.got - 2010.06.27 13:26:56.
