data_PCOD8037277
_publ_section_title
;
Structure prediction by ZEFSAII (Michael W. Deem and Ramdas Pophale) SiO2 
 PCOD8037277
Probable space group: P -1
;
_chemical_formula_sum "Si O2"
_cell_formula_units_Z 16
_cell_length_a 18.106174
_cell_length_b 9.259489
_cell_length_c 8.799481
_cell_angle_alpha 76.616055
_cell_angle_beta 122.439000
_cell_angle_gamma 144.272577
_cell_volume 661.834567
_symmetry_space_group_name_H-M "P -1"
_symmetry_group_IT_number 2
_symmetry_cell_setting 'triclinic'
loop_
_space_group_symop_operation_xyz
x,y,z
-x,-y,-z
loop_
_atom_site_type_symbol
_atom_site_label
_atom_site_fract_x
_atom_site_fract_y
_atom_site_fract_z
Si Si1 0.100645 0.018215 0.516909
Si Si2 0.347040 0.074348 0.340517
Si Si3 0.121148 0.989784 0.210557
Si Si4 0.131332 0.740820 0.699717
Si Si5 0.475232 0.137195 0.943103
Si Si6 0.652959 0.433468 0.781025
Si Si7 0.836575 0.410382 0.938155
Si Si8 0.536528 0.430863 0.186163
O O1 0.033828 0.891124 0.302786
O O2 0.284565 0.320665 0.612451
O O3 0.102377 0.875139 0.659243
O O4 0.000000 0.000000 0.500000
O O5 0.263567 0.071096 0.364613
O O6 0.506867 0.237420 0.550801
O O7 0.404122 0.253338 0.215054
O O8 0.221867 0.764233 0.232565
O O9 0.192428 0.246084 0.165081
O O10 0.994639 0.739193 0.010598
O O11 0.120048 0.647617 0.872043
O O12 0.000000 0.500000 0.500000
O O13 0.297661 0.938736 0.751752
O O14 0.593221 0.388844 0.894811
O O15 0.514517 0.238989 0.132938
O O16 0.500000 0.000000 0.000000
O O17 0.696315 0.321225 0.855943
O O18 0.500000 0.500000 0.000000
#
# Coordination Sequence:
#
# PCOD8037277 Si02
#       8
#     2   2   2   2   2   2   2   2
#     4  12  28  49  75 112 151 202 258 316 386 460
#     4  12  25  49  77 111 153 203 256 317 384 455
#     4  12  27  50  76 110 156 202 250 316 391 456
#     4  12  25  48  75 107 154 199 256 314 388 451
#     4  12  25  46  78 112 148 202 259 319 377 458
#     4  12  26  47  79 111 159 199 258 315 384 458
#     4  12  26  50  71 114 152 205 251 313 384 465
#     4  12  24  46  76 109 148 199 264 315 377 453
#
# _framework density 24.175225000000001
#
# number of rings (size 3 to 8) (size 9 to 14) (size 15 to 20)
#    0.000    0.000    6.250    3.000    3.500    0.000 
#    6.750    0.000    0.000    0.000    0.000    0.000 
#    0.000    0.000    0.000    0.000    0.000    0.000 
#
# Total GULP energy -198372.143878 kJ/mol
# GULP energy per Si atom -12398.258992 kJ/mol
# Density = 2.412020 g / cm^3
# Si number density = 24.175225 Si / 1000 Ang^3
#
#
#
# Elastic Constant Matrix: (Units=GPa)
#
#
# Indices 1 2 3 4 5 6 
#
# 1 151.1449 42.7169 21.5728 -7.5532 4.8825 -13.7235
# 2 42.7169 118.1460 38.7761 8.4407 1.3109 -12.9420
# 3 21.5728 38.7761 68.9733 4.2317 4.3416 -4.0647
# 4 -7.5532 8.4407 4.2317 41.5602 -3.6602 -0.2841
# 5 4.8825 1.3109 4.3416 -3.6602 33.6663 -8.8435
# 6 -13.7235 -12.9420 -4.0647 -0.2841 -8.8435 37.2390
#
#
#
# Elastic Compliance Matrix: (Units=1/GPa)
#
#
# Indices 1 2 3 4 5 6 
#
# 1 0.007716 -0.002370 -0.001081 0.001991 -0.000178 0.001875
# 2 -0.002370 0.011586 -0.005549 -0.002102 0.001114 0.002796
# 3 -0.001081 -0.005549 0.018118 -0.001125 -0.002325 -0.000910
# 4 0.001991 -0.002102 -0.001125 0.025223 0.002879 0.000757
# 5 -0.000178 0.001114 -0.002325 0.002879 0.032340 0.007770
# 6 0.001875 0.002796 -0.000910 0.000757 0.007770 0.030268
#
#
# Mechanical properties :
#
#
# Convention : Reuss Voigt Hill
#
# Bulk Modulus (GPa) = 51.49398 60.48842 55.99120
# Shear Modulus (GPa) = 33.39483 38.17299 35.78391
#
# Velocity S-wave (km/s) = 3.72070 3.97799 3.85150
# Velocity P-wave (km/s) = 6.30910 6.79517 6.55664
#
# Compressibility (1/GPa) = 0.01941975
#
# Stress axis : x y z
#
# Youngs Moduli (GPa) = 129.60582 86.31014 55.19401
#
# Poissons Ratio (x) = 0.20452 0.05969
# Poissons Ratio (y) = 0.30712 0.30626
# Poissons Ratio (z) = 0.14017 0.47892
#
# Static dielectric constant tensor:
#      x y z
#    x 4.537830 0.009910 -0.105330 
#    y 0.009910 4.945950 -0.082450 
#    z -0.105330 -0.082450 4.713950 
# 
# 
# High freq. dielectric constant tensor:
#      x y z
#    x 1.967390 -0.007400 0.006650 
#    y -0.007400 1.970950 0.010230 
#    z 0.006650 0.010230 1.958740 
# 
# From -- ./inp_files/328926.got.cif
#   From: 2010.06.25/outbox.cif.g09.slc.cpg/sg2_165_cif.got.tgz:328926.got - 2010.06.27 13:26:56.
