data_PCOD8037217
_publ_section_title
;
Structure prediction by ZEFSAII (Michael W. Deem and Ramdas Pophale) SiO2 
 PCOD8037217
Probable space group: P -1
;
_chemical_formula_sum "Si O2"
_cell_formula_units_Z 12
_cell_length_a 16.967705
_cell_length_b 16.374074
_cell_length_c 9.874674
_cell_angle_alpha 42.073804
_cell_angle_beta 138.375956
_cell_angle_gamma 162.971176
_cell_volume 528.301189
_symmetry_space_group_name_H-M "P -1"
_symmetry_group_IT_number 2
_symmetry_cell_setting 'triclinic'
loop_
_space_group_symop_operation_xyz
x,y,z
-x,-y,-z
loop_
_atom_site_type_symbol
_atom_site_label
_atom_site_fract_x
_atom_site_fract_y
_atom_site_fract_z
Si Si1 0.771130 0.258391 0.610987
Si Si2 0.396850 0.478418 0.266132
Si Si3 0.467286 0.782808 0.431562
Si Si4 0.710333 0.758094 0.855840
Si Si5 0.840139 0.087348 0.080735
Si Si6 0.930106 0.298645 0.203376
O O1 0.728536 0.320944 0.592951
O O2 0.000000 0.500000 0.500000
O O3 0.500000 0.000000 0.500000
O O4 0.840548 0.192636 0.841721
O O5 0.500000 0.500000 0.500000
O O6 0.306373 0.308182 0.236132
O O7 0.140021 0.312285 0.194623
O O8 0.625349 0.785325 0.132680
O O9 0.634795 0.831070 0.662028
O O10 0.224122 0.506689 0.360799
O O11 0.698691 0.082816 0.290040
O O12 0.500000 0.500000 0.000000
O O13 0.000000 0.000000 0.000000
O O14 0.779459 0.084290 0.155187
O O15 0.000000 0.500000 0.000000
#
# Coordination Sequence:
#
# PCOD8037217 Si02
#       6
#     2   2   2   2   2   2
#     4  12  28  45  72 106 147 194 241 298 370 433
#     4  12  27  49  75 107 149 195 247 304 366 437
#     4  12  27  48  75 106 149 188 245 307 364 442
#     4  12  28  49  76 108 146 199 249 302 366 440
#     4  12  26  45  77 106 146 186 245 303 363 440
#     4  12  24  45  75 111 143 187 241 299 376 431
#
# _framework density 22.714314000000002
#
# number of rings (size 3 to 8) (size 9 to 14) (size 15 to 20)
#    0.000    0.000    1.667    8.000    9.333    0.000 
#    0.000    0.000    0.000    0.000    0.000    0.000 
#    0.000    0.000    0.000    0.000    0.000    0.000 
#
# Total GULP energy -148803.390082 kJ/mol
# GULP energy per Si atom -12400.282507 kJ/mol
# Density = 2.266262 g / cm^3
# Si number density = 22.714314 Si / 1000 Ang^3
#
#
#
# Elastic Constant Matrix: (Units=GPa)
#
#
# Indices 1 2 3 4 5 6 
#
# 1 112.6848 46.1506 56.4130 -13.8177 -4.3024 12.7327
# 2 46.1506 173.6952 79.1157 0.8769 -3.8399 20.7044
# 3 56.4130 79.1157 216.5059 9.1464 7.9387 13.0850
# 4 -13.8177 0.8769 9.1464 57.6144 3.1108 -5.6747
# 5 -4.3024 -3.8399 7.9387 3.1108 40.5736 2.1161
# 6 12.7327 20.7044 13.0850 -5.6747 2.1161 45.5855
#
#
#
# Elastic Compliance Matrix: (Units=1/GPa)
#
#
# Indices 1 2 3 4 5 6 
#
# 1 0.011363 -0.001738 -0.002415 0.002925 0.001361 -0.001390
# 2 -0.001738 0.007523 -0.002170 -0.000485 0.001116 -0.002421
# 3 -0.002415 -0.002170 0.006173 -0.001465 -0.001545 -0.000222
# 4 0.002925 -0.000485 -0.001465 0.018566 -0.000986 0.002181
# 5 0.001361 0.001116 -0.001545 -0.000986 0.025366 -0.001744
# 6 -0.001390 -0.002421 -0.000222 0.002181 -0.001744 0.023841
#
#
# Mechanical properties :
#
#
# Convention : Reuss Voigt Hill
#
# Bulk Modulus (GPa) = 80.56499 96.24940 88.40720
# Shear Modulus (GPa) = 45.61373 50.16847 47.89110
#
# Velocity S-wave (km/s) = 4.48610 4.70475 4.59672
# Velocity P-wave (km/s) = 7.89805 8.48403 8.19628
#
# Compressibility (1/GPa) = 0.01241234
#
# Stress axis : x y z
#
# Youngs Moduli (GPa) = 88.00613 132.92116 161.99170
#
# Poissons Ratio (x) = 0.23102 0.39122
# Poissons Ratio (y) = 0.15296 0.35159
# Poissons Ratio (z) = 0.21254 0.28849
#
# Static dielectric constant tensor:
#      x y z
#    x 4.256570 -0.114790 -0.066590 
#    y -0.114790 4.362450 0.256580 
#    z -0.066590 0.256580 4.866720 
# 
# 
# High freq. dielectric constant tensor:
#      x y z
#    x 1.901920 0.005690 -0.004180 
#    y 0.005690 1.918840 0.008880 
#    z -0.004180 0.008880 1.916370 
# 
# From -- ./inp_files/64865.got.cif
#   From: 2010.06.25/outbox.cif.g09.slc.cpg/sg2_33_cif.got.tgz:64865.got - 2010.06.27 13:26:56.
