data_PCOD8037433
_publ_section_title
;
Structure prediction by ZEFSAII (Michael W. Deem and Ramdas Pophale) SiO2 
 PCOD8037433
Probable space group: P -1
;
_chemical_formula_sum "Si O2"
_cell_formula_units_Z 14
_cell_length_a 9.467901
_cell_length_b 11.458272
_cell_length_c 14.448016
_cell_angle_alpha 125.827488
_cell_angle_beta 152.028465
_cell_angle_gamma 62.103565
_cell_volume 591.071094
_symmetry_space_group_name_H-M "P -1"
_symmetry_group_IT_number 2
_symmetry_cell_setting 'triclinic'
loop_
_space_group_symop_operation_xyz
x,y,z
-x,-y,-z
loop_
_atom_site_type_symbol
_atom_site_label
_atom_site_fract_x
_atom_site_fract_y
_atom_site_fract_z
Si Si1 0.887067 0.300054 0.617890
Si Si2 0.045910 0.616395 0.815854
Si Si3 0.715172 0.695510 0.836521
Si Si4 0.444005 0.621986 0.360762
Si Si5 0.267089 0.003805 0.947771
Si Si6 0.635859 0.874663 0.466829
Si Si7 0.418923 0.152031 0.792834
O O1 0.094999 0.453169 0.793847
O O2 0.623324 0.286963 0.383218
O O3 0.743425 0.294989 0.634697
O O4 0.095695 0.172027 0.662655
O O5 0.941526 0.699260 0.883416
O O6 0.785681 0.616054 0.588585
O O7 0.362996 0.696790 0.000392
O O8 0.713665 0.544511 0.823127
O O9 0.835302 0.834696 0.033024
O O10 0.458324 0.715515 0.317763
O O11 0.983002 0.883559 0.706027
O O12 0.425324 0.971312 0.121474
O O13 0.500000 0.000000 0.000000
O O14 0.623204 0.897915 0.360697
O O15 0.500000 0.000000 0.500000
#
# Coordination Sequence:
#
# PCOD8037433 Si02
#       7
#     2   2   2   2   2   2   2
#     4   9  20  39  71 101 134 177 227 275 342 401
#     4   9  18  41  70 100 131 179 226 280 333 398
#     4   9  20  42  72  95 135 182 227 274 337 397
#     4   9  20  45  71 100 131 178 230 280 328 406
#     4  12  28  47  67 103 141 180 224 283 344 397
#     4  12  28  45  71 104 136 180 233 274 335 412
#     4  12  25  43  70 101 142 177 220 284 344 398
#
# _framework density 23.685815999999999
#
# number of rings (size 3 to 8) (size 9 to 14) (size 15 to 20)
#    0.000    1.714    1.429    3.857    6.000    2.286 
#    5.143    4.286    0.000    0.000    0.000    0.000 
#    0.000    0.000    0.000    0.000    0.000    0.000 
#
# Total GULP energy -173604.950061 kJ/mol
# GULP energy per Si atom -12400.353576 kJ/mol
# Density = 2.363191 g / cm^3
# Si number density = 23.685816 Si / 1000 Ang^3
#
#
#
# Elastic Constant Matrix: (Units=GPa)
#
#
# Indices 1 2 3 4 5 6 
#
# 1 105.5816 47.4344 23.0070 -5.7612 -7.2695 13.4541
# 2 47.4344 102.0807 28.7322 1.7765 -7.5973 9.2620
# 3 23.0070 28.7322 41.2657 -8.0207 -0.7515 12.7445
# 4 -5.7612 1.7765 -8.0207 43.8218 -0.0756 3.7518
# 5 -7.2695 -7.5973 -0.7515 -0.0756 37.2144 -0.9529
# 6 13.4541 9.2620 12.7445 3.7518 -0.9529 35.2321
#
#
#
# Elastic Compliance Matrix: (Units=1/GPa)
#
#
# Indices 1 2 3 4 5 6 
#
# 1 0.012759 -0.004902 -0.002479 0.001667 0.001373 -0.002828
# 2 -0.004902 0.014471 -0.008309 -0.002871 0.001860 0.001429
# 3 -0.002479 -0.008309 0.036174 0.007554 -0.001711 -0.010805
# 4 0.001667 -0.002871 0.007554 0.024990 -0.000192 -0.005281
# 5 0.001373 0.001860 -0.001711 -0.000192 0.027494 0.000370
# 6 -0.002828 0.001429 -0.010805 -0.005281 0.000370 0.033568
#
#
# Mechanical properties :
#
#
# Convention : Reuss Voigt Hill
#
# Bulk Modulus (GPa) = 31.22329 49.69724 40.46027
# Shear Modulus (GPa) = 26.10834 33.23731 29.67282
#
# Velocity S-wave (km/s) = 3.32366 3.75007 3.54329
# Velocity P-wave (km/s) = 5.28581 6.30699 5.81885
#
# Compressibility (1/GPa) = 0.03202737
#
# Stress axis : x y z
#
# Youngs Moduli (GPa) = 78.37364 69.10321 27.64389
#
# Poissons Ratio (x) = 0.33872 0.06852
# Poissons Ratio (y) = 0.38416 0.22968
# Poissons Ratio (z) = 0.19426 0.57414
#
# Static dielectric constant tensor:
#      x y z
#    x 4.004680 0.087960 0.213860 
#    y 0.087960 4.339920 0.018610 
#    z 0.213860 0.018610 4.091060 
# 
# 
# High freq. dielectric constant tensor:
#      x y z
#    x 1.921970 0.003880 0.014140 
#    y 0.003880 1.940860 0.000230 
#    z 0.014140 0.000230 1.950510 
# 
# From -- ./inp_files/172603.got.cif
#   From: 2010.06.25/outbox.cif.g09.slc.cpg/sg2_87_cif.got.tgz:172603.got - 2010.06.27 13:26:56.
