data_PCOD8037959
_publ_section_title
;
Structure prediction by ZEFSAII (Michael W. Deem and Ramdas Pophale) SiO2 
 PCOD8037959
Probable space group: P -1
;
_chemical_formula_sum "Si O2"
_cell_formula_units_Z 16
_cell_length_a 30.888183
_cell_length_b 9.025860
_cell_length_c 8.696329
_cell_angle_alpha 54.610006
_cell_angle_beta 34.833594
_cell_angle_gamma 39.468834
_cell_volume 870.313150
_symmetry_space_group_name_H-M "P -1"
_symmetry_group_IT_number 2
_symmetry_cell_setting 'triclinic'
loop_
_space_group_symop_operation_xyz
x,y,z
-x,-y,-z
loop_
_atom_site_type_symbol
_atom_site_label
_atom_site_fract_x
_atom_site_fract_y
_atom_site_fract_z
Si Si1 0.959319 0.143237 0.376143
Si Si2 0.746850 0.821550 0.219746
Si Si3 0.160145 0.960370 0.823559
Si Si4 0.806879 0.682972 0.469643
Si Si5 0.702344 0.557799 0.334673
Si Si6 0.796292 0.139743 0.883374
Si Si7 0.654098 0.658172 0.060342
Si Si8 0.546710 0.973985 0.718150
O O1 0.895781 0.421331 0.427133
O O2 0.884999 0.101449 0.552269
O O3 0.000000 0.000000 0.500000
O O4 0.049436 0.056666 0.052337
O O5 0.805240 0.690884 0.284718
O O6 0.771121 0.625181 0.143732
O O7 0.628301 0.008002 0.482639
O O8 0.777526 0.969299 0.970495
O O9 0.237585 0.719553 0.647896
O O10 0.174387 0.145877 0.617287
O O11 0.177382 0.917995 0.979840
O O12 0.702928 0.766438 0.784349
O O13 0.604133 0.710636 0.636242
O O14 0.672035 0.626654 0.206894
O O15 0.699872 0.413362 0.987383
O O16 0.537700 0.833071 0.267796
O O17 0.500000 0.000000 0.000000
#
# Coordination Sequence:
#
# PCOD8037959 Si02
#       8
#     2   2   2   2   2   2   2   2
#     4   9  17  31  55  82 102 134 175 213 253 311
#     4   9  19  34  52  75 108 137 174 212 260 307
#     4   9  17  33  52  77 106 136 172 217 257 303
#     4  10  18  32  56  78 104 138 175 208 258 311
#     4   9  20  34  53  75 110 136 171 220 260 297
#     4   8  17  31  53  77 104 135 176 213 255 311
#     4  10  17  33  54  78 103 139 172 221 255 296
#     4  10  19  34  56  74 106 140 179 208 261 312
#
# _framework density 18.384186
#
# number of rings (size 3 to 8) (size 9 to 14) (size 15 to 20)
#    0.750    2.000    1.250    1.500    0.000    0.500 
#    0.000    5.625    0.000    0.000    0.000    0.000 
#    0.000    0.000    0.000    0.000    0.000    0.000 
#
# Total GULP energy -198235.869851 kJ/mol
# GULP energy per Si atom -12389.741866 kJ/mol
# Density = 1.834234 g / cm^3
# Si number density = 18.384186 Si / 1000 Ang^3
#
#
#
# Elastic Constant Matrix: (Units=GPa)
#
#
# Indices 1 2 3 4 5 6 
#
# 1 69.6249 53.0602 22.3217 0.0015 -9.2745 8.5118
# 2 53.0602 142.2622 51.8858 -2.5603 -21.7616 8.8963
# 3 22.3217 51.8858 57.2465 -6.9402 -17.4866 -2.6845
# 4 0.0015 -2.5603 -6.9402 29.5464 2.9621 -11.0171
# 5 -9.2745 -21.7616 -17.4866 2.9621 27.3188 1.1540
# 6 8.5118 8.8963 -2.6845 -11.0171 1.1540 19.4849
#
#
#
# Elastic Compliance Matrix: (Units=1/GPa)
#
#
# Indices 1 2 3 4 5 6 
#
# 1 0.021502 -0.005898 -0.003815 -0.005381 0.001179 -0.010338
# 2 -0.005898 0.013851 -0.010136 -0.004446 0.003357 -0.007857
# 3 -0.003815 -0.010136 0.033525 0.012472 0.010004 0.017373
# 4 -0.005381 -0.004446 0.012472 0.049648 -0.004223 0.034421
# 5 0.001179 0.003357 0.010004 -0.004223 0.046787 -0.005828
# 6 -0.010338 -0.007857 0.017373 0.034421 -0.005828 0.081626
#
#
# Mechanical properties :
#
#
# Convention : Reuss Voigt Hill
#
# Bulk Modulus (GPa) = 34.27101 58.18541 46.22821
# Shear Modulus (GPa) = 16.87120 24.72774 20.79947
#
# Velocity S-wave (km/s) = 3.03265 3.67148 3.36725
# Velocity P-wave (km/s) = 5.56279 7.04921 6.34965
#
# Compressibility (1/GPa) = 0.02917918
#
# Stress axis : x y z
#
# Youngs Moduli (GPa) = 46.50787 72.19857 29.82830
#
# Poissons Ratio (x) = 0.42583 0.11380
# Poissons Ratio (y) = 0.27431 0.30234
# Poissons Ratio (z) = 0.17744 0.73180
#
# Static dielectric constant tensor:
#      x y z
#    x 3.246880 -0.025140 -0.343950 
#    y -0.025140 3.511400 0.028250 
#    z -0.343950 0.028250 3.461260 
# 
# 
# High freq. dielectric constant tensor:
#      x y z
#    x 1.691640 -0.007820 -0.019320 
#    y -0.007820 1.713460 0.000000 
#    z -0.019320 0.000000 1.700450 
# 
# From -- ./inp_files/358425.got.cif
#   From: 2010.06.25/outbox.cif.g09.slc.cpg/sg2_180_cif.got.tgz:358425.got - 2010.06.27 13:26:56.
