data_PCOD8037515
_publ_section_title
;
Structure prediction by ZEFSAII (Michael W. Deem and Ramdas Pophale) SiO2 
 PCOD8037515
Probable space group: P -1
;
_chemical_formula_sum "Si O2"
_cell_formula_units_Z 16
_cell_length_a 14.808723
_cell_length_b 15.851683
_cell_length_c 6.722085
_cell_angle_alpha 47.153239
_cell_angle_beta 99.750971
_cell_angle_gamma 133.487659
_cell_volume 694.611359
_symmetry_space_group_name_H-M "P -1"
_symmetry_group_IT_number 2
_symmetry_cell_setting 'triclinic'
loop_
_space_group_symop_operation_xyz
x,y,z
-x,-y,-z
loop_
_atom_site_type_symbol
_atom_site_label
_atom_site_fract_x
_atom_site_fract_y
_atom_site_fract_z
Si Si1 0.838388 0.775952 0.313087
Si Si2 0.660930 0.445964 0.499186
Si Si3 0.399889 0.315994 0.386019
Si Si4 0.469258 0.834788 0.752403
Si Si5 0.240095 0.617555 0.685128
Si Si6 0.006838 0.283149 0.387884
Si Si7 0.244787 0.991246 0.564980
Si Si8 0.119858 0.705373 0.309466
O O1 0.760586 0.654315 0.274390
O O2 0.712271 0.729437 0.437601
O O3 0.866311 0.687909 0.587903
O O4 0.000000 0.000000 0.000000
O O5 0.504854 0.334707 0.522376
O O6 0.770023 0.488412 0.319765
O O7 0.625141 0.312489 0.864811
O O8 0.291849 0.146968 0.460259
O O9 0.500000 0.500000 0.000000
O O10 0.385997 0.729377 0.683659
O O11 0.500000 0.000000 0.500000
O O12 0.623562 0.920850 0.668197
O O13 0.248434 0.756428 0.382669
O O14 0.088544 0.466795 0.004152
O O15 0.879864 0.099004 0.498572
O O16 0.948088 0.270251 0.599100
O O17 0.194794 0.842489 0.933858
O O18 0.000000 0.500000 0.500000
#
# Coordination Sequence:
#
# PCOD8037515 Si02
#       8
#     2   2   2   2   2   2   2   2
#     4  12  28  47  78 106 139 195 254 310 369 428
#     4  12  27  51  75 106 154 190 246 311 368 440
#     4  12  28  52  74 105 148 202 250 309 377 429
#     4  12  27  45  74 111 148 196 239 293 371 452
#     4  12  25  46  75 107 149 193 238 298 371 445
#     4  12  27  47  72 109 150 188 246 305 363 442
#     4  12  28  46  74 108 149 191 247 300 365 445
#     4  12  26  45  75 110 151 193 235 300 376 437
#
# _framework density 23.034465000000001
#
# number of rings (size 3 to 8) (size 9 to 14) (size 15 to 20)
#    0.000    0.000    3.750    5.250   10.500    1.500 
#    0.000    0.000    0.000    0.000    0.000    0.000 
#    0.000    0.000    0.000    0.000    0.000    0.000 
#
# Total GULP energy -198389.008129 kJ/mol
# GULP energy per Si atom -12399.313008 kJ/mol
# Density = 2.298204 g / cm^3
# Si number density = 23.034465 Si / 1000 Ang^3
#
#
#
# Elastic Constant Matrix: (Units=GPa)
#
#
# Indices 1 2 3 4 5 6 
#
# 1 97.9531 20.2347 0.6940 9.8838 -0.8601 -1.3504
# 2 20.2347 144.9999 26.4287 -3.8684 1.8358 -8.4353
# 3 0.6940 26.4287 89.6202 -5.5552 -4.5826 -4.3882
# 4 9.8838 -3.8684 -5.5552 39.1530 2.2128 5.1809
# 5 -0.8601 1.8358 -4.5826 2.2128 39.7190 3.2434
# 6 -1.3504 -8.4353 -4.3882 5.1809 3.2434 43.0222
#
#
#
# Elastic Compliance Matrix: (Units=1/GPa)
#
#
# Indices 1 2 3 4 5 6 
#
# 1 0.010848 -0.001623 0.000255 -0.002938 0.000473 0.000366
# 2 -0.001623 0.007617 -0.002169 0.000741 -0.000776 0.001191
# 3 0.000255 -0.002169 0.011972 0.001270 0.001372 0.000547
# 4 -0.002938 0.000741 0.001270 0.026998 -0.001212 -0.002977
# 5 0.000473 -0.000776 0.001372 -0.001212 0.025594 -0.001781
# 6 0.000366 0.001191 0.000547 -0.002977 -0.001781 0.024037
#
#
# Mechanical properties :
#
#
# Convention : Reuss Voigt Hill
#
# Bulk Modulus (GPa) = 42.80564 47.47645 45.14104
# Shear Modulus (GPa) = 41.00722 43.39323 42.20022
#
# Velocity S-wave (km/s) = 4.22388 4.34503 4.28489
# Velocity P-wave (km/s) = 6.51244 6.76965 6.64229
#
# Compressibility (1/GPa) = 0.02336141
#
# Stress axis : x y z
#
# Youngs Moduli (GPa) = 92.18146 131.27974 83.53118
#
# Poissons Ratio (x) = 0.21311 -0.02128
# Poissons Ratio (y) = 0.14964 0.18120
# Poissons Ratio (z) = -0.02348 0.28477
#
# Static dielectric constant tensor:
#      x y z
#    x 4.160570 0.287400 -0.066510 
#    y 0.287400 4.857470 -0.476720 
#    z -0.066510 -0.476720 4.909300 
# 
# 
# High freq. dielectric constant tensor:
#      x y z
#    x 1.920290 0.004030 0.001810 
#    y 0.004030 1.931370 0.003660 
#    z 0.001810 0.003660 1.914380 
# 
# From -- ./inp_files/97503.got.cif
#   From: 2010.06.25/outbox.cif.g09.slc.cpg/sg2_49_cif.got.tgz:97503.got - 2010.06.27 13:26:56.
