data_PCOD8037150
_publ_section_title
;
Structure prediction by ZEFSAII (Michael W. Deem and Ramdas Pophale) SiO2 
 PCOD8037150
Probable space group: P -1
;
_chemical_formula_sum "Si O2"
_cell_formula_units_Z 14
_cell_length_a 8.768303
_cell_length_b 11.843928
_cell_length_c 9.049939
_cell_angle_alpha 102.488321
_cell_angle_beta 45.661753
_cell_angle_gamma 107.891305
_cell_volume 639.694373
_symmetry_space_group_name_H-M "P -1"
_symmetry_group_IT_number 2
_symmetry_cell_setting 'triclinic'
loop_
_space_group_symop_operation_xyz
x,y,z
-x,-y,-z
loop_
_atom_site_type_symbol
_atom_site_label
_atom_site_fract_x
_atom_site_fract_y
_atom_site_fract_z
Si Si1 0.454262 0.108263 0.650853
Si Si2 0.479599 0.513057 0.190528
Si Si3 0.689319 0.954647 0.941384
Si Si4 0.042367 0.383541 0.012837
Si Si5 0.162166 0.671138 0.547021
Si Si6 0.920609 0.824028 0.260727
Si Si7 0.769406 0.729326 0.655539
O O1 0.681944 0.200583 0.541395
O O2 0.284161 0.166577 0.696771
O O3 0.500000 0.000000 0.500000
O O4 0.359197 0.061309 0.858839
O O5 0.698964 0.597040 0.128122
O O6 0.275850 0.570370 0.380707
O O7 0.439711 0.381166 0.252023
O O8 0.500000 0.500000 0.000000
O O9 0.709148 0.829345 0.827457
O O10 0.915272 0.049750 0.796893
O O11 0.500000 0.000000 0.000000
O O12 0.966569 0.272646 0.921302
O O13 0.000000 0.500000 0.000000
O O14 0.901424 0.355192 0.247674
O O15 0.951430 0.671634 0.591894
O O16 0.841144 0.781902 0.463941
#
# Coordination Sequence:
#
# PCOD8037150 Si02
#       7
#     2   2   2   2   2   2   2
#     4  12  24  44  72 100 142 182 231 296 351 409
#     4  12  26  47  73 105 143 187 237 284 352 420
#     4  12  26  47  71 104 142 187 239 288 351 423
#     4  12  28  45  73 106 144 185 231 294 352 413
#     4  12  25  48  70 105 140 186 236 284 353 421
#     4  12  26  46  69 106 140 180 238 291 351 414
#     4  12  26  44  74 100 142 189 235 289 349 421
#
# _framework density 21.885452999999998
#
# number of rings (size 3 to 8) (size 9 to 14) (size 15 to 20)
#    0.000    0.000    2.857    7.286    6.000    1.143 
#    0.000    0.000    0.000    0.000    0.000    0.000 
#    0.000    0.000    0.000    0.000    0.000    0.000 
#
# Total GULP energy -173708.077596 kJ/mol
# GULP energy per Si atom -12407.719828 kJ/mol
# Density = 2.183564 g / cm^3
# Si number density = 21.885453 Si / 1000 Ang^3
#
#
#
# Elastic Constant Matrix: (Units=GPa)
#
#
# Indices 1 2 3 4 5 6 
#
# 1 52.7971 3.0564 21.9220 7.7911 16.6400 -13.0957
# 2 3.0564 141.5863 54.9224 7.7708 12.9802 9.6777
# 3 21.9220 54.9224 150.0545 2.6979 32.2798 -8.8173
# 4 7.7911 7.7708 2.6979 60.5554 -7.0710 -0.1042
# 5 16.6400 12.9802 32.2798 -7.0710 46.7603 -7.0562
# 6 -13.0957 9.6777 -8.8173 -0.1042 -7.0562 45.6680
#
#
#
# Elastic Compliance Matrix: (Units=1/GPa)
#
#
# Indices 1 2 3 4 5 6 
#
# 1 0.023791 0.000708 -0.001805 -0.003906 -0.007223 0.005199
# 2 0.000708 0.008589 -0.003151 -0.001173 -0.000998 -0.002382
# 3 -0.001805 -0.003151 0.009163 -0.000315 -0.004676 0.001196
# 4 -0.003906 -0.001173 -0.000315 0.017716 0.004585 -0.000183
# 5 -0.007223 -0.000998 -0.004676 0.004585 0.028401 0.001636
# 6 0.005199 -0.002382 0.001196 -0.000183 0.001636 0.024376
#
#
# Mechanical properties :
#
#
# Convention : Reuss Voigt Hill
#
# Bulk Modulus (GPa) = 30.26126 56.02662 43.14394
# Shear Modulus (GPa) = 38.00871 48.23255 43.12063
#
# Velocity S-wave (km/s) = 4.17191 4.69963 4.44361
# Velocity P-wave (km/s) = 6.08798 7.42322 6.78851
#
# Compressibility (1/GPa) = 0.03304555
#
# Stress axis : x y z
#
# Youngs Moduli (GPa) = 42.03212 116.43277 109.13226
#
# Poissons Ratio (x) = -0.08242 0.19703
# Poissons Ratio (y) = -0.02976 0.34391
# Poissons Ratio (z) = 0.07589 0.36691
#
# Static dielectric constant tensor:
#      x y z
#    x 4.977720 0.141590 -0.408390 
#    y 0.141590 4.438600 -0.071760 
#    z -0.408390 -0.071760 4.291420 
# 
# 
# High freq. dielectric constant tensor:
#      x y z
#    x 1.867390 0.003530 0.004290 
#    y 0.003530 1.890170 -0.001190 
#    z 0.004290 -0.001190 1.879330 
# 
# From -- ./inp_files/26891.got.cif
#   From: 2010.06.25/outbox.cif.g09.slc.cpg/sg2_14_cif.got.tgz:26891.got - 2010.06.27 13:26:56.
