data_PCOD8037313
_publ_section_title
;
Structure prediction by ZEFSAII (Michael W. Deem and Ramdas Pophale) SiO2 
 PCOD8037313
Probable space group: P -1
;
_chemical_formula_sum "Si O2"
_cell_formula_units_Z 16
_cell_length_a 11.397346
_cell_length_b 9.598748
_cell_length_c 9.743881
_cell_angle_alpha 136.151091
_cell_angle_beta 85.508619
_cell_angle_gamma 91.319750
_cell_volume 735.338021
_symmetry_space_group_name_H-M "P -1"
_symmetry_group_IT_number 2
_symmetry_cell_setting 'triclinic'
loop_
_space_group_symop_operation_xyz
x,y,z
-x,-y,-z
loop_
_atom_site_type_symbol
_atom_site_label
_atom_site_fract_x
_atom_site_fract_y
_atom_site_fract_z
Si Si1 0.735587 0.844754 0.428938
Si Si2 0.992374 0.730020 0.202434
Si Si3 0.766978 0.279970 0.698349
Si Si4 0.776962 0.706960 0.618634
Si Si5 0.001275 0.044946 0.192725
Si Si6 0.610962 0.631237 0.057924
Si Si7 0.242423 0.738922 0.617848
Si Si8 0.383679 0.071680 0.982980
O O1 0.866546 0.801158 0.325415
O O2 0.713950 0.749192 0.510199
O O3 0.635637 0.767825 0.283483
O O4 0.709557 0.082285 0.622597
O O5 0.090950 0.756525 0.330158
O O6 0.028313 0.848726 0.145093
O O7 0.000000 0.500000 0.000000
O O8 0.713067 0.314998 0.576595
O O9 0.725934 0.480034 0.926675
O O10 0.784916 0.466340 0.450522
O O11 0.706353 0.812832 0.824312
O O12 0.907539 0.786007 0.662343
O O13 0.872847 0.123170 0.301600
O O14 0.000000 0.000000 0.000000
O O15 0.500000 0.500000 0.000000
O O16 0.588510 0.775693 0.032539
O O17 0.332767 0.865672 0.785560
O O18 0.500000 0.000000 0.000000
#
# Coordination Sequence:
#
# PCOD8037313 Si02
#       8
#     2   2   2   2   2   2   2   2
#     4  12  26  48  73 109 144 187 236 289 354 423
#     4  12  25  42  74 108 149 187 227 290 356 424
#     4  12  24  47  75 103 144 186 233 288 355 423
#     4  12  28  46  74 109 143 190 233 288 360 423
#     4  12  25  43  72 108 149 187 230 286 356 427
#     4  12  29  49  75 104 138 189 244 296 351 414
#     4  12  26  47  75 103 148 189 231 288 358 424
#     4  12  29  51  72 103 144 185 242 302 347 415
#
# _framework density 21.758700000000001
#
# number of rings (size 3 to 8) (size 9 to 14) (size 15 to 20)
#    0.000    0.000    7.500    1.500    7.000    2.000 
#    0.000    0.000    0.000    0.000    0.000    0.000 
#    0.000    0.000    0.000    0.000    0.000    0.000 
#
# Total GULP energy -198431.174794 kJ/mol
# GULP energy per Si atom -12401.948425 kJ/mol
# Density = 2.170918 g / cm^3
# Si number density = 21.758700 Si / 1000 Ang^3
#
#
#
# Elastic Constant Matrix: (Units=GPa)
#
#
# Indices 1 2 3 4 5 6 
#
# 1 90.6822 30.3172 17.4319 2.7566 37.0566 -0.2457
# 2 30.3172 180.0952 55.0795 7.5106 28.0928 0.6525
# 3 17.4319 55.0795 100.4849 2.2190 30.3052 -0.8426
# 4 2.7566 7.5106 2.2190 50.6776 1.1605 4.4933
# 5 37.0566 28.0928 30.3052 1.1605 35.2385 -1.4874
# 6 -0.2457 0.6525 -0.8426 4.4933 -1.4874 33.6549
#
#
#
# Elastic Compliance Matrix: (Units=1/GPa)
#
#
# Indices 1 2 3 4 5 6 
#
# 1 0.020615 -0.000933 0.004400 -0.000544 -0.024732 -0.000742
# 2 -0.000933 0.006982 -0.003068 -0.000788 -0.001930 -0.000199
# 3 0.004400 -0.003068 0.015567 -0.000092 -0.015574 -0.000195
# 4 -0.000544 -0.000788 -0.000092 0.020107 0.000505 -0.002653
# 5 -0.024732 -0.001930 -0.015574 0.000505 0.069406 0.002467
# 6 -0.000742 -0.000199 -0.000195 -0.002653 0.002467 0.030170
#
#
# Mechanical properties :
#
#
# Convention : Reuss Voigt Hill
#
# Bulk Modulus (GPa) = 22.74634 64.10217 43.42426
# Shear Modulus (GPa) = 28.29607 41.80980 35.05293
#
# Velocity S-wave (km/s) = 3.61009 4.38827 4.01806
# Velocity P-wave (km/s) = 5.27765 7.42969 6.44414
#
# Compressibility (1/GPa) = 0.04396312
#
# Stress axis : x y z
#
# Youngs Moduli (GPa) = 48.50948 143.21552 64.23640
#
# Poissons Ratio (x) = 0.13356 -0.28262
# Poissons Ratio (y) = 0.04524 0.19706
# Poissons Ratio (z) = -0.21343 0.43935
#
# Static dielectric constant tensor:
#      x y z
#    x 3.970670 -0.061700 0.567830 
#    y -0.061700 4.174760 0.100530 
#    z 0.567830 0.100530 9.842530 
# 
# 
# High freq. dielectric constant tensor:
#      x y z
#    x 1.846650 -0.004090 0.013000 
#    y -0.004090 1.874830 0.003830 
#    z 0.013000 0.003830 1.872710 
# 
# From -- ./inp_files/188030.got.cif
#   From: 2010.06.25/outbox.cif.g09.slc.cpg/sg2_95_cif.got.tgz:188030.got - 2010.06.27 13:26:56.
