data_PCOD8037665
_publ_section_title
;
Structure prediction by ZEFSAII (Michael W. Deem and Ramdas Pophale) SiO2 
 PCOD8037665
Probable space group: P -1
;
_chemical_formula_sum "Si O2"
_cell_formula_units_Z 14
_cell_length_a 11.555983
_cell_length_b 9.002915
_cell_length_c 11.276452
_cell_angle_alpha 62.899482
_cell_angle_beta 140.065598
_cell_angle_gamma 127.950108
_cell_volume 593.536037
_symmetry_space_group_name_H-M "P -1"
_symmetry_group_IT_number 2
_symmetry_cell_setting 'triclinic'
loop_
_space_group_symop_operation_xyz
x,y,z
-x,-y,-z
loop_
_atom_site_type_symbol
_atom_site_label
_atom_site_fract_x
_atom_site_fract_y
_atom_site_fract_z
Si Si1 0.803365 0.091686 0.013299
Si Si2 0.848526 0.537212 0.446482
Si Si3 0.488704 0.795472 0.560468
Si Si4 0.093113 0.182499 0.428290
Si Si5 0.707028 0.681431 0.080059
Si Si6 0.435571 0.696322 0.287187
Si Si7 0.178403 0.309259 0.089530
O O1 0.976288 0.144238 0.228082
O O2 0.937055 0.198615 0.964504
O O3 0.681464 0.868696 0.977619
O O4 0.632747 0.158242 0.880041
O O5 0.651010 0.339768 0.394175
O O6 0.939908 0.650376 0.598238
O O7 0.817143 0.689617 0.286975
O O8 0.000000 0.500000 0.500000
O O9 0.403152 0.694971 0.403525
O O10 0.715834 0.823494 0.751196
O O11 0.500000 0.000000 0.500000
O O12 0.331862 0.246041 0.578005
O O13 0.000000 0.000000 0.500000
O O14 0.500000 0.500000 0.000000
O O15 0.812597 0.646196 0.059728
O O16 0.290832 0.493533 0.192616
#
# Coordination Sequence:
#
# PCOD8037665 Si02
#       7
#     2   2   2   2   2   2   2
#     4  12  28  47  82 113 147 204 256 309 381 456
#     4  12  29  47  74 110 156 198 247 316 384 445
#     4  12  26  47  77 109 151 203 250 310 378 447
#     4  12  26  51  76 114 154 196 255 315 379 450
#     4  12  26  49  70 112 154 197 250 312 380 448
#     4  12  27  50  81 111 152 200 259 317 374 446
#     4  12  25  50  77 109 156 196 257 317 372 456
#
# _framework density 23.587447999999998
#
# number of rings (size 3 to 8) (size 9 to 14) (size 15 to 20)
#    0.000    0.000    5.714    3.000    8.000    0.571 
#    0.000    0.000    0.000    0.000    0.000    0.000 
#    0.000    0.000    0.000    0.000    0.000    0.000 
#
# Total GULP energy -173573.691370 kJ/mol
# GULP energy per Si atom -12398.120812 kJ/mol
# Density = 2.353376 g / cm^3
# Si number density = 23.587448 Si / 1000 Ang^3
#
#
#
# Elastic Constant Matrix: (Units=GPa)
#
#
# Indices 1 2 3 4 5 6 
#
# 1 139.6698 68.6747 30.9809 -3.0600 0.1062 -7.0110
# 2 68.6747 150.8052 34.2393 -4.5506 -1.3991 -9.5886
# 3 30.9809 34.2393 63.4017 -3.6794 3.7527 0.8982
# 4 -3.0600 -4.5506 -3.6794 35.7213 -2.2889 -3.4796
# 5 0.1062 -1.3991 3.7527 -2.2889 43.8496 -5.6651
# 6 -7.0110 -9.5886 0.8982 -3.4796 -5.6651 37.9794
#
#
#
# Elastic Compliance Matrix: (Units=1/GPa)
#
#
# Indices 1 2 3 4 5 6 
#
# 1 0.009636 -0.003701 -0.002727 0.000181 0.000225 0.000959
# 2 -0.003701 0.009193 -0.003190 0.000767 0.000862 0.001912
# 3 -0.002727 -0.003190 0.019027 0.001006 -0.001923 -0.001953
# 4 0.000181 0.000767 0.001006 0.028631 0.001833 0.003100
# 5 0.000225 0.000862 -0.001923 0.001833 0.023608 0.003994
# 6 0.000959 0.001912 -0.001953 0.003100 0.003994 0.027916
#
#
# Mechanical properties :
#
#
# Convention : Reuss Voigt Hill
#
# Bulk Modulus (GPa) = 53.69888 69.07404 61.38646
# Shear Modulus (GPa) = 34.85445 38.17552 36.51498
#
# Velocity S-wave (km/s) = 3.84822 4.02738 3.93882
# Velocity P-wave (km/s) = 6.52383 7.13962 6.83866
#
# Compressibility (1/GPa) = 0.01862236
#
# Stress axis : x y z
#
# Youngs Moduli (GPa) = 103.77740 108.77530 52.55564
#
# Poissons Ratio (x) = 0.40252 0.14330
# Poissons Ratio (y) = 0.38403 0.16766
# Poissons Ratio (z) = 0.28296 0.34700
#
# Static dielectric constant tensor:
#      x y z
#    x 4.451800 -0.179670 0.039270 
#    y -0.179670 4.096630 0.204060 
#    z 0.039270 0.204060 4.053210 
# 
# 
# High freq. dielectric constant tensor:
#      x y z
#    x 1.944910 -0.003500 -0.014880 
#    y -0.003500 1.946840 -0.000650 
#    z -0.014880 -0.000650 1.939550 
# 
# From -- ./inp_files/189947.got.cif
#   From: 2010.06.25/outbox.cif.g09.slc.cpg/sg2_95_cif.got.tgz:189947.got - 2010.06.27 13:26:56.
