data_PCOD8037169
_publ_section_title
;
Structure prediction by ZEFSAII (Michael W. Deem and Ramdas Pophale) SiO2 
 PCOD8037169
Probable space group: P -1
;
_chemical_formula_sum "Si O2"
_cell_formula_units_Z 16
_cell_length_a 8.871144
_cell_length_b 19.378518
_cell_length_c 22.650155
_cell_angle_alpha 161.763622
_cell_angle_beta 33.209624
_cell_angle_gamma 146.982431
_cell_volume 645.168218
_symmetry_space_group_name_H-M "P -1"
_symmetry_group_IT_number 2
_symmetry_cell_setting 'triclinic'
loop_
_space_group_symop_operation_xyz
x,y,z
-x,-y,-z
loop_
_atom_site_type_symbol
_atom_site_label
_atom_site_fract_x
_atom_site_fract_y
_atom_site_fract_z
Si Si1 0.205583 0.333196 0.302869
Si Si2 0.431331 0.807400 0.486064
Si Si3 0.775428 0.535692 0.209920
Si Si4 0.818517 0.191321 0.604696
Si Si5 0.868098 0.552770 0.791080
Si Si6 0.770416 0.046706 0.788954
Si Si7 0.514810 0.723651 0.712756
Si Si8 0.691902 0.982218 0.179407
O O1 0.482667 0.428602 0.252052
O O2 0.292646 0.277485 0.294523
O O3 0.000000 0.500000 0.500000
O O4 0.016433 0.096215 0.144674
O O5 0.697731 0.690399 0.308690
O O6 0.158435 0.619582 0.396419
O O7 0.353540 0.895545 0.645575
O O8 0.526330 0.016107 0.578469
O O9 0.002230 0.710519 0.316681
O O10 0.889316 0.322108 0.976361
O O11 0.748726 0.403645 0.766633
O O12 0.982641 0.066282 0.403820
O O13 0.186971 0.707080 0.823928
O O14 0.655061 0.713874 0.981949
O O15 0.522190 0.970382 0.760356
O O16 0.650838 0.950023 0.813850
O O17 0.500000 0.500000 0.500000
#
# Coordination Sequence:
#
# PCOD8037169 Si02
#       8
#     2   2   2   2   2   2   2   2
#     4  12  24  44  75 108 144 184 231 294 366 428
#     4  12  27  48  74 102 143 193 241 299 349 416
#     4  12  25  45  75 106 142 185 238 294 357 420
#     4  12  27  49  72 104 145 186 247 298 349 419
#     4  12  27  48  72 108 144 186 239 296 359 425
#     4  12  27  45  75 109 143 191 236 291 361 426
#     4  12  24  44  74 107 146 185 230 296 363 425
#     4  12  27  45  74 107 145 189 238 289 361 426
#
# _framework density 24.799731999999999
#
# number of rings (size 3 to 8) (size 9 to 14) (size 15 to 20)
#    0.000    0.000    6.250    3.000    3.500    4.000 
#    0.000    0.000    0.000    0.000    0.000    0.000 
#    0.000    0.000    0.000    0.000    0.000    0.000 
#
# Total GULP energy -198413.661644 kJ/mol
# GULP energy per Si atom -12400.853853 kJ/mol
# Density = 2.474329 g / cm^3
# Si number density = 24.799732 Si / 1000 Ang^3
#
#
#
# Elastic Constant Matrix: (Units=GPa)
#
#
# Indices 1 2 3 4 5 6 
#
# 1 113.0698 20.5543 14.1069 -1.3752 -3.5132 -7.9846
# 2 20.5543 77.2952 10.2676 18.3769 -0.3832 -2.9738
# 3 14.1069 10.2676 84.2003 17.1395 4.4058 5.9154
# 4 -1.3752 18.3769 17.1395 24.2578 -6.6839 -1.2520
# 5 -3.5132 -0.3832 4.4058 -6.6839 38.3008 10.1657
# 6 -7.9846 -2.9738 5.9154 -1.2520 10.1657 37.2566
#
#
#
# Elastic Compliance Matrix: (Units=1/GPa)
#
#
# Indices 1 2 3 4 5 6 
#
# 1 0.010096 -0.003611 -0.002650 0.005742 0.001656 0.002037
# 2 -0.003611 0.017347 0.001753 -0.015442 -0.003239 0.000697
# 3 -0.002650 0.001753 0.015174 -0.013335 -0.003694 -0.002277
# 4 0.005742 -0.015442 -0.013335 0.066371 0.013298 0.000717
# 5 0.001656 -0.003239 -0.003694 0.013298 0.030913 -0.007305
# 6 0.002037 0.000697 -0.002277 0.000717 -0.007305 0.029712
#
#
# Mechanical properties :
#
#
# Convention : Reuss Voigt Hill
#
# Bulk Modulus (GPa) = 29.75989 40.49143 35.12566
# Shear Modulus (GPa) = 26.33942 35.27215 30.80579
#
# Velocity S-wave (km/s) = 3.26250 3.77540 3.52828
# Velocity P-wave (km/s) = 5.12035 5.94708 5.54913
#
# Compressibility (1/GPa) = 0.03360228
#
# Stress axis : x y z
#
# Youngs Moduli (GPa) = 99.04594 57.64746 65.90061
#
# Poissons Ratio (x) = 0.20819 0.17462
# Poissons Ratio (y) = 0.35769 -0.11556
# Poissons Ratio (z) = 0.26245 -0.10108
#
# Static dielectric constant tensor:
#      x y z
#    x 4.570990 0.015470 -0.171040 
#    y 0.015470 4.653360 0.370540 
#    z -0.171040 0.370540 4.772530 
# 
# 
# High freq. dielectric constant tensor:
#      x y z
#    x 2.006370 -0.003890 -0.004660 
#    y -0.003890 1.977210 0.023630 
#    z -0.004660 0.023630 1.992980 
# 
# From -- ./inp_files/187097.got.cif
#   From: 2010.06.25/outbox.cif.g09.slc.cpg/sg2_94_cif.got.tgz:187097.got - 2010.06.27 13:26:56.
