data_PCOD8037426
_publ_section_title
;
Structure prediction by ZEFSAII (Michael W. Deem and Ramdas Pophale) SiO2 
 PCOD8037426
Probable space group: P -1
;
_chemical_formula_sum "Si O2"
_cell_formula_units_Z 14
_cell_length_a 9.345255
_cell_length_b 12.096779
_cell_length_c 7.816235
_cell_angle_alpha 66.026418
_cell_angle_beta 58.807919
_cell_angle_gamma 94.332949
_cell_volume 642.772373
_symmetry_space_group_name_H-M "P -1"
_symmetry_group_IT_number 2
_symmetry_cell_setting 'triclinic'
loop_
_space_group_symop_operation_xyz
x,y,z
-x,-y,-z
loop_
_atom_site_type_symbol
_atom_site_label
_atom_site_fract_x
_atom_site_fract_y
_atom_site_fract_z
Si Si1 0.359284 0.136788 0.811204
Si Si2 0.934883 0.617209 0.942664
Si Si3 0.746704 0.149676 0.532017
Si Si4 0.224824 0.839591 0.096239
Si Si5 0.840548 0.691045 0.296709
Si Si6 0.389772 0.150679 0.179475
Si Si7 0.688094 0.612734 0.789847
O O1 0.257308 0.205968 0.714646
O O2 0.567705 0.182676 0.598425
O O3 0.341039 0.164875 0.004271
O O4 0.265081 0.986109 0.924819
O O5 0.822682 0.591346 0.855577
O O6 0.099976 0.756567 0.744785
O O7 0.808607 0.614272 0.185487
O O8 0.000000 0.500000 0.000000
O O9 0.814732 0.178112 0.666495
O O10 0.707633 0.998797 0.604688
O O11 0.604786 0.197508 0.036859
O O12 0.053858 0.752223 0.151698
O O13 0.755339 0.596702 0.568060
O O14 0.319725 0.243717 0.276316
O O15 0.500000 0.500000 0.000000
#
# Coordination Sequence:
#
# PCOD8037426 Si02
#       7
#     2   2   2   2   2   2   2
#     4   9  19  38  69 106 138 175 222 275 336 399
#     4  12  29  48  68 100 136 180 226 279 339 400
#     4   9  20  43  71  99 140 180 219 278 337 394
#     4   9  19  38  69 106 138 175 222 275 336 399
#     4  12  25  42  70 100 133 178 226 284 324 404
#     4   9  20  43  71  99 140 180 219 278 337 394
#     4  12  29  48  68 100 136 180 226 279 339 400
#
# _framework density 21.780649
#
# number of rings (size 3 to 8) (size 9 to 14) (size 15 to 20)
#    0.000    1.714    2.857    2.143    4.000    6.286 
#    0.000    2.857    0.000    0.000    0.000    0.000 
#    0.000    0.000    0.000    0.000    0.000    0.000 
#
# Total GULP energy -173628.902086 kJ/mol
# GULP energy per Si atom -12402.064435 kJ/mol
# Density = 2.173107 g / cm^3
# Si number density = 21.780649 Si / 1000 Ang^3
#
#
#
# Elastic Constant Matrix: (Units=GPa)
#
#
# Indices 1 2 3 4 5 6 
#
# 1 111.8282 21.0049 50.3819 -22.4540 8.5902 -7.2959
# 2 21.0049 69.3331 42.8756 -12.7410 -0.5955 -16.8036
# 3 50.3819 42.8756 148.2682 0.7471 -2.5598 0.4203
# 4 -22.4540 -12.7410 0.7471 24.8318 -1.3457 -7.0153
# 5 8.5902 -0.5955 -2.5598 -1.3457 28.2417 -11.3331
# 6 -7.2959 -16.8036 0.4203 -7.0153 -11.3331 31.7007
#
#
#
# Elastic Compliance Matrix: (Units=1/GPa)
#
#
# Indices 1 2 3 4 5 6 
#
# 1 0.016349 0.006990 -0.007714 0.022229 0.000638 0.012717
# 2 0.006990 0.033549 -0.012134 0.033293 0.011524 0.031041
# 3 -0.007714 -0.012134 0.012950 -0.017502 -0.002903 -0.013290
# 4 0.022229 0.033293 -0.017502 0.092866 0.016642 0.049496
# 5 0.000638 0.011524 -0.002903 0.016642 0.046689 0.026668
# 6 0.012717 0.031041 -0.013290 0.049496 0.026668 0.071589
#
#
# Mechanical properties :
#
#
# Convention : Reuss Voigt Hill
#
# Bulk Modulus (GPa) = 26.93010 61.99492 44.46251
# Shear Modulus (GPa) = 16.02128 31.29931 23.66029
#
# Velocity S-wave (km/s) = 2.71509 3.79492 3.29948
# Velocity P-wave (km/s) = 4.71381 6.90847 5.91384
#
# Compressibility (1/GPa) = 0.03713317
#
# Stress axis : x y z
#
# Youngs Moduli (GPa) = 61.16697 29.80708 77.21934
#
# Poissons Ratio (x) = -0.20835 0.59564
# Poissons Ratio (y) = -0.42755 0.93694
# Poissons Ratio (z) = 0.47182 0.36167
#
# Static dielectric constant tensor:
#      x y z
#    x 4.039080 0.001140 0.047370 
#    y 0.001140 3.757720 0.052800 
#    z 0.047370 0.052800 3.922590 
# 
# 
# High freq. dielectric constant tensor:
#      x y z
#    x 1.867360 -0.004030 0.005200 
#    y -0.004030 1.840840 0.002330 
#    z 0.005200 0.002330 1.858140 
# 
# From -- ./inp_files/65798.got.cif
#   From: 2010.06.25/outbox.cif.g09.slc.cpg/sg2_33_cif.got.tgz:65798.got - 2010.06.27 13:26:56.
