data_PCOD8037812
_publ_section_title
;
Structure prediction by ZEFSAII (Michael W. Deem and Ramdas Pophale) SiO2 
 PCOD8037812
Probable space group: P -1
;
_chemical_formula_sum "Si O2"
_cell_formula_units_Z 10
_cell_length_a 9.500088
_cell_length_b 9.592022
_cell_length_c 9.113789
_cell_angle_alpha 101.823779
_cell_angle_beta 105.925260
_cell_angle_gamma 30.299320
_cell_volume 402.040477
_symmetry_space_group_name_H-M "P -1"
_symmetry_group_IT_number 2
_symmetry_cell_setting 'triclinic'
loop_
_space_group_symop_operation_xyz
x,y,z
-x,-y,-z
loop_
_atom_site_type_symbol
_atom_site_label
_atom_site_fract_x
_atom_site_fract_y
_atom_site_fract_z
Si Si1 0.209584 0.762536 0.891376
Si Si2 0.604445 0.643118 0.311598
Si Si3 0.406458 0.085626 0.822644
Si Si4 0.222038 0.445634 0.343669
Si Si5 0.887032 0.146859 0.652087
O O1 0.163421 0.647621 0.772744
O O2 0.500000 0.500000 0.000000
O O3 0.172940 0.911443 0.784428
O O4 0.000000 0.000000 0.000000
O O5 0.478540 0.866442 0.211723
O O6 0.766519 0.580878 0.481996
O O7 0.339376 0.771089 0.321021
O O8 0.066308 0.374433 0.769801
O O9 0.517505 0.855717 0.718328
O O10 0.500000 0.000000 0.000000
O O11 0.263585 0.575966 0.342854
O O12 0.000000 0.000000 0.500000
#
# Coordination Sequence:
#
# PCOD8037812 Si02
#       5
#     2   2   2   2   2
#     4  12  28  45  76 115 160 196 253 318 392 442
#     4  12  28  51  80 115 157 208 260 313 386 467
#     4  12  31  51  77 112 158 204 258 318 390 456
#     4  12  28  50  78 110 156 206 257 314 383 462
#     4  12  27  50  82 118 153 200 265 320 382 464
#
# _framework density 24.873118999999999
#
# number of rings (size 3 to 8) (size 9 to 14) (size 15 to 20)
#    0.000    0.000    4.000    3.600   11.200    0.000 
#    0.000    0.000    0.000    0.000    0.000    0.000 
#    0.000    0.000    0.000    0.000    0.000    0.000 
#
# Total GULP energy -123913.022884 kJ/mol
# GULP energy per Si atom -12391.302288 kJ/mol
# Density = 2.481651 g / cm^3
# Si number density = 24.873119 Si / 1000 Ang^3
#
#
#
# Elastic Constant Matrix: (Units=GPa)
#
#
# Indices 1 2 3 4 5 6 
#
# 1 123.9319 32.9509 37.0561 6.4989 -28.3313 19.1152
# 2 32.9509 155.6169 79.1847 10.9474 -16.7344 27.9782
# 3 37.0561 79.1847 238.6142 -5.7723 -15.6886 20.3323
# 4 6.4989 10.9474 -5.7723 66.5683 11.6631 9.0568
# 5 -28.3313 -16.7344 -15.6886 11.6631 35.5166 -10.2120
# 6 19.1152 27.9782 20.3323 9.0568 -10.2120 52.7168
#
#
#
# Elastic Compliance Matrix: (Units=1/GPa)
#
#
# Indices 1 2 3 4 5 6 
#
# 1 0.010682 -0.000533 -0.000887 -0.002313 0.008279 -0.001247
# 2 -0.000533 0.008630 -0.002436 -0.001613 0.002312 -0.002722
# 3 -0.000887 -0.002436 0.005208 0.001029 -0.000061 -0.000582
# 4 -0.002313 -0.001613 0.001029 0.017640 -0.008939 -0.003464
# 5 0.008279 0.002312 -0.000061 -0.008939 0.040231 0.005124
# 6 -0.001247 -0.002722 -0.000582 -0.003464 0.005124 0.022679
#
#
# Mechanical properties :
#
#
# Convention : Reuss Voigt Hill
#
# Bulk Modulus (GPa) = 59.50040 90.72736 75.11388
# Shear Modulus (GPa) = 42.23496 55.55842 48.89669
#
# Velocity S-wave (km/s) = 4.12517 4.73130 4.43859
# Velocity P-wave (km/s) = 6.83102 8.14876 7.51881
#
# Compressibility (1/GPa) = 0.01680661
#
# Stress axis : x y z
#
# Youngs Moduli (GPa) = 93.61300 115.87370 192.02568
#
# Poissons Ratio (x) = 0.06178 0.17039
# Poissons Ratio (y) = 0.04991 0.46781
# Poissons Ratio (z) = 0.08307 0.28229
#
# Static dielectric constant tensor:
#      x y z
#    x 4.346390 0.328610 -0.165210 
#    y 0.328610 4.727310 -0.141400 
#    z -0.165210 -0.141400 5.520210 
# 
# 
# High freq. dielectric constant tensor:
#      x y z
#    x 1.964810 0.017410 -0.004360 
#    y 0.017410 2.020100 -0.005570 
#    z -0.004360 -0.005570 2.024890 
# 
# From -- ./inp_files/57805.got.cif
#   From: 2010.06.25/outbox.cif.g09.slc.cpg/sg2_29_cif.got.tgz:57805.got - 2010.06.27 13:26:56.
