data_PCOD8037306
_publ_section_title
;
Structure prediction by ZEFSAII (Michael W. Deem and Ramdas Pophale) SiO2 
 PCOD8037306
Probable space group: P -1
;
_chemical_formula_sum "Si O2"
_cell_formula_units_Z 14
_cell_length_a 8.884972
_cell_length_b 15.325056
_cell_length_c 15.338338
_cell_angle_alpha 151.213130
_cell_angle_beta 53.685500
_cell_angle_gamma 105.614941
_cell_volume 620.024232
_symmetry_space_group_name_H-M "P -1"
_symmetry_group_IT_number 2
_symmetry_cell_setting 'triclinic'
loop_
_space_group_symop_operation_xyz
x,y,z
-x,-y,-z
loop_
_atom_site_type_symbol
_atom_site_label
_atom_site_fract_x
_atom_site_fract_y
_atom_site_fract_z
Si Si1 0.572974 0.336612 0.662401
Si Si2 0.820448 0.525442 0.369282
Si Si3 0.525961 0.792945 0.855198
Si Si4 0.938012 0.131158 0.862447
Si Si5 0.362803 0.163846 0.464111
Si Si6 0.281599 0.362757 0.169753
Si Si7 0.930431 0.242487 0.768364
O O1 0.519973 0.220788 0.505629
O O2 0.640735 0.477347 0.713233
O O3 0.799108 0.129591 0.462366
O O4 0.336478 0.523466 0.968936
O O5 0.619740 0.598897 0.576520
O O6 0.705553 0.732161 0.518636
O O7 0.028027 0.504817 0.331488
O O8 0.929473 0.276299 0.072273
O O9 0.729115 0.688603 0.770088
O O10 0.273025 0.885050 0.065769
O O11 0.500000 0.000000 0.000000
O O12 0.904009 0.262480 0.899821
O O13 0.121133 0.273448 0.698914
O O14 0.516643 0.883480 0.164493
O O15 0.000000 0.000000 0.500000
#
# Coordination Sequence:
#
# PCOD8037306 Si02
#       7
#     2   2   2   2   2   2   2
#     4  12  26  46  75 105 148 186 238 294 358 430
#     4  12  26  46  77 104 146 190 242 297 355 428
#     4  12  24  47  74 103 147 188 238 300 357 421
#     4  12  27  47  71 110 143 192 242 292 361 427
#     4  12  25  49  72 107 145 190 239 298 357 421
#     4  12  25  48  73 111 143 186 243 293 360 427
#     4  12  26  47  74 104 149 188 240 299 354 427
#
# _framework density 22.579763
#
# number of rings (size 3 to 8) (size 9 to 14) (size 15 to 20)
#    0.000    0.000    7.143    2.143    2.000    2.286 
#    0.000    2.143    0.000    0.000    0.000    0.000 
#    0.000    0.000    0.000    0.000    0.000    0.000 
#
# Total GULP energy -173635.565269 kJ/mol
# GULP energy per Si atom -12402.540376 kJ/mol
# Density = 2.252837 g / cm^3
# Si number density = 22.579763 Si / 1000 Ang^3
#
#
#
# Elastic Constant Matrix: (Units=GPa)
#
#
# Indices 1 2 3 4 5 6 
#
# 1 107.7587 23.1354 19.5254 -0.8758 -3.6550 5.8429
# 2 23.1354 66.5158 3.8997 -5.6676 -8.4247 6.0552
# 3 19.5254 3.8997 118.5832 -1.2111 -6.4960 -2.7790
# 4 -0.8758 -5.6676 -1.2111 40.6853 -0.3385 6.7683
# 5 -3.6550 -8.4247 -6.4960 -0.3385 47.2639 5.1128
# 6 5.8429 6.0552 -2.7790 6.7683 5.1128 27.6919
#
#
#
# Elastic Compliance Matrix: (Units=1/GPa)
#
#
# Indices 1 2 3 4 5 6 
#
# 1 0.010389 -0.003349 -0.001631 -0.000016 0.000161 -0.001649
# 2 -0.003349 0.017285 0.000093 0.003105 0.003337 -0.004438
# 3 -0.001631 0.000093 0.008777 0.000081 0.000989 0.001002
# 4 -0.000016 0.003105 0.000081 0.026252 0.001549 -0.007370
# 5 0.000161 0.003337 0.000989 0.001549 0.022474 -0.005192
# 6 -0.001649 -0.004438 0.001002 -0.007370 -0.005192 0.040291
#
#
# Mechanical properties :
#
#
# Convention : Reuss Voigt Hill
#
# Bulk Modulus (GPa) = 37.48280 42.88650 40.18465
# Shear Modulus (GPa) = 34.69045 39.54804 37.11925
#
# Velocity S-wave (km/s) = 3.92388 4.18961 4.05892
# Velocity P-wave (km/s) = 6.09634 6.51447 6.30887
#
# Compressibility (1/GPa) = 0.02667890
#
# Stress axis : x y z
#
# Youngs Moduli (GPa) = 96.25416 57.85507 113.93691
#
# Poissons Ratio (x) = 0.19374 0.18578
# Poissons Ratio (y) = 0.32233 -0.01065
# Poissons Ratio (z) = 0.15694 -0.00541
#
# Static dielectric constant tensor:
#      x y z
#    x 4.107740 -0.096210 -0.043640 
#    y -0.096210 4.007520 -0.137930 
#    z -0.043640 -0.137930 4.527180 
# 
# 
# High freq. dielectric constant tensor:
#      x y z
#    x 1.897140 0.000900 0.000890 
#    y 0.000900 1.884320 0.005970 
#    z 0.000890 0.005970 1.912980 
# 
# From -- ./inp_files/315850.got.cif
#   From: 2010.06.25/outbox.cif.g09.slc.cpg/sg2_158_cif.got.tgz:315850.got - 2010.06.27 13:26:56.
