data_PCOD8037052
_publ_section_title
;
Structure prediction by ZEFSAII (Michael W. Deem and Ramdas Pophale) SiO2 
 PCOD8037052
Probable space group: P -1
;
_chemical_formula_sum "Si O2"
_cell_formula_units_Z 12
_cell_length_a 10.987217
_cell_length_b 9.147805
_cell_length_c 14.877655
_cell_angle_alpha 142.011969
_cell_angle_beta 29.488535
_cell_angle_gamma 129.992543
_cell_volume 448.392459
_symmetry_space_group_name_H-M "P -1"
_symmetry_group_IT_number 2
_symmetry_cell_setting 'triclinic'
loop_
_space_group_symop_operation_xyz
x,y,z
-x,-y,-z
loop_
_atom_site_type_symbol
_atom_site_label
_atom_site_fract_x
_atom_site_fract_y
_atom_site_fract_z
Si Si1 0.882296 0.440274 0.954200
Si Si2 0.746575 0.327130 0.282533
Si Si3 0.260158 0.027267 0.230316
Si Si4 0.417932 0.787548 0.387721
Si Si5 0.955396 0.424635 0.372651
Si Si6 0.557511 0.868454 0.134165
O O1 0.009708 0.567411 0.854493
O O2 0.923459 0.153423 0.776247
O O3 0.591222 0.542277 0.186241
O O4 0.000000 0.500000 0.000000
O O5 0.500000 0.500000 0.500000
O O6 0.783136 0.303830 0.353901
O O7 0.739397 0.071281 0.118210
O O8 0.110281 0.290768 0.452864
O O9 0.334803 0.944630 0.244245
O O10 0.500000 0.000000 0.000000
O O11 0.137779 0.706593 0.541397
O O12 0.440426 0.844626 0.295856
O O13 0.500000 0.000000 0.500000
O O14 0.255329 0.365280 0.134271
#
# Coordination Sequence:
#
# PCOD8037052 Si02
#       6
#     2   2   2   2   2   2
#     4  12  27  50  79 114 156 211 273 329 405 488
#     4  12  23  48  79 115 157 213 264 325 394 480
#     4  12  28  54  80 119 162 214 273 334 408 481
#     4  12  25  48  82 121 157 210 273 324 403 484
#     4  12  25  51  80 118 165 210 267 333 401 475
#     4  12  27  51  83 119 166 207 271 340 396 479
#
# _framework density 26.762270000000001
#
# number of rings (size 3 to 8) (size 9 to 14) (size 15 to 20)
#    0.000    0.000    6.667    3.500    0.000    2.000 
#    3.000    0.000    0.000    0.000    0.000    0.000 
#    0.000    0.000    0.000    0.000    0.000    0.000 
#
# Total GULP energy -148845.758919 kJ/mol
# GULP energy per Si atom -12403.813243 kJ/mol
# Density = 2.670136 g / cm^3
# Si number density = 26.762270 Si / 1000 Ang^3
#
#
#
# Elastic Constant Matrix: (Units=GPa)
#
#
# Indices 1 2 3 4 5 6 
#
# 1 145.6332 47.8794 39.9317 5.2752 18.4662 -12.9845
# 2 47.8794 167.4736 60.2005 14.1038 20.7599 2.8101
# 3 39.9317 60.2005 140.3759 12.6567 12.4769 -12.4287
# 4 5.2752 14.1038 12.6567 58.0803 -2.3410 13.0730
# 5 18.4662 20.7599 12.4769 -2.3410 34.0024 -2.3350
# 6 -12.9845 2.8101 -12.4287 13.0730 -2.3350 44.3169
#
#
#
# Elastic Compliance Matrix: (Units=1/GPa)
#
#
# Indices 1 2 3 4 5 6 
#
# 1 0.008311 -0.001559 -0.001156 -0.000758 -0.003034 0.002273
# 2 -0.001559 0.007891 -0.002717 -0.000948 -0.003150 -0.001605
# 3 -0.001156 -0.002717 0.009138 -0.001922 -0.000998 0.002910
# 4 -0.000758 -0.000948 -0.001922 0.019459 0.002603 -0.006304
# 5 -0.003034 -0.003150 -0.000998 0.002603 0.033528 0.000030
# 6 0.002273 -0.001605 0.002910 -0.006304 0.000030 0.026010
#
#
# Mechanical properties :
#
#
# Convention : Reuss Voigt Hill
#
# Bulk Modulus (GPa) = 69.08624 83.27842 76.18233
# Shear Modulus (GPa) = 41.65772 47.64466 44.65119
#
# Velocity S-wave (km/s) = 3.94964 4.22393 4.08908
# Velocity P-wave (km/s) = 6.83157 7.41446 7.12897
#
# Compressibility (1/GPa) = 0.01447466
#
# Stress axis : x y z
#
# Youngs Moduli (GPa) = 120.32395 126.73284 109.43672
#
# Poissons Ratio (x) = 0.19752 0.12656
# Poissons Ratio (y) = 0.18753 0.29737
# Poissons Ratio (z) = 0.13915 0.34437
#
# Static dielectric constant tensor:
#      x y z
#    x 5.108330 -0.176440 0.569930 
#    y -0.176440 6.353910 -1.276600 
#    z 0.569930 -1.276600 6.750970 
# 
# 
# High freq. dielectric constant tensor:
#      x y z
#    x 2.092520 -0.001130 0.009360 
#    y -0.001130 2.090390 0.003760 
#    z 0.009360 0.003760 2.083910 
# 
# From -- ./inp_files/173687.got.cif
#   From: 2010.06.25/outbox.cif.g09.slc.cpg/sg2_87_cif.got.tgz:173687.got - 2010.06.27 13:26:56.
