data_PCOD8037876
_publ_section_title
;
Structure prediction by ZEFSAII (Michael W. Deem and Ramdas Pophale) SiO2 
 PCOD8037876
Probable space group: P -1
;
_chemical_formula_sum "Si O2"
_cell_formula_units_Z 16
_cell_length_a 6.259343
_cell_length_b 11.799953
_cell_length_c 27.218090
_cell_angle_alpha 29.869992
_cell_angle_beta 126.652489
_cell_angle_gamma 125.822664
_cell_volume 791.655577
_symmetry_space_group_name_H-M "P -1"
_symmetry_group_IT_number 2
_symmetry_cell_setting 'triclinic'
loop_
_space_group_symop_operation_xyz
x,y,z
-x,-y,-z
loop_
_atom_site_type_symbol
_atom_site_label
_atom_site_fract_x
_atom_site_fract_y
_atom_site_fract_z
Si Si1 0.252663 0.810387 0.054091
Si Si2 0.838758 0.921438 0.621285
Si Si3 0.914452 0.361461 0.311049
Si Si4 0.418709 0.710720 0.222164
Si Si5 0.269023 0.393643 0.074355
Si Si6 0.671844 0.650899 0.794277
Si Si7 0.721656 0.324122 0.402270
Si Si8 0.312979 0.174685 0.061840
O O1 0.322398 0.716827 0.151056
O O2 0.196848 0.582107 0.097914
O O3 0.968674 0.905100 0.976644
O O4 0.500000 0.000000 0.000000
O O5 0.832050 0.845384 0.706185
O O6 0.583912 0.793220 0.604747
O O7 0.077867 0.839496 0.653192
O O8 0.844955 0.198642 0.512617
O O9 0.631518 0.442764 0.230238
O O10 0.901798 0.278590 0.397153
O O11 0.162047 0.570413 0.267555
O O12 0.690163 0.591147 0.308925
O O13 0.486052 0.967348 0.157795
O O14 0.307783 0.255809 0.182116
O O15 0.257665 0.207724 0.099282
O O16 0.525818 0.595252 0.026853
O O17 0.000000 0.500000 0.000000
#
# Coordination Sequence:
#
# PCOD8037876 Si02
#       8
#     2   2   2   2   2   2   2   2
#     4  12  21  36  57  85 121 151 180 231 290 345
#     4   9  18  31  51  81 113 145 187 227 282 348
#     4  10  17  32  56  80 116 144 184 226 295 335
#     4  11  21  35  54  84 116 146 183 232 288 350
#     4  11  24  41  59  78 114 157 202 240 269 324
#     4  11  20  35  56  81 113 149 189 233 281 332
#     4   9  18  31  51  80 115 147 178 230 291 340
#     4  11  25  38  58  84 114 156 201 229 278 340
#
# _framework density 20.210809999999999
#
# number of rings (size 3 to 8) (size 9 to 14) (size 15 to 20)
#    0.000    1.500    5.000    3.000    0.000    1.000 
#    0.000    0.000    0.000    0.750    0.000    2.625 
#    0.000    0.000    0.000    0.000    0.000    0.000 
#
# Total GULP energy -198287.166363 kJ/mol
# GULP energy per Si atom -12392.947898 kJ/mol
# Density = 2.016481 g / cm^3
# Si number density = 20.210810 Si / 1000 Ang^3
#
#
#
# Elastic Constant Matrix: (Units=GPa)
#
#
# Indices 1 2 3 4 5 6 
#
# 1 100.2966 24.1166 43.2843 3.6666 -9.3601 -16.2315
# 2 24.1166 53.9091 34.4495 0.1457 -4.4829 -18.0607
# 3 43.2843 34.4495 126.8807 1.5035 -6.6659 -25.2795
# 4 3.6666 0.1457 1.5035 20.4747 -14.4282 0.3904
# 5 -9.3601 -4.4829 -6.6659 -14.4282 28.7827 -0.7685
# 6 -16.2315 -18.0607 -25.2795 0.3904 -0.7685 36.9120
#
#
#
# Elastic Compliance Matrix: (Units=1/GPa)
#
#
# Indices 1 2 3 4 5 6 
#
# 1 0.012537 -0.002731 -0.002929 0.000130 0.003098 0.002234
# 2 -0.002731 0.025607 -0.004148 0.003273 0.004008 0.008536
# 3 -0.002929 -0.004148 0.010901 0.000626 0.001351 0.004170
# 4 0.000130 0.003273 0.000626 0.076132 0.038917 0.002093
# 5 0.003098 0.004008 0.001351 0.038917 0.056330 0.005010
# 6 0.002234 0.008536 0.004170 0.002093 0.005010 0.035188
#
#
# Mechanical properties :
#
#
# Convention : Reuss Voigt Hill
#
# Bulk Modulus (GPa) = 33.98134 53.86525 43.92329
# Shear Modulus (GPa) = 20.31515 29.18295 24.74905
#
# Velocity S-wave (km/s) = 3.17387 3.80403 3.50315
# Velocity P-wave (km/s) = 5.50284 6.78260 6.17596
#
# Compressibility (1/GPa) = 0.02942792
#
# Stress axis : x y z
#
# Youngs Moduli (GPa) = 79.76318 39.05244 91.73226
#
# Poissons Ratio (x) = 0.10666 0.26870
# Poissons Ratio (y) = 0.21784 0.38053
# Poissons Ratio (z) = 0.23364 0.16200
#
# Static dielectric constant tensor:
#      x y z
#    x 3.680080 -0.330010 0.615740 
#    y -0.330010 3.204030 0.100040 
#    z 0.615740 0.100040 3.071530 
# 
# 
# High freq. dielectric constant tensor:
#      x y z
#    x 1.809380 -0.017400 -0.001400 
#    y -0.017400 1.731800 0.002230 
#    z -0.001400 0.002230 1.789350 
# 
# From -- ./inp_files/77307.got.cif
#   From: 2010.06.25/outbox.cif.g09.slc.cpg/sg2_39_cif.got.tgz:77307.got - 2010.06.27 13:26:56.
