data_PCOD8037600
_publ_section_title
;
Structure prediction by ZEFSAII (Michael W. Deem and Ramdas Pophale) SiO2 
 PCOD8037600
Probable space group: P -1
;
_chemical_formula_sum "Si O2"
_cell_formula_units_Z 12
_cell_length_a 22.787388
_cell_length_b 8.805495
_cell_length_c 25.025829
_cell_angle_alpha 31.045559
_cell_angle_beta 10.953640
_cell_angle_gamma 29.747819
_cell_volume 472.935403
_symmetry_space_group_name_H-M "P -1"
_symmetry_group_IT_number 2
_symmetry_cell_setting 'triclinic'
loop_
_space_group_symop_operation_xyz
x,y,z
-x,-y,-z
loop_
_atom_site_type_symbol
_atom_site_label
_atom_site_fract_x
_atom_site_fract_y
_atom_site_fract_z
Si Si1 0.796642 0.824995 0.199292
Si Si2 0.674141 0.188745 0.661958
Si Si3 0.602523 0.581187 0.270069
Si Si4 0.448689 0.122636 0.322616
Si Si5 0.692778 0.674967 0.947716
Si Si6 0.858130 0.515148 0.680986
O O1 0.619968 0.640681 0.451084
O O2 0.520180 0.060781 0.340480
O O3 0.034805 0.608427 0.009640
O O4 0.000000 0.000000 0.000000
O O5 0.540183 0.211598 0.715373
O O6 0.929517 0.383987 0.381925
O O7 0.855302 0.830998 0.618478
O O8 0.379920 0.323346 0.924404
O O9 0.615319 0.807764 0.238518
O O10 0.068521 0.236587 0.613671
O O11 0.594703 0.397913 0.089648
O O12 0.500000 0.000000 0.000000
O O13 0.000000 0.500000 0.500000
O O14 0.500000 0.500000 0.000000
#
# Coordination Sequence:
#
# PCOD8037600 Si02
#       6
#     2   2   2   2   2   2
#     4  12  28  53  78 113 152 205 260 318 386 459
#     4  12  25  48  73 107 155 201 257 311 383 457
#     4  12  27  48  79 111 153 202 258 317 382 458
#     4  12  28  49  80 115 159 201 260 323 382 459
#     4  12  27  47  72 114 154 202 253 313 382 460
#     4  12  27  45  75 114 155 202 253 318 389 450
#
# _framework density 25.373443000000002
#
# number of rings (size 3 to 8) (size 9 to 14) (size 15 to 20)
#    0.000    0.000    3.333    6.000    2.333    4.000 
#    0.000    0.000    0.000    0.000    0.000    0.000 
#    0.000    0.000    0.000    0.000    0.000    0.000 
#
# Total GULP energy -148870.158823 kJ/mol
# GULP energy per Si atom -12405.846569 kJ/mol
# Density = 2.531569 g / cm^3
# Si number density = 25.373443 Si / 1000 Ang^3
#
#
#
# Elastic Constant Matrix: (Units=GPa)
#
#
# Indices 1 2 3 4 5 6 
#
# 1 119.7554 26.1712 32.2961 9.9438 -15.8511 -20.7271
# 2 26.1712 113.6538 21.5253 1.9665 -4.8943 -4.2837
# 3 32.2961 21.5253 129.3052 11.8156 6.6158 -10.0043
# 4 9.9438 1.9665 11.8156 43.7899 -3.7409 -8.1027
# 5 -15.8511 -4.8943 6.6158 -3.7409 46.0434 3.2439
# 6 -20.7271 -4.2837 -10.0043 -8.1027 3.2439 38.6554
#
#
#
# Elastic Compliance Matrix: (Units=1/GPa)
#
#
# Indices 1 2 3 4 5 6 
#
# 1 0.010580 -0.001706 -0.002126 -0.000626 0.003397 0.004517
# 2 -0.001706 0.009438 -0.001219 0.000315 0.000629 -0.000171
# 3 -0.002126 -0.001219 0.008823 -0.001894 -0.002340 0.000808
# 4 -0.000626 0.000315 -0.001894 0.024400 0.001778 0.004174
# 5 0.003397 0.000629 -0.002340 0.001778 0.023457 -0.000310
# 6 0.004517 -0.000171 0.000808 0.004174 -0.000310 0.029383
#
#
# Mechanical properties :
#
#
# Convention : Reuss Voigt Hill
#
# Bulk Modulus (GPa) = 53.36604 58.07774 55.72189
# Shear Modulus (GPa) = 40.84016 44.54587 42.69302
#
# Velocity S-wave (km/s) = 4.01629 4.19455 4.10638
# Velocity P-wave (km/s) = 6.52574 6.81159 6.67020
#
# Compressibility (1/GPa) = 0.01873851
#
# Stress axis : x y z
#
# Youngs Moduli (GPa) = 94.51782 105.95903 113.34365
#
# Poissons Ratio (x) = 0.18080 0.24092
# Poissons Ratio (y) = 0.16128 0.13817
# Poissons Ratio (z) = 0.20090 0.12917
#
# Static dielectric constant tensor:
#      x y z
#    x 4.596100 -0.093750 0.003580 
#    y -0.093750 4.834040 -0.016880 
#    z 0.003580 -0.016880 4.726440 
# 
# 
# High freq. dielectric constant tensor:
#      x y z
#    x 2.021930 -0.001190 -0.005860 
#    y -0.001190 2.025580 0.000530 
#    z -0.005860 0.000530 2.015640 
# 
# From -- ./inp_files/54061.got.cif
#   From: 2010.06.25/outbox.cif.g09.slc.cpg/sg2_28_cif.got.tgz:54061.got - 2010.06.27 13:26:56.
