data_PCOD8037003
_publ_section_title
;
Structure prediction by ZEFSAII (Michael W. Deem and Ramdas Pophale) SiO2 
 PCOD8037003
Probable space group: P -1
;
_chemical_formula_sum "Si O2"
_cell_formula_units_Z 16
_cell_length_a 8.382409
_cell_length_b 9.267742
_cell_length_c 15.708361
_cell_angle_alpha 116.117158
_cell_angle_beta 132.348343
_cell_angle_gamma 90.358016
_cell_volume 720.594471
_symmetry_space_group_name_H-M "P -1"
_symmetry_group_IT_number 2
_symmetry_cell_setting 'triclinic'
loop_
_space_group_symop_operation_xyz
x,y,z
-x,-y,-z
loop_
_atom_site_type_symbol
_atom_site_label
_atom_site_fract_x
_atom_site_fract_y
_atom_site_fract_z
Si Si1 0.601528 0.193175 0.128715
Si Si2 0.887989 0.484379 0.863107
Si Si3 0.921565 0.618626 0.561739
Si Si4 0.422608 0.720477 0.563636
Si Si5 0.401093 0.211407 0.547926
Si Si6 0.770541 0.809506 0.867483
Si Si7 0.914752 0.121976 0.554993
Si Si8 0.738326 0.522618 0.138025
O O1 0.410013 0.205682 0.126484
O O2 0.669462 0.347758 0.124194
O O3 0.843122 0.219386 0.271134
O O4 0.500000 0.000000 0.000000
O O5 0.628449 0.307273 0.718189
O O6 0.859339 0.659449 0.873657
O O7 0.062849 0.459364 0.853435
O O8 0.000000 0.500000 0.000000
O O9 0.743336 0.494355 0.540222
O O10 0.779473 0.700656 0.475633
O O11 0.000000 0.500000 0.500000
O O12 0.520311 0.759920 0.513918
O O13 0.644747 0.790675 0.726492
O O14 0.251016 0.816266 0.545778
O O15 0.256545 0.998336 0.460347
O O16 0.000000 0.000000 0.000000
O O17 0.150897 0.295150 0.719023
O O18 0.000000 0.000000 0.500000
O O19 0.500000 0.500000 0.000000
#
# Coordination Sequence:
#
# PCOD8037003 Si02
#       8
#     2   2   2   2   2   2   2   2
#     4  12  27  48  75 109 153 194 247 308 377 444
#     4  12  27  50  76 108 154 198 247 309 379 448
#     4  12  23  46  77 108 145 190 248 306 368 439
#     4  12  25  48  75 108 149 192 254 310 363 447
#     4  12  27  45  78 109 145 196 251 304 377 438
#     4  12  29  46  76 112 148 199 247 309 379 442
#     4  12  29  47  76 109 150 200 253 308 373 445
#     4  12  29  49  74 109 152 199 250 306 376 451
#
# _framework density 22.203889
#
# number of rings (size 3 to 8) (size 9 to 14) (size 15 to 20)
#    0.000    0.000    5.000    3.000   10.500    0.000 
#    0.000    0.000    0.000    0.000    0.000    0.000 
#    0.000    0.000    0.000    0.000    0.000    0.000 
#
# Total GULP energy -198494.144106 kJ/mol
# GULP energy per Si atom -12405.884007 kJ/mol
# Density = 2.215335 g / cm^3
# Si number density = 22.203889 Si / 1000 Ang^3
#
#
#
# Elastic Constant Matrix: (Units=GPa)
#
#
# Indices 1 2 3 4 5 6 
#
# 1 71.6637 14.4204 57.3265 -2.9730 8.5113 -15.5662
# 2 14.4204 121.1687 80.0625 4.3959 10.7317 -9.7994
# 3 57.3265 80.0625 207.9799 -0.5791 11.8002 -14.4914
# 4 -2.9730 4.3959 -0.5791 51.6702 -1.7222 8.1459
# 5 8.5113 10.7317 11.8002 -1.7222 43.0065 -2.3036
# 6 -15.5662 -9.7994 -14.4914 8.1459 -2.3036 41.8381
#
#
#
# Elastic Compliance Matrix: (Units=1/GPa)
#
#
# Indices 1 2 3 4 5 6 
#
# 1 0.019605 0.002105 -0.005673 -0.000098 -0.002547 0.005701
# 2 0.002105 0.011537 -0.004778 -0.001290 -0.001930 0.001975
# 3 -0.005673 -0.004778 0.008178 0.000243 0.000057 -0.000441
# 4 -0.000098 -0.001290 0.000243 0.020140 0.000860 -0.004128
# 5 -0.002547 -0.001930 0.000057 0.000860 0.024246 -0.000213
# 6 0.005701 0.001975 -0.000441 -0.004128 -0.000213 0.027125
#
#
# Mechanical properties :
#
#
# Convention : Reuss Voigt Hill
#
# Bulk Modulus (GPa) = 44.19081 78.27015 61.23048
# Shear Modulus (GPa) = 37.01956 43.90316 40.46136
#
# Velocity S-wave (km/s) = 4.08763 4.45148 4.27343
# Velocity P-wave (km/s) = 6.49799 7.85799 7.21013
#
# Compressibility (1/GPa) = 0.02262914
#
# Stress axis : x y z
#
# Youngs Moduli (GPa) = 51.00688 86.67808 122.28316
#
# Poissons Ratio (x) = -0.18249 0.69369
# Poissons Ratio (y) = -0.10739 0.58426
# Poissons Ratio (z) = 0.28935 0.41414
#
# Static dielectric constant tensor:
#      x y z
#    x 4.220400 0.024900 0.105010 
#    y 0.024900 4.481330 0.095340 
#    z 0.105010 0.095340 3.473740 
# 
# 
# High freq. dielectric constant tensor:
#      x y z
#    x 1.896870 -0.000510 0.011270 
#    y -0.000510 1.891090 0.000060 
#    z 0.011270 0.000060 1.882910 
# 
# From -- ./inp_files/495516.got.cif
#   From: 2010.06.25/outbox.cif.g09.slc.cpg/sg2_248_cif.got.tgz:495516.got - 2010.06.27 13:26:56.
