data_PCOD8037823
_publ_section_title
;
Structure prediction by ZEFSAII (Michael W. Deem and Ramdas Pophale) SiO2 
 PCOD8037823
Probable space group: P -1
;
_chemical_formula_sum "Si O2"
_cell_formula_units_Z 16
_cell_length_a 14.349341
_cell_length_b 7.971192
_cell_length_c 9.305093
_cell_angle_alpha 130.097492
_cell_angle_beta 107.008201
_cell_angle_gamma 80.172786
_cell_volume 778.320630
_symmetry_space_group_name_H-M "P -1"
_symmetry_group_IT_number 2
_symmetry_cell_setting 'triclinic'
loop_
_space_group_symop_operation_xyz
x,y,z
-x,-y,-z
loop_
_atom_site_type_symbol
_atom_site_label
_atom_site_fract_x
_atom_site_fract_y
_atom_site_fract_z
Si Si1 0.856301 0.939184 0.827503
Si Si2 0.506830 0.852867 0.149168
Si Si3 0.055532 0.742652 0.753192
Si Si4 0.870817 0.129376 0.636965
Si Si5 0.504165 0.444767 0.739125
Si Si6 0.643560 0.851570 0.631593
Si Si7 0.021462 0.295296 0.601581
Si Si8 0.654769 0.148654 0.520113
O O1 0.753067 0.807962 0.710952
O O2 0.942616 0.769605 0.763135
O O3 0.865239 0.116880 0.800051
O O4 0.869254 0.072150 0.054981
O O5 0.502429 0.690883 0.192489
O O6 0.413902 0.011815 0.197496
O O7 0.602841 0.012877 0.291444
O O8 0.507326 0.705649 0.921958
O O9 0.058583 0.745490 0.584188
O O10 0.084028 0.514970 0.715919
O O11 0.956300 0.302302 0.721587
O O12 0.767569 0.199944 0.562628
O O13 0.898859 0.892417 0.455087
O O14 0.410899 0.380202 0.560114
O O15 0.600634 0.376604 0.656141
O O16 0.647356 0.996268 0.571302
#
# Coordination Sequence:
#
# PCOD8037823 Si02
#       8
#     2   2   2   2   2   2   2   2
#     4   9  17  31  49  69  99 125 157 201 240 278
#     4   8  13  23  38  62  93 124 150 186 241 287
#     4   9  18  33  49  67  96 130 158 195 239 291
#     4   9  17  31  49  71  98 124 155 205 239 277
#     4   8  13  23  39  60  95 124 149 189 239 286
#     4   8  14  25  39  66  94 121 154 196 234 277
#     4   9  18  33  49  69  96 126 162 195 241 287
#     4   8  14  25  40  62  98 124 147 192 245 280
#
# _framework density 20.557081
#
# number of rings (size 3 to 8) (size 9 to 14) (size 15 to 20)
#    0.000    3.500    0.000    1.500    0.000    0.500 
#   18.000    0.000    0.000    0.000    0.000    7.000 
#    0.000    0.000    0.000    0.000    0.000    0.000 
#
# Total GULP energy -198234.341822 kJ/mol
# GULP energy per Si atom -12389.646364 kJ/mol
# Density = 2.051029 g / cm^3
# Si number density = 20.557081 Si / 1000 Ang^3
#
#
#
# Elastic Constant Matrix: (Units=GPa)
#
#
# Indices 1 2 3 4 5 6 
#
# 1 86.0305 10.7574 33.4503 -1.1167 6.3757 -25.0072
# 2 10.7574 22.1997 13.3564 3.7296 -1.6141 -5.2442
# 3 33.4503 13.3564 113.1896 22.5977 7.1853 -16.6447
# 4 -1.1167 3.7296 22.5977 18.9216 -3.9433 -2.0257
# 5 6.3757 -1.6141 7.1853 -3.9433 20.5556 -7.2550
# 6 -25.0072 -5.2442 -16.6447 -2.0257 -7.2550 19.0074
#
#
#
# Elastic Compliance Matrix: (Units=1/GPa)
#
#
# Indices 1 2 3 4 5 6 
#
# 1 0.021284 -0.002572 -0.004802 0.011751 0.006610 0.026863
# 2 -0.002572 0.052391 -0.003878 -0.002645 0.009672 0.011085
# 3 -0.004802 -0.003878 0.015126 -0.019016 -0.007394 0.001009
# 4 0.011751 -0.002645 -0.019016 0.083663 0.024631 0.016397
# 5 0.006610 0.009672 -0.007394 0.024631 0.066244 0.032801
# 6 0.026863 0.011085 0.001009 0.016397 0.032801 0.106162
#
#
# Mechanical properties :
#
#
# Convention : Reuss Voigt Hill
#
# Bulk Modulus (GPa) = 15.08378 37.39420 26.23899
# Shear Modulus (GPa) = 12.83785 22.62066 17.72925
#
# Velocity S-wave (km/s) = 2.50171 3.32080 2.93992
# Velocity P-wave (km/s) = 3.96209 5.73877 4.93111
#
# Compressibility (1/GPa) = 0.06629638
#
# Stress axis : x y z
#
# Youngs Moduli (GPa) = 46.98468 19.08711 66.11311
#
# Poissons Ratio (x) = 0.04910 0.31746
# Poissons Ratio (y) = 0.12086 0.25638
# Poissons Ratio (z) = 0.22561 0.07402
#
# Static dielectric constant tensor:
#      x y z
#    x 3.745510 -0.263180 0.028920 
#    y -0.263180 3.352650 0.077170 
#    z 0.028920 0.077170 3.825340 
# 
# 
# High freq. dielectric constant tensor:
#      x y z
#    x 1.785590 -0.014640 -0.001140 
#    y -0.014640 1.771160 0.006320 
#    z -0.001140 0.006320 1.792260 
# 
# From -- ./inp_files/286011.got.cif
#   From: 2010.06.25/outbox.cif.g09.slc.cpg/sg2_144_cif.got.tgz:286011.got - 2010.06.27 13:26:56.
