data_PCOD8037243
_publ_section_title
;
Structure prediction by ZEFSAII (Michael W. Deem and Ramdas Pophale) SiO2 
 PCOD8037243
Probable space group: P -1
;
_chemical_formula_sum "Si O2"
_cell_formula_units_Z 12
_cell_length_a 10.020718
_cell_length_b 6.857937
_cell_length_c 14.526183
_cell_angle_alpha 96.314968
_cell_angle_beta 118.586685
_cell_angle_gamma 129.269146
_cell_volume 539.134978
_symmetry_space_group_name_H-M "P -1"
_symmetry_group_IT_number 2
_symmetry_cell_setting 'triclinic'
loop_
_space_group_symop_operation_xyz
x,y,z
-x,-y,-z
loop_
_atom_site_type_symbol
_atom_site_label
_atom_site_fract_x
_atom_site_fract_y
_atom_site_fract_z
Si Si1 0.440754 0.112909 0.749429
Si Si2 0.471239 0.836908 0.894662
Si Si3 0.064018 0.202734 0.443757
Si Si4 0.996451 0.159935 0.751559
Si Si5 0.778200 0.769656 0.983613
Si Si6 0.473604 0.057849 0.392914
O O1 0.564051 0.432301 0.846039
O O2 0.525564 0.013763 0.831120
O O3 0.531859 0.147824 0.679451
O O4 0.150476 0.856261 0.642878
O O5 0.677515 0.882335 0.974601
O O6 0.195014 0.478294 0.773755
O O7 0.500000 0.000000 0.000000
O O8 0.312104 0.581005 0.555384
O O9 0.103447 0.116299 0.359553
O O10 0.000000 0.000000 0.500000
O O11 0.778070 0.078782 0.707175
O O12 0.140929 0.233176 0.892480
O O13 0.000000 0.000000 0.000000
O O14 0.500000 0.000000 0.500000
#
# Coordination Sequence:
#
# PCOD8037243 Si02
#       6
#     2   2   2   2   2   2
#     4  12  26  48  74 103 146 184 239 297 357 429
#     4  12  24  46  72 107 144 183 232 290 367 427
#     4  12  26  48  75 102 144 194 243 291 355 426
#     4  12  25  46  74 105 144 180 241 300 354 428
#     4  12  28  44  73 110 142 186 233 300 366 417
#     4  12  28  46  72 107 144 192 243 295 352 425
#
# _framework density 22.25788
#
# number of rings (size 3 to 8) (size 9 to 14) (size 15 to 20)
#    0.000    0.000    3.333    6.500    7.000    1.333 
#    0.000    0.000    0.000    0.000    0.000    0.000 
#    0.000    0.000    0.000    0.000    0.000    0.000 
#
# Total GULP energy -148857.017365 kJ/mol
# GULP energy per Si atom -12404.751447 kJ/mol
# Density = 2.220722 g / cm^3
# Si number density = 22.257880 Si / 1000 Ang^3
#
#
#
# Elastic Constant Matrix: (Units=GPa)
#
#
# Indices 1 2 3 4 5 6 
#
# 1 175.2992 23.4891 47.6074 -2.8910 7.8968 -15.0923
# 2 23.4891 100.0587 22.1078 -12.2983 4.3297 3.2824
# 3 47.6074 22.1078 92.1941 -10.6722 -2.0737 -7.5553
# 4 -2.8910 -12.2983 -10.6722 34.9340 4.9485 2.1195
# 5 7.8968 4.3297 -2.0737 4.9485 57.8333 0.0471
# 6 -15.0923 3.2824 -7.5553 2.1195 0.0471 40.0702
#
#
#
# Elastic Compliance Matrix: (Units=1/GPa)
#
#
# Indices 1 2 3 4 5 6 
#
# 1 0.006944 -0.001033 -0.003276 -0.000788 -0.000923 0.002125
# 2 -0.001033 0.011202 -0.001920 0.003536 -0.001067 -0.001854
# 3 -0.003276 -0.001920 0.013468 0.002972 0.000819 0.001305
# 4 -0.000788 0.003536 0.002972 0.031200 -0.002719 -0.001673
# 5 -0.000923 -0.001067 0.000819 -0.002719 0.017759 0.000017
# 6 0.002125 -0.001854 0.001305 -0.001673 0.000017 0.026243
#
#
# Mechanical properties :
#
#
# Convention : Reuss Voigt Hill
#
# Bulk Modulus (GPa) = 52.19884 61.55117 56.87500
# Shear Modulus (GPa) = 39.79025 44.85734 42.32379
#
# Velocity S-wave (km/s) = 4.23270 4.49413 4.36537
# Velocity P-wave (km/s) = 6.88407 7.39211 7.14261
#
# Compressibility (1/GPa) = 0.01915751
#
# Stress axis : x y z
#
# Youngs Moduli (GPa) = 144.00595 89.26710 74.24981
#
# Poissons Ratio (x) = 0.09221 0.24324
# Poissons Ratio (y) = 0.14876 0.14253
# Poissons Ratio (z) = 0.47176 0.17135
#
# Static dielectric constant tensor:
#      x y z
#    x 4.106990 0.147220 0.150010 
#    y 0.147220 3.880620 -0.199090 
#    z 0.150010 -0.199090 3.734500 
# 
# 
# High freq. dielectric constant tensor:
#      x y z
#    x 1.901190 -0.002510 -0.004240 
#    y -0.002510 1.880920 -0.003450 
#    z -0.004240 -0.003450 1.892410 
# 
# From -- ./inp_files/21007.got.cif
#   From: 2010.06.25/outbox.cif.g09.slc.cpg/sg2_11_cif.got.tgz:21007.got - 2010.06.27 13:26:56.
