data_PCOD8037137
_publ_section_title
;
Structure prediction by ZEFSAII (Michael W. Deem and Ramdas Pophale) SiO2 
 PCOD8037137
Probable space group: P -1
;
_chemical_formula_sum "Si O2"
_cell_formula_units_Z 14
_cell_length_a 5.437582
_cell_length_b 25.302778
_cell_length_c 27.874864
_cell_angle_alpha 170.395536
_cell_angle_beta 65.644080
_cell_angle_gamma 115.164727
_cell_volume 578.554668
_symmetry_space_group_name_H-M "P -1"
_symmetry_group_IT_number 2
_symmetry_cell_setting 'triclinic'
loop_
_space_group_symop_operation_xyz
x,y,z
-x,-y,-z
loop_
_atom_site_type_symbol
_atom_site_label
_atom_site_fract_x
_atom_site_fract_y
_atom_site_fract_z
Si Si1 0.821286 0.238081 0.751752
Si Si2 0.627692 0.340667 0.062105
Si Si3 0.855675 0.548208 0.932076
Si Si4 0.393408 0.403927 0.608493
Si Si5 0.179518 0.385696 0.426388
Si Si6 0.640872 0.157872 0.511989
Si Si7 0.020686 0.642749 0.770216
O O1 0.633204 0.065470 0.652867
O O2 0.706514 0.432579 0.890444
O O3 0.000000 0.000000 0.500000
O O4 0.000000 0.500000 0.000000
O O5 0.818996 0.437006 0.086631
O O6 0.546648 0.962258 0.729010
O O7 0.756957 0.485781 0.232200
O O8 0.374810 0.541449 0.252928
O O9 0.814745 0.916596 0.253956
O O10 0.748326 0.283049 0.665908
O O11 0.195127 0.463428 0.633875
O O12 0.692823 0.606747 0.769830
O O13 0.500000 0.500000 0.500000
O O14 0.070723 0.518576 0.602558
O O15 0.000000 0.500000 0.500000
O O16 0.139021 0.007550 0.092198
#
# Coordination Sequence:
#
# PCOD8037137 Si02
#       7
#     2   2   2   2   2   2   2
#     4  12  24  44  68  97 135 172 220 305 390 465
#     4  12  28  46  70 102 136 191 252 308 350 440
#     4  12  26  45  71  97 134 177 238 300 386 445
#     4  12  28  47  74 103 154 204 252 299 360 425
#     4  12  24  45  80 116 152 193 244 297 358 423
#     4  12  26  45  71  97 134 177 238 300 386 445
#     4  12  26  49  72 112 156 199 244 297 360 423
#
# _framework density 24.198231
#
# number of rings (size 3 to 8) (size 9 to 14) (size 15 to 20)
#    0.000    0.000    1.429    8.571    8.000    0.000 
#    0.000    0.000    0.000    0.000    0.000    0.000 
#    0.000    0.000    0.000    0.000    0.000    0.000 
#
# Total GULP energy -173474.334808 kJ/mol
# GULP energy per Si atom -12391.023915 kJ/mol
# Density = 2.414315 g / cm^3
# Si number density = 24.198231 Si / 1000 Ang^3
#
#
#
# Elastic Constant Matrix: (Units=GPa)
#
#
# Indices 1 2 3 4 5 6 
#
# 1 122.8659 67.5606 68.7724 -22.1992 3.4716 -137.0343
# 2 67.5606 310.2261 227.1904 -145.5226 14.7743 -563.1787
# 3 68.7724 227.1904 390.1141 -145.0143 25.2054 -558.0144
# 4 -22.1992 -145.5226 -145.0143 135.3091 -23.1758 355.4499
# 5 3.4716 14.7743 25.2054 -23.1758 42.3848 -56.8336
# 6 -137.0343 -563.1787 -558.0144 355.4499 -56.8336 1496.7375
#
#
#
# Elastic Compliance Matrix: (Units=1/GPa)
#
#
# Indices 1 2 3 4 5 6 
#
# 1 0.009720 -0.001767 -0.000953 -0.002699 -0.000426 0.000495
# 2 -0.001767 0.011150 -0.000717 0.003260 0.002612 0.003091
# 3 -0.000953 -0.000717 0.005755 0.001363 -0.000405 0.001449
# 4 -0.002699 0.003260 0.001363 0.022363 0.005664 -0.003608
# 5 -0.000426 0.002612 -0.000405 0.005664 0.026673 0.000460
# 6 0.000495 0.003091 0.001449 -0.003608 0.000460 0.003291
#
#
# Mechanical properties :
#
#
# Convention : Reuss Voigt Hill
#
# Bulk Modulus (GPa) = 50.62762 172.25030 111.43896
# Shear Modulus (GPa) = 54.10672 365.53180 209.81926
#
# Velocity S-wave (km/s) = 4.73374 12.30387 9.32184
# Velocity P-wave (km/s) = 7.13058 16.52829 12.72850
#
# Compressibility (1/GPa) = 0.01975206
#
# Stress axis : x y z
#
# Youngs Moduli (GPa) = 102.88187 89.68360 173.75757
#
# Poissons Ratio (x) = 0.15844 0.16554
# Poissons Ratio (y) = 0.18176 0.12463
# Poissons Ratio (z) = 0.09801 0.06432
#
# Static dielectric constant tensor:
#      x y z
#    x 4.589360 0.190480 -0.147090 
#    y 0.190480 7.116760 -1.088480 
#    z -0.147090 -1.088480 5.234600 
# 
# 
# High freq. dielectric constant tensor:
#      x y z
#    x 1.963870 -0.000670 0.001740 
#    y -0.000670 1.970470 -0.011880 
#    z 0.001740 -0.011880 1.994280 
# 
# From -- ./inp_files/615930.got.cif
#   From: 2010.06.25/outbox.cif.g09.slc.cpg/sg2_308_cif.got.tgz:615930.got - 2010.06.27 13:26:56.
