data_PCOD8037357
_publ_section_title
;
Structure prediction by ZEFSAII (Michael W. Deem and Ramdas Pophale) SiO2 
 PCOD8037357
Probable space group: P -1
;
_chemical_formula_sum "Si O2"
_cell_formula_units_Z 16
_cell_length_a 8.724423
_cell_length_b 11.203242
_cell_length_c 16.988185
_cell_angle_alpha 43.282382
_cell_angle_beta 96.503950
_cell_angle_gamma 127.890254
_cell_volume 707.037928
_symmetry_space_group_name_H-M "P -1"
_symmetry_group_IT_number 2
_symmetry_cell_setting 'triclinic'
loop_
_space_group_symop_operation_xyz
x,y,z
-x,-y,-z
loop_
_atom_site_type_symbol
_atom_site_label
_atom_site_fract_x
_atom_site_fract_y
_atom_site_fract_z
Si Si1 0.692173 0.404144 0.361775
Si Si2 0.973348 0.297207 0.458914
Si Si3 0.799431 0.280090 0.159893
Si Si4 0.863865 0.099636 0.377655
Si Si5 0.168191 0.142012 0.256945
Si Si6 0.495911 0.307969 0.638540
Si Si7 0.922134 0.949254 0.167369
Si Si8 0.666740 0.478645 0.148333
O O1 0.835222 0.356744 0.415316
O O2 0.885435 0.721815 0.245469
O O3 0.633149 0.355014 0.289446
O O4 0.432449 0.191516 0.494110
O O5 0.990103 0.217907 0.413195
O O6 0.243009 0.541725 0.395431
O O7 0.814640 0.049129 0.631986
O O8 0.931964 0.339988 0.220717
O O9 0.650882 0.325100 0.149259
O O10 0.634021 0.963807 0.285453
O O11 0.000000 0.500000 0.000000
O O12 0.986266 0.054014 0.355659
O O13 0.458206 0.446101 0.136953
O O14 0.068814 0.095003 0.188040
O O15 0.500000 0.500000 0.500000
O O16 0.346765 0.204263 0.760830
O O17 0.070594 0.190426 0.995617
#
# Coordination Sequence:
#
# PCOD8037357 Si02
#       8
#     2   2   2   2   2   2   2   2
#     4  12  27  46  72 106 146 188 244 307 360 430
#     4  12  25  44  72 109 139 183 244 303 365 429
#     4  12  24  48  76 102 147 192 239 299 366 431
#     4  12  24  48  73 105 144 189 244 302 363 431
#     4  12  25  43  75 104 138 191 246 297 362 430
#     4  12  25  47  75 109 144 188 241 303 360 431
#     4  12  26  47  69 104 149 191 239 303 365 427
#     4  12  26  48  71 105 148 195 242 293 369 437
#
# _framework density 22.629619999999999
#
# number of rings (size 3 to 8) (size 9 to 14) (size 15 to 20)
#    0.000    0.000    6.250    3.750    3.500    0.500 
#    0.000    1.250    0.000    0.000    0.000    0.000 
#    0.000    0.000    0.000    0.000    0.000    0.000 
#
# Total GULP energy -198287.392307 kJ/mol
# GULP energy per Si atom -12392.962019 kJ/mol
# Density = 2.257811 g / cm^3
# Si number density = 22.629620 Si / 1000 Ang^3
#
#
#
# Elastic Constant Matrix: (Units=GPa)
#
#
# Indices 1 2 3 4 5 6 
#
# 1 140.4566 38.1603 45.0469 -8.2192 -14.6437 5.8449
# 2 38.1603 71.5445 25.9380 -4.0844 -2.4034 -0.0135
# 3 45.0469 25.9380 129.6365 0.0621 -10.0816 -2.0393
# 4 -8.2192 -4.0844 0.0621 35.1924 -3.7268 3.9145
# 5 -14.6437 -2.4034 -10.0816 -3.7268 38.7590 -3.8921
# 6 5.8449 -0.0135 -2.0393 3.9145 -3.8921 39.3755
#
#
#
# Elastic Compliance Matrix: (Units=1/GPa)
#
#
# Indices 1 2 3 4 5 6 
#
# 1 0.009410 -0.003973 -0.002283 0.002198 0.002780 -0.001460
# 2 -0.003973 0.016865 -0.002057 0.000906 -0.000872 0.000313
# 3 -0.002283 -0.002057 0.009043 -0.000754 0.001392 0.001019
# 4 0.002198 0.000906 -0.000754 0.029712 0.003246 -0.002998
# 5 0.002780 -0.000872 0.001392 0.003246 0.027679 0.002072
# 6 -0.001460 0.000313 0.001019 -0.002998 0.002072 0.026169
#
#
# Mechanical properties :
#
#
# Convention : Reuss Voigt Hill
#
# Bulk Modulus (GPa) = 53.49752 62.21422 57.85587
# Shear Modulus (GPa) = 35.27696 38.16489 36.72093
#
# Velocity S-wave (km/s) = 3.95255 4.11116 4.03264
# Velocity P-wave (km/s) = 6.67248 7.07726 6.87785
#
# Compressibility (1/GPa) = 0.01869245
#
# Stress axis : x y z
#
# Youngs Moduli (GPa) = 106.26524 59.29533 110.57819
#
# Poissons Ratio (x) = 0.23559 0.25244
# Poissons Ratio (y) = 0.42220 0.22747
# Poissons Ratio (z) = 0.24259 0.12197
#
# Static dielectric constant tensor:
#      x y z
#    x 4.288610 -0.031450 -0.092910 
#    y -0.031450 4.114870 0.073520 
#    z -0.092910 0.073520 4.327180 
# 
# 
# High freq. dielectric constant tensor:
#      x y z
#    x 1.903360 -0.002760 -0.007010 
#    y -0.002760 1.886420 0.008880 
#    z -0.007010 0.008880 1.904480 
# 
# From -- ./inp_files/559682.got.cif
#   From: 2010.06.25/outbox.cif.g09.slc.cpg/sg2_280_cif.got.tgz:559682.got - 2010.06.27 13:26:56.
