data_PCOD8037503
_publ_section_title
;
Structure prediction by ZEFSAII (Michael W. Deem and Ramdas Pophale) SiO2 
 PCOD8037503
Probable space group: P -1
;
_chemical_formula_sum "Si O2"
_cell_formula_units_Z 16
_cell_length_a 19.467003
_cell_length_b 11.137081
_cell_length_c 7.778841
_cell_angle_alpha 58.348922
_cell_angle_beta 132.482636
_cell_angle_gamma 145.706213
_cell_volume 698.537589
_symmetry_space_group_name_H-M "P -1"
_symmetry_group_IT_number 2
_symmetry_cell_setting 'triclinic'
loop_
_space_group_symop_operation_xyz
x,y,z
-x,-y,-z
loop_
_atom_site_type_symbol
_atom_site_label
_atom_site_fract_x
_atom_site_fract_y
_atom_site_fract_z
Si Si1 0.125432 0.873437 0.221251
Si Si2 0.390520 0.759353 0.431574
Si Si3 0.427871 0.771657 0.089403
Si Si4 0.366305 0.423977 0.763020
Si Si5 0.873385 0.404557 0.740266
Si Si6 0.906786 0.917336 0.237556
Si Si7 0.386648 0.279532 0.573392
Si Si8 0.109164 0.389494 0.710277
O O1 0.192677 0.809206 0.300862
O O2 0.996281 0.673780 0.273520
O O3 0.251941 0.093799 0.367851
O O4 0.060388 0.899260 0.942588
O O5 0.416037 0.739712 0.296380
O O6 0.398547 0.626760 0.656185
O O7 0.236434 0.649744 0.275141
O O8 0.500000 0.000000 0.500000
O O9 0.530780 0.767407 0.189749
O O10 0.273519 0.595062 0.877537
O O11 0.500000 0.000000 0.000000
O O12 0.253660 0.267544 0.836620
O O13 0.321961 0.299080 0.603604
O O14 0.500000 0.500000 0.000000
O O15 0.923947 0.571469 0.554834
O O16 0.000000 0.500000 0.000000
O O17 0.931570 0.820652 0.216795
O O18 0.000000 0.000000 0.500000
O O19 0.500000 0.500000 0.500000
#
# Coordination Sequence:
#
# PCOD8037503 Si02
#       8
#     2   2   2   2   2   2   2   2
#     4  12  27  46  75 108 146 192 246 298 362 434
#     4  12  27  48  74 106 146 193 242 299 366 432
#     4  12  27  45  76 107 147 190 240 296 368 434
#     4  12  27  47  74 106 147 190 243 302 362 430
#     4  12  27  49  75 106 148 189 243 302 360 434
#     4  12  27  45  73 107 146 192 243 298 363 427
#     4  12  25  46  72 107 146 189 240 301 361 430
#     4  12  25  49  73 107 145 191 243 298 362 432
#
# _framework density 22.904993000000001
#
# number of rings (size 3 to 8) (size 9 to 14) (size 15 to 20)
#    0.000    0.000    2.500    7.500    5.250    1.000 
#    0.000    0.000    0.000    0.000    0.000    0.000 
#    0.000    0.000    0.000    0.000    0.000    0.000 
#
# Total GULP energy -198483.422085 kJ/mol
# GULP energy per Si atom -12405.213880 kJ/mol
# Density = 2.285286 g / cm^3
# Si number density = 22.904993 Si / 1000 Ang^3
#
#
#
# Elastic Constant Matrix: (Units=GPa)
#
#
# Indices 1 2 3 4 5 6 
#
# 1 90.0709 21.2524 17.1936 -4.3800 10.3229 -9.2168
# 2 21.2524 100.4910 33.5294 -0.7866 12.0708 1.5285
# 3 17.1936 33.5294 119.2427 9.9053 13.9378 12.8499
# 4 -4.3800 -0.7866 9.9053 45.4195 -3.5230 -0.8397
# 5 10.3229 12.0708 13.9378 -3.5230 42.0987 -6.2637
# 6 -9.2168 1.5285 12.8499 -0.8397 -6.2637 42.7958
#
#
#
# Elastic Compliance Matrix: (Units=1/GPa)
#
#
# Indices 1 2 3 4 5 6 
#
# 1 0.012398 -0.001984 -0.001510 0.001438 -0.001402 0.003018
# 2 -0.001984 0.011522 -0.002736 0.000451 -0.001917 -0.000289
# 3 -0.001510 -0.002736 0.010379 -0.002767 -0.003086 -0.003850
# 4 0.001438 0.000451 -0.002767 0.023009 0.002652 0.001964
# 5 -0.001402 -0.001917 -0.003086 0.002652 0.026580 0.004635
# 6 0.003018 -0.000289 -0.003850 0.001964 0.004635 0.025900
#
#
# Mechanical properties :
#
#
# Convention : Reuss Voigt Hill
#
# Bulk Modulus (GPa) = 45.79326 50.41726 48.10526
# Shear Modulus (GPa) = 38.60157 41.91809 40.25983
#
# Velocity S-wave (km/s) = 4.10968 4.28259 4.19703
# Velocity P-wave (km/s) = 6.52345 6.82007 6.67341
#
# Compressibility (1/GPa) = 0.02183728
#
# Stress axis : x y z
#
# Youngs Moduli (GPa) = 80.65643 86.79208 96.35068
#
# Poissons Ratio (x) = 0.17222 0.14554
# Poissons Ratio (y) = 0.16005 0.26361
# Poissons Ratio (z) = 0.12183 0.23746
#
# Static dielectric constant tensor:
#      x y z
#    x 3.843040 0.048450 0.249580 
#    y 0.048450 4.324600 0.117590 
#    z 0.249580 0.117590 4.176380 
# 
# 
# High freq. dielectric constant tensor:
#      x y z
#    x 1.925670 -0.005970 0.004730 
#    y -0.005970 1.913050 -0.003030 
#    z 0.004730 -0.003030 1.915660 
# 
# From -- ./inp_files/345987.got.cif
#   From: 2010.06.25/outbox.cif.g09.slc.cpg/sg2_173_cif.got.tgz:345987.got - 2010.06.27 13:26:56.
