data_PCOD8037543
_publ_section_title
;
Structure prediction by ZEFSAII (Michael W. Deem and Ramdas Pophale) SiO2 
 PCOD8037543
Probable space group: P -1
;
_chemical_formula_sum "Si O2"
_cell_formula_units_Z 16
_cell_length_a 17.566261
_cell_length_b 9.577119
_cell_length_c 9.535234
_cell_angle_alpha 60.389742
_cell_angle_beta 43.355111
_cell_angle_gamma 40.087828
_cell_volume 702.130081
_symmetry_space_group_name_H-M "P -1"
_symmetry_group_IT_number 2
_symmetry_cell_setting 'triclinic'
loop_
_space_group_symop_operation_xyz
x,y,z
-x,-y,-z
loop_
_atom_site_type_symbol
_atom_site_label
_atom_site_fract_x
_atom_site_fract_y
_atom_site_fract_z
Si Si1 0.074917 0.879106 0.812615
Si Si2 0.557450 0.284774 0.959050
Si Si3 0.574628 0.090392 0.313432
Si Si4 0.102474 0.029759 0.429138
Si Si5 0.922759 0.714288 0.086447
Si Si6 0.401341 0.242561 0.961761
Si Si7 0.069271 0.429991 0.291666
Si Si8 0.416747 0.429937 0.589440
O O1 0.072838 0.032254 0.633912
O O2 0.240703 0.642323 0.722429
O O3 0.977279 0.832609 0.897804
O O4 0.000000 0.000000 0.000000
O O5 0.719765 0.170265 0.734502
O O6 0.435472 0.354211 0.969340
O O7 0.500000 0.500000 0.000000
O O8 0.569637 0.130363 0.134378
O O9 0.485947 0.320157 0.399193
O O10 0.500000 0.000000 0.500000
O O11 0.744631 0.896761 0.229420
O O12 0.066743 0.249056 0.326285
O O13 0.000000 0.000000 0.500000
O O14 0.969882 0.640506 0.220683
O O15 0.000000 0.500000 0.000000
O O16 0.448837 0.248712 0.739232
O O17 0.231274 0.350788 0.130793
O O18 0.500000 0.000000 0.000000
O O19 0.000000 0.500000 0.500000
O O20 0.500000 0.500000 0.500000
#
# Coordination Sequence:
#
# PCOD8037543 Si02
#       8
#     2   2   2   2   2   2   2   2
#     4  12  25  47  72 104 143 187 239 296 357 430
#     4  12  27  48  74 107 146 191 242 299 368 435
#     4  12  27  46  75 106 144 192 244 299 362 432
#     4  12  27  47  72 106 146 189 240 298 364 433
#     4  12  26  48  73 104 146 188 244 298 361 436
#     4  12  26  48  75 104 151 188 242 304 362 438
#     4  12  28  47  73 109 144 193 242 300 369 430
#     4  12  26  46  72 107 141 189 241 294 364 430
#
# _framework density 22.787800000000001
#
# number of rings (size 3 to 8) (size 9 to 14) (size 15 to 20)
#    0.000    0.000    2.500    7.500    5.250    0.000 
#    0.000    0.000    0.000    0.000    0.000    0.000 
#    0.000    0.000    0.000    0.000    0.000    0.000 
#
# Total GULP energy -198421.481203 kJ/mol
# GULP energy per Si atom -12401.342575 kJ/mol
# Density = 2.273593 g / cm^3
# Si number density = 22.787800 Si / 1000 Ang^3
#
#
#
# Elastic Constant Matrix: (Units=GPa)
#
#
# Indices 1 2 3 4 5 6 
#
# 1 121.8466 14.9523 46.2731 7.8993 -24.9342 -2.2713
# 2 14.9523 79.3526 25.7087 12.1084 -13.4151 -8.0054
# 3 46.2731 25.7087 151.0210 2.6251 -8.7084 -11.2438
# 4 7.8993 12.1084 2.6251 51.2346 0.6818 4.3775
# 5 -24.9342 -13.4151 -8.7084 0.6818 55.5116 -4.5465
# 6 -2.2713 -8.0054 -11.2438 4.3775 -4.5465 53.4912
#
#
#
# Elastic Compliance Matrix: (Units=1/GPa)
#
#
# Indices 1 2 3 4 5 6 
#
# 1 0.010254 -0.000040 -0.002844 -0.001508 0.004194 0.000312
# 2 -0.000040 0.014638 -0.002044 -0.003594 0.003435 0.002345
# 3 -0.002844 -0.002044 0.007894 0.000424 -0.000443 0.001160
# 4 -0.001508 -0.003594 0.000424 0.020807 -0.001930 -0.002380
# 5 0.004194 0.003435 -0.000443 -0.001930 0.020890 0.002532
# 6 0.000312 0.002345 0.001160 -0.002380 0.002532 0.019713
#
#
# Mechanical properties :
#
#
# Convention : Reuss Voigt Hill
#
# Bulk Modulus (GPa) = 43.61237 58.45428 51.03333
# Shear Modulus (GPa) = 44.76472 49.73323 47.24897
#
# Velocity S-wave (km/s) = 4.43698 4.67674 4.55844
# Velocity P-wave (km/s) = 6.74011 7.40741 7.08163
#
# Compressibility (1/GPa) = 0.02292927
#
# Stress axis : x y z
#
# Youngs Moduli (GPa) = 97.52578 68.31701 126.67236
#
# Poissons Ratio (x) = 0.00275 0.36021
# Poissons Ratio (y) = 0.00393 0.25896
# Poissons Ratio (z) = 0.27733 0.13966
#
# Static dielectric constant tensor:
#      x y z
#    x 3.647160 0.551780 0.389950 
#    y 0.551780 4.165490 -0.429360 
#    z 0.389950 -0.429360 4.419020 
# 
# 
# High freq. dielectric constant tensor:
#      x y z
#    x 1.913180 0.002040 -0.003630 
#    y 0.002040 1.908270 -0.010400 
#    z -0.003630 -0.010400 1.925490 
# 
# From -- ./inp_files/294707.got.cif
#   From: 2010.06.25/outbox.cif.g09.slc.cpg/sg2_148_cif.got.tgz:294707.got - 2010.06.27 13:26:56.
