data_PCOD8037496
_publ_section_title
;
Structure prediction by ZEFSAII (Michael W. Deem and Ramdas Pophale) SiO2 
 PCOD8037496
Probable space group: P -1
;
_chemical_formula_sum "Si O2"
_cell_formula_units_Z 14
_cell_length_a 9.164420
_cell_length_b 11.673408
_cell_length_c 16.741800
_cell_angle_alpha 31.416097
_cell_angle_beta 55.495375
_cell_angle_gamma 75.672195
_cell_volume 642.872407
_symmetry_space_group_name_H-M "P -1"
_symmetry_group_IT_number 2
_symmetry_cell_setting 'triclinic'
loop_
_space_group_symop_operation_xyz
x,y,z
-x,-y,-z
loop_
_atom_site_type_symbol
_atom_site_label
_atom_site_fract_x
_atom_site_fract_y
_atom_site_fract_z
Si Si1 0.287653 0.403119 0.803637
Si Si2 0.399579 0.004412 0.610810
Si Si3 0.936044 0.868037 0.806262
Si Si4 0.309254 0.525796 0.022248
Si Si5 0.075820 0.625517 0.488161
Si Si6 0.886804 0.314768 0.888089
Si Si7 0.533472 0.746257 0.294671
O O1 0.379756 0.250271 0.822662
O O2 0.086408 0.350643 0.849491
O O3 0.468593 0.709427 0.561982
O O4 0.232169 0.302342 0.971148
O O5 0.157669 0.908418 0.733379
O O6 0.500000 0.000000 0.500000
O O7 0.411339 0.809360 0.782628
O O8 0.854986 0.710390 0.843086
O O9 0.964618 0.145838 0.622923
O O10 0.184032 0.509359 0.150877
O O11 0.500000 0.500000 0.000000
O O12 0.321290 0.741338 0.355363
O O13 0.000000 0.500000 0.500000
O O14 0.937724 0.400450 0.729579
O O15 0.702177 0.008769 0.133160
O O16 0.500000 0.500000 0.500000
#
# Coordination Sequence:
#
# PCOD8037496 Si02
#       7
#     2   2   2   2   2   2   2
#     4  12  25  45  79 101 142 189 236 290 352 423
#     4  12  25  46  73 104 143 189 236 286 354 419
#     4  12  27  48  71 108 144 186 236 292 355 420
#     4  12  27  46  73 107 145 185 239 291 352 423
#     4  12  29  47  72 108 144 184 238 295 354 416
#     4  12  27  47  73 105 145 187 235 293 353 419
#     4  12  26  46  75 105 139 187 240 286 351 422
#
# _framework density 21.777260999999999
#
# number of rings (size 3 to 8) (size 9 to 14) (size 15 to 20)
#    0.000    0.000    4.286    5.143    6.000    5.143 
#    0.000    0.000    0.000    0.000    0.000    0.000 
#    0.000    0.000    0.000    0.000    0.000    0.000 
#
# Total GULP energy -173724.313974 kJ/mol
# GULP energy per Si atom -12408.879570 kJ/mol
# Density = 2.172770 g / cm^3
# Si number density = 21.777261 Si / 1000 Ang^3
#
#
#
# Elastic Constant Matrix: (Units=GPa)
#
#
# Indices 1 2 3 4 5 6 
#
# 1 118.9054 34.7651 50.6584 -0.7268 -4.0192 -1.9507
# 2 34.7651 144.1222 43.0599 3.9348 -2.5939 8.5743
# 3 50.6584 43.0599 108.5315 -10.0584 -15.2678 5.7238
# 4 -0.7268 3.9348 -10.0584 49.3586 2.0182 -7.0263
# 5 -4.0192 -2.5939 -15.2678 2.0182 28.1006 -7.7882
# 6 -1.9507 8.5743 5.7238 -7.0263 -7.7882 45.7337
#
#
#
# Elastic Compliance Matrix: (Units=1/GPa)
#
#
# Indices 1 2 3 4 5 6 
#
# 1 0.010790 -0.001243 -0.004764 -0.000527 -0.000826 0.001068
# 2 -0.001243 0.008227 -0.002922 -0.001454 -0.001369 -0.001686
# 3 -0.004764 -0.002922 0.013736 0.002720 0.006351 0.000125
# 4 -0.000527 -0.001454 0.002720 0.021366 0.000649 0.003303
# 5 -0.000826 -0.001369 0.006351 0.000649 0.040528 0.006428
# 6 0.001068 -0.001686 0.000125 0.003303 0.006428 0.023814
#
#
# Mechanical properties :
#
#
# Convention : Reuss Voigt Hill
#
# Bulk Modulus (GPa) = 67.14476 69.83623 68.49049
# Shear Modulus (GPa) = 35.38975 40.84361 38.11668
#
# Velocity S-wave (km/s) = 4.03560 4.33542 4.18819
# Velocity P-wave (km/s) = 7.25356 7.56302 7.40991
#
# Compressibility (1/GPa) = 0.01489320
#
# Stress axis : x y z
#
# Youngs Moduli (GPa) = 92.68078 121.55309 72.80104
#
# Poissons Ratio (x) = 0.15112 0.34685
# Poissons Ratio (y) = 0.11522 0.21273
# Poissons Ratio (z) = 0.44157 0.35519
#
# Static dielectric constant tensor:
#      x y z
#    x 4.003630 -0.000820 -0.053530 
#    y -0.000820 4.330180 -0.025410 
#    z -0.053530 -0.025410 4.027350 
# 
# 
# High freq. dielectric constant tensor:
#      x y z
#    x 1.863750 0.001560 -0.004920 
#    y 0.001560 1.884130 0.002020 
#    z -0.004920 0.002020 1.868860 
# 
# From -- ./inp_files/27375.got.cif
#   From: 2010.06.25/outbox.cif.g09.slc.cpg/sg2_14_cif.got.tgz:27375.got - 2010.06.27 13:26:56.
