data_PCOD8037912
_publ_section_title
;
Structure prediction by ZEFSAII (Michael W. Deem and Ramdas Pophale) SiO2 
 PCOD8037912
Probable space group: P -1
;
_chemical_formula_sum "Si O2"
_cell_formula_units_Z 16
_cell_length_a 13.030893
_cell_length_b 22.809832
_cell_length_c 16.905670
_cell_angle_alpha 159.396972
_cell_angle_beta 146.734774
_cell_angle_gamma 25.274897
_cell_volume 753.189613
_symmetry_space_group_name_H-M "P -1"
_symmetry_group_IT_number 2
_symmetry_cell_setting 'triclinic'
loop_
_space_group_symop_operation_xyz
x,y,z
-x,-y,-z
loop_
_atom_site_type_symbol
_atom_site_label
_atom_site_fract_x
_atom_site_fract_y
_atom_site_fract_z
Si Si1 0.388235 0.722841 0.549390
Si Si2 0.444654 0.432444 0.959411
Si Si3 0.721296 0.018064 0.892685
Si Si4 0.057005 0.890597 0.315411
Si Si5 0.557301 0.661309 0.743624
Si Si6 0.599545 0.057706 0.493625
Si Si7 0.044738 0.611288 0.235764
Si Si8 0.277320 0.681343 0.845625
O O1 0.530484 0.730769 0.723243
O O2 0.229526 0.647917 0.370929
O O3 0.581209 0.558560 0.400414
O O4 0.204731 0.972469 0.721085
O O5 0.182917 0.637500 0.083124
O O6 0.647633 0.342095 0.043881
O O7 0.500000 0.500000 0.000000
O O8 0.444562 0.237633 0.688978
O O9 0.574704 0.936413 0.672152
O O10 0.636262 0.137307 0.072227
O O11 0.670067 0.181137 0.996718
O O12 0.994343 0.807020 0.813812
O O13 0.244610 0.901625 0.405193
O O14 0.000000 0.000000 0.500000
O O15 0.500000 0.500000 0.500000
O O16 0.827966 0.544621 0.802772
O O17 0.786023 0.829077 0.369069
O O18 0.000000 0.500000 0.000000
#
# Coordination Sequence:
#
# PCOD8037912 Si02
#       8
#     2   2   2   2   2   2   2   2
#     4  10  20  35  60  88 110 157 202 248 293 358
#     4  10  23  40  63  89 115 166 211 247 303 359
#     4  11  23  38  59  93 128 160 191 244 316 366
#     4  10  20  40  69  85 114 157 216 257 295 352
#     4  10  19  33  57  87 120 158 198 229 304 374
#     4  10  22  39  60  94 120 156 200 253 306 355
#     4  10  17  32  58  87 119 148 191 241 296 358
#     4  11  22  38  62  87 128 160 198 244 303 375
#
# _framework density 21.242991
#
# number of rings (size 3 to 8) (size 9 to 14) (size 15 to 20)
#    0.000    1.750    5.000    0.000    7.000    0.500 
#    0.000    5.000    0.000    1.500    0.000    0.000 
#    0.000    0.000    0.000    0.000    0.000    0.000 
#
# Total GULP energy -198269.418791 kJ/mol
# GULP energy per Si atom -12391.838674 kJ/mol
# Density = 2.119464 g / cm^3
# Si number density = 21.242991 Si / 1000 Ang^3
#
#
#
# Elastic Constant Matrix: (Units=GPa)
#
#
# Indices 1 2 3 4 5 6 
#
# 1 36.8918 26.3067 26.8331 -1.1021 -25.2373 15.4054
# 2 26.3067 171.3563 95.3166 12.7496 -17.6457 20.8322
# 3 26.8331 95.3166 156.7933 15.8600 -39.9315 -1.9257
# 4 -1.1021 12.7496 15.8600 48.2313 2.4996 -12.4164
# 5 -25.2373 -17.6457 -39.9315 2.4996 29.1178 -4.7851
# 6 15.4054 20.8322 -1.9257 -12.4164 -4.7851 33.5498
#
#
#
# Elastic Compliance Matrix: (Units=1/GPa)
#
#
# Indices 1 2 3 4 5 6 
#
# 1 0.105700 -0.008417 0.013746 -0.013654 0.101087 -0.033156
# 2 -0.008417 0.011591 -0.009013 -0.001193 -0.013552 -0.006224
# 3 0.013746 -0.009013 0.018186 -0.004075 0.032306 0.003428
# 4 -0.013654 -0.001193 -0.004075 0.026632 -0.018124 0.014048
# 5 0.101087 -0.013552 0.032306 -0.018124 0.156224 -0.020574
# 6 -0.033156 -0.006224 0.003428 0.014048 -0.020574 0.051357
#
#
# Mechanical properties :
#
#
# Convention : Reuss Voigt Hill
#
# Bulk Modulus (GPa) = 7.80581 73.55049 40.67815
# Shear Modulus (GPa) = 11.91147 36.61879 24.26513
#
# Velocity S-wave (km/s) = 2.37053 4.15638 3.38341
# Velocity P-wave (km/s) = 3.34291 7.59819 5.86974
#
# Compressibility (1/GPa) = 0.12810975
#
# Stress axis : x y z
#
# Youngs Moduli (GPa) = 9.46071 86.27013 54.98607
#
# Poissons Ratio (x) = 0.72613 -0.75584
# Poissons Ratio (y) = 0.07963 0.49560
# Poissons Ratio (z) = -0.13005 0.77758
#
# Static dielectric constant tensor:
#      x y z
#    x 3.685000 0.371000 -0.270710 
#    y 0.371000 4.076230 0.200750 
#    z -0.270710 0.200750 4.114960 
# 
# 
# High freq. dielectric constant tensor:
#      x y z
#    x 1.795000 0.016750 -0.024540 
#    y 0.016750 1.853440 0.013500 
#    z -0.024540 0.013500 1.839390 
# 
# From -- ./inp_files/268360.got.cif
#   From: 2010.06.25/outbox.cif.g09.slc.cpg/sg2_135_cif.got.tgz:268360.got - 2010.06.27 13:26:56.
