data_PCOD8037730
_publ_section_title
;
Structure prediction by ZEFSAII (Michael W. Deem and Ramdas Pophale) SiO2 
 PCOD8037730
Probable space group: P -1
;
_chemical_formula_sum "Si O2"
_cell_formula_units_Z 16
_cell_length_a 16.336981
_cell_length_b 9.430330
_cell_length_c 18.792748
_cell_angle_alpha 34.375043
_cell_angle_beta 147.237665
_cell_angle_gamma 151.141793
_cell_volume 711.086018
_symmetry_space_group_name_H-M "P -1"
_symmetry_group_IT_number 2
_symmetry_cell_setting 'triclinic'
loop_
_space_group_symop_operation_xyz
x,y,z
-x,-y,-z
loop_
_atom_site_type_symbol
_atom_site_label
_atom_site_fract_x
_atom_site_fract_y
_atom_site_fract_z
Si Si1 0.632238 0.652258 0.966404
Si Si2 0.400645 0.154996 0.889016
Si Si3 0.957885 0.237586 0.133498
Si Si4 0.198574 0.716804 0.226820
Si Si5 0.951331 0.591898 0.224770
Si Si6 0.791179 0.914036 0.363944
Si Si7 0.511314 0.378338 0.483266
Si Si8 0.911684 0.198848 0.613104
O O1 0.549364 0.487386 0.897578
O O2 0.688745 0.997643 0.862923
O O3 0.500000 0.500000 0.000000
O O4 0.828246 0.712533 0.099395
O O5 0.279607 0.188584 0.726910
O O6 0.260651 0.935205 0.940044
O O7 0.500000 0.000000 0.000000
O O8 0.074748 0.396120 0.225476
O O9 0.987580 0.975259 0.242393
O O10 0.000000 0.500000 0.000000
O O11 0.351315 0.719386 0.381744
O O12 0.076816 0.754024 0.179061
O O13 0.075559 0.669278 0.353726
O O14 0.808063 0.223913 0.261507
O O15 0.607835 0.659955 0.380918
O O16 0.000000 0.000000 0.500000
O O17 0.500000 0.500000 0.500000
O O18 0.306954 0.069590 0.445651
O O19 0.000000 0.500000 0.500000
#
# Coordination Sequence:
#
# PCOD8037730 Si02
#       8
#     2   2   2   2   2   2   2   2
#     4  12  28  47  73 111 148 194 255 316 370 448
#     4  12  26  47  78 108 147 200 251 312 377 455
#     4  12  26  49  74 107 147 198 247 306 378 449
#     4  12  26  48  73 106 148 195 246 305 377 447
#     4  12  26  49  72 107 154 193 242 321 373 444
#     4  12  26  49  78 111 154 196 251 309 384 453
#     4  12  27  47  78 108 147 197 249 305 376 463
#     4  12  30  47  77 112 154 196 250 315 384 448
#
# _framework density 22.500792000000001
#
# number of rings (size 3 to 8) (size 9 to 14) (size 15 to 20)
#    0.000    0.000    5.000    3.375   10.500    0.500 
#    0.000    0.000    0.000    0.000    0.000    0.000 
#    0.000    0.000    0.000    0.000    0.000    0.000 
#
# Total GULP energy -198284.488770 kJ/mol
# GULP energy per Si atom -12392.780548 kJ/mol
# Density = 2.244958 g / cm^3
# Si number density = 22.500792 Si / 1000 Ang^3
#
#
#
# Elastic Constant Matrix: (Units=GPa)
#
#
# Indices 1 2 3 4 5 6 
#
# 1 117.2005 37.2688 26.8907 2.1309 -11.5278 12.1207
# 2 37.2688 132.7793 23.0195 4.2712 -17.0753 10.1808
# 3 26.8907 23.0195 90.4435 1.9126 -8.2335 4.5074
# 4 2.1309 4.2712 1.9126 51.7151 2.7621 -7.4481
# 5 -11.5278 -17.0753 -8.2335 2.7621 41.7529 1.8659
# 6 12.1207 10.1808 4.5074 -7.4481 1.8659 50.6860
#
#
#
# Elastic Compliance Matrix: (Units=1/GPa)
#
#
# Indices 1 2 3 4 5 6 
#
# 1 0.010066 -0.002069 -0.002212 -0.000527 0.001618 -0.001932
# 2 -0.002069 0.008849 -0.001280 -0.000958 0.002922 -0.001417
# 3 -0.002212 -0.001280 0.012188 -0.000382 0.001312 -0.000402
# 4 -0.000527 -0.000958 -0.000382 0.020049 -0.002090 0.003376
# 5 0.001618 0.002922 0.001312 -0.002090 0.026095 -0.002358
# 6 -0.001932 -0.001417 -0.000402 0.003376 -0.002358 0.021095
#
#
# Mechanical properties :
#
#
# Convention : Reuss Voigt Hill
#
# Bulk Modulus (GPa) = 50.04582 57.19793 53.62187
# Shear Modulus (GPa) = 43.05750 45.71375 44.38563
#
# Velocity S-wave (km/s) = 4.37922 4.51227 4.44624
# Velocity P-wave (km/s) = 6.91810 7.25418 7.08813
#
# Compressibility (1/GPa) = 0.01998169
#
# Stress axis : x y z
#
# Youngs Moduli (GPa) = 99.34201 113.00448 82.05041
#
# Poissons Ratio (x) = 0.23378 0.18146
# Poissons Ratio (y) = 0.20552 0.10505
# Poissons Ratio (z) = 0.21971 0.14468
#
# Static dielectric constant tensor:
#      x y z
#    x 3.954060 0.048730 -0.005380 
#    y 0.048730 4.462700 0.108890 
#    z -0.005380 0.108890 4.045630 
# 
# 
# High freq. dielectric constant tensor:
#      x y z
#    x 1.897950 0.001710 -0.004740 
#    y 0.001710 1.908190 0.003800 
#    z -0.004740 0.003800 1.892450 
# 
# From -- ./inp_files/225832.got.cif
#   From: 2010.06.25/outbox.cif.g09.slc.cpg/sg2_113_cif.got.tgz:225832.got - 2010.06.27 13:26:56.
