data_PCOD8037795
_publ_section_title
;
Structure prediction by ZEFSAII (Michael W. Deem and Ramdas Pophale) SiO2 
 PCOD8037795
Probable space group: P -1
;
_chemical_formula_sum "Si O2"
_cell_formula_units_Z 14
_cell_length_a 8.786339
_cell_length_b 5.333311
_cell_length_c 20.193673
_cell_angle_alpha 123.831601
_cell_angle_beta 48.830139
_cell_angle_gamma 122.835735
_cell_volume 567.865840
_symmetry_space_group_name_H-M "P -1"
_symmetry_group_IT_number 2
_symmetry_cell_setting 'triclinic'
loop_
_space_group_symop_operation_xyz
x,y,z
-x,-y,-z
loop_
_atom_site_type_symbol
_atom_site_label
_atom_site_fract_x
_atom_site_fract_y
_atom_site_fract_z
Si Si1 0.400797 0.466406 0.952372
Si Si2 0.047618 0.881720 0.397833
Si Si3 0.519128 0.695494 0.708187
Si Si4 0.093930 0.810669 0.119298
Si Si5 0.715342 0.614678 0.768568
Si Si6 0.144173 0.892696 0.874871
Si Si7 0.603952 0.725092 0.442248
O O1 0.590937 0.471038 0.849506
O O2 0.199751 0.145612 0.957220
O O3 0.500000 0.500000 0.000000
O O4 0.297700 0.755277 0.015220
O O5 0.850257 0.862461 0.404896
O O6 0.110472 0.555010 0.330377
O O7 0.000000 0.000000 0.500000
O O8 0.239349 0.148988 0.354104
O O9 0.530257 0.563911 0.759582
O O10 0.376590 0.934736 0.783207
O O11 0.417640 0.435977 0.645837
O O12 0.940346 0.471801 0.133568
O O13 0.993050 0.005754 0.126756
O O14 0.162994 0.019449 0.196780
O O15 0.500000 0.500000 0.500000
O O16 0.500000 0.000000 0.500000
#
# Coordination Sequence:
#
# PCOD8037795 Si02
#       7
#     2   2   2   2   2   2   2
#     4  12  26  52  81 116 164 218 272 334 407 488
#     4  12  27  53  84 114 161 216 270 336 413 483
#     4  12  28  49  80 116 164 210 273 332 407 484
#     4  12  28  48  80 117 161 216 267 332 409 476
#     4  12  28  50  79 119 164 211 275 337 405 488
#     4  12  27  50  77 118 163 208 272 334 395 490
#     4  12  29  50  80 116 156 206 272 337 406 485
#
# _framework density 24.653711999999999
#
# number of rings (size 3 to 8) (size 9 to 14) (size 15 to 20)
#    0.000    0.000    2.857    5.571    6.000    3.429 
#    0.000    0.000    0.000    0.000    0.000    0.000 
#    0.000    0.000    0.000    0.000    0.000    0.000 
#
# Total GULP energy -173571.739971 kJ/mol
# GULP energy per Si atom -12397.981427 kJ/mol
# Density = 2.459760 g / cm^3
# Si number density = 24.653712 Si / 1000 Ang^3
#
#
#
# Elastic Constant Matrix: (Units=GPa)
#
#
# Indices 1 2 3 4 5 6 
#
# 1 198.3983 57.6930 55.4836 19.4131 9.3063 11.1135
# 2 57.6930 108.1847 42.1944 10.9104 4.9356 2.9999
# 3 55.4836 42.1944 129.1369 30.4977 7.6723 2.6886
# 4 19.4131 10.9104 30.4977 49.4958 2.3113 0.8144
# 5 9.3063 4.9356 7.6723 2.3113 65.2688 8.3386
# 6 11.1135 2.9999 2.6886 0.8144 8.3386 47.6629
#
#
#
# Elastic Compliance Matrix: (Units=1/GPa)
#
#
# Indices 1 2 3 4 5 6 
#
# 1 0.006441 -0.002656 -0.001644 -0.000893 -0.000344 -0.001167
# 2 -0.002656 0.011709 -0.002706 0.000137 -0.000202 0.000068
# 3 -0.001644 -0.002706 0.010614 -0.005271 -0.000642 0.000157
# 4 -0.000893 0.000137 -0.005271 0.023775 -0.000120 0.000112
# 5 -0.000344 -0.000202 -0.000642 -0.000120 0.015802 -0.002633
# 6 -0.001167 0.000068 0.000157 0.000112 -0.002633 0.021698
#
#
# Mechanical properties :
#
#
# Convention : Reuss Voigt Hill
#
# Bulk Modulus (GPa) = 67.78906 82.94019 75.36462
# Shear Modulus (GPa) = 45.88435 51.17543 48.52989
#
# Velocity S-wave (km/s) = 4.31879 4.56100 4.44155
# Velocity P-wave (km/s) = 7.24054 7.83914 7.54578
#
# Compressibility (1/GPa) = 0.01475164
#
# Stress axis : x y z
#
# Youngs Moduli (GPa) = 155.24917 85.40593 94.21314
#
# Poissons Ratio (x) = 0.22681 0.15491
# Poissons Ratio (y) = 0.41229 0.25498
# Poissons Ratio (z) = 0.25527 0.23114
#
# Static dielectric constant tensor:
#      x y z
#    x 4.677980 0.368500 -0.201760 
#    y 0.368500 4.408730 0.181380 
#    z -0.201760 0.181380 4.709770 
# 
# 
# High freq. dielectric constant tensor:
#      x y z
#    x 2.003500 0.017980 -0.005090 
#    y 0.017980 1.982480 0.009630 
#    z -0.005090 0.009630 2.006080 
# 
# From -- ./inp_files/585035.got.cif
#   From: 2010.06.25/outbox.cif.g09.slc.cpg/sg2_293_cif.got.tgz:585035.got - 2010.06.27 13:26:56.
