data_PCOD8037298
_publ_section_title
;
Structure prediction by ZEFSAII (Michael W. Deem and Ramdas Pophale) SiO2 
 PCOD8037298
Probable space group: P -1
;
_chemical_formula_sum "Si O2"
_cell_formula_units_Z 16
_cell_length_a 15.991301
_cell_length_b 9.706989
_cell_length_c 9.815192
_cell_angle_alpha 59.635934
_cell_angle_beta 121.662154
_cell_angle_gamma 146.662904
_cell_volume 705.342585
_symmetry_space_group_name_H-M "P -1"
_symmetry_group_IT_number 2
_symmetry_cell_setting 'triclinic'
loop_
_space_group_symop_operation_xyz
x,y,z
-x,-y,-z
loop_
_atom_site_type_symbol
_atom_site_label
_atom_site_fract_x
_atom_site_fract_y
_atom_site_fract_z
Si Si1 0.466597 0.589231 0.111953
Si Si2 0.922479 0.833628 0.383653
Si Si3 0.550381 0.867896 0.313486
Si Si4 0.572054 0.957268 0.796454
Si Si5 0.082313 0.633097 0.143605
Si Si6 0.918087 0.283755 0.431703
Si Si7 0.415756 0.597231 0.608935
Si Si8 0.876933 0.942385 0.010538
O O1 0.474094 0.721522 0.178219
O O2 0.568044 0.563958 0.248844
O O3 0.550739 0.772476 0.961884
O O4 0.291381 0.322240 0.056662
O O5 0.756238 0.557504 0.427621
O O6 0.900081 0.933551 0.194252
O O7 0.032087 0.830641 0.424542
O O8 0.000000 0.000000 0.500000
O O9 0.455087 0.654327 0.454742
O O10 0.531925 0.034417 0.231734
O O11 0.732047 0.056929 0.386354
O O12 0.527306 0.859518 0.652481
O O13 0.749740 0.236044 0.797930
O O14 0.980077 0.405661 0.275676
O O15 0.000000 0.500000 0.000000
O O16 0.097893 0.837387 0.099318
O O17 0.000000 0.500000 0.500000
O O18 0.000000 0.000000 0.000000
#
# Coordination Sequence:
#
# PCOD8037298 Si02
#       8
#     2   2   2   2   2   2   2   2
#     4  12  26  47  71 105 142 181 237 286 350 422
#     4  12  26  46  73 104 140 182 233 287 349 416
#     4  12  28  44  74 104 142 187 234 289 348 413
#     4  12  24  47  72 103 139 184 236 286 346 414
#     4  12  26  46  73 104 140 182 233 287 349 416
#     4  12  26  47  69 104 144 181 233 288 348 413
#     4  12  24  47  72 103 139 184 236 286 346 414
#     4  12  28  45  74 105 143 184 228 292 357 412
#
# _framework density 22.684011999999999
#
# number of rings (size 3 to 8) (size 9 to 14) (size 15 to 20)
#    0.000    0.000    2.500    7.500    7.000    0.000 
#    0.000    0.000    0.000    0.000    0.000    0.000 
#    0.000    0.000    0.000    0.000    0.000    0.000 
#
# Total GULP energy -198500.669084 kJ/mol
# GULP energy per Si atom -12406.291818 kJ/mol
# Density = 2.263238 g / cm^3
# Si number density = 22.684012 Si / 1000 Ang^3
#
#
#
# Elastic Constant Matrix: (Units=GPa)
#
#
# Indices 1 2 3 4 5 6 
#
# 1 101.2014 18.3134 2.4035 -1.5809 7.0393 8.6192
# 2 18.3134 64.8740 12.7080 12.1037 0.6431 6.0367
# 3 2.4035 12.7080 84.5087 3.0211 -7.8725 4.9134
# 4 -1.5809 12.1037 3.0211 47.3378 -9.7046 -5.7430
# 5 7.0393 0.6431 -7.8725 -9.7046 43.6728 -1.0170
# 6 8.6192 6.0367 4.9134 -5.7430 -1.0170 53.2236
#
#
#
# Elastic Compliance Matrix: (Units=1/GPa)
#
#
# Indices 1 2 3 4 5 6 
#
# 1 0.010655 -0.002997 0.000059 0.000636 -0.001553 -0.001352
# 2 -0.002997 0.017865 -0.002441 -0.005024 -0.001380 -0.001884
# 3 0.000059 -0.002441 0.012453 0.000203 0.002297 -0.000816
# 4 0.000636 -0.005024 0.000203 0.023903 0.005392 0.003130
# 5 -0.001553 -0.001380 0.002297 0.005392 0.024810 0.001252
# 6 -0.001352 -0.001884 -0.000816 0.003130 0.001252 0.019658
#
#
# Mechanical properties :
#
#
# Convention : Reuss Voigt Hill
#
# Bulk Modulus (GPa) = 33.09561 35.27042 34.18302
# Shear Modulus (GPa) = 38.41047 43.32413 40.86730
#
# Velocity S-wave (km/s) = 4.11942 4.37498 4.24912
# Velocity P-wave (km/s) = 6.10308 6.41116 6.25902
#
# Compressibility (1/GPa) = 0.03021549
#
# Stress axis : x y z
#
# Youngs Moduli (GPa) = 93.84998 55.97581 80.30414
#
# Poissons Ratio (x) = 0.16775 -0.00472
# Poissons Ratio (y) = 0.28126 0.19599
# Poissons Ratio (z) = -0.00552 0.13662
#
# Static dielectric constant tensor:
#      x y z
#    x 4.216470 -0.015490 -0.023950 
#    y -0.015490 4.163250 0.078450 
#    z -0.023950 0.078450 4.219150 
# 
# 
# High freq. dielectric constant tensor:
#      x y z
#    x 1.912180 0.000340 -0.001770 
#    y 0.000340 1.904810 0.006180 
#    z -0.001770 0.006180 1.912450 
# 
# From -- ./inp_files/297977.got.cif
#   From: 2010.06.25/outbox.cif.g09.slc.cpg/sg2_149_cif.got.tgz:297977.got - 2010.06.27 13:26:56.
