data_PCOD8037383
_publ_section_title
;
Structure prediction by ZEFSAII (Michael W. Deem and Ramdas Pophale) SiO2 
 PCOD8037383
Probable space group: P -1
;
_chemical_formula_sum "Si O2"
_cell_formula_units_Z 16
_cell_length_a 8.677822
_cell_length_b 23.335237
_cell_length_c 9.416500
_cell_angle_alpha 139.280554
_cell_angle_beta 84.520513
_cell_angle_gamma 127.070507
_cell_volume 714.329774
_symmetry_space_group_name_H-M "P -1"
_symmetry_group_IT_number 2
_symmetry_cell_setting 'triclinic'
loop_
_space_group_symop_operation_xyz
x,y,z
-x,-y,-z
loop_
_atom_site_type_symbol
_atom_site_label
_atom_site_fract_x
_atom_site_fract_y
_atom_site_fract_z
Si Si1 0.535877 0.587288 0.541553
Si Si2 0.916392 0.055833 0.280521
Si Si3 0.957135 0.399312 0.210628
Si Si4 0.597784 0.948808 0.854085
Si Si5 0.406331 0.053077 0.633246
Si Si6 0.966337 0.073099 0.832422
Si Si7 0.762357 0.643103 0.326122
Si Si8 0.896535 0.363528 0.818122
O O1 0.500000 0.500000 0.500000
O O2 0.231009 0.471807 0.320927
O O3 0.685583 0.615156 0.445511
O O4 0.724807 0.754328 0.899906
O O5 0.132885 0.216507 0.483300
O O6 0.779598 0.045099 0.398715
O O7 0.042072 0.026090 0.278448
O O8 0.684878 0.931010 0.949199
O O9 0.000000 0.500000 0.500000
O O10 0.682356 0.230866 0.978096
O O11 0.908292 0.391307 0.034443
O O12 0.409084 0.797222 0.496332
O O13 0.846747 0.084644 0.981845
O O14 0.500000 0.000000 0.000000
O O15 0.500000 0.000000 0.500000
O O16 0.219852 0.011780 0.451154
O O17 0.960816 0.655236 0.297198
O O18 0.500000 0.500000 0.000000
O O19 0.000000 0.500000 0.000000
#
# Coordination Sequence:
#
# PCOD8037383 Si02
#       8
#     2   2   2   2   2   2   2   2
#     4  12  28  49  77 111 158 200 253 319 397 465
#     4  12  27  46  79 110 153 196 260 324 378 468
#     4  12  28  50  72 111 155 202 253 311 390 457
#     4  12  24  48  77 109 148 199 263 316 384 454
#     4  12  26  49  79 108 151 202 259 315 377 462
#     4  12  26  47  76 114 148 199 257 315 388 454
#     4  12  27  48  75 110 152 204 253 319 400 454
#     4  12  28  47  76 113 155 203 262 321 384 467
#
# _framework density 22.398619
#
# number of rings (size 3 to 8) (size 9 to 14) (size 15 to 20)
#    0.000    0.000    5.000    3.750    8.750    0.000 
#    0.000    0.000    0.000    0.000    0.000    0.000 
#    0.000    0.000    0.000    0.000    0.000    0.000 
#
# Total GULP energy -198227.804279 kJ/mol
# GULP energy per Si atom -12389.237767 kJ/mol
# Density = 2.234764 g / cm^3
# Si number density = 22.398619 Si / 1000 Ang^3
#
#
#
# Elastic Constant Matrix: (Units=GPa)
#
#
# Indices 1 2 3 4 5 6 
#
# 1 91.4038 47.1932 69.7252 7.0731 9.5887 -11.6990
# 2 47.1932 168.7264 70.1709 -7.1103 -1.5106 -6.8739
# 3 69.7252 70.1709 161.4703 -8.0140 12.4926 -19.1918
# 4 7.0731 -7.1103 -8.0140 42.4806 -2.7256 -8.1478
# 5 9.5887 -1.5106 12.4926 -2.7256 43.5431 -1.3239
# 6 -11.6990 -6.8739 -19.1918 -8.1478 -1.3239 42.6433
#
#
#
# Elastic Compliance Matrix: (Units=1/GPa)
#
#
# Indices 1 2 3 4 5 6 
#
# 1 0.017996 -0.002450 -0.006688 -0.004716 -0.002407 0.000556
# 2 -0.002450 0.007648 -0.002344 0.001308 0.001553 -0.000196
# 3 -0.006688 -0.002344 0.010751 0.003276 -0.001391 0.003209
# 4 -0.004716 0.001308 0.003276 0.026340 0.001960 0.005485
# 5 -0.002407 0.001553 -0.001391 0.001960 0.024074 0.000086
# 6 0.000556 -0.000196 0.003209 0.005485 0.000086 0.026066
#
#
# Mechanical properties :
#
#
# Convention : Reuss Voigt Hill
#
# Bulk Modulus (GPa) = 74.45417 88.41992 81.43704
# Shear Modulus (GPa) = 35.63392 41.36748 38.50070
#
# Velocity S-wave (km/s) = 3.99293 4.30219 4.15044
# Velocity P-wave (km/s) = 7.38720 8.01497 7.70748
#
# Compressibility (1/GPa) = 0.01343108
#
# Stress axis : x y z
#
# Youngs Moduli (GPa) = 55.56914 130.75397 93.01147
#
# Poissons Ratio (x) = 0.32030 0.62205
# Poissons Ratio (y) = 0.13612 0.21806
# Poissons Ratio (z) = 0.37164 0.30654
#
# Static dielectric constant tensor:
#      x y z
#    x 3.006530 -0.544140 0.039380 
#    y -0.544140 3.846400 -0.092980 
#    z 0.039380 -0.092980 4.336050 
# 
# 
# High freq. dielectric constant tensor:
#      x y z
#    x 1.888530 0.010790 0.012980 
#    y 0.010790 1.902880 -0.003620 
#    z 0.012980 -0.003620 1.905090 
# 
# From -- ./inp_files/226649.got.cif
#   From: 2010.06.25/outbox.cif.g09.slc.cpg/sg2_114_cif.got.tgz:226649.got - 2010.06.27 13:26:56.
