data_PCOD8037459
_publ_section_title
;
Structure prediction by ZEFSAII (Michael W. Deem and Ramdas Pophale) SiO2 
 PCOD8037459
Probable space group: P -1
;
_chemical_formula_sum "Si O2"
_cell_formula_units_Z 14
_cell_length_a 10.557603
_cell_length_b 17.535046
_cell_length_c 12.850160
_cell_angle_alpha 36.724794
_cell_angle_beta 23.936977
_cell_angle_gamma 37.898133
_cell_volume 561.283387
_symmetry_space_group_name_H-M "P -1"
_symmetry_group_IT_number 2
_symmetry_cell_setting 'triclinic'
loop_
_space_group_symop_operation_xyz
x,y,z
-x,-y,-z
loop_
_atom_site_type_symbol
_atom_site_label
_atom_site_fract_x
_atom_site_fract_y
_atom_site_fract_z
Si Si1 0.660532 0.295378 0.878335
Si Si2 0.451888 0.884138 0.091136
Si Si3 0.289527 0.313570 0.714436
Si Si4 0.294451 0.089548 0.357211
Si Si5 0.399915 0.555920 0.903849
Si Si6 0.315402 0.198650 0.605269
Si Si7 0.621905 0.519673 0.272843
O O1 0.585432 0.442799 0.813867
O O2 0.577873 0.333153 0.776468
O O3 0.018773 0.223661 0.720318
O O4 0.434134 0.200820 0.190699
O O5 0.618118 0.753302 0.170581
O O6 0.073047 0.892573 0.353051
O O7 0.640782 0.895000 0.830709
O O8 0.500000 0.000000 0.000000
O O9 0.224707 0.215624 0.778362
O O10 0.551549 0.395739 0.393775
O O11 0.975785 0.426945 0.849016
O O12 0.482616 0.946664 0.410739
O O13 0.476684 0.697260 0.685073
O O14 0.500000 0.500000 0.000000
O O15 0.500000 0.500000 0.500000
O O16 0.000000 0.500000 0.000000
#
# Coordination Sequence:
#
# PCOD8037459 Si02
#       7
#     2   2   2   2   2   2   2
#     4  12  26  50  74 116 153 197 257 318 385 454
#     4  12  26  49  78 110 155 203 258 313 376 462
#     4  12  25  44  77 108 148 200 262 307 381 453
#     4  12  29  50  78 113 155 202 253 318 386 446
#     4  12  25  46  78 110 152 201 253 315 381 455
#     4  12  26  48  75 111 149 203 253 314 377 462
#     4  12  26  46  71 106 151 192 245 313 378 439
#
# _framework density 24.942836
#
# number of rings (size 3 to 8) (size 9 to 14) (size 15 to 20)
#    0.000    0.000    4.286    5.571    2.000    2.286 
#    0.000    2.143    0.000    0.000    0.000    0.000 
#    0.000    0.000    0.000    0.000    0.000    0.000 
#
# Total GULP energy -173523.662439 kJ/mol
# GULP energy per Si atom -12394.547317 kJ/mol
# Density = 2.488607 g / cm^3
# Si number density = 24.942836 Si / 1000 Ang^3
#
#
#
# Elastic Constant Matrix: (Units=GPa)
#
#
# Indices 1 2 3 4 5 6 
#
# 1 94.9508 36.5213 31.5529 4.6544 -10.8123 -35.4147
# 2 36.5213 145.6673 36.2715 -11.9301 -7.2051 -47.3650
# 3 31.5529 36.2715 121.8275 -4.5992 -19.8891 -14.6674
# 4 4.6544 -11.9301 -4.5992 54.6280 0.9477 -10.3805
# 5 -10.8123 -7.2051 -19.8891 0.9477 45.2785 1.6009
# 6 -35.4147 -47.3650 -14.6674 -10.3805 1.6009 43.7636
#
#
#
# Elastic Compliance Matrix: (Units=1/GPa)
#
#
# Indices 1 2 3 4 5 6 
#
# 1 0.016285 0.001310 -0.002468 0.001305 0.002491 0.013987
# 2 0.001310 0.012365 -0.001879 0.005273 0.000813 0.015033
# 3 -0.002468 -0.001879 0.009902 0.000433 0.003478 -0.000736
# 4 0.001305 0.005273 0.000433 0.021660 0.000463 0.012029
# 5 0.002491 0.000813 0.003478 0.000463 0.024212 0.003286
# 6 0.013987 0.015033 -0.000736 0.012029 0.003286 0.052926
#
#
# Mechanical properties :
#
#
# Convention : Reuss Voigt Hill
#
# Bulk Modulus (GPa) = 30.78969 63.45967 47.12468
# Shear Modulus (GPa) = 32.41507 45.94067 39.17787
#
# Velocity S-wave (km/s) = 3.60887 4.29632 3.96751
# Velocity P-wave (km/s) = 5.45309 7.07873 6.31841
#
# Compressibility (1/GPa) = 0.03247840
#
# Stress axis : x y z
#
# Youngs Moduli (GPa) = 61.40800 80.87496 100.98501
#
# Poissons Ratio (x) = -0.10592 0.24919
# Poissons Ratio (y) = -0.08043 0.18973
# Poissons Ratio (z) = 0.15153 0.15195
#
# Static dielectric constant tensor:
#      x y z
#    x 5.224680 -0.318800 -0.155980 
#    y -0.318800 4.954060 -0.456360 
#    z -0.155980 -0.456360 4.689450 
# 
# 
# High freq. dielectric constant tensor:
#      x y z
#    x 2.016730 -0.007880 -0.007350 
#    y -0.007880 2.009790 -0.020840 
#    z -0.007350 -0.020840 1.997170 
# 
# From -- ./inp_files/370236.got.cif
#   From: 2010.06.25/outbox.cif.g09.slc.cpg/sg2_186_cif.got.tgz:370236.got - 2010.06.27 13:26:56.
