data_PCOD8037771
_publ_section_title
;
Structure prediction by ZEFSAII (Michael W. Deem and Ramdas Pophale) SiO2 
 PCOD8037771
Probable space group: P -1
;
_chemical_formula_sum "Si O2"
_cell_formula_units_Z 10
_cell_length_a 8.858070
_cell_length_b 12.203890
_cell_length_c 9.308767
_cell_angle_alpha 130.698564
_cell_angle_beta 149.659081
_cell_angle_gamma 58.942935
_cell_volume 382.492179
_symmetry_space_group_name_H-M "P -1"
_symmetry_group_IT_number 2
_symmetry_cell_setting 'triclinic'
loop_
_space_group_symop_operation_xyz
x,y,z
-x,-y,-z
loop_
_atom_site_type_symbol
_atom_site_label
_atom_site_fract_x
_atom_site_fract_y
_atom_site_fract_z
Si Si1 0.803606 0.932809 0.410098
Si Si2 0.576008 0.361850 0.168480
Si Si3 0.000037 0.182702 0.239610
Si Si4 0.656662 0.170930 0.682239
Si Si5 0.960880 0.474904 0.114495
O O1 0.018372 0.888428 0.678106
O O2 0.606711 0.054524 0.413827
O O3 0.580704 0.798484 0.050610
O O4 0.000000 0.000000 0.500000
O O5 0.830934 0.331392 0.234054
O O6 0.723342 0.453754 0.501043
O O7 0.307899 0.448366 0.966419
O O8 0.344680 0.229247 0.517492
O O9 0.803817 0.090406 0.872417
O O10 0.904702 0.303362 0.953158
O O11 0.000000 0.500000 0.000000
#
# Coordination Sequence:
#
# PCOD8037771 Si02
#       5
#     2   2   2   2   2
#     4  12  28  51  79 111 151 199 253 310 370 443
#     4  12  26  49  77 107 153 192 254 303 369 445
#     4  12  26  51  75 115 149 197 253 306 373 444
#     4  12  28  47  81 108 154 198 248 308 373 442
#     4  12  27  51  74 114 153 197 245 309 379 444
#
# _framework density 26.144326
#
# number of rings (size 3 to 8) (size 9 to 14) (size 15 to 20)
#    0.000    0.000    4.000    4.200    2.800    7.200 
#    0.000    0.000    0.000    0.000    0.000    0.000 
#    0.000    0.000    0.000    0.000    0.000    0.000 
#
# Total GULP energy -123987.560957 kJ/mol
# GULP energy per Si atom -12398.756096 kJ/mol
# Density = 2.608482 g / cm^3
# Si number density = 26.144326 Si / 1000 Ang^3
#
#
#
# Elastic Constant Matrix: (Units=GPa)
#
#
# Indices 1 2 3 4 5 6 
#
# 1 108.1596 36.2654 11.8799 -7.3904 8.7409 3.6625
# 2 36.2654 97.0161 22.4915 10.2625 16.4123 -4.8845
# 3 11.8799 22.4915 113.6489 5.1753 13.6287 -1.3036
# 4 -7.3904 10.2625 5.1753 53.6130 -5.1398 9.3350
# 5 8.7409 16.4123 13.6287 -5.1398 31.9330 -6.1821
# 6 3.6625 -4.8845 -1.3036 9.3350 -6.1821 29.6455
#
#
#
# Elastic Compliance Matrix: (Units=1/GPa)
#
#
# Indices 1 2 3 4 5 6 
#
# 1 0.011134 -0.004413 -0.000366 0.002896 -0.000775 -0.003193
# 2 -0.004413 0.013776 -0.001399 -0.004136 -0.005373 0.002936
# 3 -0.000366 -0.001399 0.009573 -0.001009 -0.003462 -0.000168
# 4 0.002896 -0.004136 -0.001009 0.021541 0.003864 -0.007061
# 5 -0.000775 -0.005373 -0.003462 0.003864 0.037484 0.005658
# 6 -0.003193 0.002936 -0.000168 -0.007061 0.005658 0.038006
#
#
# Mechanical properties :
#
#
# Convention : Reuss Voigt Hill
#
# Bulk Modulus (GPa) = 45.19263 51.12202 48.15732
# Shear Modulus (GPa) = 33.05889 39.58416 36.32153
#
# Velocity S-wave (km/s) = 3.55981 3.89532 3.73133
# Velocity P-wave (km/s) = 5.84976 6.31091 6.08470
#
# Compressibility (1/GPa) = 0.02212750
#
# Stress axis : x y z
#
# Youngs Moduli (GPa) = 89.81354 72.59122 104.45761
#
# Poissons Ratio (x) = 0.32036 0.03824
# Poissons Ratio (y) = 0.39636 0.14610
# Poissons Ratio (z) = 0.03288 0.10153
#
# Static dielectric constant tensor:
#      x y z
#    x 4.645490 -0.362670 -0.070210 
#    y -0.362670 4.976770 -0.017950 
#    z -0.070210 -0.017950 5.054420 
# 
# 
# High freq. dielectric constant tensor:
#      x y z
#    x 2.043410 -0.023620 0.001880 
#    y -0.023620 2.045760 0.004410 
#    z 0.001880 0.004410 2.068820 
# 
# From -- ./inp_files/91172.got.cif
#   From: 2010.06.25/outbox.cif.g09.slc.cpg/sg2_46_cif.got.tgz:91172.got - 2010.06.27 13:26:56.
