data_PCOD8037317
_publ_section_title
;
Structure prediction by ZEFSAII (Michael W. Deem and Ramdas Pophale) SiO2 
 PCOD8037317
Probable space group: P -1
;
_chemical_formula_sum "Si O2"
_cell_formula_units_Z 16
_cell_length_a 11.483575
_cell_length_b 8.542365
_cell_length_c 9.413118
_cell_angle_alpha 66.366210
_cell_angle_beta 122.132892
_cell_angle_gamma 105.048754
_cell_volume 715.080520
_symmetry_space_group_name_H-M "P -1"
_symmetry_group_IT_number 2
_symmetry_cell_setting 'triclinic'
loop_
_space_group_symop_operation_xyz
x,y,z
-x,-y,-z
loop_
_atom_site_type_symbol
_atom_site_label
_atom_site_fract_x
_atom_site_fract_y
_atom_site_fract_z
Si Si1 0.947459 0.837915 0.773148
Si Si2 0.825771 0.735039 0.452344
Si Si3 0.265833 0.309668 0.102756
Si Si4 0.364166 0.974546 0.830772
Si Si5 0.549211 0.151498 0.372614
Si Si6 0.767641 0.356225 0.632722
Si Si7 0.953773 0.781960 0.234547
Si Si8 0.217285 0.683092 0.024923
O O1 0.916414 0.847632 0.582874
O O2 0.802381 0.789480 0.771569
O O3 0.011749 0.016100 0.808244
O O4 0.051643 0.689075 0.927028
O O5 0.761718 0.560103 0.542297
O O6 0.927914 0.697664 0.402610
O O7 0.702458 0.843556 0.277660
O O8 0.424347 0.267304 0.210130
O O9 0.260429 0.512310 0.039860
O O10 0.186918 0.246007 0.933836
O O11 0.389083 0.919134 0.705902
O O12 0.264699 0.838234 0.897390
O O13 0.500000 0.000000 0.000000
O O14 0.668751 0.266269 0.485346
O O15 0.500000 0.000000 0.500000
O O16 0.718693 0.302080 0.779859
O O17 0.923870 0.307911 0.730102
#
# Coordination Sequence:
#
# PCOD8037317 Si02
#       8
#     2   2   2   2   2   2   2   2
#     4  12  24  47  75 110 143 194 241 301 366 431
#     4  12  26  46  74 110 146 190 242 306 361 428
#     4  12  26  47  73 105 148 192 245 296 362 435
#     4  12  28  50  75 103 151 194 242 293 371 436
#     4  12  29  48  75 109 148 192 244 298 362 434
#     4  12  27  47  75 109 149 190 245 300 363 429
#     4  12  25  43  76 107 147 189 245 300 363 427
#     4  12  27  47  75 105 147 194 240 301 365 431
#
# _framework density 22.375105000000001
#
# number of rings (size 3 to 8) (size 9 to 14) (size 15 to 20)
#    0.000    0.000    3.750    6.000    7.000    1.000 
#    0.000    0.000    0.000    0.000    0.000    0.000 
#    0.000    0.000    0.000    0.000    0.000    0.000 
#
# Total GULP energy -198520.819166 kJ/mol
# GULP energy per Si atom -12407.551198 kJ/mol
# Density = 2.232418 g / cm^3
# Si number density = 22.375105 Si / 1000 Ang^3
#
#
#
# Elastic Constant Matrix: (Units=GPa)
#
#
# Indices 1 2 3 4 5 6 
#
# 1 93.5277 26.2604 39.7011 -8.4005 -11.8836 -10.0657
# 2 26.2604 109.0103 54.4857 -0.1776 0.2079 -15.6996
# 3 39.7011 54.4857 126.0052 2.3252 -7.0996 -6.5389
# 4 -8.4005 -0.1776 2.3252 37.9135 0.9253 2.6994
# 5 -11.8836 0.2079 -7.0996 0.9253 51.2206 2.9489
# 6 -10.0657 -15.6996 -6.5389 2.6994 2.9489 26.0998
#
#
#
# Elastic Compliance Matrix: (Units=1/GPa)
#
#
# Indices 1 2 3 4 5 6 
#
# 1 0.013372 -0.001008 -0.003536 0.002896 0.002386 0.003096
# 2 -0.001008 0.012798 -0.004962 -0.000271 -0.001328 0.006244
# 3 -0.003536 -0.004962 0.011193 -0.001408 0.000863 -0.001496
# 4 0.002896 -0.000271 -0.001408 0.027259 0.000114 -0.002231
# 5 0.002386 -0.001328 0.000863 0.000114 0.020313 -0.001970
# 6 0.003096 0.006244 -0.001496 -0.002231 -0.001970 0.043343
#
#
# Mechanical properties :
#
#
# Convention : Reuss Voigt Hill
#
# Bulk Modulus (GPa) = 54.49226 63.27082 58.88154
# Shear Modulus (GPa) = 32.59305 36.91985 34.75645
#
# Velocity S-wave (km/s) = 3.82077 4.06648 3.94554
# Velocity P-wave (km/s) = 6.62353 7.09838 6.86507
#
# Compressibility (1/GPa) = 0.01835123
#
# Stress axis : x y z
#
# Youngs Moduli (GPa) = 74.78065 78.13818 89.34319
#
# Poissons Ratio (x) = 0.07877 0.31590
# Poissons Ratio (y) = 0.07539 0.44333
# Poissons Ratio (z) = 0.26441 0.38773
#
# Static dielectric constant tensor:
#      x y z
#    x 4.259950 -0.087250 -0.064720 
#    y -0.087250 4.076840 0.069630 
#    z -0.064720 0.069630 4.228480 
# 
# 
# High freq. dielectric constant tensor:
#      x y z
#    x 1.886330 -0.009530 -0.004250 
#    y -0.009530 1.891610 0.003980 
#    z -0.004250 0.003980 1.900480 
# 
# From -- ./inp_files/242690.got.cif
#   From: 2010.06.25/outbox.cif.g09.slc.cpg/sg2_122_cif.got.tgz:242690.got - 2010.06.27 13:26:56.
