data_PCOD8037244
_publ_section_title
;
Structure prediction by ZEFSAII (Michael W. Deem and Ramdas Pophale) SiO2 
 PCOD8037244
Probable space group: P -1
;
_chemical_formula_sum "Si O2"
_cell_formula_units_Z 14
_cell_length_a 25.158731
_cell_length_b 25.346475
_cell_length_c 14.065847
_cell_angle_alpha 159.093196
_cell_angle_beta 158.611383
_cell_angle_gamma 11.330341
_cell_volume 613.941427
_symmetry_space_group_name_H-M "P -1"
_symmetry_group_IT_number 2
_symmetry_cell_setting 'triclinic'
loop_
_space_group_symop_operation_xyz
x,y,z
-x,-y,-z
loop_
_atom_site_type_symbol
_atom_site_label
_atom_site_fract_x
_atom_site_fract_y
_atom_site_fract_z
Si Si1 0.277258 0.978033 0.961875
Si Si2 0.853658 0.115373 0.251201
Si Si3 0.603448 0.577252 0.293217
Si Si4 0.839103 0.901748 0.697463
Si Si5 0.697279 0.693669 0.825852
Si Si6 0.855725 0.587358 0.307813
Si Si7 0.569568 0.267065 0.399093
O O1 0.107517 0.008461 0.794577
O O2 0.400985 0.801279 0.776019
O O3 0.544647 0.798916 0.167132
O O4 0.058436 0.294417 0.101425
O O5 0.577025 0.448912 0.360022
O O6 0.126471 0.981211 0.464717
O O7 0.811961 0.044914 0.975050
O O8 0.662564 0.594083 0.523212
O O9 0.874010 0.329469 0.265317
O O10 0.396945 0.866658 0.383406
O O11 0.500000 0.500000 0.000000
O O12 0.816398 0.758570 0.460931
O O13 0.621138 0.689720 0.794247
O O14 0.000000 0.500000 0.000000
O O15 0.500000 0.000000 0.000000
O O16 0.000000 0.500000 0.500000
#
# Coordination Sequence:
#
# PCOD8037244 Si02
#       7
#     2   2   2   2   2   2   2
#     4  12  26  44  74 103 147 188 240 289 363 438
#     4  12  24  46  72 108 141 186 235 294 360 436
#     4  12  27  49  75 109 145 191 252 306 364 433
#     4  12  26  43  78 104 145 187 238 297 369 423
#     4  12  28  49  74 106 147 191 247 305 365 432
#     4  12  26  45  69 107 147 189 238 296 357 436
#     4  12  27  47  72 102 144 189 238 294 362 430
#
# _framework density 22.803477999999998
#
# number of rings (size 3 to 8) (size 9 to 14) (size 15 to 20)
#    0.000    0.000    1.429    8.571    8.000    0.000 
#    0.000    0.000    0.000    0.000    0.000    0.000 
#    0.000    0.000    0.000    0.000    0.000    0.000 
#
# Total GULP energy -173687.302368 kJ/mol
# GULP energy per Si atom -12406.235883 kJ/mol
# Density = 2.275158 g / cm^3
# Si number density = 22.803478 Si / 1000 Ang^3
#
#
#
# Elastic Constant Matrix: (Units=GPa)
#
#
# Indices 1 2 3 4 5 6 
#
# 1 91.9741 25.6711 31.9628 -7.6049 -0.4546 -10.8847
# 2 25.6711 148.7365 32.5563 2.8073 11.1460 -6.5066
# 3 31.9628 32.5563 97.5663 4.9120 2.1807 -9.9080
# 4 -7.6049 2.8073 4.9120 47.5511 -8.2317 2.1424
# 5 -0.4546 11.1460 2.1807 -8.2317 42.0895 2.1547
# 6 -10.8847 -6.5066 -9.9080 2.1424 2.1547 43.1561
#
#
#
# Elastic Compliance Matrix: (Units=1/GPa)
#
#
# Indices 1 2 3 4 5 6 
#
# 1 0.013050 -0.001483 -0.003735 0.002668 0.001145 0.002021
# 2 -0.001483 0.007594 -0.001907 -0.000878 -0.002124 0.000483
# 3 -0.003735 -0.001907 0.012400 -0.001957 -0.000650 0.001747
# 4 0.002668 -0.000878 -0.001957 0.022608 0.004849 -0.001273
# 5 0.001145 -0.002124 -0.000650 0.004849 0.025402 -0.001690
# 6 0.002021 0.000483 0.001747 -0.001273 -0.001690 0.024303
#
#
# Mechanical properties :
#
#
# Convention : Reuss Voigt Hill
#
# Bulk Modulus (GPa) = 53.21096 57.62858 55.41977
# Shear Modulus (GPa) = 39.72326 43.09843 41.41085
#
# Velocity S-wave (km/s) = 4.17823 4.35212 4.26606
# Velocity P-wave (km/s) = 6.83097 7.11205 6.97293
#
# Compressibility (1/GPa) = 0.01879312
#
# Stress axis : x y z
#
# Youngs Moduli (GPa) = 76.62928 131.69003 80.64517
#
# Poissons Ratio (x) = 0.19524 0.30122
# Poissons Ratio (y) = 0.11361 0.15383
# Poissons Ratio (z) = 0.28622 0.25120
#
# Static dielectric constant tensor:
#      x y z
#    x 4.471840 -0.096480 0.145900 
#    y -0.096480 4.465170 0.043870 
#    z 0.145900 0.043870 4.382240 
# 
# 
# High freq. dielectric constant tensor:
#      x y z
#    x 1.910270 -0.009080 0.001110 
#    y -0.009080 1.924030 0.006640 
#    z 0.001110 0.006640 1.913990 
# 
# From -- ./inp_files/544601.got.cif
#   From: 2010.06.25/outbox.cif.g09.slc.cpg/sg2_273_cif.got.tgz:544601.got - 2010.06.27 13:26:56.
