data_PCOD8037220
_publ_section_title
;
Structure prediction by ZEFSAII (Michael W. Deem and Ramdas Pophale) SiO2 
 PCOD8037220
Probable space group: P -1
;
_chemical_formula_sum "Si O2"
_cell_formula_units_Z 16
_cell_length_a 17.997505
_cell_length_b 8.986695
_cell_length_c 20.468395
_cell_angle_alpha 38.432970
_cell_angle_beta 22.080238
_cell_angle_gamma 35.364495
_cell_volume 714.407851
_symmetry_space_group_name_H-M "P -1"
_symmetry_group_IT_number 2
_symmetry_cell_setting 'triclinic'
loop_
_space_group_symop_operation_xyz
x,y,z
-x,-y,-z
loop_
_atom_site_type_symbol
_atom_site_label
_atom_site_fract_x
_atom_site_fract_y
_atom_site_fract_z
Si Si1 0.310028 0.115948 0.665792
Si Si2 0.556329 0.381970 0.194653
Si Si3 0.874948 0.839324 0.628621
Si Si4 0.868133 0.351809 0.627853
Si Si5 0.549440 0.755792 0.188531
Si Si6 0.096215 0.025828 0.169322
Si Si7 0.081535 0.701517 0.167827
Si Si8 0.339853 0.612401 0.533033
O O1 0.277153 0.395127 0.624201
O O2 0.094277 0.142168 0.795667
O O3 0.500000 0.000000 0.500000
O O4 0.357897 0.922246 0.754629
O O5 0.313751 0.480206 0.332765
O O6 0.582561 0.524499 0.190292
O O7 0.691553 0.421269 0.010797
O O8 0.962034 0.542217 0.684025
O O9 0.937180 0.860441 0.496110
O O10 0.619920 0.981820 0.796758
O O11 0.000000 0.000000 0.500000
O O12 0.000000 0.500000 0.500000
O O13 0.773555 0.217090 0.805980
O O14 0.458236 0.716458 0.346088
O O15 0.773129 0.787817 0.007298
O O16 0.867989 0.173598 0.338100
O O17 0.074873 0.910558 0.156139
O O18 0.500000 0.500000 0.500000
#
# Coordination Sequence:
#
# PCOD8037220 Si02
#       8
#     2   2   2   2   2   2   2   2
#     4  12  25  49  77 102 146 195 246 296 367 438
#     4  12  28  47  73 108 147 194 247 301 368 439
#     4  12  24  45  76 106 143 192 245 302 370 431
#     4  12  26  45  77 106 147 192 242 305 368 436
#     4  12  27  48  75 110 148 193 245 307 367 438
#     4  12  29  47  75 112 149 193 246 305 371 433
#     4  12  28  47  72 109 151 192 245 302 365 443
#     4  12  28  49  77 107 148 194 245 306 363 437
#
# _framework density 22.396170000000001
#
# number of rings (size 3 to 8) (size 9 to 14) (size 15 to 20)
#    0.000    0.000    5.000    4.125    7.000    2.500 
#    0.000    0.000    0.000    0.000    0.000    0.000 
#    0.000    0.000    0.000    0.000    0.000    0.000 
#
# Total GULP energy -198333.905639 kJ/mol
# GULP energy per Si atom -12395.869102 kJ/mol
# Density = 2.234520 g / cm^3
# Si number density = 22.396170 Si / 1000 Ang^3
#
#
#
# Elastic Constant Matrix: (Units=GPa)
#
#
# Indices 1 2 3 4 5 6 
#
# 1 133.1386 48.3688 57.8331 -6.3261 -1.0897 14.6932
# 2 48.3688 86.7714 42.0571 0.3071 -1.8552 7.1378
# 3 57.8331 42.0571 141.0985 -2.5581 3.6720 9.8920
# 4 -6.3261 0.3071 -2.5581 38.4826 9.4350 5.0214
# 5 -1.0897 -1.8552 3.6720 9.4350 37.4201 0.3911
# 6 14.6932 7.1378 9.8920 5.0214 0.3911 50.0332
#
#
#
# Elastic Compliance Matrix: (Units=1/GPa)
#
#
# Indices 1 2 3 4 5 6 
#
# 1 0.010684 -0.004390 -0.002884 0.001897 -0.000080 -0.002131
# 2 -0.004390 0.015393 -0.002829 -0.001308 0.001245 -0.000226
# 3 -0.002884 -0.002829 0.009198 0.000548 -0.001259 -0.000613
# 4 0.001897 -0.001308 0.000548 0.028545 -0.007226 -0.003287
# 5 -0.000080 0.001245 -0.001259 -0.007226 0.028722 0.000595
# 6 -0.002131 -0.000226 -0.000613 -0.003287 0.000595 0.021091
#
#
# Mechanical properties :
#
#
# Convention : Reuss Voigt Hill
#
# Bulk Modulus (GPa) = 66.36902 73.05849 69.71376
# Shear Modulus (GPa) = 36.00658 39.37047 37.68853
#
# Velocity S-wave (km/s) = 4.01398 4.19729 4.10666
# Velocity P-wave (km/s) = 7.15410 7.49543 7.32675
#
# Compressibility (1/GPa) = 0.01506727
#
# Stress axis : x y z
#
# Youngs Moduli (GPa) = 93.60168 64.96532 108.71421
#
# Poissons Ratio (x) = 0.28522 0.31358
# Poissons Ratio (y) = 0.41095 0.30754
# Poissons Ratio (z) = 0.26999 0.18378
#
# Static dielectric constant tensor:
#      x y z
#    x 4.062790 0.090090 0.111890 
#    y 0.090090 4.210570 0.065490 
#    z 0.111890 0.065490 4.138680 
# 
# 
# High freq. dielectric constant tensor:
#      x y z
#    x 1.900370 0.005700 0.004250 
#    y 0.005700 1.892420 0.004290 
#    z 0.004250 0.004290 1.891470 
# 
# From -- ./inp_files/274121.got.cif
#   From: 2010.06.25/outbox.cif.g09.slc.cpg/sg2_138_cif.got.tgz:274121.got - 2010.06.27 13:26:56.
