data_PCOD8037369
_publ_section_title
;
Structure prediction by ZEFSAII (Michael W. Deem and Ramdas Pophale) SiO2 
 PCOD8037369
Probable space group: P -1
;
_chemical_formula_sum "Si O2"
_cell_formula_units_Z 14
_cell_length_a 8.415132
_cell_length_b 11.877352
_cell_length_c 11.559267
_cell_angle_alpha 103.692317
_cell_angle_beta 142.590466
_cell_angle_gamma 66.351576
_cell_volume 635.936259
_symmetry_space_group_name_H-M "P -1"
_symmetry_group_IT_number 2
_symmetry_cell_setting 'triclinic'
loop_
_space_group_symop_operation_xyz
x,y,z
-x,-y,-z
loop_
_atom_site_type_symbol
_atom_site_label
_atom_site_fract_x
_atom_site_fract_y
_atom_site_fract_z
Si Si1 0.292605 0.384651 0.137739
Si Si2 0.906279 0.809729 0.147443
Si Si3 0.186007 0.548129 0.534723
Si Si4 0.239939 0.118160 0.419085
Si Si5 0.436795 0.318083 0.469513
Si Si6 0.174669 0.953345 0.977374
Si Si7 0.223245 0.185800 0.678272
O O1 0.548096 0.425644 0.247616
O O2 0.385962 0.321829 0.303244
O O3 0.251075 0.284112 0.001559
O O4 0.000000 0.500000 0.000000
O O5 0.829881 0.871288 0.245640
O O6 0.241315 0.742335 0.319598
O O7 0.782111 0.925621 0.018569
O O8 0.310012 0.458042 0.476660
O O9 0.000000 0.500000 0.500000
O O10 0.964832 0.671115 0.383057
O O11 0.272427 0.242884 0.422476
O O12 0.169339 0.121492 0.515413
O O13 0.961106 0.110443 0.206506
O O14 0.500000 0.000000 0.500000
O O15 0.449039 0.839064 0.145321
O O16 0.000000 0.000000 0.000000
#
# Coordination Sequence:
#
# PCOD8037369 Si02
#       7
#     2   2   2   2   2   2   2
#     4  12  26  46  76 106 143 197 244 291 376 436
#     4  12  26  46  74 108 146 190 246 302 366 439
#     4  12  26  48  73 108 150 188 243 307 363 435
#     4  12  25  46  74 104 141 195 241 298 372 427
#     4  12  24  48  75 105 147 192 239 306 365 438
#     4  12  26  47  72 105 149 191 246 296 367 440
#     4  12  27  47  70 107 150 185 246 306 360 441
#
# _framework density 22.014786999999998
#
# number of rings (size 3 to 8) (size 9 to 14) (size 15 to 20)
#    0.000    0.000    7.143    2.571    2.000    1.714 
#    0.000    2.143    0.000    0.000    0.000    0.000 
#    0.000    0.000    0.000    0.000    0.000    0.000 
#
# Total GULP energy -173526.981049 kJ/mol
# GULP energy per Si atom -12394.784361 kJ/mol
# Density = 2.196468 g / cm^3
# Si number density = 22.014787 Si / 1000 Ang^3
#
#
#
# Elastic Constant Matrix: (Units=GPa)
#
#
# Indices 1 2 3 4 5 6 
#
# 1 126.4082 35.7888 42.8233 17.1508 -5.8663 -3.6234
# 2 35.7888 104.6137 54.2635 6.9249 10.4125 -13.2015
# 3 42.8233 54.2635 147.3530 12.1545 11.8114 -3.2181
# 4 17.1508 6.9249 12.1545 48.7178 -8.9261 5.3940
# 5 -5.8663 10.4125 11.8114 -8.9261 50.9438 3.5099
# 6 -3.6234 -13.2015 -3.2181 5.3940 3.5099 42.5392
#
#
#
# Elastic Compliance Matrix: (Units=1/GPa)
#
#
# Indices 1 2 3 4 5 6 
#
# 1 0.009587 -0.002298 -0.001875 -0.002301 0.001597 0.000122
# 2 -0.002298 0.013126 -0.003796 -0.001005 -0.002514 0.003925
# 3 -0.001875 -0.003796 0.008968 -0.001315 -0.001726 -0.000350
# 4 -0.002301 -0.001005 -0.001315 0.023075 0.004558 -0.003909
# 5 0.001597 -0.002514 -0.001726 0.004558 0.021743 -0.003147
# 6 0.000122 0.003925 -0.000350 -0.003909 -0.003147 0.025465
#
#
# Mechanical properties :
#
#
# Convention : Reuss Voigt Hill
#
# Bulk Modulus (GPa) = 63.52097 71.56958 67.54528
# Shear Modulus (GPa) = 40.60070 44.80678 42.70374
#
# Velocity S-wave (km/s) = 4.29913 4.51633 4.40907
# Velocity P-wave (km/s) = 7.31845 7.73154 7.52783
#
# Compressibility (1/GPa) = 0.01574283
#
# Stress axis : x y z
#
# Youngs Moduli (GPa) = 104.31173 76.18356 111.50287
#
# Poissons Ratio (x) = 0.17509 0.20909
# Poissons Ratio (y) = 0.23973 0.42324
# Poissons Ratio (z) = 0.19561 0.28917
#
# Static dielectric constant tensor:
#      x y z
#    x 4.311260 0.091180 -0.106030 
#    y 0.091180 4.216320 -0.135700 
#    z -0.106030 -0.135700 4.344070 
# 
# 
# High freq. dielectric constant tensor:
#      x y z
#    x 1.875620 -0.010430 0.000920 
#    y -0.010430 1.873450 -0.006810 
#    z 0.000920 -0.006810 1.880590 
# 
# From -- ./inp_files/122889.got.cif
#   From: 2010.06.25/outbox.cif.g09.slc.cpg/sg2_62_cif.got.tgz:122889.got - 2010.06.27 13:26:56.
