data_PCOD8037371
_publ_section_title
;
Structure prediction by ZEFSAII (Michael W. Deem and Ramdas Pophale) SiO2 
 PCOD8037371
Probable space group: P -1
;
_chemical_formula_sum "Si O2"
_cell_formula_units_Z 14
_cell_length_a 18.611467
_cell_length_b 11.015985
_cell_length_c 18.264889
_cell_angle_alpha 22.550461
_cell_angle_beta 156.277650
_cell_angle_gamma 146.179278
_cell_volume 575.110367
_symmetry_space_group_name_H-M "P -1"
_symmetry_group_IT_number 2
_symmetry_cell_setting 'triclinic'
loop_
_space_group_symop_operation_xyz
x,y,z
-x,-y,-z
loop_
_atom_site_type_symbol
_atom_site_label
_atom_site_fract_x
_atom_site_fract_y
_atom_site_fract_z
Si Si1 0.583719 0.177765 0.290855
Si Si2 0.301765 0.778534 0.005809
Si Si3 0.974975 0.444082 0.877978
Si Si4 0.451857 0.783287 0.510134
Si Si5 0.942894 0.279630 0.634118
Si Si6 0.116785 0.447116 0.420635
Si Si7 0.600313 0.755631 0.409978
O O1 0.732023 0.248785 0.448940
O O2 0.448360 0.971415 0.323957
O O3 0.664017 0.998073 0.393976
O O4 0.500000 0.500000 0.000000
O O5 0.409724 0.534156 0.186887
O O6 0.445207 0.902317 0.127924
O O7 0.139097 0.587693 0.995791
O O8 0.210910 0.090099 0.707939
O O9 0.025059 0.514775 0.800017
O O10 0.779702 0.623341 0.609676
O O11 0.959055 0.073868 0.085633
O O12 0.253361 0.699715 0.385879
O O13 0.500000 0.000000 0.500000
O O14 0.981867 0.448665 0.653326
O O15 0.000000 0.500000 0.500000
O O16 0.500000 0.500000 0.500000
#
# Coordination Sequence:
#
# PCOD8037371 Si02
#       7
#     2   2   2   2   2   2   2
#     4  12  27  48  74 113 146 197 249 305 378 445
#     4  12  26  49  75 112 149 194 255 308 374 439
#     4  12  27  50  77 108 152 198 252 311 378 441
#     4  12  24  48  75 106 151 194 246 309 368 442
#     4  12  29  48  73 112 153 197 249 313 376 448
#     4  12  26  49  78 109 149 201 250 313 373 448
#     4  12  26  46  76 110 150 198 249 309 375 445
#
# _framework density 24.343153000000001
#
# number of rings (size 3 to 8) (size 9 to 14) (size 15 to 20)
#    0.000    0.000    5.714    2.143    8.000    1.143 
#    0.000    0.000    0.000    0.000    0.000    0.000 
#    0.000    0.000    0.000    0.000    0.000    0.000 
#
# Total GULP energy -173557.046466 kJ/mol
# GULP energy per Si atom -12396.931890 kJ/mol
# Density = 2.428775 g / cm^3
# Si number density = 24.343153 Si / 1000 Ang^3
#
#
#
# Elastic Constant Matrix: (Units=GPa)
#
#
# Indices 1 2 3 4 5 6 
#
# 1 129.3480 34.1747 29.4312 -15.1641 -6.0918 -2.8166
# 2 34.1747 75.3686 22.1086 -5.5897 3.0520 -1.2232
# 3 29.4312 22.1086 100.8428 -17.6630 -17.7223 0.4647
# 4 -15.1641 -5.5897 -17.6630 48.8875 9.5830 2.6578
# 5 -6.0918 3.0520 -17.7223 9.5830 30.9313 -1.4237
# 6 -2.8166 -1.2232 0.4647 2.6578 -1.4237 46.3703
#
#
#
# Elastic Compliance Matrix: (Units=1/GPa)
#
#
# Indices 1 2 3 4 5 6 
#
# 1 0.009288 -0.003683 -0.001451 0.001749 0.000838 0.000407
# 2 -0.003683 0.016053 -0.003117 0.000388 -0.004212 0.000079
# 3 -0.001451 -0.003117 0.012595 0.002492 0.006455 -0.000241
# 4 0.001749 0.000388 0.002492 0.023094 -0.005485 -0.001401
# 5 0.000838 -0.004212 0.006455 -0.005485 0.038371 0.001368
# 6 0.000407 0.000079 -0.000241 -0.001401 0.001368 0.021717
#
#
# Mechanical properties :
#
#
# Convention : Reuss Voigt Hill
#
# Bulk Modulus (GPa) = 46.65726 52.99871 49.82799
# Shear Modulus (GPa) = 34.53835 39.89414 37.21625
#
# Velocity S-wave (km/s) = 3.77080 4.05263 3.91425
# Velocity P-wave (km/s) = 6.17792 6.61190 6.39859
#
# Compressibility (1/GPa) = 0.02143289
#
# Stress axis : x y z
#
# Youngs Moduli (GPa) = 107.66748 62.29264 79.39378
#
# Poissons Ratio (x) = 0.22944 0.11524
# Poissons Ratio (y) = 0.39657 0.24748
# Poissons Ratio (z) = 0.15627 0.19417
#
# Static dielectric constant tensor:
#      x y z
#    x 4.284140 0.041510 -0.206670 
#    y 0.041510 4.869970 0.429290 
#    z -0.206670 0.429290 4.511130 
# 
# 
# High freq. dielectric constant tensor:
#      x y z
#    x 1.966550 -0.006500 -0.007650 
#    y -0.006500 1.983130 -0.004250 
#    z -0.007650 -0.004250 1.970220 
# 
# From -- ./inp_files/222051.got.cif
#   From: 2010.06.25/outbox.cif.g09.slc.cpg/sg2_112_cif.got.tgz:222051.got - 2010.06.27 13:26:56.
