data_PCOD8037845
_publ_section_title
;
Structure prediction by ZEFSAII (Michael W. Deem and Ramdas Pophale) SiO2 
 PCOD8037845
Probable space group: P -1
;
_chemical_formula_sum "Si O2"
_cell_formula_units_Z 16
_cell_length_a 9.944277
_cell_length_b 14.008489
_cell_length_c 14.258565
_cell_angle_alpha 47.644955
_cell_angle_beta 71.714719
_cell_angle_gamma 109.486562
_cell_volume 877.912091
_symmetry_space_group_name_H-M "P -1"
_symmetry_group_IT_number 2
_symmetry_cell_setting 'triclinic'
loop_
_space_group_symop_operation_xyz
x,y,z
-x,-y,-z
loop_
_atom_site_type_symbol
_atom_site_label
_atom_site_fract_x
_atom_site_fract_y
_atom_site_fract_z
Si Si1 0.351304 0.051339 0.142472
Si Si2 0.975652 0.296351 0.278129
Si Si3 0.597123 0.239983 0.150366
Si Si4 0.093516 0.236272 0.481340
Si Si5 0.283778 0.101606 0.476608
Si Si6 0.559035 0.144474 0.530091
Si Si7 0.718063 0.402851 0.701692
Si Si8 0.798527 0.341327 0.536373
O O1 0.522938 0.214554 0.077780
O O2 0.296669 0.861989 0.271956
O O3 0.473368 0.177842 0.935983
O O4 0.116162 0.957456 0.279437
O O5 0.750740 0.223103 0.368229
O O6 0.006396 0.272079 0.395203
O O7 0.939931 0.146065 0.318566
O O8 0.168935 0.521871 0.043690
O O9 0.419890 0.178434 0.300199
O O10 0.613839 0.096277 0.252787
O O11 0.216414 0.202461 0.431076
O O12 0.266452 0.436581 0.376940
O O13 0.428782 0.167213 0.492443
O O14 0.679047 0.291177 0.497814
O O15 0.729926 0.401403 0.587306
O O16 0.928981 0.471963 0.655015
#
# Coordination Sequence:
#
# PCOD8037845 Si02
#       8
#     2   2   2   2   2   2   2   2
#     4  10  17  32  53  80 106 130 169 224 263 298
#     4  11  19  36  56  75 105 138 181 218 251 304
#     4  10  19  33  58  77 100 140 179 216 256 300
#     4  11  21  35  51  79 110 138 174 214 257 311
#     4  11  24  34  50  76 114 145 169 207 262 312
#     4  10  20  38  52  78 108 136 174 217 258 309
#     4  10  18  33  56  81 102 131 174 223 261 303
#     4   9  18  33  56  80 102 130 176 219 265 300
#
# _framework density 18.225061
#
# number of rings (size 3 to 8) (size 9 to 14) (size 15 to 20)
#    0.000    1.750    6.250    2.250    0.000    3.500 
#    0.000    0.625    0.000    0.750    0.000    0.000 
#    0.000    0.000    0.000    0.000    0.000    0.000 
#
# Total GULP energy -198336.835974 kJ/mol
# GULP energy per Si atom -12396.052248 kJ/mol
# Density = 1.818358 g / cm^3
# Si number density = 18.225061 Si / 1000 Ang^3
#
#
#
# Elastic Constant Matrix: (Units=GPa)
#
#
# Indices 1 2 3 4 5 6 
#
# 1 43.8686 11.0663 9.0289 0.7506 -2.5047 -2.8679
# 2 11.0663 87.3533 1.9390 -5.2406 -2.0960 -4.6942
# 3 9.0289 1.9390 85.9413 -7.9004 -16.0670 0.6776
# 4 0.7506 -5.2406 -7.9004 26.2291 -0.1394 -2.9367
# 5 -2.5047 -2.0960 -16.0670 -0.1394 10.5359 0.4827
# 6 -2.8679 -4.6942 0.6776 -2.9367 0.4827 17.6383
#
#
#
# Elastic Compliance Matrix: (Units=1/GPa)
#
#
# Indices 1 2 3 4 5 6 
#
# 1 0.024332 -0.002938 -0.002412 -0.001672 0.001365 0.002951
# 2 -0.002938 0.012232 0.000843 0.003155 0.002915 0.003191
# 3 -0.002412 0.000843 0.017238 0.005498 0.025984 -0.000626
# 4 -0.001672 0.003155 0.005498 0.041289 0.008840 0.006989
# 5 0.001365 0.002915 0.025984 0.008840 0.135662 -0.002242
# 6 0.002951 0.003191 -0.000626 0.006989 -0.002242 0.059273
#
#
# Mechanical properties :
#
#
# Convention : Reuss Voigt Hill
#
# Bulk Modulus (GPa) = 22.32739 29.02571 25.67655
# Shear Modulus (GPa) = 15.92504 23.88926 19.90715
#
# Velocity S-wave (km/s) = 2.95922 3.62441 3.30858
# Velocity P-wave (km/s) = 4.89423 5.78585 5.35861
#
# Compressibility (1/GPa) = 0.04478805
#
# Stress axis : x y z
#
# Youngs Moduli (GPa) = 41.09750 81.75326 58.01035
#
# Poissons Ratio (x) = 0.24019 0.13991
# Poissons Ratio (y) = 0.12074 -0.04888
# Poissons Ratio (z) = 0.09912 -0.06888
#
# Static dielectric constant tensor:
#      x y z
#    x 2.916150 -0.001780 -0.137050 
#    y -0.001780 3.525270 -0.160220 
#    z -0.137050 -0.160220 3.347140 
# 
# 
# High freq. dielectric constant tensor:
#      x y z
#    x 1.657120 -0.002520 -0.015530 
#    y -0.002520 1.718740 -0.010400 
#    z -0.015530 -0.010400 1.704530 
# 
# From -- ./inp_files/101570.got.cif
#   From: 2010.06.25/outbox.cif.g09.slc.cpg/sg2_51_cif.got.tgz:101570.got - 2010.06.27 13:26:56.
