data_PCOD8037446
_publ_section_title
;
Structure prediction by ZEFSAII (Michael W. Deem and Ramdas Pophale) SiO2 
 PCOD8037446
Probable space group: P -1
;
_chemical_formula_sum "Si O2"
_cell_formula_units_Z 12
_cell_length_a 4.956348
_cell_length_b 8.595852
_cell_length_c 12.322410
_cell_angle_alpha 92.950983
_cell_angle_beta 115.123736
_cell_angle_gamma 88.223302
_cell_volume 474.662585
_symmetry_space_group_name_H-M "P -1"
_symmetry_group_IT_number 2
_symmetry_cell_setting 'triclinic'
loop_
_space_group_symop_operation_xyz
x,y,z
-x,-y,-z
loop_
_atom_site_type_symbol
_atom_site_label
_atom_site_fract_x
_atom_site_fract_y
_atom_site_fract_z
Si Si1 0.818931 0.924273 0.559998
Si Si2 0.828143 0.138680 0.888275
Si Si3 0.891447 0.387808 0.731196
Si Si4 0.760666 0.617431 0.421958
Si Si5 0.746145 0.372290 0.070700
Si Si6 0.745755 0.059499 0.166073
O O1 0.780178 0.746100 0.521215
O O2 0.980535 0.939583 0.703631
O O3 0.500000 0.000000 0.500000
O O4 0.000000 0.000000 0.500000
O O5 0.831849 0.225852 0.776361
O O6 0.519252 0.047501 0.841777
O O7 0.873732 0.278882 0.985828
O O8 0.113909 0.015967 0.925987
O O9 0.574409 0.447467 0.632982
O O10 0.141540 0.340381 0.683148
O O11 0.990586 0.531840 0.827154
O O12 0.000000 0.500000 0.500000
O O13 0.629365 0.236143 0.127796
O O14 0.500000 0.500000 0.000000
#
# Coordination Sequence:
#
# PCOD8037446 Si02
#       6
#     2   2   2   2   2   2
#     4  12  25  44  71 104 141 185 237 295 360 430
#     4  12  26  48  74 104 144 192 242 300 364 433
#     4  12  26  47  74 108 147 192 244 304 366 435
#     4  12  26  46  73 108 147 191 242 303 368 436
#     4  12  28  49  75 109 148 196 248 304 366 436
#     4  12  27  48  74 107 146 192 244 302 365 436
#
# _framework density 25.281117999999999
#
# number of rings (size 3 to 8) (size 9 to 14) (size 15 to 20)
#    0.000    0.000    0.000   11.000    0.000    8.000 
#    0.000    0.000    0.000    0.000    0.000    0.000 
#    0.000    0.000    0.000    0.000    0.000    0.000 
#
# Total GULP energy -148792.222974 kJ/mol
# GULP energy per Si atom -12399.351914 kJ/mol
# Density = 2.522358 g / cm^3
# Si number density = 25.281118 Si / 1000 Ang^3
#
#
#
# Elastic Constant Matrix: (Units=GPa)
#
#
# Indices 1 2 3 4 5 6 
#
# 1 117.3318 47.4185 9.1124 22.1179 2.5279 1.7505
# 2 47.4185 191.4918 56.0090 18.0918 10.7674 -14.9757
# 3 9.1124 56.0090 107.9842 32.0993 8.0815 -1.8487
# 4 22.1179 18.0918 32.0993 39.5422 5.1409 6.5311
# 5 2.5279 10.7674 8.0815 5.1409 40.1548 0.8305
# 6 1.7505 -14.9757 -1.8487 6.5311 0.8305 46.6320
#
#
#
# Elastic Compliance Matrix: (Units=1/GPa)
#
#
# Indices 1 2 3 4 5 6 
#
# 1 0.010732 -0.002801 0.002527 -0.006788 0.000441 -0.000259
# 2 -0.002801 0.007113 -0.003649 0.001078 -0.001178 0.002115
# 3 0.002527 -0.003649 0.014431 -0.011531 -0.000628 0.000931
# 4 -0.006788 0.001078 -0.011531 0.039145 -0.002443 -0.005295
# 5 0.000441 -0.001178 -0.000628 -0.002443 0.025642 -0.000534
# 6 -0.000259 0.002115 0.000931 -0.005295 -0.000534 0.022921
#
#
# Mechanical properties :
#
#
# Convention : Reuss Voigt Hill
#
# Bulk Modulus (GPa) = 40.93196 71.32083 56.12639
# Shear Modulus (GPa) = 36.77215 45.55035 41.16125
#
# Velocity S-wave (km/s) = 3.81797 4.24931 4.03940
# Velocity P-wave (km/s) = 5.97174 7.23518 6.63361
#
# Compressibility (1/GPa) = 0.02443079
#
# Stress axis : x y z
#
# Youngs Moduli (GPa) = 93.17672 140.59366 69.29756
#
# Poissons Ratio (x) = 0.39374 -0.17513
# Poissons Ratio (y) = 0.26095 0.25287
# Poissons Ratio (z) = -0.23548 0.51303
#
# Static dielectric constant tensor:
#      x y z
#    x 4.966040 0.125370 -0.122220 
#    y 0.125370 4.868500 -0.200350 
#    z -0.122220 -0.200350 4.570710 
# 
# 
# High freq. dielectric constant tensor:
#      x y z
#    x 2.017430 0.000210 -0.002120 
#    y 0.000210 2.032350 -0.002140 
#    z -0.002120 -0.002140 2.028720 
# 
# From -- ./inp_files/478632.got.cif
#   From: 2010.06.25/outbox.cif.g09.slc.cpg/sg2_240_cif.got.tgz:478632.got - 2010.06.27 13:26:56.
