data_PCOD8037324
_publ_section_title
;
Structure prediction by ZEFSAII (Michael W. Deem and Ramdas Pophale) SiO2 
 PCOD8037324
Probable space group: P -1
;
_chemical_formula_sum "Si O2"
_cell_formula_units_Z 16
_cell_length_a 15.222234
_cell_length_b 12.177368
_cell_length_c 18.600567
_cell_angle_alpha 25.760506
_cell_angle_beta 31.191407
_cell_angle_gamma 47.409443
_cell_volume 705.675216
_symmetry_space_group_name_H-M "P -1"
_symmetry_group_IT_number 2
_symmetry_cell_setting 'triclinic'
loop_
_space_group_symop_operation_xyz
x,y,z
-x,-y,-z
loop_
_atom_site_type_symbol
_atom_site_label
_atom_site_fract_x
_atom_site_fract_y
_atom_site_fract_z
Si Si1 0.588730 0.578489 0.781719
Si Si2 0.439825 0.928099 0.280195
Si Si3 0.474386 0.988608 0.674796
Si Si4 0.976975 0.624389 0.515622
Si Si5 0.069088 0.754778 0.096294
Si Si6 0.361553 0.571378 0.807519
Si Si7 0.020057 0.718614 0.672805
Si Si8 0.619031 0.894051 0.029463
O O1 0.499145 0.699578 0.835243
O O2 0.808912 0.717495 0.564530
O O3 0.524506 0.651160 0.706123
O O4 0.508563 0.251628 0.028779
O O5 0.522647 0.815872 0.222208
O O6 0.218186 0.798999 0.523641
O O7 0.512678 0.868187 0.340842
O O8 0.619842 0.163374 0.408798
O O9 0.273015 0.916114 0.825528
O O10 0.923092 0.363880 0.760591
O O11 0.000000 0.500000 0.500000
O O12 0.165984 0.885330 0.250377
O O13 0.964034 0.476005 0.287752
O O14 0.000000 0.000000 0.000000
O O15 0.389892 0.380695 0.838799
O O16 0.153030 0.447934 0.056803
O O17 0.000000 0.000000 0.500000
O O18 0.500000 0.000000 0.000000
#
# Coordination Sequence:
#
# PCOD8037324 Si02
#       8
#     2   2   2   2   2   2   2   2
#     4  12  24  47  77 104 142 199 251 304 361 452
#     4  12  25  47  74 106 146 193 248 309 361 442
#     4  12  28  47  71 108 156 189 244 315 386 436
#     4  12  25  45  75 109 143 193 255 304 366 446
#     4  12  28  45  74 112 151 195 244 315 378 445
#     4  12  27  47  74 106 147 199 242 308 375 444
#     4  12  25  48  78 108 145 201 256 298 373 458
#     4  12  24  47  76 106 145 193 251 300 364 451
#
# _framework density 22.673318999999999
#
# number of rings (size 3 to 8) (size 9 to 14) (size 15 to 20)
#    0.000    0.000    6.250    2.250    8.750    1.000 
#    2.250    0.000    0.000    0.000    0.000    0.000 
#    0.000    0.000    0.000    0.000    0.000    0.000 
#
# Total GULP energy -198247.791745 kJ/mol
# GULP energy per Si atom -12390.486984 kJ/mol
# Density = 2.262171 g / cm^3
# Si number density = 22.673319 Si / 1000 Ang^3
#
#
#
# Elastic Constant Matrix: (Units=GPa)
#
#
# Indices 1 2 3 4 5 6 
#
# 1 97.6867 25.9013 39.3097 7.3803 -11.6551 7.6928
# 2 25.9013 136.7382 24.6171 4.5697 -11.1520 2.4792
# 3 39.3097 24.6171 107.9019 20.1998 -11.6712 -7.1486
# 4 7.3803 4.5697 20.1998 37.9903 -1.4315 -6.2420
# 5 -11.6551 -11.1520 -11.6712 -1.4315 51.1485 9.9889
# 6 7.6928 2.4792 -7.1486 -6.2420 9.9889 39.3746
#
#
#
# Elastic Compliance Matrix: (Units=1/GPa)
#
#
# Indices 1 2 3 4 5 6 
#
# 1 0.012982 -0.001396 -0.004292 -0.000628 0.002427 -0.003943
# 2 -0.001396 0.007915 -0.001186 -0.000132 0.001287 -0.000788
# 3 -0.004292 -0.001186 0.012323 -0.005198 0.001026 0.002066
# 4 -0.000628 -0.000132 -0.005198 0.029874 -0.001355 0.004267
# 5 0.002427 0.001287 0.001026 -0.001355 0.021774 -0.006107
# 6 -0.003943 -0.000788 0.002066 0.004267 -0.006107 0.028818
#
#
# Mechanical properties :
#
#
# Convention : Reuss Voigt Hill
#
# Bulk Modulus (GPa) = 51.35517 57.99810 54.67664
# Shear Modulus (GPa) = 37.33515 42.53592 39.93554
#
# Velocity S-wave (km/s) = 4.06230 4.33602 4.20139
# Velocity P-wave (km/s) = 6.68598 7.12064 6.90673
#
# Compressibility (1/GPa) = 0.01947224
#
# Stress axis : x y z
#
# Youngs Moduli (GPa) = 77.03246 126.34611 81.15142
#
# Poissons Ratio (x) = 0.17637 0.34830
# Poissons Ratio (y) = 0.10753 0.09621
# Poissons Ratio (z) = 0.33062 0.14979
#
# Static dielectric constant tensor:
#      x y z
#    x 4.375360 0.191950 -0.046290 
#    y 0.191950 4.360140 0.016040 
#    z -0.046290 0.016040 3.944500 
# 
# 
# High freq. dielectric constant tensor:
#      x y z
#    x 1.900110 0.013410 -0.009560 
#    y 0.013410 1.908940 0.004020 
#    z -0.009560 0.004020 1.901730 
# 
# From -- ./inp_files/447888.got.cif
#   From: 2010.06.25/outbox.cif.g09.slc.cpg/sg2_224_cif.got.tgz:447888.got - 2010.06.27 13:26:56.
