data_PCOD8037628
_publ_section_title
;
Structure prediction by ZEFSAII (Michael W. Deem and Ramdas Pophale) SiO2 
 PCOD8037628
Probable space group: P -1
;
_chemical_formula_sum "Si O2"
_cell_formula_units_Z 14
_cell_length_a 9.536510
_cell_length_b 16.966715
_cell_length_c 11.899227
_cell_angle_alpha 159.383384
_cell_angle_beta 70.010925
_cell_angle_gamma 111.874046
_cell_volume 628.988385
_symmetry_space_group_name_H-M "P -1"
_symmetry_group_IT_number 2
_symmetry_cell_setting 'triclinic'
loop_
_space_group_symop_operation_xyz
x,y,z
-x,-y,-z
loop_
_atom_site_type_symbol
_atom_site_label
_atom_site_fract_x
_atom_site_fract_y
_atom_site_fract_z
Si Si1 0.050776 0.110835 0.252985
Si Si2 0.645674 0.072687 0.634999
Si Si3 0.532956 0.260141 0.367918
Si Si4 0.684541 0.489551 0.336072
Si Si5 0.136708 0.665018 0.233137
Si Si6 0.378654 0.343751 0.756211
Si Si7 0.845419 0.328248 0.292559
O O1 0.184262 0.319108 0.489768
O O2 0.907595 0.205151 0.470445
O O3 0.108315 0.920513 0.061677
O O4 0.000000 0.000000 0.000000
O O5 0.794166 0.127750 0.590389
O O6 0.500000 0.000000 0.500000
O O7 0.672087 0.890298 0.477127
O O8 0.628743 0.303078 0.009374
O O9 0.465980 0.389036 0.451761
O O10 0.443102 0.302119 0.560663
O O11 0.715860 0.337072 0.435691
O O12 0.500000 0.000000 0.000000
O O13 0.752893 0.380057 0.277666
O O14 0.245951 0.487533 0.988321
O O15 0.000000 0.500000 0.000000
O O16 0.500000 0.500000 0.000000
O O17 0.000000 0.500000 0.500000
#
# Coordination Sequence:
#
# PCOD8037628 Si02
#       7
#     2   2   2   2   2   2   2
#     4  12  27  50  76 114 161 199 251 320 389 458
#     4  12  26  49  79 111 151 202 262 312 386 459
#     4  12  25  48  79 107 153 202 252 319 381 451
#     4  12  25  49  77 115 152 200 264 314 380 464
#     4  12  27  50  77 112 157 199 255 323 385 460
#     4  12  27  49  76 111 150 200 261 315 384 453
#     4  12  28  47  77 117 153 201 256 316 393 458
#
# _framework density 22.257963
#
# number of rings (size 3 to 8) (size 9 to 14) (size 15 to 20)
#    0.000    0.000    7.143    1.286    4.000    4.000 
#    2.571    0.000    0.000    0.000    0.000    0.000 
#    0.000    0.000    0.000    0.000    0.000    0.000 
#
# Total GULP energy -173477.186497 kJ/mol
# GULP energy per Si atom -12391.227607 kJ/mol
# Density = 2.220730 g / cm^3
# Si number density = 22.257963 Si / 1000 Ang^3
#
#
#
# Elastic Constant Matrix: (Units=GPa)
#
#
# Indices 1 2 3 4 5 6 
#
# 1 177.9766 70.5496 85.2541 -2.6739 -8.9846 8.4471
# 2 70.5496 115.9502 72.1141 18.2333 -10.9365 1.2584
# 3 85.2541 72.1141 171.9238 -0.7377 -14.3517 -3.6231
# 4 -2.6739 18.2333 -0.7377 46.4438 2.1379 0.8547
# 5 -8.9846 -10.9365 -14.3517 2.1379 52.9527 2.1990
# 6 8.4471 1.2584 -3.6231 0.8547 2.1990 44.4257
#
#
#
# Elastic Compliance Matrix: (Units=1/GPa)
#
#
# Indices 1 2 3 4 5 6 
#
# 1 0.008518 -0.003835 -0.002650 0.001990 -0.000072 -0.001762
# 2 -0.003835 0.014630 -0.004136 -0.006099 0.001495 0.000021
# 3 -0.002650 -0.004136 0.008984 0.001544 0.001016 0.001274
# 4 0.001990 -0.006099 0.001544 0.024141 -0.001459 -0.000472
# 5 -0.000072 0.001495 0.001016 -0.001459 0.019552 -0.000886
# 6 -0.001762 0.000021 0.001274 -0.000472 -0.000886 0.023001
#
#
# Mechanical properties :
#
#
# Convention : Reuss Voigt Hill
#
# Bulk Modulus (GPa) = 91.82739 102.40958 97.11848
# Shear Modulus (GPa) = 40.42108 44.62663 42.52386
#
# Velocity S-wave (km/s) = 4.26611 4.48255 4.37567
# Velocity P-wave (km/s) = 8.10011 8.53822 8.32205
#
# Compressibility (1/GPa) = 0.01089000
#
# Stress axis : x y z
#
# Youngs Moduli (GPa) = 117.39420 68.35210 111.31465
#
# Poissons Ratio (x) = 0.26216 0.29497
# Poissons Ratio (y) = 0.45026 0.46036
# Poissons Ratio (z) = 0.31108 0.28268
#
# Static dielectric constant tensor:
#      x y z
#    x 4.325410 0.168970 -0.135350 
#    y 0.168970 4.506750 0.129320 
#    z -0.135350 0.129320 4.399070 
# 
# 
# High freq. dielectric constant tensor:
#      x y z
#    x 1.897040 0.002610 -0.004400 
#    y 0.002610 1.887680 0.016400 
#    z -0.004400 0.016400 1.890890 
# 
# From -- ./inp_files/403675.got.cif
#   From: 2010.06.25/outbox.cif.g09.slc.cpg/sg2_202_cif.got.tgz:403675.got - 2010.06.27 13:26:56.
