data_PCOD8037960
_publ_section_title
;
Structure prediction by ZEFSAII (Michael W. Deem and Ramdas Pophale) SiO2 
 PCOD8037960
Probable space group: P -1
;
_chemical_formula_sum "Si O2"
_cell_formula_units_Z 16
_cell_length_a 9.570173
_cell_length_b 7.189327
_cell_length_c 19.696807
_cell_angle_alpha 87.489861
_cell_angle_beta 137.197351
_cell_angle_gamma 117.505186
_cell_volume 712.174305
_symmetry_space_group_name_H-M "P -1"
_symmetry_group_IT_number 2
_symmetry_cell_setting 'triclinic'
loop_
_space_group_symop_operation_xyz
x,y,z
-x,-y,-z
loop_
_atom_site_type_symbol
_atom_site_label
_atom_site_fract_x
_atom_site_fract_y
_atom_site_fract_z
Si Si1 0.275354 0.661753 0.818533
Si Si2 0.855052 0.255244 0.366063
Si Si3 0.125041 0.488495 0.904293
Si Si4 0.216892 0.275923 0.048859
Si Si5 0.307126 0.490913 0.620371
Si Si6 0.709293 0.925221 0.131020
Si Si7 0.335724 0.227613 0.742420
Si Si8 0.092843 0.235676 0.150754
O O1 0.100415 0.610016 0.691105
O O2 0.092494 0.440224 0.811242
O O3 0.548587 0.724342 0.891787
O O4 0.357406 0.895521 0.884371
O O5 0.714286 0.304863 0.370745
O O6 0.143970 0.358266 0.495348
O O7 0.659817 0.967285 0.292130
O O8 0.985249 0.592932 0.880599
O O9 0.038338 0.263626 0.924582
O O10 0.442687 0.668228 0.021434
O O11 0.362793 0.531060 0.138531
O O12 0.045534 0.109460 0.059557
O O13 0.186197 0.295119 0.641725
O O14 0.611475 0.609439 0.716822
O O15 0.822563 0.894187 0.241053
O O16 0.914049 0.013001 0.141503
#
# Coordination Sequence:
#
# PCOD8037960 Si02
#       8
#     2   2   2   2   2   2   2   2
#     4  10  17  33  54  81 106 148 186 221 267 335
#     4  10  19  34  59  86 107 147 186 231 274 329
#     4  10  20  35  55  79 113 154 182 220 280 338
#     4  10  19  33  57  82 111 144 191 225 272 325
#     4  10  20  35  60  84 110 143 191 229 278 319
#     4   9  20  35  57  78 115 152 180 221 282 336
#     4   9  18  35  58  81 111 145 185 221 274 338
#     4  10  18  34  55  81 114 145 181 237 271 318
#
# _framework density 22.466408999999999
#
# number of rings (size 3 to 8) (size 9 to 14) (size 15 to 20)
#    0.000    2.250    2.500    2.625    0.000    0.000 
#    0.000    8.125   33.000    3.000    0.000    0.000 
#    0.000    0.000    0.000    0.000    0.000    0.000 
#
# Total GULP energy -198297.932033 kJ/mol
# GULP energy per Si atom -12393.620752 kJ/mol
# Density = 2.241527 g / cm^3
# Si number density = 22.466409 Si / 1000 Ang^3
#
#
#
# Elastic Constant Matrix: (Units=GPa)
#
#
# Indices 1 2 3 4 5 6 
#
# 1 137.5093 41.1785 46.7932 -11.5866 -6.4375 7.8012
# 2 41.1785 77.8330 35.0423 -22.2093 -5.3809 8.4082
# 3 46.7932 35.0423 122.0306 -28.5642 -1.6378 3.5794
# 4 -11.5866 -22.2093 -28.5642 35.2702 0.3369 -11.3270
# 5 -6.4375 -5.3809 -1.6378 0.3369 30.1056 -0.0500
# 6 7.8012 8.4082 3.5794 -11.3270 -0.0500 29.2051
#
#
#
# Elastic Compliance Matrix: (Units=1/GPa)
#
#
# Indices 1 2 3 4 5 6 
#
# 1 0.009462 -0.004096 -0.002968 -0.002514 0.001155 -0.001958
# 2 -0.004096 0.018468 -0.001640 0.008731 0.002237 -0.000632
# 3 -0.002968 -0.001640 0.011688 0.008461 -0.000381 0.003113
# 4 -0.002514 0.008731 0.008461 0.044484 0.001009 0.014375
# 5 0.001155 0.002237 -0.000381 0.001009 0.033830 -0.000456
# 6 -0.001958 -0.000632 0.003113 0.014375 -0.000456 0.040138
#
#
# Mechanical properties :
#
#
# Convention : Reuss Voigt Hill
#
# Bulk Modulus (GPa) = 45.02556 64.82231 54.92394
# Shear Modulus (GPa) = 27.34021 33.20678 30.27350
#
# Velocity S-wave (km/s) = 3.49225 3.84873 3.67481
# Velocity P-wave (km/s) = 6.02875 6.97610 6.51965
#
# Compressibility (1/GPa) = 0.02220960
#
# Stress axis : x y z
#
# Youngs Moduli (GPa) = 105.68692 54.14863 85.55962
#
# Poissons Ratio (x) = 0.22179 0.25390
# Poissons Ratio (y) = 0.43288 0.14036
# Poissons Ratio (z) = 0.31363 0.08883
#
# Static dielectric constant tensor:
#      x y z
#    x 4.140020 0.202790 -0.546200 
#    y 0.202790 4.857930 -0.390130 
#    z -0.546200 -0.390130 4.311370 
# 
# 
# High freq. dielectric constant tensor:
#      x y z
#    x 1.880310 -0.013320 -0.033450 
#    y -0.013320 1.900630 -0.026690 
#    z -0.033450 -0.026690 1.869810 
# 
# From -- ./inp_files/329642.got.cif
#   From: 2010.06.25/outbox.cif.g09.slc.cpg/sg2_165_cif.got.tgz:329642.got - 2010.06.27 13:26:56.
