data_PCOD8037796
_publ_section_title
;
Structure prediction by ZEFSAII (Michael W. Deem and Ramdas Pophale) SiO2 
 PCOD8037796
Probable space group: P -1
;
_chemical_formula_sum "Si O2"
_cell_formula_units_Z 14
_cell_length_a 7.742759
_cell_length_b 26.782306
_cell_length_c 5.071299
_cell_angle_alpha 116.090245
_cell_angle_beta 118.036455
_cell_angle_gamma 34.908171
_cell_volume 528.104433
_symmetry_space_group_name_H-M "P -1"
_symmetry_group_IT_number 2
_symmetry_cell_setting 'triclinic'
loop_
_space_group_symop_operation_xyz
x,y,z
-x,-y,-z
loop_
_atom_site_type_symbol
_atom_site_label
_atom_site_fract_x
_atom_site_fract_y
_atom_site_fract_z
Si Si1 0.261660 0.982629 0.254561
Si Si2 0.228904 0.320854 0.151707
Si Si3 0.933669 0.276036 0.934917
Si Si4 0.649934 0.495476 0.349239
Si Si5 0.915499 0.165110 0.372531
Si Si6 0.676018 0.593695 0.887318
Si Si7 0.662066 0.879255 0.805877
O O1 0.430191 0.919921 0.486886
O O2 0.494935 0.942388 0.086896
O O3 0.107927 0.074613 0.445987
O O4 0.000000 0.000000 0.000000
O O5 0.556729 0.228529 0.283021
O O6 0.301181 0.345726 0.015820
O O7 0.020647 0.401993 0.397351
O O8 0.033906 0.308208 0.911005
O O9 0.974159 0.212595 0.644062
O O10 0.583189 0.360643 0.974476
O O11 0.172137 0.215644 0.212421
O O12 0.500000 0.500000 0.500000
O O13 0.595058 0.574343 0.521247
O O14 0.500000 0.500000 0.000000
O O15 0.058778 0.139698 0.120622
O O16 0.000000 0.500000 0.000000
#
# Coordination Sequence:
#
# PCOD8037796 Si02
#       7
#     2   2   2   2   2   2   2
#     4  12  28  52  84 121 162 223 278 337 423 504
#     4  12  28  50  83 121 167 218 282 341 427 495
#     4  12  28  53  82 122 170 219 277 355 415 499
#     4  12  27  51  84 117 163 221 276 345 417 494
#     4  12  28  50  83 122 167 217 281 344 421 499
#     4  12  27  54  84 124 168 227 289 349 428 511
#     4  12  26  53  80 116 168 211 274 347 408 496
#
# _framework density 26.509910000000001
#
# number of rings (size 3 to 8) (size 9 to 14) (size 15 to 20)
#    0.000    0.000    4.286    4.286    4.000    0.000 
#    7.714    0.000    0.000    0.000    0.000    0.000 
#    0.000    0.000    0.000    0.000    0.000    0.000 
#
# Total GULP energy -173518.703348 kJ/mol
# GULP energy per Si atom -12394.193096 kJ/mol
# Density = 2.644957 g / cm^3
# Si number density = 26.509910 Si / 1000 Ang^3
#
#
#
# Elastic Constant Matrix: (Units=GPa)
#
#
# Indices 1 2 3 4 5 6 
#
# 1 175.9733 62.0963 55.9613 5.0436 25.2273 -9.6666
# 2 62.0963 164.7680 46.1887 7.1891 4.6976 -22.0928
# 3 55.9613 46.1887 116.1435 5.0318 3.3735 4.1654
# 4 5.0436 7.1891 5.0318 41.8052 8.5821 4.6416
# 5 25.2273 4.6976 3.3735 8.5821 40.8064 6.9553
# 6 -9.6666 -22.0928 4.1654 4.6416 6.9553 54.0869
#
#
#
# Elastic Compliance Matrix: (Units=1/GPa)
#
#
# Indices 1 2 3 4 5 6 
#
# 1 0.008096 -0.001866 -0.003094 0.000557 -0.004908 0.001506
# 2 -0.001866 0.007890 -0.002303 -0.001237 0.000159 0.003152
# 3 -0.003094 -0.002303 0.011083 -0.000660 0.001831 -0.002526
# 4 0.000557 -0.001237 -0.000660 0.025415 -0.005174 -0.001871
# 5 -0.004908 0.000159 0.001831 -0.005174 0.029185 -0.004263
# 6 0.001506 0.003152 -0.002526 -0.001871 -0.004263 0.020949
#
#
# Mechanical properties :
#
#
# Convention : Reuss Voigt Hill
#
# Bulk Modulus (GPa) = 79.72938 87.26416 83.49677
# Shear Modulus (GPa) = 41.21188 46.84892 44.03040
#
# Velocity S-wave (km/s) = 3.94710 4.20840 4.07984
# Velocity P-wave (km/s) = 7.13536 7.52351 7.33200
#
# Compressibility (1/GPa) = 0.01254243
#
# Stress axis : x y z
#
# Youngs Moduli (GPa) = 123.52526 126.74187 90.23096
#
# Poissons Ratio (x) = 0.23650 0.27919
# Poissons Ratio (y) = 0.23050 0.20778
# Poissons Ratio (z) = 0.38221 0.29185
#
# Static dielectric constant tensor:
#      x y z
#    x 5.101480 -0.065830 0.122160 
#    y -0.065830 5.922970 0.052790 
#    z 0.122160 0.052790 4.697880 
# 
# 
# High freq. dielectric constant tensor:
#      x y z
#    x 2.073440 -0.013720 0.002010 
#    y -0.013720 2.094920 0.005850 
#    z 0.002010 0.005850 2.044430 
# 
# From -- ./inp_files/56757.got.cif
#   From: 2010.06.25/outbox.cif.g09.slc.cpg/sg2_29_cif.got.tgz:56757.got - 2010.06.27 13:26:56.
