data_PCOD8037166
_publ_section_title
;
Structure prediction by ZEFSAII (Michael W. Deem and Ramdas Pophale) SiO2 
 PCOD8037166
Probable space group: P -1
;
_chemical_formula_sum "Si O2"
_cell_formula_units_Z 16
_cell_length_a 8.314368
_cell_length_b 14.355703
_cell_length_c 9.098724
_cell_angle_alpha 105.581248
_cell_angle_beta 87.169358
_cell_angle_gamma 136.475289
_cell_volume 702.902889
_symmetry_space_group_name_H-M "P -1"
_symmetry_group_IT_number 2
_symmetry_cell_setting 'triclinic'
loop_
_space_group_symop_operation_xyz
x,y,z
-x,-y,-z
loop_
_atom_site_type_symbol
_atom_site_label
_atom_site_fract_x
_atom_site_fract_y
_atom_site_fract_z
Si Si1 0.777053 0.414185 0.078850
Si Si2 0.513388 0.811037 0.539470
Si Si3 0.055423 0.909809 0.198506
Si Si4 0.453114 0.573015 0.435575
Si Si5 0.735551 0.061835 0.086488
Si Si6 0.382639 0.150760 0.783238
Si Si7 0.306757 0.406845 0.842653
Si Si8 0.906545 0.331860 0.299168
O O1 0.758319 0.515737 0.180924
O O2 0.798665 0.356254 0.194100
O O3 0.540830 0.284958 0.942731
O O4 0.000000 0.500000 0.000000
O O5 0.567568 0.724200 0.555025
O O6 0.493642 0.806408 0.362110
O O7 0.259460 0.736080 0.578701
O O8 0.717197 0.973746 0.657138
O O9 0.872571 0.912396 0.248147
O O10 0.940773 0.752992 0.163175
O O11 0.135768 0.951623 0.042132
O O12 0.500000 0.500000 0.500000
O O13 0.573043 0.607812 0.289124
O O14 0.175048 0.476739 0.392329
O O15 0.915347 0.227536 0.191032
O O16 0.660936 0.973722 0.199858
O O17 0.500000 0.000000 0.000000
O O18 0.500000 0.500000 0.000000
#
# Coordination Sequence:
#
# PCOD8037166 Si02
#       8
#     2   2   2   2   2   2   2   2
#     4  12  24  44  74 105 141 193 243 298 358 416
#     4  12  26  49  69 107 150 191 234 292 371 429
#     4  12  25  47  74 104 148 183 243 300 355 425
#     4  12  28  48  72 105 143 190 241 291 362 433
#     4  12  25  47  71 108 138 185 245 291 358 424
#     4  12  26  44  74 104 146 189 236 301 356 424
#     4  12  24  45  74 108 141 187 245 299 349 420
#     4  12  27  49  73 103 151 189 241 300 357 435
#
# _framework density 22.762744999999999
#
# number of rings (size 3 to 8) (size 9 to 14) (size 15 to 20)
#    0.000    0.000    5.000    4.875    1.750    1.500 
#    0.000    0.000    0.000    0.000    0.000    0.000 
#    0.000    0.000    0.000    0.000    0.000    0.000 
#
# Total GULP energy -198499.340144 kJ/mol
# GULP energy per Si atom -12406.208759 kJ/mol
# Density = 2.271094 g / cm^3
# Si number density = 22.762745 Si / 1000 Ang^3
#
#
#
# Elastic Constant Matrix: (Units=GPa)
#
#
# Indices 1 2 3 4 5 6 
#
# 1 84.7436 36.6065 32.4726 -7.6620 -12.1826 0.4519
# 2 36.6065 131.7946 46.0942 4.8985 0.4247 -6.5376
# 3 32.4726 46.0942 108.8597 -7.6292 -9.1519 2.8547
# 4 -7.6620 4.8985 -7.6292 49.4997 -1.3831 -8.9681
# 5 -12.1826 0.4247 -9.1519 -1.3831 32.1180 -8.6040
# 6 0.4519 -6.5376 2.8547 -8.9681 -8.6040 52.2979
#
#
#
# Elastic Compliance Matrix: (Units=1/GPa)
#
#
# Indices 1 2 3 4 5 6 
#
# 1 0.015258 -0.003444 -0.002471 0.002644 0.005492 0.000929
# 2 -0.003444 0.009891 -0.003515 -0.001986 -0.002327 0.000735
# 3 -0.002471 -0.003515 0.011751 0.001781 0.002440 -0.000353
# 4 0.002644 -0.001986 0.001781 0.021901 0.003543 0.003970
# 5 0.005492 -0.002327 0.002440 0.003543 0.035707 0.006011
# 6 0.000929 0.000735 -0.000353 0.003970 0.006011 0.020894
#
#
# Mechanical properties :
#
#
# Convention : Reuss Voigt Hill
#
# Bulk Modulus (GPa) = 55.42904 61.74941 58.58922
# Shear Modulus (GPa) = 35.64447 40.79810 38.22129
#
# Velocity S-wave (km/s) = 3.96145 4.23817 4.10215
# Velocity P-wave (km/s) = 6.73259 7.15093 6.94491
#
# Compressibility (1/GPa) = 0.01804109
#
# Stress axis : x y z
#
# Youngs Moduli (GPa) = 65.53853 101.10014 85.10164
#
# Poissons Ratio (x) = 0.34817 0.21026
# Poissons Ratio (y) = 0.22570 0.29913
# Poissons Ratio (z) = 0.16193 0.35537
#
# Static dielectric constant tensor:
#      x y z
#    x 3.607740 0.178780 0.175910 
#    y 0.178780 4.255670 -0.189500 
#    z 0.175910 -0.189500 3.972490 
# 
# 
# High freq. dielectric constant tensor:
#      x y z
#    x 1.900220 0.000110 -0.015120 
#    y 0.000110 1.919270 0.000080 
#    z -0.015120 0.000080 1.901720 
# 
# From -- ./inp_files/208330.got.cif
#   From: 2010.06.25/outbox.cif.g09.slc.cpg/sg2_105_cif.got.tgz:208330.got - 2010.06.27 13:26:56.
