data_PCOD8037973
_publ_section_title
;
Structure prediction by ZEFSAII (Michael W. Deem and Ramdas Pophale) SiO2 
 PCOD8037973
Probable space group: P -1
;
_chemical_formula_sum "Si O2"
_cell_formula_units_Z 16
_cell_length_a 13.287417
_cell_length_b 7.831905
_cell_length_c 12.335758
_cell_angle_alpha 108.283815
_cell_angle_beta 57.608065
_cell_angle_gamma 126.264570
_cell_volume 874.002427
_symmetry_space_group_name_H-M "P -1"
_symmetry_group_IT_number 2
_symmetry_cell_setting 'triclinic'
loop_
_space_group_symop_operation_xyz
x,y,z
-x,-y,-z
loop_
_atom_site_type_symbol
_atom_site_label
_atom_site_fract_x
_atom_site_fract_y
_atom_site_fract_z
Si Si1 0.761651 0.084324 0.674172
Si Si2 0.043361 0.706646 0.580300
Si Si3 0.855848 0.883816 0.738785
Si Si4 0.538766 0.077928 0.115362
Si Si5 0.061203 0.504594 0.196294
Si Si6 0.986232 0.746704 0.135281
Si Si7 0.251319 0.428928 0.928015
Si Si8 0.730968 0.902461 0.023605
O O1 0.815158 0.113424 0.524344
O O2 0.839140 0.288385 0.748304
O O3 0.790857 0.911240 0.671971
O O4 0.597929 0.999661 0.748173
O O5 0.000000 0.500000 0.500000
O O6 0.907467 0.726174 0.651389
O O7 0.062386 0.675087 0.691098
O O8 0.734008 0.803207 0.884931
O O9 0.995056 0.103428 0.743476
O O10 0.626168 0.331802 0.116606
O O11 0.619842 0.975565 0.102078
O O12 0.500000 0.000000 0.000000
O O13 0.996908 0.552724 0.138184
O O14 0.153151 0.413141 0.080743
O O15 0.837270 0.660107 0.148939
O O16 0.114235 0.885636 0.003827
O O17 0.308523 0.275911 0.897021
#
# Coordination Sequence:
#
# PCOD8037973 Si02
#       8
#     2   2   2   2   2   2   2   2
#     4  10  20  36  52  77 119 150 174 223 278 328
#     4  10  20  32  56  84 106 143 192 227 275 330
#     4   9  17  35  54  80 108 140 177 242 273 308
#     4  12  21  38  52  80 127 150 173 225 273 346
#     4  10  17  33  55  82 109 138 184 235 278 314
#     4   9  19  34  56  84 111 137 183 243 285 308
#     4  12  20  34  58  85 110 148 187 222 287 331
#     4  10  21  33  56  83 114 143 182 222 288 316
#
# _framework density 18.306583
#
# number of rings (size 3 to 8) (size 9 to 14) (size 15 to 20)
#    0.750    1.000    5.000    1.125    0.000    0.500 
#    4.500    0.000    0.000    1.500    0.000    0.000 
#    0.000    0.000    0.000    0.000    0.000    0.000 
#
# Total GULP energy -198257.519765 kJ/mol
# GULP energy per Si atom -12391.094985 kJ/mol
# Density = 1.826492 g / cm^3
# Si number density = 18.306583 Si / 1000 Ang^3
#
#
#
# Elastic Constant Matrix: (Units=GPa)
#
#
# Indices 1 2 3 4 5 6 
#
# 1 117.0232 67.9082 37.4899 -18.7358 -3.0963 -22.1201
# 2 67.9082 66.9166 24.9329 -11.9100 -5.1611 -19.2538
# 3 37.4899 24.9329 85.0848 -24.5375 -10.5133 -7.8605
# 4 -18.7358 -11.9100 -24.5375 24.9995 -4.4098 1.8765
# 5 -3.0963 -5.1611 -10.5133 -4.4098 22.7644 0.4379
# 6 -22.1201 -19.2538 -7.8605 1.8765 0.4379 35.1937
#
#
#
# Elastic Compliance Matrix: (Units=1/GPa)
#
#
# Indices 1 2 3 4 5 6 
#
# 1 0.022211 -0.020451 -0.002880 0.003522 -0.002301 0.001969
# 2 -0.020451 0.039288 0.000408 0.004395 0.007004 0.008409
# 3 -0.002880 0.000408 0.020572 0.020411 0.013122 0.001756
# 4 0.003522 0.004395 0.020411 0.068626 0.024095 0.005218
# 5 -0.002301 0.007004 0.013122 0.024095 0.055866 0.003336
# 6 0.001969 0.008409 0.001756 0.005218 0.003336 0.034325
#
#
# Mechanical properties :
#
#
# Convention : Reuss Voigt Hill
#
# Bulk Modulus (GPa) = 27.60559 58.85408 43.22984
# Shear Modulus (GPa) = 16.73306 25.83778 21.28542
#
# Velocity S-wave (km/s) = 3.02660 3.76093 3.41357
# Velocity P-wave (km/s) = 5.22743 7.14691 6.26117
#
# Compressibility (1/GPa) = 0.03622454
#
# Stress axis : x y z
#
# Youngs Moduli (GPa) = 45.02309 25.45324 48.60885
#
# Poissons Ratio (x) = 0.52054 0.14002
# Poissons Ratio (y) = 0.92075 -0.01983
# Poissons Ratio (z) = 0.12969 -0.01039
#
# Static dielectric constant tensor:
#      x y z
#    x 3.286650 -0.286530 0.059100 
#    y -0.286530 3.374340 -0.249940 
#    z 0.059100 -0.249940 3.604410 
# 
# 
# High freq. dielectric constant tensor:
#      x y z
#    x 1.698510 -0.032450 0.002630 
#    y -0.032450 1.699620 -0.003210 
#    z 0.002630 -0.003210 1.685140 
# 
# From -- ./inp_files/417554.got.cif
#   From: 2010.06.25/outbox.cif.g09.slc.cpg/sg2_209_cif.got.tgz:417554.got - 2010.06.27 13:26:56.
