data_PCOD8037019
_publ_section_title
;
Structure prediction by ZEFSAII (Michael W. Deem and Ramdas Pophale) SiO2 
 PCOD8037019
Probable space group: P -1
;
_chemical_formula_sum "Si O2"
_cell_formula_units_Z 14
_cell_length_a 20.529562
_cell_length_b 15.006953
_cell_length_c 11.346616
_cell_angle_alpha 30.800351
_cell_angle_beta 30.874762
_cell_angle_gamma 21.376909
_cell_volume 619.658084
_symmetry_space_group_name_H-M "P -1"
_symmetry_group_IT_number 2
_symmetry_cell_setting 'triclinic'
loop_
_space_group_symop_operation_xyz
x,y,z
-x,-y,-z
loop_
_atom_site_type_symbol
_atom_site_label
_atom_site_fract_x
_atom_site_fract_y
_atom_site_fract_z
Si Si1 0.713106 0.252995 0.475302
Si Si2 0.753901 0.966333 0.945482
Si Si3 0.987191 0.917574 0.237324
Si Si4 0.868140 0.684935 0.601851
Si Si5 0.163916 0.512487 0.904637
Si Si6 0.671878 0.357720 0.810216
Si Si7 0.561524 0.829194 0.330819
O O1 0.500000 0.500000 0.500000
O O2 0.745999 0.044585 0.735160
O O3 0.805592 0.312271 0.340306
O O4 0.792426 0.161729 0.324241
O O5 0.690115 0.179387 0.893849
O O6 0.962612 0.681736 0.965851
O O7 0.611830 0.945769 0.201190
O O8 0.146081 0.820636 0.188936
O O9 0.988122 0.709959 0.454235
O O10 0.000000 0.000000 0.000000
O O11 0.000000 0.500000 0.500000
O O12 0.663921 0.961335 0.563855
O O13 0.834433 0.556653 0.885432
O O14 0.333546 0.248566 0.869406
O O15 0.647807 0.564447 0.547598
O O16 0.500000 0.500000 0.000000
#
# Coordination Sequence:
#
# PCOD8037019 Si02
#       7
#     2   2   2   2   2   2   2
#     4  12  24  43  75 106 143 189 239 296 355 430
#     4  12  26  47  77 110 144 189 246 297 363 425
#     4  12  26  47  70 103 148 189 238 297 361 426
#     4  12  28  46  70 107 147 191 242 296 363 431
#     4  12  23  47  73 105 146 186 243 300 357 426
#     4  12  28  47  76 109 148 190 241 303 362 430
#     4  12  26  48  76 106 146 189 243 300 358 431
#
# _framework density 22.593105000000001
#
# number of rings (size 3 to 8) (size 9 to 14) (size 15 to 20)
#    0.000    0.000    2.857    7.286    6.000    0.571 
#    0.000    0.000    0.000    0.000    0.000    0.000 
#    0.000    0.000    0.000    0.000    0.000    0.000 
#
# Total GULP energy -173663.527536 kJ/mol
# GULP energy per Si atom -12404.537681 kJ/mol
# Density = 2.254168 g / cm^3
# Si number density = 22.593105 Si / 1000 Ang^3
#
#
#
# Elastic Constant Matrix: (Units=GPa)
#
#
# Indices 1 2 3 4 5 6 
#
# 1 112.7156 52.5771 49.9964 2.6126 2.8187 21.1576
# 2 52.5771 144.8919 44.2670 19.8964 21.3912 20.8849
# 3 49.9964 44.2670 110.0516 1.4107 -0.3205 17.3529
# 4 2.6126 19.8964 1.4107 42.5018 7.6561 5.3006
# 5 2.8187 21.3912 -0.3205 7.6561 51.5133 -9.3666
# 6 21.1576 20.8849 17.3529 5.3006 -9.3666 38.7896
#
#
#
# Elastic Compliance Matrix: (Units=1/GPa)
#
#
# Indices 1 2 3 4 5 6 
#
# 1 0.012728 -0.002965 -0.004005 0.001283 -0.000375 -0.003820
# 2 -0.002965 0.010232 -0.002190 -0.003338 -0.004237 -0.003479
# 3 -0.004005 -0.002190 0.012094 0.000997 0.000689 -0.002017
# 4 0.001283 -0.003338 0.000997 0.026017 -0.003214 -0.003680
# 5 -0.000375 -0.004237 0.000689 -0.003214 0.023167 0.008211
# 6 -0.003820 -0.003479 -0.002017 -0.003680 0.008211 0.033125
#
#
# Mechanical properties :
#
#
# Convention : Reuss Voigt Hill
#
# Bulk Modulus (GPa) = 59.75511 73.48224 66.61867
# Shear Modulus (GPa) = 35.39548 41.28217 38.33883
#
# Velocity S-wave (km/s) = 3.96239 4.27922 4.12385
# Velocity P-wave (km/s) = 6.88766 7.55052 7.22669
#
# Compressibility (1/GPa) = 0.01673497
#
# Stress axis : x y z
#
# Youngs Moduli (GPa) = 78.56575 97.73297 82.68533
#
# Poissons Ratio (x) = 0.28980 0.33114
# Poissons Ratio (y) = 0.23296 0.18104
# Poissons Ratio (z) = 0.31464 0.21399
#
# Static dielectric constant tensor:
#      x y z
#    x 4.370430 0.062870 -0.152700 
#    y 0.062870 4.193130 0.062050 
#    z -0.152700 0.062050 4.181210 
# 
# 
# High freq. dielectric constant tensor:
#      x y z
#    x 1.901560 0.003960 -0.006530 
#    y 0.003960 1.902320 0.004120 
#    z -0.006530 0.004120 1.906140 
# 
# From -- ./inp_files/188611.got.cif
#   From: 2010.06.25/outbox.cif.g09.slc.cpg/sg2_95_cif.got.tgz:188611.got - 2010.06.27 13:26:56.
