data_PCOD8037699
_publ_section_title
;
Structure prediction by ZEFSAII (Michael W. Deem and Ramdas Pophale) SiO2 
 PCOD8037699
Probable space group: P -1
;
_chemical_formula_sum "Si O2"
_cell_formula_units_Z 16
_cell_length_a 23.104159
_cell_length_b 8.086400
_cell_length_c 8.760391
_cell_angle_alpha 64.478493
_cell_angle_beta 29.800630
_cell_angle_gamma 56.505239
_cell_volume 673.763269
_symmetry_space_group_name_H-M "P -1"
_symmetry_group_IT_number 2
_symmetry_cell_setting 'triclinic'
loop_
_space_group_symop_operation_xyz
x,y,z
-x,-y,-z
loop_
_atom_site_type_symbol
_atom_site_label
_atom_site_fract_x
_atom_site_fract_y
_atom_site_fract_z
Si Si1 0.305037 0.612544 0.131831
Si Si2 0.124488 0.496803 0.794199
Si Si3 0.773034 0.366046 0.028470
Si Si4 0.422630 0.856296 0.967097
Si Si5 0.775216 0.792653 0.853898
Si Si6 0.321197 0.122261 0.631012
Si Si7 0.565877 0.273422 0.665377
Si Si8 0.979784 0.176670 0.855867
O O1 0.190270 0.608007 0.495804
O O2 0.243035 0.706378 0.075208
O O3 0.368440 0.744147 0.016954
O O4 0.415601 0.393029 0.940079
O O5 0.217880 0.267985 0.694215
O O6 0.000000 0.500000 0.000000
O O7 0.087660 0.608927 0.994752
O O8 0.641439 0.414603 0.401703
O O9 0.808058 0.558298 0.865633
O O10 0.885530 0.182769 0.929353
O O11 0.571016 0.791875 0.619887
O O12 0.400873 0.805324 0.208695
O O13 0.347100 0.093145 0.018418
O O14 0.887528 0.845985 0.509223
O O15 0.746702 0.882740 0.053176
O O16 0.385955 0.906705 0.492861
O O17 0.000000 0.000000 0.000000
#
# Coordination Sequence:
#
# PCOD8037699 Si02
#       8
#     2   2   2   2   2   2   2   2
#     4  12  26  47  76 115 152 200 253 320 378 449
#     4  12  28  47  75 113 154 196 257 312 380 455
#     4  12  26  46  76 112 153 198 252 314 380 452
#     4  12  26  49  77 112 157 199 258 313 384 453
#     4  12  26  48  77 109 155 197 256 313 380 452
#     4  12  27  47  76 114 151 204 253 315 381 452
#     4  12  26  47  77 111 154 200 254 313 386 449
#     4  12  28  53  79 109 151 206 254 313 382 457
#
# _framework density 23.747214
#
# number of rings (size 3 to 8) (size 9 to 14) (size 15 to 20)
#    0.000    0.000    2.500    7.125    7.000    0.000 
#    0.000    1.875    0.000    0.000    0.000    0.000 
#    0.000    0.000    0.000    0.000    0.000    0.000 
#
# Total GULP energy -198477.900968 kJ/mol
# GULP energy per Si atom -12404.868811 kJ/mol
# Density = 2.369316 g / cm^3
# Si number density = 23.747214 Si / 1000 Ang^3
#
#
#
# Elastic Constant Matrix: (Units=GPa)
#
#
# Indices 1 2 3 4 5 6 
#
# 1 164.4657 56.8546 65.0535 -5.0500 -3.3447 -19.8422
# 2 56.8546 93.4155 43.2023 -7.2363 -2.4284 -4.9185
# 3 65.0535 43.2023 169.5769 -13.5810 -3.4883 -5.6098
# 4 -5.0500 -7.2363 -13.5810 39.6309 -5.1694 2.7091
# 5 -3.3447 -2.4284 -3.4883 -5.1694 49.8131 1.6873
# 6 -19.8422 -4.9185 -5.6098 2.7091 1.6873 47.4559
#
#
#
# Elastic Compliance Matrix: (Units=1/GPa)
#
#
# Indices 1 2 3 4 5 6 
#
# 1 0.008756 -0.004180 -0.002243 -0.000613 0.000062 0.002996
# 2 -0.004180 0.014230 -0.001911 0.001511 0.000456 -0.000601
# 3 -0.002243 -0.001911 0.007401 0.001993 0.000495 -0.000392
# 4 -0.000613 0.001511 0.001993 0.026605 0.002983 -0.001489
# 5 0.000062 0.000456 0.000495 0.002983 0.020472 -0.000766
# 6 0.002996 -0.000601 -0.000392 -0.001489 -0.000766 0.022328
#
#
# Mechanical properties :
#
#
# Convention : Reuss Voigt Hill
#
# Bulk Modulus (GPa) = 72.89066 84.18655 78.53860
# Shear Modulus (GPa) = 41.31079 44.86980 43.09029
#
# Velocity S-wave (km/s) = 4.17538 4.35153 4.26436
# Velocity P-wave (km/s) = 7.34889 7.79588 7.57568
#
# Compressibility (1/GPa) = 0.01371918
#
# Stress axis : x y z
#
# Youngs Moduli (GPa) = 114.20268 70.27325 135.11395
#
# Poissons Ratio (x) = 0.29375 0.30304
# Poissons Ratio (y) = 0.47739 0.25823
# Poissons Ratio (z) = 0.25614 0.13431
#
# Static dielectric constant tensor:
#      x y z
#    x 4.640340 -0.216160 -0.000070 
#    y -0.216160 4.322120 0.001160 
#    z -0.000070 0.001160 4.552230 
# 
# 
# High freq. dielectric constant tensor:
#      x y z
#    x 1.953470 -0.011800 0.001760 
#    y -0.011800 1.943190 -0.005360 
#    z 0.001760 -0.005360 1.958530 
# 
# From -- ./inp_files/352105.got.cif
#   From: 2010.06.25/outbox.cif.g09.slc.cpg/sg2_177_cif.got.tgz:352105.got - 2010.06.27 13:26:56.
