data_PCOD8037974
_publ_section_title
;
Structure prediction by ZEFSAII (Michael W. Deem and Ramdas Pophale) SiO2 
 PCOD8037974
Probable space group: P -1
;
_chemical_formula_sum "Si O2"
_cell_formula_units_Z 16
_cell_length_a 18.000000
_cell_length_b 15.000000
_cell_length_c 24.000000
_cell_angle_alpha 20.000000
_cell_angle_beta 160.000000
_cell_angle_gamma 150.000000
_cell_volume 749.971719
_symmetry_space_group_name_H-M "P -1"
_symmetry_group_IT_number 2
_symmetry_cell_setting 'triclinic'
loop_
_space_group_symop_operation_xyz
x,y,z
-x,-y,-z
loop_
_atom_site_type_symbol
_atom_site_label
_atom_site_fract_x
_atom_site_fract_y
_atom_site_fract_z
Si Si1 0.826684 0.851515 0.799534
Si Si2 0.930275 0.659741 0.100834
Si Si3 0.300564 0.799084 0.135773
Si Si4 0.682203 0.119452 0.710684
Si Si5 0.004600 0.072609 0.523327
Si Si6 0.617216 0.813400 0.444223
Si Si7 0.513595 0.074240 0.028290
Si Si8 0.589882 0.349254 0.400268
O O1 0.656183 0.716752 0.721840
O O2 0.717641 0.139067 0.572542
O O3 0.881227 0.641793 0.011556
O O4 0.042723 0.906186 0.886542
O O5 0.131537 0.828111 0.145332
O O6 0.986444 0.385363 0.332683
O O7 0.721376 0.823715 0.887917
O O8 0.425097 0.927635 0.198146
O O9 0.312220 0.492635 0.337079
O O10 0.418567 0.863511 0.124136
O O11 0.453488 0.145778 0.565787
O O12 0.693777 0.333549 0.544218
O O13 0.231776 0.919550 0.792021
O O14 0.000000 0.000000 0.500000
O O15 0.816539 0.974558 0.484279
O O16 0.393433 0.370116 0.780876
O O17 0.500000 0.000000 0.000000
#
# Coordination Sequence:
#
# PCOD8037974 Si02
#       8
#     2   2   2   2   2   2   2   2
#     4  10  21  39  64  88 117 158 197 243 293 355
#     4  10  20  38  63  88 120 156 200 242 295 351
#     4  11  22  38  61  89 119 155 201 246 294 354
#     4  10  21  39  63  88 119 158 195 244 296 354
#     4  12  23  38  62  90 120 157 201 250 291 348
#     4  11  22  37  61  91 119 152 201 251 295 344
#     4  12  25  40  60  88 123 159 194 243 302 356
#     4  10  22  40  61  88 122 157 193 238 300 359
#
# _framework density 21.334137999999999
#
# number of rings (size 3 to 8) (size 9 to 14) (size 15 to 20)
#    0.000    1.250    2.500    4.500    0.000    2.000 
#    0.000    2.500    0.000    0.000    0.000    0.000 
#    0.000    0.000    0.000    0.000    0.000    0.000 
#
# Total GULP energy -198300.820878 kJ/mol
# GULP energy per Si atom -12393.801305 kJ/mol
# Density = 2.128558 g / cm^3
# Si number density = 21.334138 Si / 1000 Ang^3
#
#
#
# Elastic Constant Matrix: (Units=GPa)
#
#
# Indices 1 2 3 4 5 6 
#
# 1 107.4854 -6.9831 -3.3604 -13.2754 23.5791 7.6008
# 2 -6.9831 82.6283 34.7557 9.9277 -3.1943 11.0722
# 3 -3.3604 34.7557 81.9643 -0.7279 -3.6977 2.8003
# 4 -13.2754 9.9277 -0.7279 32.7177 8.9106 -4.4750
# 5 23.5791 -3.1943 -3.6977 8.9106 29.4438 8.8261
# 6 7.6008 11.0722 2.8003 -4.4750 8.8261 28.7325
#
#
#
# Elastic Compliance Matrix: (Units=1/GPa)
#
#
# Indices 1 2 3 4 5 6 
#
# 1 0.013614 -0.001277 0.000405 0.010456 -0.015088 0.003114
# 2 -0.001277 0.017651 -0.006937 -0.009486 0.007836 -0.009673
# 3 0.000405 -0.006937 0.015098 0.003014 -0.000619 0.001754
# 4 0.010456 -0.009486 0.003014 0.047823 -0.028535 0.016809
# 5 -0.015088 0.007836 -0.000619 -0.028535 0.062204 -0.022520
# 6 0.003114 -0.009673 0.001754 0.016809 -0.022520 0.047072
#
#
# Mechanical properties :
#
#
# Convention : Reuss Voigt Hill
#
# Bulk Modulus (GPa) = 32.52490 35.65584 34.09037
# Shear Modulus (GPa) = 21.80283 34.68984 28.24633
#
# Velocity S-wave (km/s) = 3.20029 4.03677 3.64262
# Velocity P-wave (km/s) = 5.37907 6.20296 5.80565
#
# Compressibility (1/GPa) = 0.03074568
#
# Stress axis : x y z
#
# Youngs Moduli (GPa) = 73.45244 56.65314 66.23560
#
# Poissons Ratio (x) = 0.07233 -0.02685
# Poissons Ratio (y) = 0.09378 0.45950
# Poissons Ratio (z) = -0.02977 0.39302
#
# Static dielectric constant tensor:
#      x y z
#    x 3.384440 -0.151960 0.211850 
#    y -0.151960 3.543450 0.184440 
#    z 0.211850 0.184440 3.868000 
# 
# 
# High freq. dielectric constant tensor:
#      x y z
#    x 1.814010 -0.001160 0.000360 
#    y -0.001160 1.819570 0.004770 
#    z 0.000360 0.004770 1.834110 
# 
# From -- ./inp_files/185071.got.cif
#   From: 2010.06.25/outbox.ucp.g09.slc.cvg/sg2_93_cif.got.tgz:185071.got - 2010.06.28 11:54:26.
