data_PCOD8037073
_publ_section_title
;
Structure prediction by ZEFSAII (Michael W. Deem and Ramdas Pophale) SiO2 
 PCOD8037073
Probable space group: P -1
;
_chemical_formula_sum "Si O2"
_cell_formula_units_Z 16
_cell_length_a 8.584555
_cell_length_b 15.536350
_cell_length_c 9.531995
_cell_angle_alpha 142.519148
_cell_angle_beta 97.226929
_cell_angle_gamma 73.963683
_cell_volume 733.936335
_symmetry_space_group_name_H-M "P -1"
_symmetry_group_IT_number 2
_symmetry_cell_setting 'triclinic'
loop_
_space_group_symop_operation_xyz
x,y,z
-x,-y,-z
loop_
_atom_site_type_symbol
_atom_site_label
_atom_site_fract_x
_atom_site_fract_y
_atom_site_fract_z
Si Si1 0.631847 0.344778 0.792375
Si Si2 0.307298 0.542299 0.552366
Si Si3 0.137964 0.579878 0.874469
Si Si4 0.152196 0.248408 0.493091
Si Si5 0.194732 0.778599 0.619972
Si Si6 0.414143 0.162770 0.648172
Si Si7 0.312140 0.061638 0.015906
Si Si8 0.227030 0.279577 0.048633
O O1 0.671082 0.317323 0.597178
O O2 0.560123 0.216673 0.671770
O O3 0.500000 0.500000 0.000000
O O4 0.795256 0.341770 0.890697
O O5 0.500000 0.500000 0.500000
O O6 0.263122 0.558322 0.731403
O O7 0.219538 0.696796 0.666398
O O8 0.239934 0.417224 0.317635
O O9 0.118664 0.424569 0.725762
O O10 0.964528 0.694683 0.966665
O O11 0.278750 0.164042 0.516833
O O12 0.985279 0.205076 0.440536
O O13 0.224870 0.196072 0.281374
O O14 0.217777 0.938481 0.853710
O O15 0.500000 0.000000 0.500000
O O16 0.326341 0.269610 0.902772
O O17 0.300083 0.126077 0.941041
O O18 0.500000 0.000000 0.000000
#
# Coordination Sequence:
#
# PCOD8037073 Si02
#       8
#     2   2   2   2   2   2   2   2
#     4  12  25  44  70 101 138 181 231 279 341 405
#     4  12  24  41  69 104 135 175 234 276 337 406
#     4  12  25  44  72 105 137 178 229 290 339 400
#     4  12  25  46  71 101 140 180 228 283 347 404
#     4  12  26  44  69 103 137 182 227 282 344 409
#     4  12  27  46  70 102 139 184 229 279 342 414
#     4  12  26  46  71 100 142 183 224 281 349 407
#     4  12  24  45  70 100 138 180 227 281 340 405
#
# _framework density 21.800257999999999
#
# number of rings (size 3 to 8) (size 9 to 14) (size 15 to 20)
#    0.000    0.000    3.750    7.500    0.000    3.000 
#    0.000    2.500    0.000    0.000    0.000    0.000 
#    0.000    0.000    0.000    0.000    0.000    0.000 
#
# Total GULP energy -198550.193713 kJ/mol
# GULP energy per Si atom -12409.387107 kJ/mol
# Density = 2.175064 g / cm^3
# Si number density = 21.800258 Si / 1000 Ang^3
#
#
#
# Elastic Constant Matrix: (Units=GPa)
#
#
# Indices 1 2 3 4 5 6 
#
# 1 126.3556 42.0243 8.3883 8.6546 17.4292 -14.2440
# 2 42.0243 122.7024 12.3775 4.5392 18.8121 -9.7259
# 3 8.3883 12.3775 52.1712 -7.7939 4.4798 1.9448
# 4 8.6546 4.5392 -7.7939 30.9229 7.5700 0.1545
# 5 17.4292 18.8121 4.4798 7.5700 49.6341 -3.5299
# 6 -14.2440 -9.7259 1.9448 0.1545 -3.5299 44.1036
#
#
#
# Elastic Compliance Matrix: (Units=1/GPa)
#
#
# Indices 1 2 3 4 5 6 
#
# 1 0.009520 -0.002602 -0.001177 -0.002163 -0.001749 0.002420
# 2 -0.002602 0.009711 -0.001805 -0.000562 -0.002434 0.001188
# 3 -0.001177 -0.001805 0.020967 0.006353 -0.001898 -0.001877
# 4 -0.002163 -0.000562 0.006353 0.035907 -0.005194 -0.001644
# 5 -0.001749 -0.002434 -0.001898 -0.005194 0.022706 0.000818
# 6 0.002420 0.001188 -0.001877 -0.001644 0.000818 0.023872
#
#
# Mechanical properties :
#
#
# Convention : Reuss Voigt Hill
#
# Bulk Modulus (GPa) = 34.44564 47.42329 40.93446
# Shear Modulus (GPa) = 34.83690 40.82804 37.83247
#
# Velocity S-wave (km/s) = 4.00184 4.33231 4.17035
# Velocity P-wave (km/s) = 6.09818 6.84295 6.48127
#
# Compressibility (1/GPa) = 0.02903125
#
# Stress axis : x y z
#
# Youngs Moduli (GPa) = 105.04425 102.97519 47.69406
#
# Poissons Ratio (x) = 0.26792 0.05612
# Poissons Ratio (y) = 0.27330 0.08608
# Poissons Ratio (z) = 0.12359 0.18586
#
# Static dielectric constant tensor:
#      x y z
#    x 3.973260 -0.003820 -0.052780 
#    y -0.003820 4.050540 -0.139840 
#    z -0.052780 -0.139840 3.980760 
# 
# 
# High freq. dielectric constant tensor:
#      x y z
#    x 1.874440 -0.000940 0.000330 
#    y -0.000940 1.867910 -0.006500 
#    z 0.000330 -0.006500 1.862340 
# 
# From -- ./inp_files/190680.got.cif
#   From: 2010.06.25/outbox.cif.g09.slc.cpg/sg2_96_cif.got.tgz:190680.got - 2010.06.27 13:26:56.
