data_PCOD8037415
_publ_section_title
;
Structure prediction by ZEFSAII (Michael W. Deem and Ramdas Pophale) SiO2 
 PCOD8037415
Probable space group: P -1
;
_chemical_formula_sum "Si O2"
_cell_formula_units_Z 12
_cell_length_a 16.461958
_cell_length_b 4.989116
_cell_length_c 5.981153
_cell_angle_alpha 89.123359
_cell_angle_beta 101.446559
_cell_angle_gamma 99.139797
_cell_volume 475.285595
_symmetry_space_group_name_H-M "P -1"
_symmetry_group_IT_number 2
_symmetry_cell_setting 'triclinic'
loop_
_space_group_symop_operation_xyz
x,y,z
-x,-y,-z
loop_
_atom_site_type_symbol
_atom_site_label
_atom_site_fract_x
_atom_site_fract_y
_atom_site_fract_z
Si Si1 0.321327 0.677279 0.759083
Si Si2 0.091777 0.082872 0.646831
Si Si3 0.500477 0.749261 0.659918
Si Si4 0.787601 0.660578 0.649162
Si Si5 0.091890 0.570324 0.948049
Si Si6 0.319958 0.176318 0.045399
O O1 0.420933 0.714419 0.778564
O O2 0.274152 0.578852 0.506847
O O3 0.295637 0.451790 0.933945
O O4 0.292532 0.945451 0.846310
O O5 0.158169 0.112850 0.480814
O O6 0.099546 0.384109 0.742162
O O7 0.111004 0.878936 0.858386
O O8 0.000000 0.000000 0.500000
O O9 0.500000 0.500000 0.500000
O O10 0.581453 0.801076 0.859971
O O11 0.500000 0.000000 0.500000
O O12 0.733252 0.853936 0.754452
O O13 0.843975 0.487602 0.826364
O O14 0.000000 0.500000 0.000000
#
# Coordination Sequence:
#
# PCOD8037415 Si02
#       6
#     2   2   2   2   2   2
#     4  12  28  51  79 116 158 210 261 321 395 465
#     4  12  28  53  82 114 152 208 265 323 401 476
#     4  12  24  50  82 109 159 212 257 316 391 465
#     4  12  30  51  80 118 168 198 270 339 388 470
#     4  12  28  53  82 114 152 208 265 323 401 476
#     4  12  28  51  79 116 158 210 261 321 395 465
#
# _framework density 25.247975
#
# number of rings (size 3 to 8) (size 9 to 14) (size 15 to 20)
#    0.000    0.000    3.333    5.000    0.000    8.000 
#    0.000    0.000    0.000    0.000    0.000    0.000 
#    0.000    0.000    0.000    0.000    0.000    0.000 
#
# Total GULP energy -148856.471732 kJ/mol
# GULP energy per Si atom -12404.705978 kJ/mol
# Density = 2.519051 g / cm^3
# Si number density = 25.247975 Si / 1000 Ang^3
#
#
#
# Elastic Constant Matrix: (Units=GPa)
#
#
# Indices 1 2 3 4 5 6 
#
# 1 182.1341 34.8224 71.7974 12.0966 -15.2876 -2.0457
# 2 34.8224 122.8653 33.1351 -0.0121 -15.1907 1.1526
# 3 71.7974 33.1351 129.7543 8.7323 3.6207 -2.2111
# 4 12.0966 -0.0121 8.7323 55.7759 -2.9732 -1.3370
# 5 -15.2876 -15.1907 3.6207 -2.9732 71.8589 -1.0893
# 6 -2.0457 1.1526 -2.2111 -1.3370 -1.0893 20.4662
#
#
#
# Elastic Compliance Matrix: (Units=1/GPa)
#
#
# Indices 1 2 3 4 5 6 
#
# 1 0.007358 -0.000867 -0.003826 -0.000905 0.001544 0.000394
# 2 -0.000867 0.009150 -0.001959 0.000580 0.001862 -0.000677
# 3 -0.003826 -0.001959 0.010445 -0.000884 -0.001780 0.000704
# 4 -0.000905 0.000580 -0.000884 0.018328 0.000748 0.001019
# 5 0.001544 0.001862 -0.001780 0.000748 0.014769 0.000692
# 6 0.000394 -0.000677 0.000704 0.001019 0.000692 0.049118
#
#
# Mechanical properties :
#
#
# Convention : Reuss Voigt Hill
#
# Bulk Modulus (GPa) = 73.26222 79.36262 76.31242
# Shear Modulus (GPa) = 39.36303 49.28678 44.32491
#
# Velocity S-wave (km/s) = 3.95277 4.42306 4.19451
# Velocity P-wave (km/s) = 7.06489 7.58855 7.33140
#
# Compressibility (1/GPa) = 0.01364960
#
# Stress axis : x y z
#
# Youngs Moduli (GPa) = 135.89930 109.29281 95.73640
#
# Poissons Ratio (x) = 0.09472 0.36626
# Poissons Ratio (y) = 0.11778 0.18759
# Poissons Ratio (z) = 0.51992 0.21416
#
# Static dielectric constant tensor:
#      x y z
#    x 4.929270 0.062450 -0.016120 
#    y 0.062450 4.607710 0.017580 
#    z -0.016120 0.017580 4.702070 
# 
# 
# High freq. dielectric constant tensor:
#      x y z
#    x 2.036060 0.001330 -0.000430 
#    y 0.001330 2.014630 0.001510 
#    z -0.000430 0.001510 2.022260 
# 
# From -- ./inp_files/85678.got.cif
#   From: 2010.06.25/outbox.cif.g09.slc.cpg/sg2_43_cif.got.tgz:85678.got - 2010.06.27 13:26:56.
