data_PCOD8037344
_publ_section_title
;
Structure prediction by ZEFSAII (Michael W. Deem and Ramdas Pophale) SiO2 
 PCOD8037344
Probable space group: P -1
;
_chemical_formula_sum "Si O2"
_cell_formula_units_Z 12
_cell_length_a 12.649337
_cell_length_b 8.937466
_cell_length_c 9.149965
_cell_angle_alpha 109.209169
_cell_angle_beta 142.257915
_cell_angle_gamma 92.788575
_cell_volume 505.434735
_symmetry_space_group_name_H-M "P -1"
_symmetry_group_IT_number 2
_symmetry_cell_setting 'triclinic'
loop_
_space_group_symop_operation_xyz
x,y,z
-x,-y,-z
loop_
_atom_site_type_symbol
_atom_site_label
_atom_site_fract_x
_atom_site_fract_y
_atom_site_fract_z
Si Si1 0.549603 0.680479 0.021722
Si Si2 0.512192 0.453335 0.660928
Si Si3 0.307662 0.804501 0.181401
Si Si4 0.083361 0.924121 0.446688
Si Si5 0.948005 0.805904 0.941858
Si Si6 0.178533 0.694402 0.693072
O O1 0.624273 0.649219 0.936289
O O2 0.338644 0.667427 0.773258
O O3 0.500000 0.500000 0.000000
O O4 0.712909 0.886264 0.330945
O O5 0.500000 0.500000 0.500000
O O6 0.638635 0.354056 0.790680
O O7 0.275954 0.332880 0.415105
O O8 0.108502 0.751939 0.043010
O O9 0.500000 0.000000 0.500000
O O10 0.272283 0.829231 0.980179
O O11 0.945890 0.812835 0.119584
O O12 0.112480 0.777922 0.519998
O O13 0.000000 0.000000 0.500000
O O14 0.000000 0.000000 0.000000
O O15 0.000000 0.500000 0.500000
#
# Coordination Sequence:
#
# PCOD8037344 Si02
#       6
#     2   2   2   2   2   2
#     4  12  24  48  71 104 145 186 239 294 359 426
#     4  12  28  45  73 107 145 187 238 301 359 426
#     4  12  26  48  76 103 146 190 241 298 362 425
#     4  12  27  46  76 105 144 191 239 296 362 426
#     4  12  25  48  75 105 143 189 243 297 358 430
#     4  12  27  48  74 106 144 190 242 298 356 431
#
# _framework density 23.741935000000002
#
# number of rings (size 3 to 8) (size 9 to 14) (size 15 to 20)
#    0.000    0.000    3.333    6.500    7.000    0.667 
#    0.000    0.000    0.000    0.000    0.000    0.000 
#    0.000    0.000    0.000    0.000    0.000    0.000 
#
# Total GULP energy -148732.824888 kJ/mol
# GULP energy per Si atom -12394.402074 kJ/mol
# Density = 2.368790 g / cm^3
# Si number density = 23.741935 Si / 1000 Ang^3
#
#
#
# Elastic Constant Matrix: (Units=GPa)
#
#
# Indices 1 2 3 4 5 6 
#
# 1 117.3240 20.4224 3.9831 -23.5833 -8.8989 -30.0469
# 2 20.4224 115.4275 21.5787 -16.9467 -0.9346 -0.5393
# 3 3.9831 21.5787 79.8740 -4.7759 -10.2662 -10.6232
# 4 -23.5833 -16.9467 -4.7759 47.6800 4.9251 1.1337
# 5 -8.8989 -0.9346 -10.2662 4.9251 61.9136 -11.9628
# 6 -30.0469 -0.5393 -10.6232 1.1337 -11.9628 52.9186
#
#
#
# Elastic Compliance Matrix: (Units=1/GPa)
#
#
# Indices 1 2 3 4 5 6 
#
# 1 0.011945 -0.001608 0.001545 0.004996 0.003030 0.007654
# 2 -0.001608 0.009829 -0.002781 0.002569 -0.001071 -0.001668
# 3 0.001545 -0.002781 0.014261 0.000753 0.003345 0.004452
# 4 0.004996 0.002569 0.000753 0.024440 -0.000608 0.002353
# 5 0.003030 -0.001071 0.003345 -0.000608 0.018442 0.006563
# 6 0.007654 -0.001668 0.004452 0.002353 0.006563 0.025553
#
#
# Mechanical properties :
#
#
# Convention : Reuss Voigt Hill
#
# Bulk Modulus (GPa) = 32.95277 44.95488 38.95383
# Shear Modulus (GPa) = 41.57161 50.27853 45.92507
#
# Velocity S-wave (km/s) = 4.18901 4.60685 4.40289
# Velocity P-wave (km/s) = 6.10793 6.87556 6.50308
#
# Compressibility (1/GPa) = 0.03034646
#
# Stress axis : x y z
#
# Youngs Moduli (GPa) = 83.71419 101.74279 70.12105
#
# Poissons Ratio (x) = 0.16365 -0.10835
# Poissons Ratio (y) = 0.13465 0.19501
# Poissons Ratio (z) = -0.12935 0.28295
#
# Static dielectric constant tensor:
#      x y z
#    x 3.252980 -0.273820 0.622500 
#    y -0.273820 4.174390 0.099710 
#    z 0.622500 0.099710 3.811090 
# 
# 
# High freq. dielectric constant tensor:
#      x y z
#    x 1.959390 -0.003130 0.000440 
#    y -0.003130 1.947550 0.001170 
#    z 0.000440 0.001170 1.961530 
# 
# From -- ./inp_files/148543.got.cif
#   From: 2010.06.25/outbox.cif.g09.slc.cpg/sg2_75_cif.got.tgz:148543.got - 2010.06.27 13:26:56.
