data_PCOD8037940
_publ_section_title
;
Structure prediction by ZEFSAII (Michael W. Deem and Ramdas Pophale) SiO2 
 PCOD8037940
Probable space group: P -1
;
_chemical_formula_sum "Si O2"
_cell_formula_units_Z 16
_cell_length_a 22.755631
_cell_length_b 12.754165
_cell_length_c 25.275772
_cell_angle_alpha 34.212309
_cell_angle_beta 169.445018
_cell_angle_gamma 148.245569
_cell_volume 704.128513
_symmetry_space_group_name_H-M "P -1"
_symmetry_group_IT_number 2
_symmetry_cell_setting 'triclinic'
loop_
_space_group_symop_operation_xyz
x,y,z
-x,-y,-z
loop_
_atom_site_type_symbol
_atom_site_label
_atom_site_fract_x
_atom_site_fract_y
_atom_site_fract_z
Si Si1 0.338296 0.936408 0.658006
Si Si2 0.254051 0.776719 0.861724
Si Si3 0.130561 0.869576 0.207763
Si Si4 0.650770 0.406431 0.761653
Si Si5 0.424825 0.137878 0.994114
Si Si6 0.612193 0.263731 0.601956
Si Si7 0.535458 0.278668 0.822989
Si Si8 0.869372 0.999996 0.015031
O O1 0.459281 0.174543 0.675367
O O2 0.567362 0.890509 0.834441
O O3 0.944123 0.846308 0.328992
O O4 0.366626 0.815267 0.786047
O O5 0.869771 0.771023 0.519193
O O6 0.367125 0.713734 0.931143
O O7 0.311996 0.637175 0.018827
O O8 0.500000 0.000000 0.000000
O O9 0.172515 0.693530 0.281773
O O10 0.500000 0.000000 0.500000
O O11 0.889615 0.823991 0.066183
O O12 0.000000 0.000000 0.000000
O O13 0.400057 0.526569 0.475094
O O14 0.723719 0.435244 0.877744
O O15 0.000000 0.500000 0.000000
O O16 0.370216 0.915149 0.021198
O O17 0.790304 0.174222 0.841046
O O18 0.224283 0.105551 0.316483
#
# Coordination Sequence:
#
# PCOD8037940 Si02
#       8
#     2   2   2   2   2   2   2   2
#     4  11  21  31  45  73 100 127 158 187 239 290
#     4  10  17  33  50  63  85 120 163 203 239 267
#     4   8  16  31  49  64  83 118 169 207 230 258
#     4  11  22  34  45  69 106 137 162 185 223 291
#     4  10  19  32  49  68  92 121 158 204 243 281
#     4  10  20  33  47  65  91 135 166 193 229 266
#     4  10  20  31  45  66  89 126 165 191 225 277
#     4  10  19  32  48  67  94 125 163 202 233 272
#
# _framework density 22.723123999999999
#
# number of rings (size 3 to 8) (size 9 to 14) (size 15 to 20)
#    0.000    2.000    1.250    6.000    1.750    3.500 
#    0.000    0.000    0.000    0.000    0.000    0.000 
#    0.000    6.000    0.000    0.000    0.000    2.500 
#
# Total GULP energy -198216.400347 kJ/mol
# GULP energy per Si atom -12388.525022 kJ/mol
# Density = 2.267141 g / cm^3
# Si number density = 22.723124 Si / 1000 Ang^3
#
#
#
# Elastic Constant Matrix: (Units=GPa)
#
#
# Indices 1 2 3 4 5 6 
#
# 1 144.5623 18.5402 48.2468 -0.6692 27.9818 29.6463
# 2 18.5402 17.9816 13.3795 1.0043 3.8406 4.8326
# 3 48.2468 13.3795 138.4621 5.1923 4.1441 7.2049
# 4 -0.6692 1.0043 5.1923 16.6050 1.0364 3.9924
# 5 27.9818 3.8406 4.1441 1.0364 52.4893 -2.2723
# 6 29.6463 4.8326 7.2049 3.9924 -2.2723 23.3982
#
#
#
# Elastic Compliance Matrix: (Units=1/GPa)
#
#
# Indices 1 2 3 4 5 6 
#
# 1 0.013775 -0.005877 -0.003365 0.006531 -0.007515 -0.017047
# 2 -0.005877 0.066401 -0.004001 -0.001726 -0.001587 -0.004895
# 3 -0.003365 -0.004001 0.008699 -0.003474 0.001605 0.003160
# 4 0.006531 -0.001726 -0.003474 0.066498 -0.005203 -0.018700
# 5 -0.007515 -0.001587 0.001605 -0.005203 0.023693 0.012544
# 6 -0.017047 -0.004895 0.003160 -0.018700 0.012544 0.068785
#
#
# Mechanical properties :
#
#
# Convention : Reuss Voigt Hill
#
# Bulk Modulus (GPa) = 16.02884 51.25989 33.64437
# Shear Modulus (GPa) = 16.94151 33.22113 25.08132
#
# Velocity S-wave (km/s) = 2.73346 3.82775 3.32592
# Velocity P-wave (km/s) = 4.12695 6.49177 5.43943
#
# Compressibility (1/GPa) = 0.06238755
#
# Stress axis : x y z
#
# Youngs Moduli (GPa) = 72.59514 15.06011 114.95412
#
# Poissons Ratio (x) = 0.08851 0.38681
# Poissons Ratio (y) = 0.42667 0.45997
# Poissons Ratio (z) = 0.24427 0.06026
#
# Static dielectric constant tensor:
#      x y z
#    x 5.462510 0.416350 0.046510 
#    y 0.416350 3.594290 -0.233470 
#    z 0.046510 -0.233470 4.430350 
# 
# 
# High freq. dielectric constant tensor:
#      x y z
#    x 1.919400 0.021230 0.000430 
#    y 0.021230 1.816760 0.000310 
#    z 0.000430 0.000310 1.921840 
# 
# From -- ./inp_files/371544.got.cif
#   From: 2010.06.25/outbox.cif.g09.slc.cpg/sg2_186_cif.got.tgz:371544.got - 2010.06.27 13:26:56.
