data_PCOD8037999
_publ_section_title
;
Structure prediction by ZEFSAII (Michael W. Deem and Ramdas Pophale) SiO2 
 PCOD8037999
Probable space group: P -1
;
_chemical_formula_sum "Si O2"
_cell_formula_units_Z 16
_cell_length_a 12.000000
_cell_length_b 9.000000
_cell_length_c 15.000000
_cell_angle_alpha 130.000000
_cell_angle_beta 110.000000
_cell_angle_gamma 110.000000
_cell_volume 728.972637
_symmetry_space_group_name_H-M "P -1"
_symmetry_group_IT_number 2
_symmetry_cell_setting 'triclinic'
loop_
_space_group_symop_operation_xyz
x,y,z
-x,-y,-z
loop_
_atom_site_type_symbol
_atom_site_label
_atom_site_fract_x
_atom_site_fract_y
_atom_site_fract_z
Si Si1 0.107026 0.151940 0.180207
Si Si2 0.288394 0.728380 0.370519
Si Si3 0.661358 0.830452 0.349741
Si Si4 0.732324 0.493497 0.307282
Si Si5 0.745199 0.825404 0.032493
Si Si6 0.316127 0.890272 0.997601
Si Si7 0.096718 0.818252 0.617633
Si Si8 0.066780 0.690760 0.004313
O O1 0.263270 0.525398 0.360754
O O2 0.192756 0.049641 0.191096
O O3 0.949888 0.987467 0.148836
O O4 0.000000 0.000000 0.000000
O O5 0.500000 0.000000 0.500000
O O6 0.254041 0.904325 0.458352
O O7 0.130771 0.489336 0.161370
O O8 0.717730 0.689022 0.340207
O O9 0.761864 0.027589 0.364663
O O10 0.431485 0.547665 0.170195
O O11 0.919022 0.731299 0.511771
O O12 0.543491 0.184972 0.190732
O O13 0.751896 0.376172 0.183243
O O14 0.747023 0.915745 0.165704
O O15 0.741555 0.983324 0.016159
O O16 0.198447 0.719065 0.991067
O O17 0.000000 0.500000 0.500000
O O18 0.000000 0.500000 0.000000
#
# Coordination Sequence:
#
# PCOD8037999 Si02
#       8
#     2   2   2   2   2   2   2   2
#     4  10  20  41  67  90 124 171 215 261 324 382
#     4  11  23  42  68  96 129 174 222 261 325 397
#     4  11  24  41  65  94 134 172 215 262 329 401
#     4  10  23  40  67  94 129 177 209 268 328 391
#     4  11  21  40  69  91 128 172 219 268 321 390
#     4  10  20  43  65  91 131 175 215 255 336 397
#     4  12  23  40  62 101 130 163 219 274 327 381
#     4  11  24  43  68  98 131 171 219 277 330 387
#
# _framework density 21.948698
#
# number of rings (size 3 to 8) (size 9 to 14) (size 15 to 20)
#    0.000    1.250    3.750    3.750    1.750    2.000 
#    6.750    0.625    0.000    0.000    0.000    0.000 
#    0.000    0.000    0.000    0.000    0.000    0.000 
#
# Total GULP energy -198218.202116 kJ/mol
# GULP energy per Si atom -12388.637632 kJ/mol
# Density = 2.189874 g / cm^3
# Si number density = 21.948698 Si / 1000 Ang^3
#
#
#
# Elastic Constant Matrix: (Units=GPa)
#
#
# Indices 1 2 3 4 5 6 
#
# 1 83.8500 53.8089 15.3633 19.0538 0.9019 15.0663
# 2 53.8089 140.6398 41.8781 33.0827 -3.5753 12.4400
# 3 15.3633 41.8781 79.3083 25.6138 -0.8814 -3.1458
# 4 19.0538 33.0827 25.6138 36.9561 -1.8182 -3.4681
# 5 0.9019 -3.5753 -0.8814 -1.8182 30.4702 17.8860
# 6 15.0663 12.4400 -3.1458 -3.4681 17.8860 30.4719
#
#
#
# Elastic Compliance Matrix: (Units=1/GPa)
#
#
# Indices 1 2 3 4 5 6 
#
# 1 0.018005 -0.004507 0.000600 -0.006418 0.004746 -0.010517
# 2 -0.004507 0.012178 -0.003705 -0.006402 0.005089 -0.006842
# 3 0.000600 -0.003705 0.017422 -0.008865 -0.002524 0.003487
# 4 -0.006418 -0.006402 -0.008865 0.043198 -0.006081 0.013357
# 5 0.004746 0.005089 -0.002524 -0.006081 0.054918 -0.037612
# 6 -0.010517 -0.006842 0.003487 0.013357 -0.037612 0.064767
#
#
# Mechanical properties :
#
#
# Convention : Reuss Voigt Hill
#
# Bulk Modulus (GPa) = 30.88012 58.43319 44.65665
# Shear Modulus (GPa) = 21.14108 32.42952 26.78530
#
# Velocity S-wave (km/s) = 3.10692 3.84801 3.49715
# Velocity P-wave (km/s) = 5.19330 6.81347 6.05779
#
# Compressibility (1/GPa) = 0.03238330
#
# Stress axis : x y z
#
# Youngs Moduli (GPa) = 55.53910 82.11207 57.39727
#
# Poissons Ratio (x) = 0.37008 -0.03446
# Poissons Ratio (y) = 0.25032 0.21265
# Poissons Ratio (z) = -0.03334 0.30421
#
# Static dielectric constant tensor:
#      x y z
#    x 3.286120 -0.218190 0.399900 
#    y -0.218190 4.165870 0.498870 
#    z 0.399900 0.498870 4.005160 
# 
# 
# High freq. dielectric constant tensor:
#      x y z
#    x 1.861380 0.005490 -0.002730 
#    y 0.005490 1.856470 0.033150 
#    z -0.002730 0.033150 1.855690 
# 
# From -- ./inp_files/207583.got.cif
#   From: 2010.06.25/outbox.ucp.g09.slc.cvg/sg2_104_cif.got.tgz:207583.got - 2010.06.28 11:54:26.
