data_PCOD8037133
_publ_section_title
;
Structure prediction by ZEFSAII (Michael W. Deem and Ramdas Pophale) SiO2 
 PCOD8037133
Probable space group: P -1
;
_chemical_formula_sum "Si O2"
_cell_formula_units_Z 14
_cell_length_a 8.932147
_cell_length_b 12.080390
_cell_length_c 8.932174
_cell_angle_alpha 112.749852
_cell_angle_beta 131.909298
_cell_angle_gamma 67.250058
_cell_volume 649.791295
_symmetry_space_group_name_H-M "P -1"
_symmetry_group_IT_number 2
_symmetry_cell_setting 'triclinic'
loop_
_space_group_symop_operation_xyz
x,y,z
-x,-y,-z
loop_
_atom_site_type_symbol
_atom_site_label
_atom_site_fract_x
_atom_site_fract_y
_atom_site_fract_z
Si Si1 0.120746 0.334204 0.353844
Si Si2 0.145292 0.482295 0.943436
Si Si3 0.146154 0.834203 0.379250
Si Si4 0.122597 0.089668 0.045938
Si Si5 0.556566 0.982295 0.354710
Si Si6 0.140821 0.250001 0.640821
Si Si7 0.454066 0.589666 0.377403
O O1 0.129550 0.205459 0.213656
O O2 0.048854 0.324776 0.471764
O O3 0.343462 0.368919 0.522583
O O4 0.957191 0.437135 0.219957
O O5 0.188454 0.340940 0.850166
O O6 0.362388 0.518945 0.145512
O O7 0.000000 0.500000 0.000000
O O8 0.286348 0.705459 0.370451
O O9 0.028235 0.824776 0.451143
O O10 0.280034 0.937138 0.542804
O O11 0.977414 0.868915 0.156531
O O12 0.354489 0.018949 0.137615
O O13 0.000000 0.000000 0.000000
O O14 0.649833 0.840938 0.311545
O O15 0.500000 0.000000 0.500000
O O16 0.500000 0.500000 0.500000
#
# Coordination Sequence:
#
# PCOD8037133 Si02
#       7
#     2   2   2   2   2   2   2
#     4  12  24  45  71 105 145 184 236 292 351 421
#     4  12  24  47  72 102 144 183 238 293 351 418
#     4  12  24  45  71 105 145 184 236 292 351 421
#     4  12  24  43  77 103 138 193 234 287 358 416
#     4  12  24  47  72 102 144 183 238 293 351 418
#     4  12  26  44  72 108 142 190 234 288 358 422
#     4  12  24  43  77 103 138 193 234 287 358 416
#
# _framework density 21.545380999999999
#
# number of rings (size 3 to 8) (size 9 to 14) (size 15 to 20)
#    0.000    0.000    8.571    0.857    0.000    1.143 
#    0.000    7.143    0.000    0.000    0.000    0.000 
#    0.000    0.000    0.000    0.000    0.000    0.000 
#
# Total GULP energy -173697.359617 kJ/mol
# GULP energy per Si atom -12406.954258 kJ/mol
# Density = 2.149634 g / cm^3
# Si number density = 21.545381 Si / 1000 Ang^3
#
#
#
# Elastic Constant Matrix: (Units=GPa)
#
#
# Indices 1 2 3 4 5 6 
#
# 1 133.8632 57.8227 75.0821 -1.4952 -1.0166 21.6052
# 2 57.8227 140.8284 67.3434 -3.3085 -0.0071 -2.3871
# 3 75.0821 67.3434 144.2999 -12.3065 20.3577 5.0022
# 4 -1.4952 -3.3085 -12.3065 52.1361 6.0563 -1.3622
# 5 -1.0166 -0.0071 20.3577 6.0563 38.7137 2.2113
# 6 21.6052 -2.3871 5.0022 -1.3622 2.2113 44.5829
#
#
#
# Elastic Compliance Matrix: (Units=1/GPa)
#
#
# Indices 1 2 3 4 5 6 
#
# 1 0.012977 -0.002556 -0.006101 -0.001873 0.004185 -0.006006
# 2 -0.002556 0.009931 -0.003674 -0.000467 0.001821 0.002078
# 3 -0.006101 -0.003674 0.013162 0.003646 -0.007754 0.001779
# 4 -0.001873 -0.000467 0.003646 0.020605 -0.005268 0.001365
# 5 0.004185 0.001821 -0.007754 -0.005268 0.031000 -0.002759
# 6 -0.006006 0.002078 0.001779 0.001365 -0.002759 0.025431
#
#
# Mechanical properties :
#
#
# Convention : Reuss Voigt Hill
#
# Bulk Modulus (GPa) = 87.65343 91.05419 89.35381
# Shear Modulus (GPa) = 35.31802 41.66944 38.49373
#
# Velocity S-wave (km/s) = 4.05314 4.40253 4.23145
# Velocity P-wave (km/s) = 7.91678 8.25811 8.08925
#
# Compressibility (1/GPa) = 0.01140857
#
# Stress axis : x y z
#
# Youngs Moduli (GPa) = 77.06213 100.69016 75.97551
#
# Poissons Ratio (x) = 0.25738 0.46352
# Poissons Ratio (y) = 0.19699 0.27911
# Poissons Ratio (z) = 0.47015 0.36990
#
# Static dielectric constant tensor:
#      x y z
#    x 3.931030 0.098280 0.145180 
#    y 0.098280 4.278230 -0.033400 
#    z 0.145180 -0.033400 4.127650 
# 
# 
# High freq. dielectric constant tensor:
#      x y z
#    x 1.844510 0.009460 0.005840 
#    y 0.009460 1.872180 -0.001240 
#    z 0.005840 -0.001240 1.850430 
# 
# From -- ./inp_files/169047.got.cif
#   From: 2010.06.25/outbox.cif.g09.slc.cpg/sg2_85_cif.got.tgz:169047.got - 2010.06.27 13:26:56.
