data_PCOD8037107
_publ_section_title
;
Structure prediction by ZEFSAII (Michael W. Deem and Ramdas Pophale) SiO2 
 PCOD8037107
Probable space group: P -1
;
_chemical_formula_sum "Si O2"
_cell_formula_units_Z 12
_cell_length_a 25.308201
_cell_length_b 25.242103
_cell_length_c 25.222367
_cell_angle_alpha 11.573740
_cell_angle_beta 168.357407
_cell_angle_gamma 168.386408
_cell_volume 567.079711
_symmetry_space_group_name_H-M "P -1"
_symmetry_group_IT_number 2
_symmetry_cell_setting 'triclinic'
loop_
_space_group_symop_operation_xyz
x,y,z
-x,-y,-z
loop_
_atom_site_type_symbol
_atom_site_label
_atom_site_fract_x
_atom_site_fract_y
_atom_site_fract_z
Si Si1 0.327159 0.173910 0.174996
Si Si2 0.576627 0.964857 0.922889
Si Si3 0.714974 0.853517 0.715079
Si Si4 0.827201 0.673902 0.675104
Si Si5 0.599980 0.823869 0.962883
Si Si6 0.229242 0.312965 0.268531
O O1 0.313154 0.208156 0.190068
O O2 0.500000 0.000000 0.500000
O O3 0.500000 0.500000 0.000000
O O4 0.000000 0.000000 0.000000
O O5 0.912224 0.210922 0.028704
O O6 0.569383 0.912044 0.905455
O O7 0.470587 0.653706 0.155250
O O8 0.348730 0.087217 0.590850
O O9 0.526688 0.535585 0.811441
O O10 0.057606 0.005832 0.885266
O O11 0.588476 0.078948 0.355945
O O12 0.500000 0.500000 0.500000
O O13 0.816484 0.702311 0.699156
O O14 0.000000 0.000000 0.500000
O O15 0.000000 0.500000 0.000000
#
# Coordination Sequence:
#
# PCOD8037107 Si02
#       6
#     2   2   2   2   2   2
#     4  12  25  44  67  96 129 168 211 262 318 378
#     4  12  24  43  65  94 129 169 212 262 318 378
#     4  12  25  44  67  96 129 168 213 262 316 378
#     4  12  24  43  67  96 129 169 214 264 318 378
#     4  12  25  43  66  94 128 169 213 262 316 378
#     4  12  25  43  66  96 130 169 213 264 318 378
#
# _framework density 21.161048000000001
#
# number of rings (size 3 to 8) (size 9 to 14) (size 15 to 20)
#    0.000    0.000    0.000   12.000    0.000    0.000 
#    0.000    0.000    0.000    0.000    0.000    0.000 
#    0.000    0.000    0.000    0.000    0.000    0.000 
#
# Total GULP energy -148912.192457 kJ/mol
# GULP energy per Si atom -12409.349371 kJ/mol
# Density = 2.111288 g / cm^3
# Si number density = 21.161048 Si / 1000 Ang^3
#
#
#
# Elastic Constant Matrix: (Units=GPa)
#
#
# Indices 1 2 3 4 5 6 
#
# 1 228.7019 -35.2825 74.6719 -7.7677 51.0820 -11.9148
# 2 -35.2825 181.3769 45.0509 11.3359 0.9038 17.3328
# 3 74.6719 45.0509 138.9312 3.0640 5.1439 11.2235
# 4 -7.7677 11.3359 3.0640 56.2401 -4.4416 -4.7248
# 5 51.0820 0.9038 5.1439 -4.4416 38.0371 -1.8136
# 6 -11.9148 17.3328 11.2235 -4.7248 -1.8136 48.4963
#
#
#
# Elastic Compliance Matrix: (Units=1/GPa)
#
#
# Indices 1 2 3 4 5 6 
#
# 1 0.009614 0.003181 -0.005933 0.000240 -0.012052 0.002171
# 2 0.003181 0.007290 -0.003794 -0.001253 -0.004137 -0.001223
# 3 -0.005933 -0.003794 0.011601 -0.000405 0.006318 -0.002590
# 4 0.000240 -0.001253 -0.000405 0.018457 0.002035 0.002475
# 5 -0.012052 -0.004137 0.006318 0.002035 0.041901 -0.001179
# 6 0.002171 -0.001223 -0.002590 0.002475 -0.001179 0.022387
#
#
# Mechanical properties :
#
#
# Convention : Reuss Voigt Hill
#
# Bulk Modulus (GPa) = 64.87939 79.76562 72.32251
# Shear Modulus (GPa) = 38.61570 59.52602 49.07086
#
# Velocity S-wave (km/s) = 4.27646 5.30953 4.82074
# Velocity P-wave (km/s) = 7.42365 8.68127 8.07697
#
# Compressibility (1/GPa) = 0.01541321
#
# Stress axis : x y z
#
# Youngs Moduli (GPa) = 104.01752 137.16535 86.19690
#
# Poissons Ratio (x) = -0.43638 0.51142
# Poissons Ratio (y) = -0.33092 0.32707
# Poissons Ratio (z) = 0.61716 0.52046
#
# Static dielectric constant tensor:
#      x y z
#    x 4.123490 0.006070 0.021440 
#    y 0.006070 4.335140 0.023210 
#    z 0.021440 0.023210 4.082580 
# 
# 
# High freq. dielectric constant tensor:
#      x y z
#    x 1.856890 0.002790 0.002630 
#    y 0.002790 1.852300 0.000320 
#    z 0.002630 0.000320 1.852240 
# 
# From -- ./inp_files/9334.got.cif
#   From: 2010.06.25/outbox.cif.g09.slc.cpg/sg2_5_cif.got.tgz:9334.got - 2010.06.27 13:26:56.
