data_PCOD8037412
_publ_section_title
;
Structure prediction by ZEFSAII (Michael W. Deem and Ramdas Pophale) SiO2 
 PCOD8037412
Probable space group: P -1
;
_chemical_formula_sum "Si O2"
_cell_formula_units_Z 16
_cell_length_a 16.612951
_cell_length_b 9.147601
_cell_length_c 19.699977
_cell_angle_alpha 134.920342
_cell_angle_beta 160.310157
_cell_angle_gamma 49.203332
_cell_volume 713.417328
_symmetry_space_group_name_H-M "P -1"
_symmetry_group_IT_number 2
_symmetry_cell_setting 'triclinic'
loop_
_space_group_symop_operation_xyz
x,y,z
-x,-y,-z
loop_
_atom_site_type_symbol
_atom_site_label
_atom_site_fract_x
_atom_site_fract_y
_atom_site_fract_z
Si Si1 0.571621 0.137994 0.916491
Si Si2 0.042315 0.330872 0.033680
Si Si3 0.983535 0.558224 0.190188
Si Si4 0.022702 0.395246 0.314059
Si Si5 0.452173 0.816221 0.600960
Si Si6 0.280384 0.044025 0.887674
Si Si7 0.953645 0.817532 0.457120
Si Si8 0.304556 0.007624 0.405756
O O1 0.328281 0.239506 0.780210
O O2 0.518511 0.006753 0.764475
O O3 0.768074 0.317566 0.116143
O O4 0.668078 0.992721 0.004749
O O5 0.937521 0.109422 0.852425
O O6 0.000000 0.500000 0.000000
O O7 0.909899 0.399521 0.019522
O O8 0.323436 0.328323 0.271782
O O9 0.228522 0.685863 0.410379
O O10 0.007671 0.419583 0.229724
O O11 0.775335 0.716983 0.087409
O O12 0.089356 0.616040 0.474376
O O13 0.232939 0.238763 0.444217
O O14 0.400665 0.896739 0.511602
O O15 0.057343 0.892581 0.636937
O O16 0.500000 0.000000 0.000000
O O17 0.000000 0.000000 0.500000
O O18 0.500000 0.000000 0.500000
#
# Coordination Sequence:
#
# PCOD8037412 Si02
#       8
#     2   2   2   2   2   2   2   2
#     4  12  25  46  74 104 150 183 237 306 364 425
#     4  12  26  47  77 107 141 193 248 296 359 432
#     4  12  25  45  76 104 143 193 243 293 362 434
#     4  12  27  47  72 110 145 192 238 302 375 418
#     4  12  25  50  75 104 148 191 242 301 355 440
#     4  12  25  46  74 105 141 189 241 294 356 437
#     4  12  24  50  75 106 144 190 244 299 358 439
#     4  12  29  49  71 109 151 191 242 302 367 426
#
# _framework density 22.427265999999999
#
# number of rings (size 3 to 8) (size 9 to 14) (size 15 to 20)
#    0.000    0.000    6.250    3.000    3.500    2.500 
#    2.250    0.000    0.000    0.000    0.000    0.000 
#    0.000    0.000    0.000    0.000    0.000    0.000 
#
# Total GULP energy -198507.621714 kJ/mol
# GULP energy per Si atom -12406.726357 kJ/mol
# Density = 2.237622 g / cm^3
# Si number density = 22.427266 Si / 1000 Ang^3
#
#
#
# Elastic Constant Matrix: (Units=GPa)
#
#
# Indices 1 2 3 4 5 6 
#
# 1 110.8098 31.5257 31.1870 -16.1986 7.3403 7.7670
# 2 31.5257 137.1996 34.1401 -18.3297 7.7061 -12.6367
# 3 31.1870 34.1401 85.9218 -19.5816 -0.1537 4.0673
# 4 -16.1986 -18.3297 -19.5816 41.4819 -5.5887 -3.8607
# 5 7.3403 7.7061 -0.1537 -5.5887 46.5556 3.4838
# 6 7.7670 -12.6367 4.0673 -3.8607 3.4838 45.7752
#
#
#
# Elastic Compliance Matrix: (Units=1/GPa)
#
#
# Indices 1 2 3 4 5 6 
#
# 1 0.010730 -0.001641 -0.002735 0.001863 -0.001071 -0.001792
# 2 -0.001641 0.008986 -0.002623 0.002233 -0.001214 0.003273
# 3 -0.002735 -0.002623 0.014849 0.004877 0.001597 -0.001290
# 4 0.001863 0.002233 0.004877 0.028673 0.002639 0.002084
# 5 -0.001071 -0.001214 0.001597 0.002639 0.022304 -0.001770
# 6 -0.001792 0.003273 -0.001290 0.002084 -0.001770 0.023479
#
#
# Mechanical properties :
#
#
# Convention : Reuss Voigt Hill
#
# Bulk Modulus (GPa) = 48.62266 58.62631 53.62448
# Shear Modulus (GPa) = 38.49842 42.56780 40.53311
#
# Velocity S-wave (km/s) = 4.14767 4.36137 4.25586
# Velocity P-wave (km/s) = 6.68317 7.18049 6.93629
#
# Compressibility (1/GPa) = 0.02056654
#
# Stress axis : x y z
#
# Youngs Moduli (GPa) = 93.19650 111.27880 67.34420
#
# Poissons Ratio (x) = 0.18260 0.18420
# Poissons Ratio (y) = 0.15293 0.17667
# Poissons Ratio (z) = 0.25492 0.29192
#
# Static dielectric constant tensor:
#      x y z
#    x 4.083910 -0.218370 0.064350 
#    y -0.218370 4.089020 0.031960 
#    z 0.064350 0.031960 4.304690 
# 
# 
# High freq. dielectric constant tensor:
#      x y z
#    x 1.899540 -0.010590 -0.004140 
#    y -0.010590 1.893210 -0.004980 
#    z -0.004140 -0.004980 1.887400 
# 
# From -- ./inp_files/297484.got.cif
#   From: 2010.06.25/outbox.cif.g09.slc.cpg/sg2_149_cif.got.tgz:297484.got - 2010.06.27 13:26:56.
