data_PCOD8037476
_publ_section_title
;
Structure prediction by ZEFSAII (Michael W. Deem and Ramdas Pophale) SiO2 
 PCOD8037476
Probable space group: P -1
;
_chemical_formula_sum "Si O2"
_cell_formula_units_Z 16
_cell_length_a 9.245528
_cell_length_b 9.039646
_cell_length_c 12.781886
_cell_angle_alpha 99.719824
_cell_angle_beta 98.081819
_cell_angle_gamma 45.261987
_cell_volume 747.568014
_symmetry_space_group_name_H-M "P -1"
_symmetry_group_IT_number 2
_symmetry_cell_setting 'triclinic'
loop_
_space_group_symop_operation_xyz
x,y,z
-x,-y,-z
loop_
_atom_site_type_symbol
_atom_site_label
_atom_site_fract_x
_atom_site_fract_y
_atom_site_fract_z
Si Si1 0.747398 0.150653 0.776229
Si Si2 0.630578 0.557768 0.520900
Si Si3 0.374010 0.965382 0.681702
Si Si4 0.603270 0.819670 0.903933
Si Si5 0.302913 0.564953 0.033913
Si Si6 0.048140 0.856023 0.394164
Si Si7 0.327241 0.338929 0.689499
Si Si8 0.009365 0.294956 0.156839
O O1 0.791359 0.261570 0.866359
O O2 0.800269 0.158885 0.665140
O O3 0.511087 0.271991 0.770859
O O4 0.886743 0.913215 0.795071
O O5 0.500000 0.500000 0.500000
O O6 0.519710 0.768230 0.597200
O O7 0.842547 0.372133 0.579256
O O8 0.682712 0.571187 0.411219
O O9 0.456544 0.913170 0.801001
O O10 0.358244 0.140634 0.650470
O O11 0.154282 0.044972 0.676431
O O12 0.630685 0.638930 0.935271
O O13 0.824192 0.719644 0.882055
O O14 0.500000 0.000000 0.000000
O O15 0.500000 0.500000 0.000000
O O16 0.132276 0.671818 0.942220
O O17 0.000000 0.000000 0.500000
O O18 0.118648 0.514619 0.751752
#
# Coordination Sequence:
#
# PCOD8037476 Si02
#       8
#     2   2   2   2   2   2   2   2
#     4  12  25  45  73 105 145 187 244 297 356 428
#     4  12  25  47  74 106 147 188 242 301 357 426
#     4  12  28  47  74 106 147 193 241 298 366 426
#     4  12  28  50  75 106 150 191 242 297 362 439
#     4  12  26  45  74 107 141 186 242 299 359 425
#     4  12  26  44  74 109 141 189 244 297 361 426
#     4  12  26  48  72 106 150 187 242 297 356 438
#     4  12  27  48  72 104 148 193 238 300 365 425
#
# _framework density 21.402733000000001
#
# number of rings (size 3 to 8) (size 9 to 14) (size 15 to 20)
#    0.000    0.000    5.000    4.125    7.000    0.500 
#    0.000    0.000    0.000    0.000    0.000    0.000 
#    0.000    0.000    0.000    0.000    0.000    0.000 
#
# Total GULP energy -198531.717324 kJ/mol
# GULP energy per Si atom -12408.232333 kJ/mol
# Density = 2.135402 g / cm^3
# Si number density = 21.402733 Si / 1000 Ang^3
#
#
#
# Elastic Constant Matrix: (Units=GPa)
#
#
# Indices 1 2 3 4 5 6 
#
# 1 117.8512 73.2946 67.0882 0.1814 2.2495 -13.9445
# 2 73.2946 168.1685 64.4194 8.2900 -14.5757 8.5803
# 3 67.0882 64.4194 135.3655 10.5886 -10.0907 -3.2559
# 4 0.1814 8.2900 10.5886 54.3391 -3.0116 1.9804
# 5 2.2495 -14.5757 -10.0907 -3.0116 36.0418 -4.7510
# 6 -13.9445 8.5803 -3.2559 1.9804 -4.7510 44.7019
#
#
#
# Elastic Compliance Matrix: (Units=1/GPa)
#
#
# Indices 1 2 3 4 5 6 
#
# 1 0.015599 -0.005373 -0.005455 0.001432 -0.003892 0.005023
# 2 -0.005373 0.009371 -0.001573 -0.000811 0.003194 -0.003214
# 3 -0.005455 -0.001573 0.011170 -0.001763 0.002655 -0.000226
# 4 0.001432 -0.000811 -0.001763 0.018911 0.000630 -0.000297
# 5 -0.003892 0.003194 0.002655 0.000630 0.030281 0.001557
# 6 0.005023 -0.003214 -0.000226 -0.000297 0.001557 0.024716
#
#
# Mechanical properties :
#
#
# Convention : Reuss Voigt Hill
#
# Bulk Modulus (GPa) = 88.19762 92.33218 90.26490
# Shear Modulus (GPa) = 36.06729 41.45543 38.76136
#
# Velocity S-wave (km/s) = 4.10954 4.40582 4.26026
# Velocity P-wave (km/s) = 7.98848 8.31359 8.15265
#
# Compressibility (1/GPa) = 0.01133817
#
# Stress axis : x y z
#
# Youngs Moduli (GPa) = 64.10764 106.70757 89.52704
#
# Poissons Ratio (x) = 0.57335 0.48839
# Poissons Ratio (y) = 0.34446 0.14079
# Poissons Ratio (z) = 0.34972 0.16781
#
# Static dielectric constant tensor:
#      x y z
#    x 4.127130 -0.061630 0.141410 
#    y -0.061630 4.207310 -0.069800 
#    z 0.141410 -0.069800 4.028530 
# 
# 
# High freq. dielectric constant tensor:
#      x y z
#    x 1.851000 -0.000490 -0.000240 
#    y -0.000490 1.862970 -0.001350 
#    z -0.000240 -0.001350 1.856630 
# 
# From -- ./inp_files/187092.got.cif
#   From: 2010.06.25/outbox.cif.g09.slc.cpg/sg2_94_cif.got.tgz:187092.got - 2010.06.27 13:26:56.
