data_PCOD8037145
_publ_section_title
;
Structure prediction by ZEFSAII (Michael W. Deem and Ramdas Pophale) SiO2 
 PCOD8037145
Probable space group: P -1
;
_chemical_formula_sum "Si O2"
_cell_formula_units_Z 16
_cell_length_a 8.350272
_cell_length_b 16.674033
_cell_length_c 10.605227
_cell_angle_alpha 146.077850
_cell_angle_beta 58.537860
_cell_angle_gamma 110.058533
_cell_volume 690.180147
_symmetry_space_group_name_H-M "P -1"
_symmetry_group_IT_number 2
_symmetry_cell_setting 'triclinic'
loop_
_space_group_symop_operation_xyz
x,y,z
-x,-y,-z
loop_
_atom_site_type_symbol
_atom_site_label
_atom_site_fract_x
_atom_site_fract_y
_atom_site_fract_z
Si Si1 0.994530 0.563703 0.729143
Si Si2 0.408454 0.126915 0.992227
Si Si3 0.499946 0.380592 0.627660
Si Si4 0.616378 0.160672 0.490350
Si Si5 0.905701 0.610586 0.289246
Si Si6 0.412862 0.307344 0.985216
Si Si7 0.046871 0.101745 0.279790
Si Si8 0.761235 0.202479 0.099438
O O1 0.047141 0.438602 0.649770
O O2 0.130073 0.680045 0.855928
O O3 0.000000 0.500000 0.500000
O O4 0.780123 0.645450 0.953946
O O5 0.352008 0.245939 0.061912
O O6 0.481674 0.965129 0.694277
O O7 0.220636 0.125695 0.150357
O O8 0.584815 0.169792 0.049387
O O9 0.514953 0.319576 0.684327
O O10 0.320449 0.351717 0.585298
O O11 0.687139 0.278672 0.359882
O O12 0.493064 0.552153 0.845573
O O13 0.563748 0.181535 0.687311
O O14 0.843854 0.111683 0.305912
O O15 0.983132 0.761379 0.432324
O O16 0.000000 0.500000 0.000000
O O17 0.091572 0.947962 0.132682
#
# Coordination Sequence:
#
# PCOD8037145 Si02
#       8
#     2   2   2   2   2   2   2   2
#     4  12  26  46  74 107 143 187 243 296 354 428
#     4  12  25  45  72 103 141 185 240 291 352 427
#     4  12  24  44  71 100 144 179 238 287 356 419
#     4  12  26  46  71 104 144 186 232 294 361 426
#     4  12  26  46  72 106 145 189 236 297 365 426
#     4  12  26  45  71 105 144 184 231 298 359 421
#     4  12  25  45  73 105 141 188 241 289 352 429
#     4  12  26  45  72 105 135 187 237 300 342 419
#
# _framework density 23.182352999999999
#
# number of rings (size 3 to 8) (size 9 to 14) (size 15 to 20)
#    0.000    0.000    3.750    6.750    1.750    1.000 
#    0.000    1.875    0.000    0.000    0.000    0.000 
#    0.000    0.000    0.000    0.000    0.000    0.000 
#
# Total GULP energy -198387.398688 kJ/mol
# GULP energy per Si atom -12399.212418 kJ/mol
# Density = 2.312959 g / cm^3
# Si number density = 23.182353 Si / 1000 Ang^3
#
#
#
# Elastic Constant Matrix: (Units=GPa)
#
#
# Indices 1 2 3 4 5 6 
#
# 1 124.6346 29.0397 21.9903 -3.1604 -8.3134 9.7139
# 2 29.0397 71.5750 31.0010 12.4891 0.9486 3.9980
# 3 21.9903 31.0010 122.2811 14.4056 14.0209 0.4301
# 4 -3.1604 12.4891 14.4056 32.7310 2.6565 5.2063
# 5 -8.3134 0.9486 14.0209 2.6565 41.9986 11.5222
# 6 9.7139 3.9980 0.4301 5.2063 11.5222 40.0900
#
#
#
# Elastic Compliance Matrix: (Units=1/GPa)
#
#
# Indices 1 2 3 4 5 6 
#
# 1 0.009719 -0.003702 -0.001557 0.003303 0.003231 -0.003327
# 2 -0.003702 0.017884 -0.003231 -0.005756 0.000363 -0.000209
# 3 -0.001557 -0.003231 0.010128 -0.003398 -0.004000 0.002182
# 4 0.003303 -0.005756 -0.003398 0.035283 0.001081 -0.005083
# 5 0.003231 0.000363 -0.004000 0.001081 0.028182 -0.009016
# 6 -0.003327 -0.000209 0.002182 -0.005083 -0.009016 0.028999
#
#
# Mechanical properties :
#
#
# Convention : Reuss Voigt Hill
#
# Bulk Modulus (GPa) = 48.19139 53.61698 50.90418
# Shear Modulus (GPa) = 32.44762 38.72789 35.58775
#
# Velocity S-wave (km/s) = 3.74527 4.09170 3.92231
# Velocity P-wave (km/s) = 6.28775 6.74546 6.52063
#
# Compressibility (1/GPa) = 0.02075059
#
# Stress axis : x y z
#
# Youngs Moduli (GPa) = 102.88673 55.91560 98.73310
#
# Poissons Ratio (x) = 0.20702 0.15375
# Poissons Ratio (y) = 0.38092 0.31901
# Poissons Ratio (z) = 0.16022 0.18067
#
# Static dielectric constant tensor:
#      x y z
#    x 4.229710 0.209190 -0.009390 
#    y 0.209190 4.287580 0.198210 
#    z -0.009390 0.198210 4.335820 
# 
# 
# High freq. dielectric constant tensor:
#      x y z
#    x 1.925070 0.010280 0.001070 
#    y 0.010280 1.913350 0.013990 
#    z 0.001070 0.013990 1.932350 
# 
# From -- ./inp_files/209297.got.cif
#   From: 2010.06.25/outbox.cif.g09.slc.cpg/sg2_105_cif.got.tgz:209297.got - 2010.06.27 13:26:56.
