data_PCOD8037178
_publ_section_title
;
Structure prediction by ZEFSAII (Michael W. Deem and Ramdas Pophale) SiO2 
 PCOD8037178
Probable space group: P -1
;
_chemical_formula_sum "Si O2"
_cell_formula_units_Z 16
_cell_length_a 18.727235
_cell_length_b 12.977570
_cell_length_c 8.572330
_cell_angle_alpha 129.180238
_cell_angle_beta 131.256587
_cell_angle_gamma 28.903620
_cell_volume 748.448884
_symmetry_space_group_name_H-M "P -1"
_symmetry_group_IT_number 2
_symmetry_cell_setting 'triclinic'
loop_
_space_group_symop_operation_xyz
x,y,z
-x,-y,-z
loop_
_atom_site_type_symbol
_atom_site_label
_atom_site_fract_x
_atom_site_fract_y
_atom_site_fract_z
Si Si1 0.084848 0.736700 0.586193
Si Si2 0.799343 0.180627 0.720939
Si Si3 0.307063 0.447420 0.900981
Si Si4 0.359578 0.852615 0.012238
Si Si5 0.339409 0.145257 0.828047
Si Si6 0.889941 0.723822 0.138952
Si Si7 0.608111 0.167487 0.599965
Si Si8 0.297624 0.650161 0.594106
O O1 0.233940 0.530445 0.703003
O O2 0.143557 0.746658 0.524577
O O3 0.987052 0.716530 0.378901
O O4 0.981152 0.948706 0.747018
O O5 0.718425 0.164091 0.700321
O O6 0.730167 0.245288 0.509196
O O7 0.773141 0.356041 0.915958
O O8 0.489900 0.267707 0.981047
O O9 0.273355 0.343190 0.828874
O O10 0.369975 0.883168 0.234908
O O11 0.347913 0.705767 0.845205
O O12 0.208185 0.086345 0.946540
O O13 0.219461 0.244042 0.882804
O O14 0.351072 0.012261 0.598197
O O15 0.500000 0.000000 0.000000
O O16 0.000000 0.500000 0.000000
O O17 0.432138 0.394891 0.523924
#
# Coordination Sequence:
#
# PCOD8037178 Si02
#       8
#     2   2   2   2   2   2   2   2
#     4  12  27  48  69 111 146 188 237 299 362 425
#     4  12  25  46  73 109 146 188 237 303 354 420
#     4  12  27  45  78 106 145 189 246 293 353 427
#     4  12  25  48  74 109 141 191 244 294 351 434
#     4  12  27  49  74 107 142 193 244 289 356 434
#     4  12  30  49  72 104 152 186 236 300 368 422
#     4  12  25  45  77 104 145 189 246 295 349 425
#     4  12  24  44  76 107 146 189 238 294 364 423
#
# _framework density 21.377545000000001
#
# number of rings (size 3 to 8) (size 9 to 14) (size 15 to 20)
#    0.000    0.000    6.250    3.000    5.250    2.000 
#    0.000    0.000    0.000    0.000    0.000    0.000 
#    0.000    0.000    0.000    0.000    0.000    0.000 
#
# Total GULP energy -198547.520172 kJ/mol
# GULP energy per Si atom -12409.220011 kJ/mol
# Density = 2.132889 g / cm^3
# Si number density = 21.377545 Si / 1000 Ang^3
#
#
#
# Elastic Constant Matrix: (Units=GPa)
#
#
# Indices 1 2 3 4 5 6 
#
# 1 128.5346 32.5948 21.0513 16.6145 6.7502 -11.0238
# 2 32.5948 107.9075 51.1149 20.7550 10.3262 -7.1192
# 3 21.0513 51.1149 57.3805 14.9447 -7.4264 3.9769
# 4 16.6145 20.7550 14.9447 47.0546 -0.5872 -0.6408
# 5 6.7502 10.3262 -7.4264 -0.5872 32.4244 0.5922
# 6 -11.0238 -7.1192 3.9769 -0.6408 0.5922 40.8773
#
#
#
# Elastic Compliance Matrix: (Units=1/GPa)
#
#
# Indices 1 2 3 4 5 6 
#
# 1 0.008991 -0.000677 -0.002648 -0.002029 -0.002346 0.002567
# 2 -0.000677 0.020367 -0.018938 -0.002792 -0.010830 0.005320
# 3 -0.002648 -0.018938 0.038584 -0.002882 0.015514 -0.008036
# 4 -0.002029 -0.002792 -0.002882 0.024124 0.001096 -0.000391
# 5 -0.002346 -0.010830 0.015514 0.001096 0.038435 -0.004568
# 6 0.002567 0.005320 -0.008036 -0.000391 -0.004568 0.026924
#
#
# Mechanical properties :
#
#
# Convention : Reuss Voigt Hill
#
# Bulk Modulus (GPa) = 42.70588 55.92716 49.31652
# Shear Modulus (GPa) = 23.83710 36.67538 30.25624
#
# Velocity S-wave (km/s) = 3.34286 4.14648 3.76617
# Velocity P-wave (km/s) = 5.90931 7.01019 6.48316
#
# Compressibility (1/GPa) = 0.02341598
#
# Stress axis : x y z
#
# Youngs Moduli (GPa) = 111.22077 49.09946 25.91721
#
# Poissons Ratio (x) = 0.03325 0.06864
# Poissons Ratio (y) = 0.07532 0.49081
# Poissons Ratio (z) = 0.29456 0.92983
#
# Static dielectric constant tensor:
#      x y z
#    x 3.967450 -0.073100 -0.061440 
#    y -0.073100 4.060680 -0.004400 
#    z -0.061440 -0.004400 3.775580 
# 
# 
# High freq. dielectric constant tensor:
#      x y z
#    x 1.852460 -0.002530 -0.003970 
#    y -0.002530 1.852290 0.002180 
#    z -0.003970 0.002180 1.845270 
# 
# From -- ./inp_files/278957.got.cif
#   From: 2010.06.25/outbox.cif.g09.slc.cpg/sg2_140_cif.got.tgz:278957.got - 2010.06.27 13:26:56.
