data_PCOD8037926
_publ_section_title
;
Structure prediction by ZEFSAII (Michael W. Deem and Ramdas Pophale) SiO2 
 PCOD8037926
Probable space group: P -1
;
_chemical_formula_sum "Si O2"
_cell_formula_units_Z 16
_cell_length_a 19.507274
_cell_length_b 14.293921
_cell_length_c 8.830299
_cell_angle_alpha 61.810865
_cell_angle_beta 61.510804
_cell_angle_gamma 21.415808
_cell_volume 787.082027
_symmetry_space_group_name_H-M "P -1"
_symmetry_group_IT_number 2
_symmetry_cell_setting 'triclinic'
loop_
_space_group_symop_operation_xyz
x,y,z
-x,-y,-z
loop_
_atom_site_type_symbol
_atom_site_label
_atom_site_fract_x
_atom_site_fract_y
_atom_site_fract_z
Si Si1 0.545226 0.562495 0.660269
Si Si2 0.230876 0.914463 0.237832
Si Si3 0.036391 0.630917 0.420360
Si Si4 0.666037 0.893155 0.350754
Si Si5 0.802887 0.943892 0.145045
Si Si6 0.332473 0.952157 0.342644
Si Si7 0.878822 0.303799 0.494923
Si Si8 0.560193 0.832498 0.338792
O O1 0.583689 0.388921 0.740174
O O2 0.388591 0.773852 0.793132
O O3 0.468038 0.700859 0.476727
O O4 0.752159 0.358689 0.626534
O O5 0.290598 0.953064 0.222675
O O6 0.149614 0.044333 0.059261
O O7 0.073533 0.041925 0.398944
O O8 0.211938 0.336258 0.493783
O O9 0.066772 0.710504 0.392368
O O10 0.988508 0.711337 0.233588
O O11 0.859768 0.790954 0.560644
O O12 0.571233 0.946055 0.268448
O O13 0.773995 0.857225 0.190621
O O14 0.513680 0.127734 0.452964
O O15 0.433050 0.945512 0.245585
O O16 0.769750 0.525369 0.335080
#
# Coordination Sequence:
#
# PCOD8037926 Si02
#       8
#     2   2   2   2   2   2   2   2
#     4  10  19  38  59  75 103 149 188 210 256 326
#     4  11  22  34  55  80 114 140 170 231 277 294
#     4   9  18  32  57  80 104 141 182 216 257 328
#     4  10  17  32  60  81 101 141 184 215 262 313
#     4  11  21  35  52  87 111 133 179 230 264 307
#     4   9  18  35  54  82 105 137 185 216 255 329
#     4   9  18  36  55  79 104 140 184 215 258 328
#     4   9  17  32  59  79 100 134 188 217 246 320
#
# _framework density 20.328249
#
# number of rings (size 3 to 8) (size 9 to 14) (size 15 to 20)
#    0.000    2.250    3.750    1.500    0.000    0.000 
#    0.000    9.375    0.000    0.000    0.000    0.000 
#    0.000    0.000    0.000    0.000    0.000    0.000 
#
# Total GULP energy -198211.516912 kJ/mol
# GULP energy per Si atom -12388.219807 kJ/mol
# Density = 2.028198 g / cm^3
# Si number density = 20.328249 Si / 1000 Ang^3
#
#
#
# Elastic Constant Matrix: (Units=GPa)
#
#
# Indices 1 2 3 4 5 6 
#
# 1 87.4993 22.4048 19.7236 8.0137 13.6107 -14.2419
# 2 22.4048 60.8527 12.8183 -5.1611 6.7256 -0.2032
# 3 19.7236 12.8183 59.7141 -6.4512 9.9590 1.8953
# 4 8.0137 -5.1611 -6.4512 13.2094 -0.9798 -0.3212
# 5 13.6107 6.7256 9.9590 -0.9798 18.2691 -0.7888
# 6 -14.2419 -0.2032 1.8953 -0.3212 -0.7888 28.7841
#
#
#
# Elastic Compliance Matrix: (Units=1/GPa)
#
#
# Indices 1 2 3 4 5 6 
#
# 1 0.018675 -0.006111 -0.005427 -0.016829 -0.009214 0.009114
# 2 -0.006111 0.019961 -0.000666 0.010968 -0.001964 -0.002770
# 3 -0.005427 -0.000666 0.021341 0.012847 -0.006835 -0.004139
# 4 -0.016829 0.010968 0.012847 0.096754 0.006347 -0.007842
# 5 -0.009214 -0.001964 -0.006835 0.006347 0.066295 -0.002235
# 6 0.009114 -0.002770 -0.004139 -0.007842 -0.002235 0.039355
#
#
# Mechanical properties :
#
#
# Convention : Reuss Voigt Hill
#
# Bulk Modulus (GPa) = 28.11441 35.32883 31.72162
# Shear Modulus (GPa) = 16.74223 22.26047 19.50135
#
# Velocity S-wave (km/s) = 2.87295 3.31275 3.10065
# Velocity P-wave (km/s) = 4.98652 5.66121 5.33454
#
# Compressibility (1/GPa) = 0.03556894
#
# Stress axis : x y z
#
# Youngs Moduli (GPa) = 53.54803 50.09644 46.85741
#
# Poissons Ratio (x) = 0.30614 0.25431
# Poissons Ratio (y) = 0.32724 0.03121
# Poissons Ratio (z) = 0.29062 0.03336
#
# Static dielectric constant tensor:
#      x y z
#    x 4.032930 -0.155140 0.089240 
#    y -0.155140 3.746180 0.013060 
#    z 0.089240 0.013060 3.048170 
# 
# 
# High freq. dielectric constant tensor:
#      x y z
#    x 1.811590 -0.000200 0.004240 
#    y -0.000200 1.801160 0.002950 
#    z 0.004240 0.002950 1.726600 
# 
# From -- ./inp_files/200336.got.cif
#   From: 2010.06.25/outbox.cif.g09.slc.cpg/sg2_101_cif.got.tgz:200336.got - 2010.06.27 13:26:56.
