data_PCOD8037785
_publ_section_title
;
Structure prediction by ZEFSAII (Michael W. Deem and Ramdas Pophale) SiO2 
 PCOD8037785
Probable space group: P -1
;
_chemical_formula_sum "Si O2"
_cell_formula_units_Z 12
_cell_length_a 17.295364
_cell_length_b 24.333779
_cell_length_c 9.785433
_cell_angle_alpha 27.397330
_cell_angle_beta 153.385733
_cell_angle_gamma 164.396648
_cell_volume 483.866285
_symmetry_space_group_name_H-M "P -1"
_symmetry_group_IT_number 2
_symmetry_cell_setting 'triclinic'
loop_
_space_group_symop_operation_xyz
x,y,z
-x,-y,-z
loop_
_atom_site_type_symbol
_atom_site_label
_atom_site_fract_x
_atom_site_fract_y
_atom_site_fract_z
Si Si1 0.239611 0.563107 0.822767
Si Si2 0.159354 0.841826 0.765366
Si Si3 0.358953 0.211474 0.577564
Si Si4 0.880644 0.661362 0.441233
Si Si5 0.722476 0.826165 0.773185
Si Si6 0.338141 0.784694 0.745555
O O1 0.511795 0.688025 0.876342
O O2 0.354888 0.705223 0.819668
O O3 0.000000 0.500000 0.500000
O O4 0.083669 0.350961 0.089107
O O5 0.086777 0.751823 0.699265
O O6 0.091226 0.945012 0.422635
O O7 0.500000 0.000000 0.000000
O O8 0.523173 0.426427 0.418889
O O9 0.444323 0.256263 0.453119
O O10 0.502355 0.181034 0.946684
O O11 0.000000 0.000000 0.500000
O O12 0.994108 0.627440 0.585086
O O13 0.930788 0.825423 0.103374
O O14 0.500000 0.000000 0.500000
#
# Coordination Sequence:
#
# PCOD8037785 Si02
#       6
#     2   2   2   2   2   2
#     4  12  27  49  82 116 158 206 266 330 395 470
#     4  12  26  50  81 115 160 211 266 326 401 477
#     4  12  28  51  81 118 160 213 266 329 398 472
#     4  12  27  52  79 116 164 206 267 330 395 479
#     4  12  28  49  82 119 158 207 265 331 399 471
#     4  12  27  51  84 115 159 212 266 323 402 476
#
# _framework density 24.800239000000001
#
# number of rings (size 3 to 8) (size 9 to 14) (size 15 to 20)
#    0.000    0.000    3.333    5.500    4.667    2.000 
#    0.000    0.000    0.000    0.000    0.000    0.000 
#    0.000    0.000    0.000    0.000    0.000    0.000 
#
# Total GULP energy -148745.858894 kJ/mol
# GULP energy per Si atom -12395.488241 kJ/mol
# Density = 2.474379 g / cm^3
# Si number density = 24.800239 Si / 1000 Ang^3
#
#
#
# Elastic Constant Matrix: (Units=GPa)
#
#
# Indices 1 2 3 4 5 6 
#
# 1 155.0207 62.4776 70.0316 3.1848 -17.1369 -3.7840
# 2 62.4776 160.8729 62.9431 -22.2922 -7.9151 -6.3482
# 3 70.0316 62.9431 153.4501 -25.7603 -15.0640 18.1688
# 4 3.1848 -22.2922 -25.7603 53.4458 0.4849 -10.9035
# 5 -17.1369 -7.9151 -15.0640 0.4849 45.6221 2.8728
# 6 -3.7840 -6.3482 18.1688 -10.9035 2.8728 31.0306
#
#
#
# Elastic Compliance Matrix: (Units=1/GPa)
#
#
# Indices 1 2 3 4 5 6 
#
# 1 0.009491 -0.002452 -0.003872 -0.003133 0.001790 0.001656
# 2 -0.002452 0.008740 -0.002426 0.003479 -0.000506 0.004179
# 3 -0.003872 -0.002426 0.010751 0.003083 0.002043 -0.006370
# 4 -0.003133 0.003479 0.003083 0.023203 -0.000224 0.006698
# 5 0.001790 -0.000506 0.002043 -0.000224 0.023390 -0.003325
# 6 0.001656 0.004179 -0.006370 0.006698 -0.003325 0.039674
#
#
# Mechanical properties :
#
#
# Convention : Reuss Voigt Hill
#
# Bulk Modulus (GPa) = 87.09564 95.58315 91.33940
# Shear Modulus (GPa) = 36.60956 44.27913 40.44435
#
# Velocity S-wave (km/s) = 3.84627 4.23002 4.04270
# Velocity P-wave (km/s) = 7.41082 7.90458 7.66168
#
# Compressibility (1/GPa) = 0.01148163
#
# Stress axis : x y z
#
# Youngs Moduli (GPa) = 105.36631 114.42074 93.01050
#
# Poissons Ratio (x) = 0.28051 0.36014
# Poissons Ratio (y) = 0.25831 0.22569
# Poissons Ratio (z) = 0.40799 0.27764
#
# Static dielectric constant tensor:
#      x y z
#    x 5.875760 0.329800 0.036210 
#    y 0.329800 4.773050 -0.106530 
#    z 0.036210 -0.106530 4.742970 
# 
# 
# High freq. dielectric constant tensor:
#      x y z
#    x 1.990450 -0.006710 -0.014870 
#    y -0.006710 1.997190 -0.010780 
#    z -0.014870 -0.010780 2.006060 
# 
# From -- ./inp_files/187153.got.cif
#   From: 2010.06.25/outbox.cif.g09.slc.cpg/sg2_94_cif.got.tgz:187153.got - 2010.06.27 13:26:56.
