data_PCOD8037282
_publ_section_title
;
Structure prediction by ZEFSAII (Michael W. Deem and Ramdas Pophale) SiO2 
 PCOD8037282
Probable space group: P -1
;
_chemical_formula_sum "Si O2"
_cell_formula_units_Z 14
_cell_length_a 19.394428
_cell_length_b 8.404715
_cell_length_c 11.164650
_cell_angle_alpha 56.648361
_cell_angle_beta 142.137001
_cell_angle_gamma 146.237276
_cell_volume 589.714515
_symmetry_space_group_name_H-M "P -1"
_symmetry_group_IT_number 2
_symmetry_cell_setting 'triclinic'
loop_
_space_group_symop_operation_xyz
x,y,z
-x,-y,-z
loop_
_atom_site_type_symbol
_atom_site_label
_atom_site_fract_x
_atom_site_fract_y
_atom_site_fract_z
Si Si1 0.202262 0.298963 0.475099
Si Si2 0.178309 0.387222 0.797652
Si Si3 0.866431 0.440644 0.556401
Si Si4 0.463340 0.320729 0.854769
Si Si5 0.365033 0.746083 0.320380
Si Si6 0.766277 0.247896 0.076131
Si Si7 0.415563 0.203488 0.565182
O O1 0.170577 0.449704 0.440635
O O2 0.366938 0.396705 0.721724
O O3 0.254211 0.427413 0.357637
O O4 0.020602 0.944125 0.364421
O O5 0.222210 0.608267 0.669613
O O6 0.197196 0.503691 0.907282
O O7 0.320180 0.398561 0.969625
O O8 0.073157 0.687162 0.713021
O O9 0.781479 0.124632 0.612240
O O10 0.395614 0.187123 0.685158
O O11 0.404822 0.082385 0.966698
O O12 0.463013 0.809841 0.306789
O O13 0.500000 0.000000 0.500000
O O14 0.243879 0.743691 0.087862
O O15 0.500000 0.500000 0.500000
#
# Coordination Sequence:
#
# PCOD8037282 Si02
#       7
#     2   2   2   2   2   2   2
#     4  12  28  47  71 113 158 192 248 305 370 447
#     4  12  25  46  78 113 148 192 255 308 367 444
#     4  12  26  48  73 111 158 190 243 317 370 438
#     4  12  25  47  79 109 144 200 255 302 373 440
#     4  12  27  49  71 106 154 194 245 313 377 436
#     4  12  26  47  78 106 149 203 250 306 373 439
#     4  12  24  46  77 108 145 195 252 307 372 443
#
# _framework density 23.740300999999999
#
# number of rings (size 3 to 8) (size 9 to 14) (size 15 to 20)
#    0.000    0.000    7.143    3.000    0.000    4.000 
#    0.000    0.000    0.000    0.000    0.000    0.000 
#    0.000    0.000    0.000    0.000    0.000    0.000 
#
# Total GULP energy -173475.691833 kJ/mol
# GULP energy per Si atom -12391.120845 kJ/mol
# Density = 2.368627 g / cm^3
# Si number density = 23.740301 Si / 1000 Ang^3
#
#
#
# Elastic Constant Matrix: (Units=GPa)
#
#
# Indices 1 2 3 4 5 6 
#
# 1 81.0979 20.9307 31.4426 6.3587 9.1431 -5.2815
# 2 20.9307 133.7731 39.7651 -4.7973 -7.1973 8.9977
# 3 31.4426 39.7651 124.2416 -6.7262 9.7724 2.5604
# 4 6.3587 -4.7973 -6.7262 31.2748 6.9158 -4.4957
# 5 9.1431 -7.1973 9.7724 6.9158 51.0225 1.4905
# 6 -5.2815 8.9977 2.5604 -4.4957 1.4905 29.3987
#
#
#
# Elastic Compliance Matrix: (Units=1/GPa)
#
#
# Indices 1 2 3 4 5 6 
#
# 1 0.014701 -0.001761 -0.003235 -0.003083 -0.001935 0.003088
# 2 -0.001761 0.008795 -0.002456 0.000312 0.002068 -0.002851
# 3 -0.003235 -0.002456 0.009974 0.002859 -0.002060 -0.000156
# 4 -0.003083 0.000312 0.002859 0.035009 -0.004834 0.004700
# 5 -0.001935 0.002068 -0.002060 -0.004834 0.021364 -0.002623
# 6 0.003088 -0.002851 -0.000156 0.004700 -0.002623 0.036308
#
#
# Mechanical properties :
#
#
# Convention : Reuss Voigt Hill
#
# Bulk Modulus (GPa) = 53.86502 58.15436 56.00969
# Shear Modulus (GPa) = 33.95738 38.80416 36.38077
#
# Velocity S-wave (km/s) = 3.78612 4.04731 3.91890
# Velocity P-wave (km/s) = 6.46927 6.81104 6.64235
#
# Compressibility (1/GPa) = 0.01856492
#
# Stress axis : x y z
#
# Youngs Moduli (GPa) = 68.02460 113.69757 100.26264
#
# Poissons Ratio (x) = 0.20021 0.32436
# Poissons Ratio (y) = 0.11978 0.24629
# Poissons Ratio (z) = 0.22007 0.27929
#
# Static dielectric constant tensor:
#      x y z
#    x 4.575640 0.190980 0.143210 
#    y 0.190980 4.453920 -0.223920 
#    z 0.143210 -0.223920 4.454530 
# 
# 
# High freq. dielectric constant tensor:
#      x y z
#    x 1.954070 0.010540 0.007240 
#    y 0.010540 1.940090 0.001600 
#    z 0.007240 0.001600 1.935810 
# 
# From -- ./inp_files/243459.got.cif
#   From: 2010.06.25/outbox.cif.g09.slc.cpg/sg2_122_cif.got.tgz:243459.got - 2010.06.27 13:26:56.
