data_PCOD8037512
_publ_section_title
;
Structure prediction by ZEFSAII (Michael W. Deem and Ramdas Pophale) SiO2 
 PCOD8037512
Probable space group: P -1
;
_chemical_formula_sum "Si O2"
_cell_formula_units_Z 12
_cell_length_a 23.162824
_cell_length_b 23.388442
_cell_length_c 8.267149
_cell_angle_alpha 33.389387
_cell_angle_beta 33.825186
_cell_angle_gamma 11.819314
_cell_volume 501.210489
_symmetry_space_group_name_H-M "P -1"
_symmetry_group_IT_number 2
_symmetry_cell_setting 'triclinic'
loop_
_space_group_symop_operation_xyz
x,y,z
-x,-y,-z
loop_
_atom_site_type_symbol
_atom_site_label
_atom_site_fract_x
_atom_site_fract_y
_atom_site_fract_z
Si Si1 0.018542 0.066123 0.160013
Si Si2 0.849922 0.749630 0.732423
Si Si3 0.524487 0.390995 0.065260
Si Si4 0.701928 0.994827 0.191383
Si Si5 0.617524 0.695697 0.304050
Si Si6 0.129985 0.491866 0.187049
O O1 0.208582 0.983558 0.979801
O O2 0.000000 0.000000 0.500000
O O3 0.711621 0.385094 0.055291
O O4 0.179286 0.865606 0.107747
O O5 0.764602 0.840227 0.530766
O O6 0.106343 0.589064 0.556935
O O7 0.577214 0.028289 0.824073
O O8 0.000000 0.500000 0.000000
O O9 0.547922 0.258787 0.417546
O O10 0.500000 0.500000 0.000000
O O11 0.875437 0.812302 0.051866
O O12 0.367394 0.303039 0.210847
O O13 0.733865 0.624315 0.030115
O O14 0.000000 0.500000 0.500000
#
# Coordination Sequence:
#
# PCOD8037512 Si02
#       6
#     2   2   2   2   2   2
#     4  12  27  48  77 112 146 192 246 302 375 440
#     4  12  25  46  75 102 140 195 244 301 363 429
#     4  12  26  48  77 110 149 191 243 305 374 441
#     4  12  25  48  73 104 151 187 247 305 357 438
#     4  12  25  48  70 108 149 187 247 302 359 442
#     4  12  28  46  72 106 148 197 245 295 365 430
#
# _framework density 23.942038
#
# number of rings (size 3 to 8) (size 9 to 14) (size 15 to 20)
#    0.000    0.000    3.333    6.000    4.667    2.667 
#    0.000    0.000    0.000    0.000    0.000    0.000 
#    0.000    0.000    0.000    0.000    0.000    0.000 
#
# Total GULP energy -148789.763028 kJ/mol
# GULP energy per Si atom -12399.146919 kJ/mol
# Density = 2.388754 g / cm^3
# Si number density = 23.942038 Si / 1000 Ang^3
#
#
#
# Elastic Constant Matrix: (Units=GPa)
#
#
# Indices 1 2 3 4 5 6 
#
# 1 96.1331 26.2355 35.5284 7.5699 -5.3414 18.4646
# 2 26.2355 121.2861 22.4306 10.2677 8.5226 19.1629
# 3 35.5284 22.4306 134.6072 8.4515 22.4314 14.4301
# 4 7.5699 10.2677 8.4515 33.4539 5.6646 4.8040
# 5 -5.3414 8.5226 22.4314 5.6646 21.8059 10.1329
# 6 18.4646 19.1629 14.4301 4.8040 10.1329 63.9414
#
#
#
# Elastic Compliance Matrix: (Units=1/GPa)
#
#
# Indices 1 2 3 4 5 6 
#
# 1 0.014472 -0.002190 -0.004840 -0.002824 0.012030 -0.004125
# 2 -0.002190 0.009342 -0.000245 -0.001614 -0.002797 -0.001547
# 3 -0.004840 -0.000245 0.010728 0.000467 -0.012726 0.001032
# 4 -0.002824 -0.001614 0.000467 0.032413 -0.009051 0.000193
# 5 0.012030 -0.002797 -0.012726 -0.009051 0.070076 -0.010189
# 6 -0.004125 -0.001547 0.001032 0.000193 -0.010189 0.018661
#
#
# Mechanical properties :
#
#
# Convention : Reuss Voigt Hill
#
# Bulk Modulus (GPa) = 50.02204 57.82393 53.92299
# Shear Modulus (GPa) = 28.26358 41.69573 34.97965
#
# Velocity S-wave (km/s) = 3.43957 4.17769 3.82647
# Velocity P-wave (km/s) = 6.05908 6.89020 6.48796
#
# Compressibility (1/GPa) = 0.01999119
#
# Stress axis : x y z
#
# Youngs Moduli (GPa) = 69.10074 107.04721 93.21225
#
# Poissons Ratio (x) = 0.23441 0.45114
# Poissons Ratio (y) = 0.15132 0.02288
# Poissons Ratio (z) = 0.33444 0.02627
#
# Static dielectric constant tensor:
#      x y z
#    x 5.852530 -0.155500 0.260690 
#    y -0.155500 4.902560 0.264340 
#    z 0.260690 0.264340 4.371470 
# 
# 
# High freq. dielectric constant tensor:
#      x y z
#    x 1.959230 0.002180 -0.000480 
#    y 0.002180 1.975350 0.008350 
#    z -0.000480 0.008350 1.947960 
# 
# From -- ./inp_files/355402.got.cif
#   From: 2010.06.25/outbox.cif.g09.slc.cpg/sg2_178_cif.got.tgz:355402.got - 2010.06.27 13:26:56.
