data_PCOD8037722
_publ_section_title
;
Structure prediction by ZEFSAII (Michael W. Deem and Ramdas Pophale) SiO2 
 PCOD8037722
Probable space group: P -1
;
_chemical_formula_sum "Si O2"
_cell_formula_units_Z 10
_cell_length_a 13.125649
_cell_length_b 12.618759
_cell_length_c 8.660966
_cell_angle_alpha 55.155247
_cell_angle_beta 124.866384
_cell_angle_gamma 158.123777
_cell_volume 434.618896
_symmetry_space_group_name_H-M "P -1"
_symmetry_group_IT_number 2
_symmetry_cell_setting 'triclinic'
loop_
_space_group_symop_operation_xyz
x,y,z
-x,-y,-z
loop_
_atom_site_type_symbol
_atom_site_label
_atom_site_fract_x
_atom_site_fract_y
_atom_site_fract_z
Si Si1 0.283434 0.065200 0.808727
Si Si2 0.807093 0.979888 0.571104
Si Si3 0.836642 0.452575 0.997424
Si Si4 0.633950 0.611100 0.190673
Si Si5 0.750818 0.220771 0.419485
O O1 0.394455 0.279865 0.837454
O O2 0.138606 0.983964 0.595462
O O3 0.555102 0.236266 0.848565
O O4 0.052719 0.769698 0.948176
O O5 0.792721 0.115337 0.487487
O O6 0.045466 0.131654 0.750788
O O7 0.519644 0.644113 0.637657
O O8 0.722868 0.289643 0.193416
O O9 0.000000 0.500000 0.000000
O O10 0.500000 0.500000 0.000000
O O11 0.000000 0.500000 0.500000
O O12 0.500000 0.000000 0.500000
#
# Coordination Sequence:
#
# PCOD8037722 Si02
#       5
#     2   2   2   2   2
#     4  12  26  47  78 105 146 191 244 297 354 436
#     4  12  26  49  73 103 147 191 244 291 362 431
#     4  12  26  47  76 110 145 188 243 294 362 433
#     4  12  28  47  73 106 144 191 242 303 359 420
#     4  12  28  45  74 109 150 187 234 301 365 428
#
# _framework density 23.008665000000001
#
# number of rings (size 3 to 8) (size 9 to 14) (size 15 to 20)
#    0.000    0.000    2.000    7.200   11.200    0.000 
#    0.000    0.000    0.000    0.000    0.000    0.000 
#    0.000    0.000    0.000    0.000    0.000    0.000 
#
# Total GULP energy -124050.695034 kJ/mol
# GULP energy per Si atom -12405.069503 kJ/mol
# Density = 2.295630 g / cm^3
# Si number density = 23.008665 Si / 1000 Ang^3
#
#
#
# Elastic Constant Matrix: (Units=GPa)
#
#
# Indices 1 2 3 4 5 6 
#
# 1 94.0961 38.7843 54.8132 4.8089 -15.0039 -18.5812
# 2 38.7843 144.8212 46.1440 -5.1095 -2.0052 -2.8223
# 3 54.8132 46.1440 132.0142 0.4769 -15.8855 -10.7605
# 4 4.8089 -5.1095 0.4769 56.9265 1.1859 6.8695
# 5 -15.0039 -2.0052 -15.8855 1.1859 38.2058 0.2110
# 6 -18.5812 -2.8223 -10.7605 6.8695 0.2110 50.8964
#
#
#
# Elastic Compliance Matrix: (Units=1/GPa)
#
#
# Indices 1 2 3 4 5 6 
#
# 1 0.016443 -0.002758 -0.004920 -0.002301 0.004310 0.005102
# 2 -0.002758 0.008289 -0.002031 0.001162 -0.001523 -0.001127
# 3 -0.004920 -0.002031 0.010641 0.000056 0.002382 0.000323
# 4 -0.002301 0.001162 0.000056 0.018282 -0.001369 -0.003226
# 5 0.004310 -0.001523 0.002382 -0.001369 0.028808 0.002058
# 6 0.005102 -0.001127 0.000323 -0.003226 0.002058 0.021943
#
#
# Mechanical properties :
#
#
# Convention : Reuss Voigt Hill
#
# Bulk Modulus (GPa) = 62.68384 72.26827 67.47606
# Shear Modulus (GPa) = 38.71670 44.61841 41.66755
#
# Velocity S-wave (km/s) = 4.10652 4.40841 4.26014
# Velocity P-wave (km/s) = 7.05602 7.57558 7.32041
#
# Compressibility (1/GPa) = 0.01595307
#
# Stress axis : x y z
#
# Youngs Moduli (GPa) = 60.81710 120.64386 93.97835
#
# Poissons Ratio (x) = 0.33271 0.46241
# Poissons Ratio (y) = 0.16772 0.19092
# Poissons Ratio (z) = 0.29924 0.24509
#
# Static dielectric constant tensor:
#      x y z
#    x 3.944950 -0.211310 0.110000 
#    y -0.211310 4.405490 -0.089810 
#    z 0.110000 -0.089810 4.348970 
# 
# 
# High freq. dielectric constant tensor:
#      x y z
#    x 1.911880 -0.006050 0.006360 
#    y -0.006050 1.937130 -0.003280 
#    z 0.006360 -0.003280 1.920990 
# 
# From -- ./inp_files/20603.got.cif
#   From: 2010.06.25/outbox.cif.g09.slc.cpg/sg2_11_cif.got.tgz:20603.got - 2010.06.27 13:26:56.
