data_PCOD8037349
_publ_section_title
;
Structure prediction by ZEFSAII (Michael W. Deem and Ramdas Pophale) SiO2 
 PCOD8037349
Probable space group: P -1
;
_chemical_formula_sum "Si O2"
_cell_formula_units_Z 16
_cell_length_a 9.409303
_cell_length_b 8.930212
_cell_length_c 15.082977
_cell_angle_alpha 105.095811
_cell_angle_beta 36.588570
_cell_angle_gamma 94.805738
_cell_volume 711.863332
_symmetry_space_group_name_H-M "P -1"
_symmetry_group_IT_number 2
_symmetry_cell_setting 'triclinic'
loop_
_space_group_symop_operation_xyz
x,y,z
-x,-y,-z
loop_
_atom_site_type_symbol
_atom_site_label
_atom_site_fract_x
_atom_site_fract_y
_atom_site_fract_z
Si Si1 0.569695 0.373026 0.181951
Si Si2 0.001259 0.184608 0.036085
Si Si3 0.969019 0.254532 0.255829
Si Si4 0.508965 0.257064 0.750897
Si Si5 0.499681 0.816230 0.979480
Si Si6 0.098580 0.792535 0.312186
Si Si7 0.870287 0.538600 0.474767
Si Si8 0.706102 0.052861 0.463394
O O1 0.848981 0.290466 0.051249
O O2 0.543567 0.551940 0.186937
O O3 0.474208 0.264983 0.141389
O O4 0.402936 0.366033 0.351248
O O5 0.876130 0.260467 0.202204
O O6 0.279718 0.195593 0.891668
O O7 0.000000 0.000000 0.000000
O O8 0.835428 0.391079 0.410082
O O9 0.913975 0.094196 0.301563
O O10 0.252848 0.258091 0.104448
O O11 0.740535 0.168385 0.680233
O O12 0.567684 0.204340 0.612389
O O13 0.267777 0.772859 0.137257
O O14 0.500000 0.000000 0.000000
O O15 0.020424 0.630336 0.350302
O O16 0.848032 0.920298 0.439938
O O17 0.000000 0.500000 0.500000
O O18 0.500000 0.000000 0.500000
#
# Coordination Sequence:
#
# PCOD8037349 Si02
#       8
#     2   2   2   2   2   2   2   2
#     4  12  28  48  75 104 153 188 243 307 364 434
#     4  12  29  47  73 109 148 194 244 302 371 429
#     4  12  24  48  72 101 149 191 243 299 362 437
#     4  12  26  50  71 105 145 196 241 299 364 435
#     4  12  25  45  76 108 141 191 247 304 361 433
#     4  12  27  45  78 107 142 194 245 298 365 437
#     4  12  25  48  74 111 145 188 247 306 361 435
#     4  12  28  46  72 108 150 189 243 300 361 432
#
# _framework density 22.476224999999999
#
# number of rings (size 3 to 8) (size 9 to 14) (size 15 to 20)
#    0.000    0.000    6.250    2.250    7.000    2.500 
#    0.000    0.000    0.000    0.000    0.000    0.000 
#    0.000    0.000    0.000    0.000    0.000    0.000 
#
# Total GULP energy -198371.385530 kJ/mol
# GULP energy per Si atom -12398.211596 kJ/mol
# Density = 2.242507 g / cm^3
# Si number density = 22.476225 Si / 1000 Ang^3
#
#
#
# Elastic Constant Matrix: (Units=GPa)
#
#
# Indices 1 2 3 4 5 6 
#
# 1 130.6852 57.7993 38.1168 11.0417 -14.6357 7.1964
# 2 57.7993 138.9918 57.7264 -8.0273 -0.8991 7.0283
# 3 38.1168 57.7264 110.9277 -6.5798 9.5066 10.7543
# 4 11.0417 -8.0273 -6.5798 45.1153 2.1603 3.9276
# 5 -14.6357 -0.8991 9.5066 2.1603 38.6897 5.3630
# 6 7.1964 7.0283 10.7543 3.9276 5.3630 36.9588
#
#
#
# Elastic Compliance Matrix: (Units=1/GPa)
#
#
# Indices 1 2 3 4 5 6 
#
# 1 0.010917 -0.003684 -0.002387 -0.003823 0.004989 -0.001048
# 2 -0.003684 0.010548 -0.004040 0.002228 -0.000236 -0.000315
# 3 -0.002387 -0.004040 0.012598 0.002072 -0.003919 -0.002084
# 4 -0.003823 0.002228 0.002072 0.024150 -0.002916 -0.002425
# 5 0.004989 -0.000236 -0.003919 -0.002916 0.029373 -0.003738
# 6 -0.001048 -0.000315 -0.002084 -0.002425 -0.003738 0.028728
#
#
# Mechanical properties :
#
#
# Convention : Reuss Voigt Hill
#
# Bulk Modulus (GPa) = 72.24863 76.43217 74.34040
# Shear Modulus (GPa) = 35.42338 39.28357 37.35348
#
# Velocity S-wave (km/s) = 3.97424 4.18519 4.08108
# Velocity P-wave (km/s) = 7.29888 7.57852 7.44002
#
# Compressibility (1/GPa) = 0.01384109
#
# Stress axis : x y z
#
# Youngs Moduli (GPa) = 91.60001 94.80761 79.37551
#
# Poissons Ratio (x) = 0.34927 0.18946
# Poissons Ratio (y) = 0.33745 0.32068
# Poissons Ratio (z) = 0.21864 0.38303
#
# Static dielectric constant tensor:
#      x y z
#    x 3.957980 0.184870 -0.400190 
#    y 0.184870 4.034070 0.050870 
#    z -0.400190 0.050870 3.961250 
# 
# 
# High freq. dielectric constant tensor:
#      x y z
#    x 1.890900 0.009840 0.001120 
#    y 0.009840 1.886540 -0.007000 
#    z 0.001120 -0.007000 1.899400 
# 
# From -- ./inp_files/495370.got.cif
#   From: 2010.06.25/outbox.cif.g09.slc.cpg/sg2_248_cif.got.tgz:495370.got - 2010.06.27 13:26:56.
