data_PCOD8037700
_publ_section_title
;
Structure prediction by ZEFSAII (Michael W. Deem and Ramdas Pophale) SiO2 
 PCOD8037700
Probable space group: P -1
;
_chemical_formula_sum "Si O2"
_cell_formula_units_Z 14
_cell_length_a 16.792142
_cell_length_b 8.943955
_cell_length_c 9.457390
_cell_angle_alpha 150.014143
_cell_angle_beta 54.430700
_cell_angle_gamma 116.490201
_cell_volume 571.571112
_symmetry_space_group_name_H-M "P -1"
_symmetry_group_IT_number 2
_symmetry_cell_setting 'triclinic'
loop_
_space_group_symop_operation_xyz
x,y,z
-x,-y,-z
loop_
_atom_site_type_symbol
_atom_site_label
_atom_site_fract_x
_atom_site_fract_y
_atom_site_fract_z
Si Si1 0.580527 0.729224 0.749479
Si Si2 0.707189 0.211221 0.054103
Si Si3 0.796446 0.353645 0.798463
Si Si4 0.237361 0.014252 0.733498
Si Si5 0.000589 0.507545 0.836358
Si Si6 0.551906 0.289979 0.659234
Si Si7 0.117206 0.008019 0.124234
O O1 0.632472 0.525685 0.401513
O O2 0.534213 0.484878 0.693279
O O3 0.500000 0.000000 0.000000
O O4 0.658637 0.910424 0.898823
O O5 0.742362 0.178119 0.828385
O O6 0.798019 0.226920 0.079596
O O7 0.813804 0.140887 0.469595
O O8 0.898814 0.440321 0.821949
O O9 0.728198 0.670908 0.093594
O O10 0.330382 0.788190 0.508782
O O11 0.157495 0.112872 0.020003
O O12 0.088395 0.278115 0.486353
O O13 0.000000 0.500000 0.000000
O O14 0.022591 0.842528 0.050492
O O15 0.500000 0.000000 0.500000
O O16 0.500000 0.500000 0.000000
#
# Coordination Sequence:
#
# PCOD8037700 Si02
#       7
#     2   2   2   2   2   2   2
#     4  12  28  48  78 113 150 195 261 314 378 456
#     4  12  26  48  76 109 150 202 251 310 385 448
#     4  12  28  46  75 111 152 198 255 317 376 454
#     4  12  28  49  72 111 153 199 252 309 394 456
#     4  12  26  46  76 113 147 197 260 315 378 443
#     4  12  28  49  78 109 153 202 250 315 386 457
#     4  12  26  47  79 102 154 202 249 315 378 459
#
# _framework density 24.49389
#
# number of rings (size 3 to 8) (size 9 to 14) (size 15 to 20)
#    0.000    0.000    2.857    6.000   10.000    3.429 
#    0.000    0.000    0.000    0.000    0.000    0.000 
#    0.000    0.000    0.000    0.000    0.000    0.000 
#
# Total GULP energy -173563.262699 kJ/mol
# GULP energy per Si atom -12397.375907 kJ/mol
# Density = 2.443814 g / cm^3
# Si number density = 24.493890 Si / 1000 Ang^3
#
#
#
# Elastic Constant Matrix: (Units=GPa)
#
#
# Indices 1 2 3 4 5 6 
#
# 1 75.4784 44.8769 38.1647 -7.6006 8.5469 -1.5670
# 2 44.8769 147.2265 50.5481 5.5020 9.7829 -2.0725
# 3 38.1647 50.5481 168.0473 -13.9202 20.1777 -4.7368
# 4 -7.6006 5.5020 -13.9202 53.4471 1.0564 6.5629
# 5 8.5469 9.7829 20.1777 1.0564 39.9229 7.1895
# 6 -1.5670 -2.0725 -4.7368 6.5629 7.1895 38.4459
#
#
#
# Elastic Compliance Matrix: (Units=1/GPa)
#
#
# Indices 1 2 3 4 5 6 
#
# 1 0.017501 -0.004558 -0.002211 0.002403 -0.001591 0.000082
# 2 -0.004558 0.008892 -0.001755 -0.002075 -0.000351 0.000497
# 3 -0.002211 -0.001755 0.007532 0.001764 -0.003135 0.001029
# 4 0.002403 -0.002075 0.001764 0.020119 -0.000878 -0.003067
# 5 -0.001591 -0.000351 -0.003135 -0.000878 0.028086 -0.005572
# 6 0.000082 0.000497 0.001029 -0.003067 -0.005572 0.027733
#
#
# Mechanical properties :
#
#
# Convention : Reuss Voigt Hill
#
# Bulk Modulus (GPa) = 59.25531 73.10352 66.17941
# Shear Modulus (GPa) = 37.72498 43.50737 40.61618
#
# Velocity S-wave (km/s) = 3.92877 4.21913 4.07654
# Velocity P-wave (km/s) = 6.69513 7.32429 7.01676
#
# Compressibility (1/GPa) = 0.01687612
#
# Stress axis : x y z
#
# Youngs Moduli (GPa) = 57.13987 112.45808 132.75990
#
# Poissons Ratio (x) = 0.51263 0.29354
# Poissons Ratio (y) = 0.26047 0.23303
# Poissons Ratio (z) = 0.12634 0.19740
#
# Static dielectric constant tensor:
#      x y z
#    x 4.435140 0.169030 -0.030570 
#    y 0.169030 4.614170 0.010570 
#    z -0.030570 0.010570 4.668090 
# 
# 
# High freq. dielectric constant tensor:
#      x y z
#    x 1.971220 0.006730 0.002210 
#    y 0.006730 1.981970 -0.000320 
#    z 0.002210 -0.000320 1.996320 
# 
# From -- ./inp_files/329698.got.cif
#   From: 2010.06.25/outbox.cif.g09.slc.cpg/sg2_165_cif.got.tgz:329698.got - 2010.06.27 13:26:56.
