data_PCOD8037232
_publ_section_title
;
Structure prediction by ZEFSAII (Michael W. Deem and Ramdas Pophale) SiO2 
 PCOD8037232
Probable space group: P -1
;
_chemical_formula_sum "Si O2"
_cell_formula_units_Z 12
_cell_length_a 5.156778
_cell_length_b 21.000981
_cell_length_c 5.107211
_cell_angle_alpha 68.900006
_cell_angle_beta 87.661050
_cell_angle_gamma 88.133048
_cell_volume 515.489608
_symmetry_space_group_name_H-M "P -1"
_symmetry_group_IT_number 2
_symmetry_cell_setting 'triclinic'
loop_
_space_group_symop_operation_xyz
x,y,z
-x,-y,-z
loop_
_atom_site_type_symbol
_atom_site_label
_atom_site_fract_x
_atom_site_fract_y
_atom_site_fract_z
Si Si1 0.753519 0.953181 0.569883
Si Si2 0.022451 0.422040 0.529036
Si Si3 0.256842 0.680353 0.003012
Si Si4 0.527843 0.422549 0.199320
Si Si5 0.242704 0.770219 0.366057
Si Si6 0.739929 0.859653 0.211535
O O1 0.793781 0.905943 0.388549
O O2 0.500000 0.000000 0.500000
O O3 0.725550 0.906378 0.890901
O O4 0.000000 0.000000 0.500000
O O5 0.305194 0.403983 0.437180
O O6 0.000000 0.500000 0.500000
O O7 0.806538 0.408439 0.339160
O O8 0.982158 0.369831 0.848014
O O9 0.489433 0.628694 0.972624
O O10 0.184104 0.732122 0.696458
O O11 0.338744 0.720230 0.202677
O O12 0.500000 0.500000 0.000000
O O13 0.467134 0.823912 0.322747
O O14 0.973296 0.805575 0.239348
#
# Coordination Sequence:
#
# PCOD8037232 Si02
#       6
#     2   2   2   2   2   2
#     4  12  24  45  80 114 145 188 237 290 349 414
#     4  12  27  46  73 104 140 182 243 323 387 437
#     4  12  28  49  73 106 140 198 257 294 375 454
#     4  12  27  46  73 104 140 182 243 323 387 437
#     4  12  28  47  72 102 151 202 239 292 351 442
#     4  12  26  49  71 110 154 190 237 290 351 414
#
# _framework density 23.278842000000001
#
# number of rings (size 3 to 8) (size 9 to 14) (size 15 to 20)
#    0.000    0.000    3.333    6.000    2.333    2.667 
#    0.000    0.000    0.000    0.000    0.000    0.000 
#    0.000    0.000    0.000    0.000    0.000    0.000 
#
# Total GULP energy -148839.585205 kJ/mol
# GULP energy per Si atom -12403.298767 kJ/mol
# Density = 2.322586 g / cm^3
# Si number density = 23.278842 Si / 1000 Ang^3
#
#
#
# Elastic Constant Matrix: (Units=GPa)
#
#
# Indices 1 2 3 4 5 6 
#
# 1 105.9126 22.5903 43.8179 -16.5111 -20.2620 15.7041
# 2 22.5903 130.2821 69.9855 5.5732 -16.6744 7.7322
# 3 43.8179 69.9855 197.4821 -18.3825 -20.1052 18.1813
# 4 -16.5111 5.5732 -18.3825 59.0362 -0.0092 -5.6583
# 5 -20.2620 -16.6744 -20.1052 -0.0092 40.9414 -1.3283
# 6 15.7041 7.7322 18.1813 -5.6583 -1.3283 34.2359
#
#
#
# Elastic Compliance Matrix: (Units=1/GPa)
#
#
# Indices 1 2 3 4 5 6 
#
# 1 0.012086 -0.000614 -0.001342 0.002631 0.004941 -0.004066
# 2 -0.000614 0.009969 -0.003344 -0.002199 0.002098 -0.000476
# 3 -0.001342 -0.003344 0.007051 0.001945 0.001372 -0.001999
# 4 0.002631 -0.002199 0.001945 0.018621 0.001411 0.001389
# 5 0.004941 0.002098 0.001372 0.001411 0.028330 -0.002137
# 6 -0.004066 -0.000476 -0.001999 0.001389 -0.002137 0.032390
#
#
# Mechanical properties :
#
#
# Convention : Reuss Voigt Hill
#
# Bulk Modulus (GPa) = 54.03172 78.49602 66.26387
# Shear Modulus (GPa) = 39.93061 46.66157 43.29609
#
# Velocity S-wave (km/s) = 4.14613 4.48198 4.31732
# Velocity P-wave (km/s) = 6.79570 7.78314 7.30612
#
# Compressibility (1/GPa) = 0.01850765
#
# Stress axis : x y z
#
# Youngs Moduli (GPa) = 82.73868 100.30707 141.81580
#
# Poissons Ratio (x) = 0.06156 0.19030
# Poissons Ratio (y) = 0.05077 0.47425
# Poissons Ratio (z) = 0.11103 0.33544
#
# Static dielectric constant tensor:
#      x y z
#    x 4.189550 -0.037580 -0.175850 
#    y -0.037580 4.630170 -0.082290 
#    z -0.175850 -0.082290 4.514760 
# 
# 
# High freq. dielectric constant tensor:
#      x y z
#    x 1.923460 -0.002500 -0.011130 
#    y -0.002500 1.942530 -0.000990 
#    z -0.011130 -0.000990 1.945080 
# 
# From -- ./inp_files/4891.got.cif
#   From: 2010.06.25/outbox.cif.g09.slc.cpg/sg2_3_cif.got.tgz:4891.got - 2010.06.27 13:26:56.
