data_PCOD8037424
_publ_section_title
;
Structure prediction by ZEFSAII (Michael W. Deem and Ramdas Pophale) SiO2 
 PCOD8037424
Probable space group: P -1
;
_chemical_formula_sum "Si O2"
_cell_formula_units_Z 16
_cell_length_a 14.010238
_cell_length_b 14.603604
_cell_length_c 8.206162
_cell_angle_alpha 125.365479
_cell_angle_beta 123.760149
_cell_angle_gamma 30.182662
_cell_volume 682.048995
_symmetry_space_group_name_H-M "P -1"
_symmetry_group_IT_number 2
_symmetry_cell_setting 'triclinic'
loop_
_space_group_symop_operation_xyz
x,y,z
-x,-y,-z
loop_
_atom_site_type_symbol
_atom_site_label
_atom_site_fract_x
_atom_site_fract_y
_atom_site_fract_z
Si Si1 0.932008 0.087215 0.343141
Si Si2 0.848890 0.808651 0.021029
Si Si3 0.914355 0.331007 0.415150
Si Si4 0.152294 0.720578 0.047144
Si Si5 0.668812 0.735460 0.681128
Si Si6 0.499203 0.417774 0.263362
Si Si7 0.277230 0.137069 0.675372
Si Si8 0.546830 0.792427 0.975133
O O1 0.945542 0.210633 0.458552
O O2 0.717500 0.220035 0.227140
O O3 0.000000 0.000000 0.500000
O O4 0.062387 0.915521 0.164788
O O5 0.828827 0.809310 0.197909
O O6 0.044345 0.720082 0.068878
O O7 0.835751 0.699928 0.796368
O O8 0.677903 0.020088 0.007394
O O9 0.748087 0.549747 0.529165
O O10 0.117941 0.234383 0.487426
O O11 0.848447 0.325302 0.181664
O O12 0.374050 0.567377 0.152490
O O13 0.471323 0.916351 0.581939
O O14 0.587467 0.817305 0.867896
O O15 0.500000 0.500000 0.500000
O O16 0.390208 0.385531 0.157335
O O17 0.326120 0.232119 0.804838
#
# Coordination Sequence:
#
# PCOD8037424 Si02
#       8
#     2   2   2   2   2   2   2   2
#     4  12  26  48  71  95 132 179 233 282 328 394
#     4   9  19  42  68  96 137 175 228 276 327 396
#     4  12  27  42  67 102 141 179 217 276 349 406
#     4  12  27  44  65 103 140 180 219 273 345 412
#     4   9  21  39  66 101 135 175 224 280 327 395
#     4  12  25  41  71 100 127 175 229 285 327 392
#     4   9  21  41  69  98 134 177 223 283 328 397
#     4   9  19  40  68 101 129 173 234 281 328 380
#
# _framework density 23.458725000000001
#
# number of rings (size 3 to 8) (size 9 to 14) (size 15 to 20)
#    0.000    1.500    2.500    3.375    5.250    4.000 
#    0.000    1.250    0.000    0.000    0.000    0.000 
#    0.000    0.000    0.000    0.000    0.000    0.000 
#
# Total GULP energy -198223.737685 kJ/mol
# GULP energy per Si atom -12388.983605 kJ/mol
# Density = 2.340533 g / cm^3
# Si number density = 23.458725 Si / 1000 Ang^3
#
#
#
# Elastic Constant Matrix: (Units=GPa)
#
#
# Indices 1 2 3 4 5 6 
#
# 1 47.1983 34.0822 22.3295 6.8540 22.9396 3.5995
# 2 34.0822 156.2923 87.0246 0.4555 16.2155 -6.1538
# 3 22.3295 87.0246 147.4505 6.7298 22.5773 8.5845
# 4 6.8540 0.4555 6.7298 52.4065 3.2083 17.8256
# 5 22.9396 16.2155 22.5773 3.2083 33.4776 3.0258
# 6 3.5995 -6.1538 8.5845 17.8256 3.0258 27.1479
#
#
#
# Elastic Compliance Matrix: (Units=1/GPa)
#
#
# Indices 1 2 3 4 5 6 
#
# 1 0.036988 -0.007143 0.002431 -0.002667 -0.023000 -0.002977
# 2 -0.007143 0.011436 -0.006468 -0.000399 0.003260 0.005484
# 3 0.002431 -0.006468 0.011393 0.000314 -0.005799 -0.004951
# 4 -0.002667 -0.000399 0.000314 0.024872 0.000895 -0.016267
# 5 -0.023000 0.003260 -0.005799 0.000895 0.047905 -0.000305
# 6 -0.002977 0.005484 -0.004951 -0.016267 -0.000305 0.050754
#
#
# Mechanical properties :
#
#
# Convention : Reuss Voigt Hill
#
# Bulk Modulus (GPa) = 26.69681 70.86819 48.78250
# Shear Modulus (GPa) = 22.91556 36.44008 29.67782
#
# Velocity S-wave (km/s) = 3.12884 3.94556 3.56069
# Velocity P-wave (km/s) = 4.94550 7.14366 6.14369
#
# Compressibility (1/GPa) = 0.03745767
#
# Stress axis : x y z
#
# Youngs Moduli (GPa) = 27.03594 87.44192 87.77294
#
# Poissons Ratio (x) = 0.62456 -0.21337
# Poissons Ratio (y) = 0.19311 0.56772
# Poissons Ratio (z) = -0.06572 0.56558
#
# Static dielectric constant tensor:
#      x y z
#    x 4.108950 -0.133240 0.457940 
#    y -0.133240 4.448900 0.020250 
#    z 0.457940 0.020250 4.149500 
# 
# 
# High freq. dielectric constant tensor:
#      x y z
#    x 1.898670 -0.006910 0.034600 
#    y -0.006910 1.940190 0.004530 
#    z 0.034600 0.004530 1.927940 
# 
# From -- ./inp_files/308889.got.cif
#   From: 2010.06.25/outbox.cif.g09.slc.cpg/sg2_155_cif.got.tgz:308889.got - 2010.06.27 13:26:56.
