data_PCOD8037826
_publ_section_title
;
Structure prediction by ZEFSAII (Michael W. Deem and Ramdas Pophale) SiO2 
 PCOD8037826
Probable space group: P -1
;
_chemical_formula_sum "Si O2"
_cell_formula_units_Z 14
_cell_length_a 11.275819
_cell_length_b 10.135462
_cell_length_c 12.326970
_cell_angle_alpha 130.684312
_cell_angle_beta 118.436272
_cell_angle_gamma 49.218164
_cell_volume 805.805470
_symmetry_space_group_name_H-M "P -1"
_symmetry_group_IT_number 2
_symmetry_cell_setting 'triclinic'
loop_
_space_group_symop_operation_xyz
x,y,z
-x,-y,-z
loop_
_atom_site_type_symbol
_atom_site_label
_atom_site_fract_x
_atom_site_fract_y
_atom_site_fract_z
Si Si1 0.483659 0.862994 0.681675
Si Si2 0.219940 0.120282 0.855421
Si Si3 0.636732 0.132523 0.587670
Si Si4 0.869711 0.500057 0.128667
Si Si5 0.878803 0.260187 0.806692
Si Si6 0.613757 0.782104 0.314948
Si Si7 0.789300 0.639570 0.822330
O O1 0.432101 0.771488 0.510177
O O2 0.658490 0.697610 0.705064
O O3 0.364102 0.914395 0.758416
O O4 0.476806 0.069105 0.747542
O O5 0.170646 0.300876 0.847529
O O6 0.065703 0.101674 0.792785
O O7 0.818716 0.439868 0.789814
O O8 0.793053 0.135228 0.682679
O O9 0.504948 0.259031 0.689688
O O10 0.679311 0.897278 0.481248
O O11 0.757530 0.565276 0.220492
O O12 0.052544 0.395373 0.185972
O O13 0.841317 0.351396 0.960868
O O14 0.270540 0.173114 0.019444
#
# Coordination Sequence:
#
# PCOD8037826 Si02
#       7
#     2   2   2   2   2   2   2
#     4   9  16  28  46  65  88 117 141 174 217 258
#     4   8  15  28  45  66  88 116 145 168 212 266
#     4   9  18  30  47  62  87 116 151 177 204 255
#     4   8  15  30  47  65  84 115 148 175 210 254
#     4   9  17  28  46  69  90 108 141 181 217 254
#     4   8  17  33  46  61  81 121 158 168 203 255
#     4   9  16  27  46  69  91 109 136 183 221 257
#
# _framework density 17.373919999999998
#
# number of rings (size 3 to 8) (size 9 to 14) (size 15 to 20)
#    0.857    2.571    0.000    2.143    0.000    1.714 
#    0.000    0.714    0.000    3.429    0.000    0.000 
#    0.000    0.000    0.000    0.000    0.000    0.000 
#
# Total GULP energy -173456.771732 kJ/mol
# GULP energy per Si atom -12389.769409 kJ/mol
# Density = 1.733438 g / cm^3
# Si number density = 17.373920 Si / 1000 Ang^3
#
#
#
# Elastic Constant Matrix: (Units=GPa)
#
#
# Indices 1 2 3 4 5 6 
#
# 1 53.3698 12.7893 26.4695 -0.0031 -4.8703 -19.5792
# 2 12.7893 59.5671 23.3414 -7.7656 -7.7445 -17.6901
# 3 26.4695 23.3414 66.1387 -12.5547 3.9084 -15.1658
# 4 -0.0031 -7.7656 -12.5547 17.6237 -13.8499 0.8973
# 5 -4.8703 -7.7445 3.9084 -13.8499 28.5275 8.6804
# 6 -19.5792 -17.6901 -15.1658 0.8973 8.6804 17.9146
#
#
#
# Elastic Compliance Matrix: (Units=1/GPa)
#
#
# Indices 1 2 3 4 5 6 
#
# 1 0.037349 0.005109 -0.008631 -0.016308 -0.012847 0.045599
# 2 0.005109 0.027582 -0.003785 0.015006 0.008657 0.024669
# 3 -0.008631 -0.003785 0.024388 0.014589 -0.000952 0.007205
# 4 -0.016308 0.015006 0.014589 0.134044 0.074560 -0.033497
# 5 -0.012847 0.008657 -0.000952 0.074560 0.087492 -0.052425
# 6 0.045599 0.024669 0.007205 -0.033497 -0.052425 0.163196
#
#
# Mechanical properties :
#
#
# Convention : Reuss Voigt Hill
#
# Bulk Modulus (GPa) = 13.38628 33.80845 23.59736
# Shear Modulus (GPa) = 9.73584 20.57818 15.15701
#
# Velocity S-wave (km/s) = 2.36978 3.44529 2.95685
# Velocity P-wave (km/s) = 3.89992 5.94376 5.02681
#
# Compressibility (1/GPa) = 0.07470338
#
# Stress axis : x y z
#
# Youngs Moduli (GPa) = 26.77473 36.25519 41.00439
#
# Poissons Ratio (x) = -0.18522 0.35391
# Poissons Ratio (y) = -0.13678 0.15521
# Poissons Ratio (z) = 0.23109 0.13724
#
# Static dielectric constant tensor:
#      x y z
#    x 3.144070 -0.488590 -0.240780 
#    y -0.488590 3.093450 0.110520 
#    z -0.240780 0.110520 3.133050 
# 
# 
# High freq. dielectric constant tensor:
#      x y z
#    x 1.647560 -0.036740 -0.011320 
#    y -0.036740 1.642040 -0.002310 
#    z -0.011320 -0.002310 1.660810 
# 
# From -- ./inp_files/521035.got.cif
#   From: 2010.06.25/outbox.cif.g09.slc.cpg/sg2_261_cif.got.tgz:521035.got - 2010.06.27 13:26:56.
