data_PCOD8037104
_publ_section_title
;
Structure prediction by ZEFSAII (Michael W. Deem and Ramdas Pophale) SiO2 
 PCOD8037104
Probable space group: P -1
;
_chemical_formula_sum "Si O2"
_cell_formula_units_Z 16
_cell_length_a 9.594929
_cell_length_b 13.635941
_cell_length_c 12.814650
_cell_angle_alpha 136.847812
_cell_angle_beta 41.263658
_cell_angle_gamma 131.384567
_cell_volume 732.281697
_symmetry_space_group_name_H-M "P -1"
_symmetry_group_IT_number 2
_symmetry_cell_setting 'triclinic'
loop_
_space_group_symop_operation_xyz
x,y,z
-x,-y,-z
loop_
_atom_site_type_symbol
_atom_site_label
_atom_site_fract_x
_atom_site_fract_y
_atom_site_fract_z
Si Si1 0.753959 0.423392 0.046735
Si Si2 0.467756 0.144746 0.073752
Si Si3 0.862386 0.386687 0.732926
Si Si4 0.467051 0.319698 0.592458
Si Si5 0.674599 0.662070 0.526856
Si Si6 0.204647 0.131433 0.007147
Si Si7 0.969020 0.378071 0.336786
Si Si8 0.514151 0.837582 0.334778
O O1 0.695621 0.264152 0.013436
O O2 0.578106 0.516709 0.247298
O O3 0.717999 0.395749 0.922420
O O4 0.000000 0.500000 0.000000
O O5 0.338396 0.230849 0.287501
O O6 0.344870 0.093181 0.994020
O O7 0.500000 0.000000 0.000000
O O8 0.928955 0.549415 0.772258
O O9 0.727063 0.265658 0.633625
O O10 0.081034 0.350093 0.618841
O O11 0.342760 0.250348 0.503365
O O12 0.383905 0.228239 0.673530
O O13 0.711773 0.310417 0.421410
O O14 0.500000 0.500000 0.500000
O O15 0.338227 0.163155 0.849472
O O16 0.109190 0.265739 0.202992
O O17 0.000000 0.000000 0.000000
O O18 0.000000 0.500000 0.500000
O O19 0.500000 0.000000 0.500000
#
# Coordination Sequence:
#
# PCOD8037104 Si02
#       8
#     2   2   2   2   2   2   2   2
#     4  12  24  47  72 111 146 190 247 309 369 443
#     4  12  29  48  76 109 150 194 251 307 375 446
#     4  12  24  44  77 105 148 189 244 306 364 435
#     4  12  25  44  76 106 149 187 247 298 364 442
#     4  12  24  46  74 111 146 193 243 299 369 452
#     4  12  29  51  74 104 151 196 249 306 378 446
#     4  12  24  42  77 110 139 192 246 299 366 435
#     4  12  29  48  72 108 149 193 249 308 373 436
#
# _framework density 21.849516000000001
#
# number of rings (size 3 to 8) (size 9 to 14) (size 15 to 20)
#    0.000    0.000    6.250    3.000    5.250    2.000 
#    0.000    1.250    0.000    0.000    0.000    0.000 
#    0.000    0.000    0.000    0.000    0.000    0.000 
#
# Total GULP energy -198349.968368 kJ/mol
# GULP energy per Si atom -12396.873023 kJ/mol
# Density = 2.179979 g / cm^3
# Si number density = 21.849516 Si / 1000 Ang^3
#
#
#
# Elastic Constant Matrix: (Units=GPa)
#
#
# Indices 1 2 3 4 5 6 
#
# 1 135.7484 59.4896 22.7750 -4.9597 5.0729 -13.7800
# 2 59.4896 133.7015 41.3022 -4.3660 0.6066 -22.4152
# 3 22.7750 41.3022 105.2982 -1.2138 3.9951 -10.0420
# 4 -4.9597 -4.3660 -1.2138 34.9501 -5.2268 2.1585
# 5 5.0729 0.6066 3.9951 -5.2268 43.0688 -4.8762
# 6 -13.7800 -22.4152 -10.0420 2.1585 -4.8762 44.4203
#
#
#
# Elastic Compliance Matrix: (Units=1/GPa)
#
#
# Indices 1 2 3 4 5 6 
#
# 1 0.009246 -0.003851 -0.000382 0.000648 -0.000840 0.000715
# 2 -0.003851 0.010768 -0.003078 0.000628 0.001075 0.003631
# 3 -0.000382 -0.003078 0.010884 -0.000234 -0.000870 0.000705
# 4 0.000648 0.000628 -0.000234 0.029323 0.003429 -0.000583
# 5 -0.000840 0.001075 -0.000870 0.003429 0.024089 0.002563
# 6 0.000715 0.003631 0.000705 -0.000583 0.002563 0.025035
#
#
# Mechanical properties :
#
#
# Convention : Reuss Voigt Hill
#
# Bulk Modulus (GPa) = 61.43831 69.09797 65.26814
# Shear Modulus (GPa) = 38.64182 41.23327 39.93755
#
# Velocity S-wave (km/s) = 4.20997 4.34884 4.27997
# Velocity P-wave (km/s) = 7.19803 7.54385 7.37297
#
# Compressibility (1/GPa) = 0.01627649
#
# Stress axis : x y z
#
# Youngs Moduli (GPa) = 108.15526 92.86723 91.87604
#
# Poissons Ratio (x) = 0.35765 0.03507
# Poissons Ratio (y) = 0.41653 0.28279
# Poissons Ratio (z) = 0.04128 0.28584
#
# Static dielectric constant tensor:
#      x y z
#    x 4.140720 -0.511870 0.286950 
#    y -0.511870 3.857130 -0.200890 
#    z 0.286950 -0.200890 4.107590 
# 
# 
# High freq. dielectric constant tensor:
#      x y z
#    x 1.872960 -0.010420 0.011800 
#    y -0.010420 1.856550 -0.014270 
#    z 0.011800 -0.014270 1.871590 
# 
# From -- ./inp_files/392977.got.cif
#   From: 2010.06.25/outbox.cif.g09.slc.cpg/sg2_197_cif.got.tgz:392977.got - 2010.06.27 13:26:56.
