data_PCOD8037110
_publ_section_title
;
Structure prediction by ZEFSAII (Michael W. Deem and Ramdas Pophale) SiO2 
 PCOD8037110
Probable space group: P -1
;
_chemical_formula_sum "Si O2"
_cell_formula_units_Z 16
_cell_length_a 25.242889
_cell_length_b 15.888634
_cell_length_c 25.142225
_cell_angle_alpha 21.173379
_cell_angle_beta 11.331670
_cell_angle_gamma 22.498043
_cell_volume 709.105555
_symmetry_space_group_name_H-M "P -1"
_symmetry_group_IT_number 2
_symmetry_cell_setting 'triclinic'
loop_
_space_group_symop_operation_xyz
x,y,z
-x,-y,-z
loop_
_atom_site_type_symbol
_atom_site_label
_atom_site_fract_x
_atom_site_fract_y
_atom_site_fract_z
Si Si1 0.448295 0.349876 0.967520
Si Si2 0.398523 0.271333 0.942571
Si Si3 0.067265 0.014739 0.047300
Si Si4 0.137705 0.532734 0.691951
Si Si5 0.777122 0.338771 0.806302
Si Si6 0.217825 0.618807 0.684355
Si Si7 0.974958 0.150773 0.610146
Si Si8 0.550498 0.869126 0.582556
O O1 0.337612 0.357146 0.012282
O O2 0.556014 0.591675 0.734586
O O3 0.718452 0.151442 0.821695
O O4 0.197787 0.311532 0.275566
O O5 0.604532 0.434452 0.617841
O O6 0.116488 0.279380 0.184015
O O7 0.500000 0.000000 0.000000
O O8 0.164665 0.888234 0.080483
O O9 0.015140 0.289467 0.949118
O O10 0.816052 0.916481 0.325025
O O11 0.303495 0.983807 0.791650
O O12 0.225592 0.568034 0.644535
O O13 0.000000 0.500000 0.500000
O O14 0.804374 0.250465 0.771142
O O15 0.500000 0.500000 0.000000
O O16 0.500000 0.500000 0.500000
O O17 0.148754 0.897601 0.597821
O O18 0.000000 0.500000 0.000000
O O19 0.500000 0.000000 0.500000
#
# Coordination Sequence:
#
# PCOD8037110 Si02
#       8
#     2   2   2   2   2   2   2   2
#     4  12  24  43  69 101 137 181 229 283 342 407
#     4  12  25  45  70 100 136 179 226 282 341 407
#     4  12  25  43  67  97 134 177 222 277 336 400
#     4  12  25  45  69 100 136 179 228 280 340 408
#     4  12  25  43  67  97 133 176 224 277 338 403
#     4  12  26  46  71 103 139 183 231 285 344 409
#     4  12  25  44  69 101 137 179 228 285 343 409
#     4  12  25  43  66  97 134 176 224 277 336 401
#
# _framework density 22.563637
#
# number of rings (size 3 to 8) (size 9 to 14) (size 15 to 20)
#    0.000    0.000    0.000   12.000    0.000    2.000 
#    0.000    0.000    0.000    0.000    0.000    0.000 
#    0.000    0.000    0.000    0.000    0.000    0.000 
#
# Total GULP energy -198387.821334 kJ/mol
# GULP energy per Si atom -12399.238833 kJ/mol
# Density = 2.251228 g / cm^3
# Si number density = 22.563637 Si / 1000 Ang^3
#
#
#
# Elastic Constant Matrix: (Units=GPa)
#
#
# Indices 1 2 3 4 5 6 
#
# 1 154.9356 64.5619 69.3186 5.6319 5.7678 -7.7895
# 2 64.5619 121.9186 47.4928 10.3992 3.0243 -1.9674
# 3 69.3186 47.4928 164.7756 16.6806 9.2141 -9.4411
# 4 5.6319 10.3992 16.6806 49.5550 -8.5259 -6.3605
# 5 5.7678 3.0243 9.2141 -8.5259 46.7937 1.5318
# 6 -7.7895 -1.9674 -9.4411 -6.3605 1.5318 47.7048
#
#
#
# Elastic Compliance Matrix: (Units=1/GPa)
#
#
# Indices 1 2 3 4 5 6 
#
# 1 0.009376 -0.003909 -0.002832 0.000786 -0.000232 0.000922
# 2 -0.003909 0.010933 -0.001380 -0.001505 -0.000206 -0.000655
# 3 -0.002832 -0.001380 0.008021 -0.002255 -0.001579 0.000818
# 4 0.000786 -0.001505 -0.002255 0.022239 0.004416 0.002443
# 5 -0.000232 -0.000206 -0.001579 0.004416 0.022544 -0.000494
# 6 0.000922 -0.000655 0.000818 0.002443 -0.000494 0.021589
#
#
# Mechanical properties :
#
#
# Convention : Reuss Voigt Hill
#
# Bulk Modulus (GPa) = 82.72012 89.37515 86.04764
# Shear Modulus (GPa) = 43.48828 46.16113 44.82470
#
# Velocity S-wave (km/s) = 4.39493 4.52798 4.46195
# Velocity P-wave (km/s) = 7.90534 8.18737 8.04759
#
# Compressibility (1/GPa) = 0.01208896
#
# Stress axis : x y z
#
# Youngs Moduli (GPa) = 106.65159 91.46945 124.66532
#
# Poissons Ratio (x) = 0.35751 0.35301
# Poissons Ratio (y) = 0.41685 0.17210
# Poissons Ratio (z) = 0.30200 0.12627
#
# Static dielectric constant tensor:
#      x y z
#    x 3.783580 -0.392860 0.469800 
#    y -0.392860 4.212290 0.131780 
#    z 0.469800 0.131780 4.019030 
# 
# 
# High freq. dielectric constant tensor:
#      x y z
#    x 1.907190 -0.009490 0.003930 
#    y -0.009490 1.906600 0.002660 
#    z 0.003930 0.002660 1.911140 
# 
# From -- ./inp_files/621344.got.cif
#   From: 2010.06.25/outbox.cif.g09.slc.cpg/sg2_311_cif.got.tgz:621344.got - 2010.06.27 13:26:56.
