data_PCOD8037041
_publ_section_title
;
Structure prediction by ZEFSAII (Michael W. Deem and Ramdas Pophale) SiO2 
 PCOD8037041
Probable space group: P -1
;
_chemical_formula_sum "Si O2"
_cell_formula_units_Z 16
_cell_length_a 14.226426
_cell_length_b 9.049454
_cell_length_c 9.818662
_cell_angle_alpha 134.039882
_cell_angle_beta 66.496449
_cell_angle_gamma 86.027536
_cell_volume 708.889604
_symmetry_space_group_name_H-M "P -1"
_symmetry_group_IT_number 2
_symmetry_cell_setting 'triclinic'
loop_
_space_group_symop_operation_xyz
x,y,z
-x,-y,-z
loop_
_atom_site_type_symbol
_atom_site_label
_atom_site_fract_x
_atom_site_fract_y
_atom_site_fract_z
Si Si1 0.455302 0.386518 0.561916
Si Si2 0.378046 0.128076 0.957122
Si Si3 0.516108 0.386320 0.062112
Si Si4 0.262101 0.083252 0.267409
Si Si5 0.826011 0.705156 0.041595
Si Si6 0.966689 0.955731 0.138933
Si Si7 0.998405 0.680474 0.503745
Si Si8 0.204904 0.477493 0.773094
O O1 0.500000 0.500000 0.500000
O O2 0.310492 0.536329 0.752229
O O3 0.502694 0.110687 0.320488
O O4 0.510750 0.401716 0.682130
O O5 0.416333 0.316190 0.095889
O O6 0.279807 0.226909 0.959387
O O7 0.331712 0.069663 0.081836
O O8 0.652656 0.159740 0.853771
O O9 0.500000 0.500000 0.000000
O O10 0.226260 0.318992 0.525989
O O11 0.137758 0.103702 0.310433
O O12 0.789728 0.663736 0.184071
O O13 0.853467 0.920146 0.173690
O O14 0.942885 0.461951 0.761269
O O15 0.077251 0.721989 0.995031
O O16 0.930741 0.193046 0.401582
O O17 0.000000 0.000000 0.000000
O O18 0.000000 0.500000 0.500000
#
# Coordination Sequence:
#
# PCOD8037041 Si02
#       8
#     2   2   2   2   2   2   2   2
#     4  12  26  47  77 106 140 194 248 294 360 441
#     4  12  26  48  73 102 146 190 244 298 357 435
#     4  12  27  46  71 109 145 190 241 299 370 426
#     4  12  23  48  75 100 147 190 239 301 359 429
#     4  12  28  48  71 110 149 190 239 305 367 424
#     4  12  25  46  77 106 142 197 243 288 363 438
#     4  12  24  48  75 108 145 188 246 302 353 437
#     4  12  27  48  74 109 152 184 239 312 366 421
#
# _framework density 22.570509999999999
#
# number of rings (size 3 to 8) (size 9 to 14) (size 15 to 20)
#    0.000    0.000    6.250    3.000    3.500    2.500 
#    2.250    0.000    0.000    0.000    0.000    0.000 
#    0.000    0.000    0.000    0.000    0.000    0.000 
#
# Total GULP energy -198494.370145 kJ/mol
# GULP energy per Si atom -12405.898134 kJ/mol
# Density = 2.251914 g / cm^3
# Si number density = 22.570510 Si / 1000 Ang^3
#
#
#
# Elastic Constant Matrix: (Units=GPa)
#
#
# Indices 1 2 3 4 5 6 
#
# 1 109.3885 12.3591 15.7765 -3.0759 6.9485 -1.1733
# 2 12.3591 94.6994 5.4491 -10.7096 -0.6711 -16.7019
# 3 15.7765 5.4491 84.1455 -3.9167 19.3287 0.8159
# 4 -3.0759 -10.7096 -3.9167 33.7434 -2.6928 0.3942
# 5 6.9485 -0.6711 19.3287 -2.6928 49.5980 5.9083
# 6 -1.1733 -16.7019 0.8159 0.3942 5.9083 42.2604
#
#
#
# Elastic Compliance Matrix: (Units=1/GPa)
#
#
# Indices 1 2 3 4 5 6 
#
# 1 0.009546 -0.001142 -0.001534 0.000272 -0.000733 -0.000057
# 2 -0.001142 0.011964 -0.000472 0.003596 0.000147 0.004652
# 3 -0.001534 -0.000472 0.013386 0.000864 -0.004985 0.000201
# 4 0.000272 0.003596 0.000864 0.030990 0.001243 0.000949
# 5 -0.000733 0.000147 -0.004985 0.001243 0.022640 -0.003043
# 6 -0.000057 0.004652 0.000201 0.000949 -0.003043 0.025912
#
#
# Mechanical properties :
#
#
# Convention : Reuss Voigt Hill
#
# Bulk Modulus (GPa) = 34.96633 39.48920 37.22776
# Shear Modulus (GPa) = 38.38288 42.09695 40.23991
#
# Velocity S-wave (km/s) = 4.12828 4.32340 4.22697
# Velocity P-wave (km/s) = 6.18460 6.51585 6.35238
#
# Compressibility (1/GPa) = 0.02859894
#
# Stress axis : x y z
#
# Youngs Moduli (GPa) = 104.76003 83.58396 74.70639
#
# Poissons Ratio (x) = 0.09545 0.11461
# Poissons Ratio (y) = 0.11963 0.03527
# Poissons Ratio (z) = 0.16071 0.03946
#
# Static dielectric constant tensor:
#      x y z
#    x 4.294400 1.062580 0.107260 
#    y 1.062580 -4.012210 -0.322200 
#    z 0.107260 -0.322200 4.265280 
# 
# 
# High freq. dielectric constant tensor:
#      x y z
#    x 1.911450 -0.005700 0.012400 
#    y -0.005700 1.886970 -0.002410 
#    z 0.012400 -0.002410 1.897220 
# 
# From -- ./inp_files/206728.got.cif
#   From: 2010.06.25/outbox.cif.g09.slc.cpg/sg2_104_cif.got.tgz:206728.got - 2010.06.27 13:26:56.
