data_PCOD8037101
_publ_section_title
;
Structure prediction by ZEFSAII (Michael W. Deem and Ramdas Pophale) SiO2 
 PCOD8037101
Probable space group: P -1
;
_chemical_formula_sum "Si O2"
_cell_formula_units_Z 14
_cell_length_a 11.969868
_cell_length_b 9.144114
_cell_length_c 9.583843
_cell_angle_alpha 133.474880
_cell_angle_beta 129.016788
_cell_angle_gamma 58.943890
_cell_volume 585.042421
_symmetry_space_group_name_H-M "P -1"
_symmetry_group_IT_number 2
_symmetry_cell_setting 'triclinic'
loop_
_space_group_symop_operation_xyz
x,y,z
-x,-y,-z
loop_
_atom_site_type_symbol
_atom_site_label
_atom_site_fract_x
_atom_site_fract_y
_atom_site_fract_z
Si Si1 0.378175 0.547915 0.729685
Si Si2 0.293059 0.606279 0.174372
Si Si3 0.137972 0.472839 0.705932
Si Si4 0.471939 0.958700 0.111248
Si Si5 0.905195 0.820671 0.797140
Si Si6 0.721516 0.642428 0.732379
Si Si7 0.743006 0.941227 0.495632
O O1 0.543594 0.427677 0.782936
O O2 0.272281 0.452639 0.688523
O O3 0.315759 0.535776 0.515791
O O4 0.369427 0.783878 0.919637
O O5 0.271826 0.429497 0.151054
O O6 0.249673 0.820171 0.363688
O O7 0.178702 0.593782 0.954110
O O8 0.124753 0.232427 0.571997
O O9 0.988765 0.624048 0.644641
O O10 0.607745 0.877869 0.263452
O O11 0.403765 0.168459 0.263848
O O12 0.500000 0.000000 0.000000
O O13 0.868883 0.729695 0.859355
O O14 0.755328 0.906119 0.651858
O O15 0.000000 0.000000 0.000000
#
# Coordination Sequence:
#
# PCOD8037101 Si02
#       7
#     2   2   2   2   2   2   2
#     4  12  24  42  74 107 143 183 234 299 359 426
#     4  12  25  45  72 109 142 185 236 299 370 417
#     4  12  26  46  70 101 145 191 246 288 347 422
#     4  12  24  43  73 110 145 177 232 299 370 423
#     4  12  27  50  72 101 144 198 246 288 343 429
#     4  12  26  46  74 105 150 184 231 303 364 416
#     4  12  25  44  74 102 141 190 240 291 352 424
#
# _framework density 23.929887999999998
#
# number of rings (size 3 to 8) (size 9 to 14) (size 15 to 20)
#    0.000    0.000    7.143    3.000    0.000    1.714 
#    0.000    0.714    0.000    0.000    0.000    0.000 
#    0.000    0.000    0.000    0.000    0.000    0.000 
#
# Total GULP energy -173443.719172 kJ/mol
# GULP energy per Si atom -12388.837084 kJ/mol
# Density = 2.387542 g / cm^3
# Si number density = 23.929888 Si / 1000 Ang^3
#
#
#
# Elastic Constant Matrix: (Units=GPa)
#
#
# Indices 1 2 3 4 5 6 
#
# 1 99.5115 54.3848 26.7767 -8.9064 2.4957 -2.9727
# 2 54.3848 142.4131 44.3221 11.7493 4.0268 -10.4820
# 3 26.7767 44.3221 112.6020 6.8051 -0.9748 4.9861
# 4 -8.9064 11.7493 6.8051 49.6124 0.2964 -2.1674
# 5 2.4957 4.0268 -0.9748 0.2964 27.3700 5.3749
# 6 -2.9727 -10.4820 4.9861 -2.1674 5.3749 20.1525
#
#
#
# Elastic Compliance Matrix: (Units=1/GPa)
#
#
# Indices 1 2 3 4 5 6 
#
# 1 0.013546 -0.004969 -0.001520 0.003838 -0.000675 0.000382
# 2 -0.004969 0.010612 -0.003113 -0.002707 -0.002347 0.005891
# 3 -0.001520 -0.003113 0.010790 -0.001254 0.002013 -0.005185
# 4 0.003838 -0.002707 -0.001254 0.021748 -0.000619 0.001973
# 5 -0.000675 -0.002347 0.002013 -0.000619 0.039458 -0.012409
# 6 0.000382 0.005891 -0.005185 0.001973 -0.012409 0.057547
#
#
# Mechanical properties :
#
#
# Convention : Reuss Voigt Hill
#
# Bulk Modulus (GPa) = 63.51744 67.27707 65.39726
# Shear Modulus (GPa) = 28.06583 34.69651 31.38117
#
# Velocity S-wave (km/s) = 3.42838 3.81192 3.62523
# Velocity P-wave (km/s) = 6.50173 6.89562 6.70157
#
# Compressibility (1/GPa) = 0.01574371
#
# Stress axis : x y z
#
# Youngs Moduli (GPa) = 73.82445 94.23707 92.67554
#
# Poissons Ratio (x) = 0.46828 0.14086
# Poissons Ratio (y) = 0.36685 0.28848
# Poissons Ratio (z) = 0.11220 0.29334
#
# Static dielectric constant tensor:
#      x y z
#    x 4.087890 -0.200290 -0.081690 
#    y -0.200290 4.666690 0.275830 
#    z -0.081690 0.275830 4.806890 
# 
# 
# High freq. dielectric constant tensor:
#      x y z
#    x 1.904910 -0.010120 -0.004210 
#    y -0.010120 1.969430 0.009870 
#    z -0.004210 0.009870 1.990730 
# 
# From -- ./inp_files/242297.got.cif
#   From: 2010.06.25/outbox.cif.g09.slc.cpg/sg2_122_cif.got.tgz:242297.got - 2010.06.27 13:26:56.
