data_PCOD8037532
_publ_section_title
;
Structure prediction by ZEFSAII (Michael W. Deem and Ramdas Pophale) SiO2 
 PCOD8037532
Probable space group: P -1
;
_chemical_formula_sum "Si O2"
_cell_formula_units_Z 12
_cell_length_a 13.166099
_cell_length_b 15.079607
_cell_length_c 9.564994
_cell_angle_alpha 46.359713
_cell_angle_beta 145.410546
_cell_angle_gamma 151.655509
_cell_volume 507.645430
_symmetry_space_group_name_H-M "P -1"
_symmetry_group_IT_number 2
_symmetry_cell_setting 'triclinic'
loop_
_space_group_symop_operation_xyz
x,y,z
-x,-y,-z
loop_
_atom_site_type_symbol
_atom_site_label
_atom_site_fract_x
_atom_site_fract_y
_atom_site_fract_z
Si Si1 0.091232 0.860344 0.006565
Si Si2 0.867554 0.634165 0.491399
Si Si3 0.555983 0.986639 0.230471
Si Si4 0.616107 0.747891 0.146279
Si Si5 0.142828 0.443882 0.734115
Si Si6 0.427482 0.272624 0.552177
O O1 0.270131 0.854812 0.130515
O O2 0.046331 0.770592 0.202587
O O3 0.807596 0.749407 0.726361
O O4 0.274894 0.076229 0.002166
O O5 0.841826 0.760516 0.373347
O O6 0.727436 0.525113 0.302680
O O7 0.727229 0.477883 0.621612
O O8 0.198904 0.795368 0.673069
O O9 0.636131 0.884754 0.432967
O O10 0.500000 0.000000 0.000000
O O11 0.561952 0.747721 0.248034
O O12 0.351590 0.560267 0.971891
O O13 0.000000 0.500000 0.500000
#
# Coordination Sequence:
#
# PCOD8037532 Si02
#       6
#     2   2   2   2   2   2
#     4  12  26  48  78 108 151 194 244 309 365 436
#     4  12  27  48  75 107 150 197 247 297 371 441
#     4  12  26  45  75 113 147 185 248 303 368 432
#     4  12  25  46  78 109 147 191 250 303 368 437
#     4  12  29  49  71 109 151 198 249 298 368 444
#     4  12  26  48  80 111 147 194 244 311 369 430
#
# _framework density 23.638546999999999
#
# number of rings (size 3 to 8) (size 9 to 14) (size 15 to 20)
#    0.000    0.000    5.000    4.500    2.333    5.333 
#    0.000    0.000    0.000    0.000    0.000    0.000 
#    0.000    0.000    0.000    0.000    0.000    0.000 
#
# Total GULP energy -148769.034561 kJ/mol
# GULP energy per Si atom -12397.419547 kJ/mol
# Density = 2.358474 g / cm^3
# Si number density = 23.638547 Si / 1000 Ang^3
#
#
#
# Elastic Constant Matrix: (Units=GPa)
#
#
# Indices 1 2 3 4 5 6 
#
# 1 89.1621 44.9099 11.1307 -5.3716 -2.7694 -2.1254
# 2 44.9099 147.7437 45.6142 -24.5037 1.4244 8.2739
# 3 11.1307 45.6142 77.9098 -5.9278 2.6768 7.6219
# 4 -5.3716 -24.5037 -5.9278 47.7895 0.5891 1.4764
# 5 -2.7694 1.4244 2.6768 0.5891 28.9981 -2.7917
# 6 -2.1254 8.2739 7.6219 1.4764 -2.7917 36.6164
#
#
#
# Elastic Compliance Matrix: (Units=1/GPa)
#
#
# Indices 1 2 3 4 5 6 
#
# 1 0.013465 -0.004468 0.000391 -0.000807 0.001666 0.001869
# 2 -0.004468 0.010487 -0.004968 0.004324 -0.000747 -0.001826
# 3 0.000391 -0.004968 0.015924 -0.000441 -0.001397 -0.002258
# 4 -0.000807 0.004324 -0.000441 0.023068 -0.000903 -0.001931
# 5 0.001666 -0.000747 -0.001397 -0.000903 0.035143 0.003272
# 6 0.001869 -0.001826 -0.002258 -0.001931 0.003272 0.028629
#
#
# Mechanical properties :
#
#
# Convention : Reuss Voigt Hill
#
# Bulk Modulus (GPa) = 45.90449 57.56949 51.73699
# Shear Modulus (GPa) = 32.87988 36.89150 34.88569
#
# Velocity S-wave (km/s) = 3.73358 3.95479 3.84578
# Velocity P-wave (km/s) = 6.16828 6.72761 6.45401
#
# Compressibility (1/GPa) = 0.02178436
#
# Stress axis : x y z
#
# Youngs Moduli (GPa) = 74.26641 95.35315 62.79957
#
# Poissons Ratio (x) = 0.42607 -0.02454
# Poissons Ratio (y) = 0.33185 0.31201
# Poissons Ratio (z) = -0.02903 0.47375
#
# Static dielectric constant tensor:
#      x y z
#    x 4.329140 -0.329960 0.208020 
#    y -0.329960 4.793150 -0.066810 
#    z 0.208020 -0.066810 4.578710 
# 
# 
# High freq. dielectric constant tensor:
#      x y z
#    x 1.939520 0.001210 0.011590 
#    y 0.001210 1.952470 -0.010410 
#    z 0.011590 -0.010410 1.934970 
# 
# From -- ./inp_files/234497.got.cif
#   From: 2010.06.25/outbox.cif.g09.slc.cpg/sg2_118_cif.got.tgz:234497.got - 2010.06.27 13:26:56.
