data_PCOD8037526
_publ_section_title
;
Structure prediction by ZEFSAII (Michael W. Deem and Ramdas Pophale) SiO2 
 PCOD8037526
Probable space group: P -1
;
_chemical_formula_sum "Si O2"
_cell_formula_units_Z 12
_cell_length_a 13.170183
_cell_length_b 7.947199
_cell_length_c 12.471957
_cell_angle_alpha 97.168427
_cell_angle_beta 158.422398
_cell_angle_gamma 92.253491
_cell_volume 430.986030
_symmetry_space_group_name_H-M "P -1"
_symmetry_group_IT_number 2
_symmetry_cell_setting 'triclinic'
loop_
_space_group_symop_operation_xyz
x,y,z
-x,-y,-z
loop_
_atom_site_type_symbol
_atom_site_label
_atom_site_fract_x
_atom_site_fract_y
_atom_site_fract_z
Si Si1 0.640094 0.924475 0.003583
Si Si2 0.797123 0.395196 0.010779
Si Si3 0.257646 0.528019 0.670082
Si Si4 0.756856 0.204497 0.744420
Si Si5 0.342578 0.178442 0.709816
Si Si6 0.659428 0.716908 0.804195
O O1 0.526086 0.740765 0.953564
O O2 0.592260 0.857037 0.828353
O O3 0.462954 0.045094 0.879629
O O4 0.988215 0.063691 0.362306
O O5 0.906161 0.320749 0.007734
O O6 0.510305 0.214006 0.762082
O O7 0.665203 0.546539 0.865431
O O8 0.088490 0.480163 0.383704
O O9 0.424621 0.390781 0.848854
O O10 0.000000 0.500000 0.500000
O O11 0.616645 0.334070 0.556018
O O12 0.500000 0.000000 0.500000
O O13 0.017952 0.179564 0.930813
#
# Coordination Sequence:
#
# PCOD8037526 Si02
#       6
#     2   2   2   2   2   2
#     4  12  26  51  80 117 161 208 261 334 395 478
#     4  12  26  51  78 116 164 208 270 332 392 480
#     4  12  30  55  83 119 161 213 271 336 404 473
#     4  12  27  43  76 117 159 207 268 317 397 481
#     4  12  27  50  83 112 163 206 268 328 405 460
#     4  12  25  46  76 115 158 211 258 320 401 473
#
# _framework density 27.843129000000001
#
# number of rings (size 3 to 8) (size 9 to 14) (size 15 to 20)
#    0.000    0.000    3.333    6.500    2.333    2.000 
#    0.000    0.000    0.000    0.000    0.000    0.000 
#    0.000    0.000    0.000    0.000    0.000    0.000 
#
# Total GULP energy -148786.030111 kJ/mol
# GULP energy per Si atom -12398.835843 kJ/mol
# Density = 2.777976 g / cm^3
# Si number density = 27.843129 Si / 1000 Ang^3
#
#
#
# Elastic Constant Matrix: (Units=GPa)
#
#
# Indices 1 2 3 4 5 6 
#
# 1 142.0195 85.4350 80.7232 -1.2260 3.1446 15.3256
# 2 85.4350 211.5601 72.2881 0.2023 0.5864 0.1689
# 3 80.7232 72.2881 182.4785 13.4024 33.1597 11.3872
# 4 -1.2260 0.2023 13.4024 58.8822 4.0537 9.3408
# 5 3.1446 0.5864 33.1597 4.0537 52.7583 3.0541
# 6 15.3256 0.1689 11.3872 9.3408 3.0541 50.1284
#
#
#
# Elastic Compliance Matrix: (Units=1/GPa)
#
#
# Indices 1 2 3 4 5 6 
#
# 1 0.011682 -0.003305 -0.004147 0.001541 0.002004 -0.003028
# 2 -0.003305 0.006524 -0.001363 -0.000042 0.000912 0.001250
# 3 -0.004147 -0.001363 0.008937 -0.001738 -0.005214 -0.000116
# 4 0.001541 -0.000042 -0.001738 0.017965 -0.000182 -0.003412
# 5 0.002004 0.000912 -0.005214 -0.000182 0.022159 -0.000747
# 6 -0.003028 0.001250 -0.000116 -0.003412 -0.000747 0.021578
#
#
# Mechanical properties :
#
#
# Convention : Reuss Voigt Hill
#
# Bulk Modulus (GPa) = 105.11990 112.55008 108.83499
# Shear Modulus (GPa) = 45.60105 52.19457 48.89781
#
# Velocity S-wave (km/s) = 4.05135 4.33436 4.19524
# Velocity P-wave (km/s) = 7.72793 8.09688 7.91456
#
# Compressibility (1/GPa) = 0.00951295
#
# Stress axis : x y z
#
# Youngs Moduli (GPa) = 85.59829 153.28490 111.89544
#
# Poissons Ratio (x) = 0.50667 0.46402
# Poissons Ratio (y) = 0.28294 0.15249
# Poissons Ratio (z) = 0.35497 0.20890
#
# Static dielectric constant tensor:
#      x y z
#    x 5.776170 0.077220 -0.165570 
#    y 0.077220 5.191780 0.003450 
#    z -0.165570 0.003450 5.166410 
# 
# 
# High freq. dielectric constant tensor:
#      x y z
#    x 2.165460 0.005880 0.007500 
#    y 0.005880 2.144920 0.000690 
#    z 0.007500 0.000690 2.127590 
# 
# From -- ./inp_files/526660.got.cif
#   From: 2010.06.25/outbox.cif.g09.slc.cpg/sg2_264_cif.got.tgz:526660.got - 2010.06.27 13:26:56.
