data_PCOD8037606
_publ_section_title
;
Structure prediction by ZEFSAII (Michael W. Deem and Ramdas Pophale) SiO2 
 PCOD8037606
Probable space group: P -1
;
_chemical_formula_sum "Si O2"
_cell_formula_units_Z 16
_cell_length_a 9.406060
_cell_length_b 9.069585
_cell_length_c 25.034039
_cell_angle_alpha 28.045347
_cell_angle_beta 43.902141
_cell_angle_gamma 51.933401
_cell_volume 695.052356
_symmetry_space_group_name_H-M "P -1"
_symmetry_group_IT_number 2
_symmetry_cell_setting 'triclinic'
loop_
_space_group_symop_operation_xyz
x,y,z
-x,-y,-z
loop_
_atom_site_type_symbol
_atom_site_label
_atom_site_fract_x
_atom_site_fract_y
_atom_site_fract_z
Si Si1 0.796471 0.486777 0.467869
Si Si2 0.753402 0.767132 0.729202
Si Si3 0.979163 0.699786 0.995010
Si Si4 0.517444 0.657075 0.127598
Si Si5 0.743050 0.315794 0.709637
Si Si6 0.511874 0.670123 0.572949
Si Si7 0.267621 0.371070 0.100277
Si Si8 0.118152 0.412574 0.706511
O O1 0.652922 0.712551 0.468126
O O2 0.772984 0.579918 0.382925
O O3 0.030979 0.527745 0.409928
O O4 0.718541 0.129680 0.613817
O O5 0.537340 0.585874 0.828368
O O6 0.813673 0.694237 0.797088
O O7 0.936817 0.652063 0.679540
O O8 0.022412 0.066278 0.854742
O O9 0.126414 0.612364 0.031603
O O10 0.000000 0.500000 0.000000
O O11 0.743839 0.629525 0.099372
O O12 0.353680 0.569078 0.246295
O O13 0.500000 0.000000 0.000000
O O14 0.609070 0.411303 0.665777
O O15 0.748194 0.941858 0.830686
O O16 0.284537 0.529121 0.667539
O O17 0.500000 0.000000 0.500000
O O18 0.500000 0.500000 0.000000
#
# Coordination Sequence:
#
# PCOD8037606 Si02
#       8
#     2   2   2   2   2   2   2   2
#     4  12  26  52  73 107 148 204 244 306 389 444
#     4  12  26  47  77 105 153 197 248 305 376 454
#     4  12  27  47  79 112 151 199 254 308 380 447
#     4  12  25  48  74 111 149 198 252 308 375 450
#     4  12  26  49  73 105 152 195 245 313 376 446
#     4  12  29  46  73 111 148 190 253 310 378 449
#     4  12  27  48  76 106 152 202 250 307 375 443
#     4  12  27  48  74 111 149 195 249 312 372 453
#
# _framework density 23.019849000000001
#
# number of rings (size 3 to 8) (size 9 to 14) (size 15 to 20)
#    0.000    0.000    3.750    5.625    7.000    1.500 
#    0.000    0.000    0.000    0.000    0.000    0.000 
#    0.000    0.000    0.000    0.000    0.000    0.000 
#
# Total GULP energy -198520.364568 kJ/mol
# GULP energy per Si atom -12407.522785 kJ/mol
# Density = 2.296745 g / cm^3
# Si number density = 23.019849 Si / 1000 Ang^3
#
#
#
# Elastic Constant Matrix: (Units=GPa)
#
#
# Indices 1 2 3 4 5 6 
#
# 1 148.2306 26.9750 41.5858 -5.5502 -22.6990 -1.6311
# 2 26.9750 124.8466 42.4701 -3.3411 -13.3621 3.7203
# 3 41.5858 42.4701 106.7346 -8.9186 -18.1760 4.2393
# 4 -5.5502 -3.3411 -8.9186 37.9303 4.0134 -3.2947
# 5 -22.6990 -13.3621 -18.1760 4.0134 46.1847 2.1308
# 6 -1.6311 3.7203 4.2393 -3.2947 2.1308 38.3060
#
#
#
# Elastic Compliance Matrix: (Units=1/GPa)
#
#
# Indices 1 2 3 4 5 6 
#
# 1 0.007966 -0.000624 -0.002384 0.000306 0.002745 0.000537
# 2 -0.000624 0.009403 -0.003291 -0.000218 0.001168 -0.000659
# 3 -0.002384 -0.003291 0.012249 0.001870 0.002586 -0.001120
# 4 0.000306 -0.000218 0.001870 0.027200 -0.001644 0.002258
# 5 0.002745 0.001168 0.002586 -0.001644 0.024582 -0.001792
# 6 0.000537 -0.000659 -0.001120 0.002258 -0.001792 0.026610
#
#
# Mechanical properties :
#
#
# Convention : Reuss Voigt Hill
#
# Bulk Modulus (GPa) = 58.75753 66.87484 62.81619
# Shear Modulus (GPa) = 39.59372 42.40292 40.99832
#
# Velocity S-wave (km/s) = 4.15177 4.29653 4.22477
# Velocity P-wave (km/s) = 6.96872 7.32991 7.15159
#
# Compressibility (1/GPa) = 0.01701909
#
# Stress axis : x y z
#
# Youngs Moduli (GPa) = 125.52780 106.34661 81.64221
#
# Poissons Ratio (x) = 0.06640 0.19461
# Poissons Ratio (y) = 0.07838 0.26872
# Poissons Ratio (z) = 0.29921 0.35004
#
# Static dielectric constant tensor:
#      x y z
#    x 4.773310 0.160060 -0.087080 
#    y 0.160060 4.434310 0.112170 
#    z -0.087080 0.112170 4.120660 
# 
# 
# High freq. dielectric constant tensor:
#      x y z
#    x 1.928600 0.005170 -0.008960 
#    y 0.005170 1.917730 0.001540 
#    z -0.008960 0.001540 1.914810 
# 
# From -- ./inp_files/606553.got.cif
#   From: 2010.06.25/outbox.cif.g09.slc.cpg/sg2_304_cif.got.tgz:606553.got - 2010.06.27 13:26:56.
