data_PCOD8037945
_publ_section_title
;
Structure prediction by ZEFSAII (Michael W. Deem and Ramdas Pophale) SiO2 
 PCOD8037945
Probable space group: P -1
;
_chemical_formula_sum "Si O2"
_cell_formula_units_Z 16
_cell_length_a 11.244328
_cell_length_b 11.692051
_cell_length_c 13.380330
_cell_angle_alpha 119.495345
_cell_angle_beta 114.389099
_cell_angle_gamma 114.999322
_cell_volume 855.727766
_symmetry_space_group_name_H-M "P -1"
_symmetry_group_IT_number 2
_symmetry_cell_setting 'triclinic'
loop_
_space_group_symop_operation_xyz
x,y,z
-x,-y,-z
loop_
_atom_site_type_symbol
_atom_site_label
_atom_site_fract_x
_atom_site_fract_y
_atom_site_fract_z
Si Si1 0.522923 0.574411 0.743717
Si Si2 0.026128 0.122842 0.974122
Si Si3 0.922305 0.839453 0.655692
Si Si4 0.662938 0.638293 0.206983
Si Si5 0.895811 0.078077 0.462496
Si Si6 0.114396 0.731356 0.750154
Si Si7 0.347576 0.040872 0.133821
Si Si8 0.236803 0.754911 0.582679
O O1 0.333697 0.364747 0.522180
O O2 0.451482 0.527071 0.813373
O O3 0.579304 0.765947 0.809922
O O4 0.725568 0.636707 0.832405
O O5 0.990166 0.028256 0.812762
O O6 0.857525 0.105145 0.927137
O O7 0.000000 0.000000 0.000000
O O8 0.025068 0.911124 0.613247
O O9 0.994155 0.774220 0.719438
O O10 0.894952 0.752306 0.319628
O O11 0.717262 0.834407 0.335329
O O12 0.500000 0.500000 0.000000
O O13 0.785522 0.131817 0.442194
O O14 0.222372 0.774343 0.703346
O O15 0.948712 0.489008 0.622566
O O16 0.292831 0.889601 0.965062
O O17 0.535156 0.131556 0.306853
#
# Coordination Sequence:
#
# PCOD8037945 Si02
#       8
#     2   2   2   2   2   2   2   2
#     4  10  20  32  52  79 106 138 173 213 267 305
#     4  10  20  31  49  77 110 141 178 214 250 308
#     4  10  17  33  52  73 112 137 168 219 258 307
#     4  10  20  34  57  78 102 135 174 223 266 303
#     4   9  21  36  53  82 106 132 178 214 261 319
#     4  10  19  31  49  74 106 143 168 203 253 319
#     4  11  21  33  50  81 112 139 175 206 259 316
#     4  10  21  34  51  74 110 146 168 204 264 318
#
# _framework density 18.697534999999998
#
# number of rings (size 3 to 8) (size 9 to 14) (size 15 to 20)
#    0.000    2.000    3.750    1.125    3.500    4.000 
#    0.000    0.000    0.000    0.750    0.000   13.125 
#    0.000    0.000    0.000    0.000    0.000    0.000 
#
# Total GULP energy -198315.575359 kJ/mol
# GULP energy per Si atom -12394.723460 kJ/mol
# Density = 1.865498 g / cm^3
# Si number density = 18.697535 Si / 1000 Ang^3
#
#
#
# Elastic Constant Matrix: (Units=GPa)
#
#
# Indices 1 2 3 4 5 6 
#
# 1 67.4011 19.1953 22.7662 3.4443 22.6556 -12.9753
# 2 19.1953 55.4194 20.8430 0.6111 13.2446 -19.2041
# 3 22.7662 20.8430 93.3821 -2.0552 23.9490 -5.6451
# 4 3.4443 0.6111 -2.0552 23.4814 1.3762 3.0274
# 5 22.6556 13.2446 23.9490 1.3762 35.7774 -4.3481
# 6 -12.9753 -19.2041 -5.6451 3.0274 -4.3481 24.0757
#
#
#
# Elastic Compliance Matrix: (Units=1/GPa)
#
#
# Indices 1 2 3 4 5 6 
#
# 1 0.021174 -0.001083 -0.001749 -0.003727 -0.010637 0.008685
# 2 -0.001083 0.028035 -0.003635 -0.003260 -0.004643 0.020497
# 3 -0.001749 -0.003635 0.013672 0.002244 -0.007051 -0.002192
# 4 -0.003727 -0.003260 0.002244 0.044736 -0.000855 -0.009862
# 5 -0.010637 -0.004643 -0.007051 -0.000855 0.040717 -0.003628
# 6 0.008685 0.020497 -0.002192 -0.009862 -0.003628 0.062637
#
#
# Mechanical properties :
#
#
# Convention : Reuss Voigt Hill
#
# Bulk Modulus (GPa) = 20.02213 37.97907 29.00060
# Shear Modulus (GPa) = 20.78534 26.89345 23.83939
#
# Velocity S-wave (km/s) = 3.33778 3.79666 3.57459
# Velocity P-wave (km/s) = 5.05826 6.29094 5.70798
#
# Compressibility (1/GPa) = 0.04994473
#
# Stress axis : x y z
#
# Youngs Moduli (GPa) = 47.22839 35.66980 73.14374
#
# Poissons Ratio (x) = 0.03864 0.12795
# Poissons Ratio (y) = 0.05116 0.26590
# Poissons Ratio (z) = 0.08262 0.12967
#
# Static dielectric constant tensor:
#      x y z
#    x 3.537480 0.012390 0.309520 
#    y 0.012390 3.278060 0.066390 
#    z 0.309520 0.066390 3.773790 
# 
# 
# High freq. dielectric constant tensor:
#      x y z
#    x 1.699380 -0.003670 0.019600 
#    y -0.003670 1.695370 0.003070 
#    z 0.019600 0.003070 1.745850 
# 
# From -- ./inp_files/431653.got.cif
#   From: 2010.06.25/outbox.cif.g09.slc.cpg/sg2_216_cif.got.tgz:431653.got - 2010.06.27 13:26:56.
