data_PCOD8037855
_publ_section_title
;
Structure prediction by ZEFSAII (Michael W. Deem and Ramdas Pophale) SiO2 
 PCOD8037855
Probable space group: P -1
;
_chemical_formula_sum "Si O2"
_cell_formula_units_Z 16
_cell_length_a 22.815935
_cell_length_b 14.643157
_cell_length_c 11.085277
_cell_angle_alpha 152.092508
_cell_angle_beta 149.251132
_cell_angle_gamma 26.439042
_cell_volume 729.380117
_symmetry_space_group_name_H-M "P -1"
_symmetry_group_IT_number 2
_symmetry_cell_setting 'triclinic'
loop_
_space_group_symop_operation_xyz
x,y,z
-x,-y,-z
loop_
_atom_site_type_symbol
_atom_site_label
_atom_site_fract_x
_atom_site_fract_y
_atom_site_fract_z
Si Si1 0.012524 0.417294 0.729384
Si Si2 0.640044 0.079445 0.522173
Si Si3 0.348273 0.495618 0.510610
Si Si4 0.618341 0.215416 0.260776
Si Si5 0.860942 0.575262 0.409535
Si Si6 0.047292 0.747832 0.341198
Si Si7 0.684978 0.819192 0.064953
Si Si8 0.303859 0.631748 0.202028
O O1 0.887651 0.508651 0.520191
O O2 0.014057 0.235080 0.614414
O O3 0.152937 0.289707 0.749341
O O4 0.991856 0.638301 0.023517
O O5 0.498007 0.279670 0.576880
O O6 0.712506 0.208022 0.754534
O O7 0.745074 0.859085 0.534963
O O8 0.598087 0.985586 0.220384
O O9 0.344247 0.729771 0.740262
O O10 0.216478 0.575732 0.454721
O O11 0.334761 0.392805 0.237583
O O12 0.455775 0.394287 0.201889
O O13 0.717101 0.222183 0.543869
O O14 0.647832 0.956655 0.029174
O O15 0.000000 0.500000 0.500000
O O16 0.807005 0.434002 0.082052
O O17 0.000000 0.000000 0.500000
#
# Coordination Sequence:
#
# PCOD8037855 Si02
#       8
#     2   2   2   2   2   2   2   2
#     4  10  23  39  57  89 118 155 208 239 294 362
#     4  10  20  35  53  87 120 155 191 235 299 360
#     4  10  19  32  60  85 111 150 202 247 293 345
#     4   9  17  32  54  84 116 152 194 239 288 343
#     4  12  23  38  57  86 130 165 189 236 305 368
#     4  10  22  42  64  84 113 157 208 258 290 333
#     4  10  17  32  54  85 119 153 186 245 296 350
#     4   9  20  33  52  83 122 157 192 233 289 360
#
# _framework density 21.936437000000002
#
# number of rings (size 3 to 8) (size 9 to 14) (size 15 to 20)
#    0.000    2.000    1.250    3.375    1.750    1.500 
#    0.000    0.625    0.000    3.750    0.000    0.000 
#    0.000    0.000    0.000    0.000    0.000    0.000 
#
# Total GULP energy -198275.935243 kJ/mol
# GULP energy per Si atom -12392.245953 kJ/mol
# Density = 2.188651 g / cm^3
# Si number density = 21.936437 Si / 1000 Ang^3
#
#
#
# Elastic Constant Matrix: (Units=GPa)
#
#
# Indices 1 2 3 4 5 6 
#
# 1 43.9755 6.5762 13.1783 0.2823 5.9935 3.0581
# 2 6.5762 94.1063 15.1673 8.1314 -0.4665 21.0804
# 3 13.1783 15.1673 69.9704 -0.6465 15.8780 11.2570
# 4 0.2823 8.1314 -0.6465 29.4784 5.9296 4.4738
# 5 5.9935 -0.4665 15.8780 5.9296 24.4434 -0.0198
# 6 3.0581 21.0804 11.2570 4.4738 -0.0198 36.2553
#
#
#
# Elastic Compliance Matrix: (Units=1/GPa)
#
#
# Indices 1 2 3 4 5 6 
#
# 1 0.024501 -0.001166 -0.003356 0.000902 -0.004069 -0.000460
# 2 -0.001166 0.012743 -0.002181 -0.003148 0.002705 -0.006244
# 3 -0.003356 -0.002181 0.019109 0.004353 -0.012692 -0.004926
# 4 0.000902 -0.003148 0.004353 0.038011 -0.012334 -0.004294
# 5 -0.004069 0.002705 -0.012692 -0.012334 0.053200 0.004262
# 6 -0.000460 -0.006244 -0.004926 -0.004294 0.004262 0.033313
#
#
# Mechanical properties :
#
#
# Convention : Reuss Voigt Hill
#
# Bulk Modulus (GPa) = 23.28441 30.87733 27.08087
# Shear Modulus (GPa) = 23.96928 29.57746 26.77337
#
# Velocity S-wave (km/s) = 3.30914 3.67594 3.49735
# Velocity P-wave (km/s) = 5.02375 5.66772 5.35543
#
# Compressibility (1/GPa) = 0.04294718
#
# Stress axis : x y z
#
# Youngs Moduli (GPa) = 40.81500 78.47178 52.33003
#
# Poissons Ratio (x) = 0.09152 0.17562
# Poissons Ratio (y) = 0.04760 0.11413
# Poissons Ratio (z) = 0.13698 0.17114
#
# Static dielectric constant tensor:
#      x y z
#    x 3.703490 0.048270 0.374270 
#    y 0.048270 4.128800 0.121580 
#    z 0.374270 0.121580 3.860430 
# 
# 
# High freq. dielectric constant tensor:
#      x y z
#    x 1.833770 -0.000730 0.043770 
#    y -0.000730 1.875920 0.011380 
#    z 0.043770 0.011380 1.839830 
# 
# From -- ./inp_files/475094.got.cif
#   From: 2010.06.25/outbox.cif.g09.slc.cpg/sg2_238_cif.got.tgz:475094.got - 2010.06.27 13:26:56.
