data_PCOD8037576
_publ_section_title
;
Structure prediction by ZEFSAII (Michael W. Deem and Ramdas Pophale) SiO2 
 PCOD8037576
Probable space group: P -1
;
_chemical_formula_sum "Si O2"
_cell_formula_units_Z 16
_cell_length_a 8.440850
_cell_length_b 9.342629
_cell_length_c 14.223986
_cell_angle_alpha 111.604322
_cell_angle_beta 79.439320
_cell_angle_gamma 52.588549
_cell_volume 691.233994
_symmetry_space_group_name_H-M "P -1"
_symmetry_group_IT_number 2
_symmetry_cell_setting 'triclinic'
loop_
_space_group_symop_operation_xyz
x,y,z
-x,-y,-z
loop_
_atom_site_type_symbol
_atom_site_label
_atom_site_fract_x
_atom_site_fract_y
_atom_site_fract_z
Si Si1 0.042236 0.014213 0.167427
Si Si2 0.511984 0.356195 0.389904
Si Si3 0.215985 0.183874 0.075596
Si Si4 0.129600 0.627761 0.001730
Si Si5 0.394667 0.817592 0.249436
Si Si6 0.502370 0.970546 0.604490
Si Si7 0.982767 0.370941 0.779625
Si Si8 0.821806 0.253848 0.619067
O O1 0.097064 0.124942 0.126778
O O2 0.762795 0.180064 0.262876
O O3 0.141558 0.805254 0.040885
O O4 0.179220 0.933828 0.230653
O O5 0.500000 0.500000 0.500000
O O6 0.288089 0.545162 0.391872
O O7 0.456255 0.235556 0.420699
O O8 0.130797 0.393828 0.193196
O O9 0.110545 0.260288 0.998927
O O10 0.500000 0.000000 0.000000
O O11 0.144007 0.577782 0.097124
O O12 0.351143 0.379417 0.874986
O O13 0.327337 0.029782 0.357677
O O14 0.398589 0.682097 0.295365
O O15 0.257193 0.204600 0.730777
O O16 0.500000 0.000000 0.500000
O O17 0.970832 0.241430 0.676500
O O18 0.000000 0.000000 0.500000
#
# Coordination Sequence:
#
# PCOD8037576 Si02
#       8
#     2   2   2   2   2   2   2   2
#     4  12  27  46  74 112 151 199 251 304 380 449
#     4  12  27  49  79 107 152 200 250 310 380 450
#     4  12  29  43  72 114 152 191 253 309 368 455
#     4  12  25  50  73 106 151 205 243 307 391 444
#     4  12  25  47  77 110 152 195 251 310 375 453
#     4  12  27  49  77 112 147 195 251 317 376 444
#     4  12  26  47  74 104 151 195 245 311 380 444
#     4  12  27  51  75 108 150 201 252 306 378 453
#
# _framework density 23.147012
#
# number of rings (size 3 to 8) (size 9 to 14) (size 15 to 20)
#    0.000    0.000    3.750    5.625    8.750    0.000 
#    0.000    1.875    0.000    0.000    0.000    0.000 
#    0.000    0.000    0.000    0.000    0.000    0.000 
#
# Total GULP energy -198314.971379 kJ/mol
# GULP energy per Si atom -12394.685711 kJ/mol
# Density = 2.309433 g / cm^3
# Si number density = 23.147012 Si / 1000 Ang^3
#
#
#
# Elastic Constant Matrix: (Units=GPa)
#
#
# Indices 1 2 3 4 5 6 
#
# 1 109.2811 48.9483 37.7194 4.9366 25.3428 5.5121
# 2 48.9483 141.9341 46.8842 6.7682 2.3104 11.7137
# 3 37.7194 46.8842 110.2874 2.0734 26.5663 4.8794
# 4 4.9366 6.7682 2.0734 37.3801 5.5571 4.3400
# 5 25.3428 2.3104 26.5663 5.5571 45.5321 2.8949
# 6 5.5121 11.7137 4.8794 4.3400 2.8949 52.4621
#
#
#
# Elastic Compliance Matrix: (Units=1/GPa)
#
#
# Indices 1 2 3 4 5 6 
#
# 1 0.012750 -0.003895 -0.001213 0.000011 -0.006192 -0.000016
# 2 -0.003895 0.009742 -0.003705 -0.001478 0.004112 -0.001526
# 3 -0.001213 -0.003705 0.012635 0.001112 -0.006648 0.000054
# 4 0.000011 -0.001478 0.001112 0.027744 -0.003848 -0.001857
# 5 -0.006192 0.004112 -0.006648 -0.003848 0.029610 -0.000965
# 6 -0.000016 -0.001526 0.000054 -0.001857 -0.000965 0.019606
#
#
# Mechanical properties :
#
#
# Convention : Reuss Voigt Hill
#
# Bulk Modulus (GPa) = 57.13553 69.84517 63.49035
# Shear Modulus (GPa) = 36.88781 42.27156 39.57969
#
# Velocity S-wave (km/s) = 3.99636 4.27807 4.13961
# Velocity P-wave (km/s) = 6.78468 7.39206 7.09487
#
# Compressibility (1/GPa) = 0.01750224
#
# Stress axis : x y z
#
# Youngs Moduli (GPa) = 78.43082 102.64911 79.14478
#
# Poissons Ratio (x) = 0.39980 0.09600
# Poissons Ratio (y) = 0.30547 0.29320
# Poissons Ratio (z) = 0.09514 0.38028
#
# Static dielectric constant tensor:
#      x y z
#    x 4.570250 0.086130 0.224990 
#    y 0.086130 4.598630 0.065980 
#    z 0.224990 0.065980 4.110370 
# 
# 
# High freq. dielectric constant tensor:
#      x y z
#    x 1.933350 0.009680 0.013670 
#    y 0.009680 1.922090 0.001080 
#    z 0.013670 0.001080 1.924740 
# 
# From -- ./inp_files/494918.got.cif
#   From: 2010.06.25/outbox.cif.g09.slc.cpg/sg2_248_cif.got.tgz:494918.got - 2010.06.27 13:26:56.
