data_PCOD8037189
_publ_section_title
;
Structure prediction by ZEFSAII (Michael W. Deem and Ramdas Pophale) SiO2 
 PCOD8037189
Probable space group: P -1
;
_chemical_formula_sum "Si O2"
_cell_formula_units_Z 16
_cell_length_a 18.972832
_cell_length_b 18.212242
_cell_length_c 8.831954
_cell_angle_alpha 142.111569
_cell_angle_beta 30.707857
_cell_angle_gamma 152.172862
_cell_volume 722.131975
_symmetry_space_group_name_H-M "P -1"
_symmetry_group_IT_number 2
_symmetry_cell_setting 'triclinic'
loop_
_space_group_symop_operation_xyz
x,y,z
-x,-y,-z
loop_
_atom_site_type_symbol
_atom_site_label
_atom_site_fract_x
_atom_site_fract_y
_atom_site_fract_z
Si Si1 0.715111 0.465075 0.859195
Si Si2 0.484849 0.878398 0.228794
Si Si3 0.331072 0.914165 0.277444
Si Si4 0.508139 0.547679 0.234607
Si Si5 0.018543 0.566789 0.238874
Si Si6 0.809419 0.925009 0.299226
Si Si7 0.890281 0.039979 0.676978
Si Si8 0.154260 0.407066 0.849730
O O1 0.651536 0.295710 0.734737
O O2 0.845124 0.532677 0.581493
O O3 0.544853 0.450732 0.106921
O O4 0.797112 0.578849 0.040232
O O5 0.387122 0.874178 0.255937
O O6 0.500000 0.000000 0.500000
O O7 0.683119 0.931225 0.939587
O O8 0.161665 0.753009 0.251339
O O9 0.281210 0.026239 0.564160
O O10 0.500000 0.000000 0.000000
O O11 0.668937 0.735688 0.263109
O O12 0.320255 0.492532 0.561178
O O13 0.500000 0.500000 0.000000
O O14 0.079494 0.498561 0.129370
O O15 0.000000 0.500000 0.000000
O O16 0.866972 0.003177 0.484104
O O17 0.000000 0.000000 0.000000
O O18 0.996844 0.224292 0.801757
O O19 0.000000 0.000000 0.500000
#
# Coordination Sequence:
#
# PCOD8037189 Si02
#       8
#     2   2   2   2   2   2   2   2
#     4  12  26  48  71 106 142 184 241 292 359 425
#     4  12  28  45  74 107 143 191 233 299 362 421
#     4  12  26  48  72 104 149 186 239 293 358 429
#     4  12  26  46  72 103 142 191 237 291 356 424
#     4  12  26  45  73 105 141 186 234 293 356 425
#     4  12  26  46  72 103 143 188 240 291 355 427
#     4  12  26  46  70 104 140 187 239 293 357 422
#     4  12  24  45  70 100 142 180 237 292 349 422
#
# _framework density 22.156614000000001
#
# number of rings (size 3 to 8) (size 9 to 14) (size 15 to 20)
#    0.000    0.000    2.500    7.500    7.000    0.000 
#    0.000    0.000    0.000    0.000    0.000    0.000 
#    0.000    0.000    0.000    0.000    0.000    0.000 
#
# Total GULP energy -198347.721896 kJ/mol
# GULP energy per Si atom -12396.732619 kJ/mol
# Density = 2.210618 g / cm^3
# Si number density = 22.156614 Si / 1000 Ang^3
#
#
#
# Elastic Constant Matrix: (Units=GPa)
#
#
# Indices 1 2 3 4 5 6 
#
# 1 107.3620 31.8460 19.5775 11.7568 -2.7262 3.1500
# 2 31.8460 143.7265 35.3514 1.2545 16.5902 -1.4510
# 3 19.5775 35.3514 115.8524 -10.6392 2.0843 3.8096
# 4 11.7568 1.2545 -10.6392 45.6597 -2.2642 -0.5632
# 5 -2.7262 16.5902 2.0843 -2.2642 56.9729 14.1822
# 6 3.1500 -1.4510 3.8096 -0.5632 14.1822 37.5425
#
#
#
# Elastic Compliance Matrix: (Units=1/GPa)
#
#
# Indices 1 2 3 4 5 6 
#
# 1 0.010608 -0.002164 -0.001381 -0.002941 0.001424 -0.001415
# 2 -0.002164 0.008340 -0.002215 -0.000310 -0.002918 0.001826
# 3 -0.001381 -0.002215 0.009818 0.002721 0.000616 -0.001158
# 4 -0.002941 -0.000310 0.002721 0.023339 0.000774 0.000017
# 5 0.001424 -0.002918 0.000616 0.000774 0.020474 -0.008017
# 6 -0.001415 0.001826 -0.001158 0.000017 -0.008017 0.029972
#
#
# Mechanical properties :
#
#
# Convention : Reuss Voigt Hill
#
# Bulk Modulus (GPa) = 57.98840 60.05453 59.02146
# Shear Modulus (GPa) = 41.72924 46.71274 44.22099
#
# Velocity S-wave (km/s) = 4.34450 4.59660 4.47233
# Velocity P-wave (km/s) = 7.16904 7.43875 7.30514
#
# Compressibility (1/GPa) = 0.01724483
#
# Stress axis : x y z
#
# Youngs Moduli (GPa) = 94.27168 119.90560 101.85432
#
# Poissons Ratio (x) = 0.25942 0.14071
# Poissons Ratio (y) = 0.20396 0.22564
# Poissons Ratio (z) = 0.13024 0.26563
#
# Static dielectric constant tensor:
#      x y z
#    x 4.228780 -0.041410 -0.169240 
#    y -0.041410 4.272790 0.036310 
#    z -0.169240 0.036310 4.288780 
# 
# 
# High freq. dielectric constant tensor:
#      x y z
#    x 1.888500 -0.001540 -0.004300 
#    y -0.001540 1.890990 0.002490 
#    z -0.004300 0.002490 1.891560 
# 
# From -- ./inp_files/207408.got.cif
#   From: 2010.06.25/outbox.cif.g09.slc.cpg/sg2_104_cif.got.tgz:207408.got - 2010.06.27 13:26:56.
