data_PCOD8037975
_publ_section_title
;
Structure prediction by ZEFSAII (Michael W. Deem and Ramdas Pophale) SiO2 
 PCOD8037975
Probable space group: P -1
;
_chemical_formula_sum "Si O2"
_cell_formula_units_Z 16
_cell_length_a 11.842019
_cell_length_b 9.281091
_cell_length_c 14.045382
_cell_angle_alpha 134.106007
_cell_angle_beta 131.533007
_cell_angle_gamma 50.716694
_cell_volume 786.293724
_symmetry_space_group_name_H-M "P -1"
_symmetry_group_IT_number 2
_symmetry_cell_setting 'triclinic'
loop_
_space_group_symop_operation_xyz
x,y,z
-x,-y,-z
loop_
_atom_site_type_symbol
_atom_site_label
_atom_site_fract_x
_atom_site_fract_y
_atom_site_fract_z
Si Si1 0.544041 0.761137 0.170609
Si Si2 0.964603 0.390033 0.102848
Si Si3 0.754823 0.303476 0.095785
Si Si4 0.399258 0.827423 0.568115
Si Si5 0.855870 0.914019 0.095184
Si Si6 0.342229 0.310268 0.009610
Si Si7 0.446943 0.449958 0.303600
Si Si8 0.120031 0.710285 0.297329
O O1 0.656148 0.544503 0.180666
O O2 0.572680 0.950748 0.334572
O O3 0.358956 0.774906 0.076439
O O4 0.586146 0.783275 0.094057
O O5 0.918787 0.291942 0.128388
O O6 0.023800 0.592008 0.254914
O O7 0.808629 0.480442 0.992182
O O8 0.095402 0.212814 0.035001
O O9 0.800217 0.162033 0.150876
O O10 0.493076 0.656652 0.460268
O O11 0.466355 0.748357 0.673049
O O12 0.210260 0.848314 0.470739
O O13 0.004450 0.863090 0.226582
O O14 0.706802 0.867329 0.040091
O O15 0.476565 0.378909 0.176911
O O16 0.254336 0.513484 0.232477
#
# Coordination Sequence:
#
# PCOD8037975 Si02
#       8
#     2   2   2   2   2   2   2   2
#     4  10  22  39  53  78 117 145 179 220 266 328
#     4  10  17  33  55  83 111 138 178 229 271 318
#     4  10  23  34  51  78 113 155 178 209 269 332
#     4   9  18  33  55  82 110 140 175 226 275 313
#     4  11  17  32  55  84 108 139 185 227 267 311
#     4  10  18  33  60  84 106 136 182 237 269 300
#     4   9  16  31  56  87 104 129 179 236 268 307
#     4   9  17  32  57  83 104 129 177 239 268 303
#
# _framework density 20.348631000000001
#
# number of rings (size 3 to 8) (size 9 to 14) (size 15 to 20)
#    0.750    1.500    2.500    1.875    0.000    2.000 
#    0.000    6.250    0.000   16.500    0.000    0.000 
#    0.000    0.000    0.000    0.000    0.000    0.000 
#
# Total GULP energy -198218.929079 kJ/mol
# GULP energy per Si atom -12388.683067 kJ/mol
# Density = 2.030232 g / cm^3
# Si number density = 20.348631 Si / 1000 Ang^3
#
#
#
# Elastic Constant Matrix: (Units=GPa)
#
#
# Indices 1 2 3 4 5 6 
#
# 1 66.1783 26.2301 5.1992 6.2575 10.9078 15.3425
# 2 26.2301 121.0414 44.3222 5.6411 8.4651 23.8607
# 3 5.1992 44.3222 92.9374 8.2231 16.9647 6.3054
# 4 6.2575 5.6411 8.2231 30.9362 4.3018 5.7241
# 5 10.9078 8.4651 16.9647 4.3018 23.8738 0.5290
# 6 15.3425 23.8607 6.3054 5.7241 0.5290 24.3548
#
#
#
# Elastic Compliance Matrix: (Units=1/GPa)
#
#
# Indices 1 2 3 4 5 6 
#
# 1 0.020007 -0.002542 0.002659 -0.001024 -0.009716 -0.010350
# 2 -0.002542 0.012609 -0.005430 0.001378 0.000515 -0.009681
# 3 0.002659 -0.005430 0.015132 -0.002319 -0.009635 0.000482
# 4 -0.001024 0.001378 -0.002319 0.035049 -0.004505 -0.008244
# 5 -0.009716 0.000515 -0.009635 -0.004505 0.053624 0.008004
# 6 -0.010350 -0.009681 0.000482 -0.008244 0.008004 0.058703
#
#
# Mechanical properties :
#
#
# Convention : Reuss Voigt Hill
#
# Bulk Modulus (GPa) = 26.93787 47.96223 37.45005
# Shear Modulus (GPa) = 22.92265 29.46001 26.19133
#
# Velocity S-wave (km/s) = 3.35997 3.80908 3.59155
# Velocity P-wave (km/s) = 5.32160 6.55491 5.97019
#
# Compressibility (1/GPa) = 0.03712247
#
# Stress axis : x y z
#
# Youngs Moduli (GPa) = 49.98259 79.30808 66.08408
#
# Poissons Ratio (x) = 0.20159 -0.17573
# Poissons Ratio (y) = 0.12705 0.35886
# Poissons Ratio (z) = -0.13292 0.43067
#
# Static dielectric constant tensor:
#      x y z
#    x 3.576470 0.018340 0.227270 
#    y 0.018340 3.638560 -0.028380 
#    z 0.227270 -0.028380 3.465680 
# 
# 
# High freq. dielectric constant tensor:
#      x y z
#    x 1.766950 -0.001570 0.015660 
#    y -0.001570 1.799600 -0.001110 
#    z 0.015660 -0.001110 1.771220 
# 
# From -- ./inp_files/516294.got.cif
#   From: 2010.06.25/outbox.cif.g09.slc.cpg/sg2_259_cif.got.tgz:516294.got - 2010.06.27 13:26:56.
