data_PCOD8037908
_publ_section_title
;
Structure prediction by ZEFSAII (Michael W. Deem and Ramdas Pophale) SiO2 
 PCOD8037908
Probable space group: P -1
;
_chemical_formula_sum "Si O2"
_cell_formula_units_Z 16
_cell_length_a 17.691350
_cell_length_b 10.957468
_cell_length_c 9.089429
_cell_angle_alpha 71.993520
_cell_angle_beta 149.274539
_cell_angle_gamma 117.844907
_cell_volume 779.194415
_symmetry_space_group_name_H-M "P -1"
_symmetry_group_IT_number 2
_symmetry_cell_setting 'triclinic'
loop_
_space_group_symop_operation_xyz
x,y,z
-x,-y,-z
loop_
_atom_site_type_symbol
_atom_site_label
_atom_site_fract_x
_atom_site_fract_y
_atom_site_fract_z
Si Si1 0.048801 0.443394 0.458253
Si Si2 0.260268 0.639719 0.220673
Si Si3 0.588939 0.563806 0.402743
Si Si4 0.657717 0.794184 0.206824
Si Si5 0.278737 0.705690 0.562477
Si Si6 0.661855 0.009183 0.342889
Si Si7 0.422065 0.218421 0.468399
Si Si8 0.265486 0.289701 0.926043
O O1 0.190582 0.567054 0.562716
O O2 0.110637 0.326377 0.656488
O O3 0.000000 0.500000 0.500000
O O4 0.894068 0.368996 0.124423
O O5 0.277773 0.491032 0.297460
O O6 0.231920 0.677100 0.324876
O O7 0.420491 0.761545 0.372469
O O8 0.671639 0.666485 0.367119
O O9 0.535480 0.643882 0.409846
O O10 0.431696 0.430116 0.134866
O O11 0.744635 0.939863 0.391520
O O12 0.750544 0.811338 0.202359
O O13 0.469906 0.758632 0.881173
O O14 0.226238 0.828258 0.489577
O O15 0.624622 0.922193 0.464690
O O16 0.500000 0.000000 0.000000
O O17 0.272911 0.205556 0.116973
#
# Coordination Sequence:
#
# PCOD8037908 Si02
#       8
#     2   2   2   2   2   2   2   2
#     4  12  25  37  59  89 126 158 185 237 304 356
#     4  11  22  35  58  92 120 154 188 242 301 348
#     4  10  17  32  58  83 120 148 194 243 286 341
#     4  10  18  35  61  88 112 153 198 247 286 337
#     4  11  21  40  57  88 122 155 196 240 293 347
#     4   9  22  37  61  89 116 153 196 250 287 337
#     4  10  20  36  60  90 116 149 198 244 291 338
#     4  11  19  35  60  87 118 147 196 249 289 338
#
# _framework density 20.534029
#
# number of rings (size 3 to 8) (size 9 to 14) (size 15 to 20)
#    0.000    1.500    3.750    4.500    3.500    0.500 
#    0.000    0.000    0.000   13.500    0.000    0.000 
#    0.000    0.000    0.000    0.000    0.000    0.000 
#
# Total GULP energy -198392.704012 kJ/mol
# GULP energy per Si atom -12399.544001 kJ/mol
# Density = 2.048729 g / cm^3
# Si number density = 20.534029 Si / 1000 Ang^3
#
#
#
# Elastic Constant Matrix: (Units=GPa)
#
#
# Indices 1 2 3 4 5 6 
#
# 1 117.2903 23.4582 34.8298 -6.8097 -24.8821 -12.0754
# 2 23.4582 67.5692 37.5345 -25.3302 -7.9714 -3.7022
# 3 34.8298 37.5345 105.4564 -29.6504 -7.2852 1.3540
# 4 -6.8097 -25.3302 -29.6504 28.6667 1.6763 -6.2843
# 5 -24.8821 -7.9714 -7.2852 1.6763 31.1519 -7.5284
# 6 -12.0754 -3.7022 1.3540 -6.2843 -7.5284 21.7641
#
#
#
# Elastic Compliance Matrix: (Units=1/GPa)
#
#
# Indices 1 2 3 4 5 6 
#
# 1 0.013753 0.000084 -0.003239 0.002073 0.013289 0.013042
# 2 0.000084 0.026974 -0.002464 0.024027 0.008658 0.014721
# 3 -0.003239 -0.002464 0.014952 0.012623 -0.000305 0.000393
# 4 0.002073 0.024027 0.012623 0.075676 0.014230 0.031226
# 5 0.013289 0.008658 -0.000305 0.014230 0.051538 0.030801
# 6 0.013042 0.014721 0.000393 0.031226 0.030801 0.075334
#
#
# Mechanical properties :
#
#
# Convention : Reuss Voigt Hill
#
# Bulk Modulus (GPa) = 22.50094 53.55120 38.02607
# Shear Modulus (GPa) = 17.58839 29.28279 23.43559
#
# Velocity S-wave (km/s) = 2.92986 3.78042 3.38199
# Velocity P-wave (km/s) = 4.73573 6.72245 5.81457
#
# Compressibility (1/GPa) = 0.04444258
#
# Stress axis : x y z
#
# Youngs Moduli (GPa) = 72.71085 37.07212 66.87996
#
# Poissons Ratio (x) = -0.00311 0.21660
# Poissons Ratio (y) = -0.00611 0.16479
# Poissons Ratio (z) = 0.23549 0.09134
#
# Static dielectric constant tensor:
#      x y z
#    x 4.911900 -0.981120 -0.504690 
#    y -0.981120 4.380120 -0.149150 
#    z -0.504690 -0.149150 3.725610 
# 
# 
# High freq. dielectric constant tensor:
#      x y z
#    x 1.809280 -0.015000 -0.027980 
#    y -0.015000 1.788370 -0.027890 
#    z -0.027980 -0.027890 1.787430 
# 
# From -- ./inp_files/244992.got.cif
#   From: 2010.06.25/outbox.cif.g09.slc.cpg/sg2_123_cif.got.tgz:244992.got - 2010.06.27 13:26:56.
