data_PCOD8037900
_publ_section_title
;
Structure prediction by ZEFSAII (Michael W. Deem and Ramdas Pophale) SiO2 
 PCOD8037900
Probable space group: P -1
;
_chemical_formula_sum "Si O2"
_cell_formula_units_Z 16
_cell_length_a 27.741636
_cell_length_b 10.032679
_cell_length_c 8.655191
_cell_angle_alpha 30.219288
_cell_angle_beta 134.731326
_cell_angle_gamma 134.446158
_cell_volume 832.277302
_symmetry_space_group_name_H-M "P -1"
_symmetry_group_IT_number 2
_symmetry_cell_setting 'triclinic'
loop_
_space_group_symop_operation_xyz
x,y,z
-x,-y,-z
loop_
_atom_site_type_symbol
_atom_site_label
_atom_site_fract_x
_atom_site_fract_y
_atom_site_fract_z
Si Si1 0.698902 0.425845 0.605587
Si Si2 0.846726 0.634757 0.607950
Si Si3 0.652697 0.879834 0.224109
Si Si4 0.997238 0.746659 0.854067
Si Si5 0.647519 0.374801 0.200455
Si Si6 0.288426 0.060667 0.371411
Si Si7 0.498529 0.247732 0.858767
Si Si8 0.852273 0.141221 0.900359
O O1 0.783382 0.531043 0.688051
O O2 0.669094 0.598456 0.491178
O O3 0.667302 0.466249 0.327735
O O4 0.676925 0.107514 0.919334
O O5 0.842341 0.420377 0.672876
O O6 0.920046 0.674786 0.832878
O O7 0.841531 0.919630 0.235611
O O8 0.694719 0.991644 0.362170
O O9 0.569813 0.823460 0.117572
O O10 0.069806 0.811846 0.052095
O O11 0.000000 0.000000 0.500000
O O12 0.000000 0.500000 0.000000
O O13 0.672291 0.103986 0.487862
O O14 0.685231 0.617875 0.927374
O O15 0.564019 0.312505 0.057450
O O16 0.204676 0.957579 0.263068
O O17 0.500000 0.500000 0.500000
O O18 0.500000 0.000000 0.000000
#
# Coordination Sequence:
#
# PCOD8037900 Si02
#       8
#     2   2   2   2   2   2   2   2
#     4  12  24  39  58  90 124 150 190 238 296 349
#     4  10  18  33  55  82 119 152 182 237 293 334
#     4  12  26  39  60  87 120 153 192 238 298 351
#     4   8  16  27  49  83 113 142 187 238 282 320
#     4  12  23  40  66  85 112 157 196 237 288 347
#     4  12  21  39  62  88 113 155 201 237 282 345
#     4  12  23  43  65  85 113 151 196 245 288 342
#     4  10  17  32  57  86 110 146 200 242 269 332
#
# _framework density 19.224361999999999
#
# number of rings (size 3 to 8) (size 9 to 14) (size 15 to 20)
#    0.000    1.000    5.000    3.000    0.000    1.000 
#    0.000    0.000    0.000    1.500    0.000    0.000 
#    0.000    0.000    0.000    0.000    0.000    0.000 
#
# Total GULP energy -198364.483651 kJ/mol
# GULP energy per Si atom -12397.780228 kJ/mol
# Density = 1.918061 g / cm^3
# Si number density = 19.224362 Si / 1000 Ang^3
#
#
#
# Elastic Constant Matrix: (Units=GPa)
#
#
# Indices 1 2 3 4 5 6 
#
# 1 98.7759 51.3033 22.3481 16.3133 10.2987 25.5744
# 2 51.3033 108.2238 22.1583 18.1903 16.0071 29.6796
# 3 22.3481 22.1583 83.9610 -7.7867 3.3612 9.6101
# 4 16.3133 18.1903 -7.7867 38.7802 5.8975 13.6804
# 5 10.2987 16.0071 3.3612 5.8975 31.5650 -0.9885
# 6 25.5744 29.6796 9.6101 13.6804 -0.9885 40.1737
#
#
#
# Elastic Compliance Matrix: (Units=1/GPa)
#
#
# Indices 1 2 3 4 5 6 
#
# 1 0.014881 -0.004544 -0.002394 -0.002660 -0.001945 -0.004685
# 2 -0.004544 0.014928 -0.001880 -0.002088 -0.005720 -0.007115
# 3 -0.002394 -0.001880 0.013869 0.005633 -0.000868 -0.002344
# 4 -0.002660 -0.002088 0.005633 0.033164 -0.005168 -0.009532
# 5 -0.001945 -0.005720 -0.000868 -0.005168 0.036535 0.008330
# 6 -0.004685 -0.007115 -0.002344 -0.009532 0.008330 0.037143
#
#
# Mechanical properties :
#
#
# Convention : Reuss Voigt Hill
#
# Bulk Modulus (GPa) = 38.40208 53.61998 46.01103
# Shear Modulus (GPa) = 28.27454 35.11386 31.69420
#
# Velocity S-wave (km/s) = 3.83922 4.27843 4.06476
# Velocity P-wave (km/s) = 6.29856 7.23594 6.78346
#
# Compressibility (1/GPa) = 0.02604026
#
# Stress axis : x y z
#
# Youngs Moduli (GPa) = 67.19874 66.99005 72.10218
#
# Poissons Ratio (x) = 0.30443 0.17263
# Poissons Ratio (y) = 0.30538 0.13557
# Poissons Ratio (z) = 0.16089 0.12596
#
# Static dielectric constant tensor:
#      x y z
#    x 3.586170 0.588450 0.298250 
#    y 0.588450 3.902380 0.043380 
#    z 0.298250 0.043380 3.682930 
# 
# 
# High freq. dielectric constant tensor:
#      x y z
#    x 1.726830 0.035810 0.022190 
#    y 0.035810 1.752880 -0.014760 
#    z 0.022190 -0.014760 1.765980 
# 
# From -- ./inp_files/126247.got.cif
#   From: 2010.06.25/outbox.cif.g09.slc.cpg/sg2_64_cif.got.tgz:126247.got - 2010.06.27 13:26:56.
