data_PCOD8037765
_publ_section_title
;
Structure prediction by ZEFSAII (Michael W. Deem and Ramdas Pophale) SiO2 
 PCOD8037765
Probable space group: P -1
;
_chemical_formula_sum "Si O2"
_cell_formula_units_Z 14
_cell_length_a 8.575348
_cell_length_b 24.489027
_cell_length_c 8.620329
_cell_angle_alpha 149.749862
_cell_angle_beta 131.617656
_cell_angle_gamma 41.705555
_cell_volume 605.741266
_symmetry_space_group_name_H-M "P -1"
_symmetry_group_IT_number 2
_symmetry_cell_setting 'triclinic'
loop_
_space_group_symop_operation_xyz
x,y,z
-x,-y,-z
loop_
_atom_site_type_symbol
_atom_site_label
_atom_site_fract_x
_atom_site_fract_y
_atom_site_fract_z
Si Si1 0.338221 0.944854 0.197596
Si Si2 0.102715 0.832654 0.427970
Si Si3 0.400428 0.706207 0.825417
Si Si4 0.515080 0.108754 0.189700
Si Si5 0.294238 0.609086 0.219664
Si Si6 0.096185 0.462236 0.143710
Si Si7 0.002924 0.279592 0.200811
O O1 0.500000 0.000000 0.500000
O O2 0.408365 0.818369 0.019959
O O3 0.376819 0.928064 0.999576
O O4 0.072371 0.041110 0.297421
O O5 0.300450 0.853570 0.512799
O O6 0.236399 0.737430 0.418832
O O7 0.973709 0.778544 0.096836
O O8 0.381180 0.611639 0.458180
O O9 0.632679 0.639031 0.920076
O O10 0.171545 0.753722 0.897945
O O11 0.258461 0.221903 0.304869
O O12 0.500000 0.000000 0.000000
O O13 0.500000 0.500000 0.000000
O O14 0.061687 0.591523 0.012793
O O15 0.082478 0.576546 0.513244
O O16 0.000000 0.500000 0.000000
#
# Coordination Sequence:
#
# PCOD8037765 Si02
#       7
#     2   2   2   2   2   2   2
#     4  12  26  49  73 109 148 196 244 298 369 431
#     4  12  27  48  76 107 154 193 241 305 366 438
#     4  12  28  49  75 106 152 192 245 302 366 442
#     4  12  28  46  75 107 149 193 247 301 361 436
#     4  12  27  47  77 108 145 194 244 303 367 430
#     4  12  28  48  77 108 146 192 244 305 366 435
#     4  12  28  47  74 112 144 193 248 300 368 431
#
# _framework density 23.112176000000002
#
# number of rings (size 3 to 8) (size 9 to 14) (size 15 to 20)
#    0.000    0.000    4.286    4.286    8.000    2.286 
#    0.000    0.000    0.000    0.000    0.000    0.000 
#    0.000    0.000    0.000    0.000    0.000    0.000 
#
# Total GULP energy -173669.157636 kJ/mol
# GULP energy per Si atom -12404.939831 kJ/mol
# Density = 2.305957 g / cm^3
# Si number density = 23.112176 Si / 1000 Ang^3
#
#
#
# Elastic Constant Matrix: (Units=GPa)
#
#
# Indices 1 2 3 4 5 6 
#
# 1 137.8990 52.4775 38.7696 10.2541 15.8013 -20.1441
# 2 52.4775 131.9109 36.5338 17.7361 -1.2489 -16.9478
# 3 38.7696 36.5338 108.2652 4.5903 8.8578 -1.5333
# 4 10.2541 17.7361 4.5903 38.2466 -1.5445 1.6750
# 5 15.8013 -1.2489 8.8578 -1.5445 52.9336 1.9779
# 6 -20.1441 -16.9478 -1.5333 1.6750 1.9779 48.8033
#
#
#
# Elastic Compliance Matrix: (Units=1/GPa)
#
#
# Indices 1 2 3 4 5 6 
#
# 1 0.009804 -0.002706 -0.002268 -0.001353 -0.002770 0.003194
# 2 -0.002706 0.010136 -0.002360 -0.003747 0.001243 0.002407
# 3 -0.002268 -0.002360 0.010902 0.000409 -0.001139 -0.001381
# 4 -0.001353 -0.003747 0.000409 0.028371 0.001182 -0.002868
# 5 -0.002770 0.001243 -0.001139 0.001182 0.020033 -0.001600
# 6 0.003194 0.002407 -0.001381 -0.002868 -0.001600 0.022765
#
#
# Mechanical properties :
#
#
# Convention : Reuss Voigt Hill
#
# Bulk Modulus (GPa) = 61.83316 70.40411 66.11864
# Shear Modulus (GPa) = 40.96062 44.68300 42.82181
#
# Velocity S-wave (km/s) = 4.21438 4.40171 4.30906
# Velocity P-wave (km/s) = 7.10584 7.50743 7.30939
#
# Compressibility (1/GPa) = 0.01617255
#
# Stress axis : x y z
#
# Youngs Moduli (GPa) = 102.00187 98.66078 91.72962
#
# Poissons Ratio (x) = 0.26696 0.20808
# Poissons Ratio (y) = 0.27600 0.21649
# Poissons Ratio (z) = 0.23138 0.23284
#
# Static dielectric constant tensor:
#      x y z
#    x 4.157270 0.372600 0.223480 
#    y 0.372600 0.589750 -1.489420 
#    z 0.223480 -1.489420 3.848910 
# 
# 
# High freq. dielectric constant tensor:
#      x y z
#    x 1.926530 -0.013160 0.010920 
#    y -0.013160 1.918850 -0.003700 
#    z 0.010920 -0.003700 1.932330 
# 
# From -- ./inp_files/226818.got.cif
#   From: 2010.06.25/outbox.cif.g09.slc.cpg/sg2_114_cif.got.tgz:226818.got - 2010.06.27 13:26:56.
