data_PCOD8037782
_publ_section_title
;
Structure prediction by ZEFSAII (Michael W. Deem and Ramdas Pophale) SiO2 
 PCOD8037782
Probable space group: P -1
;
_chemical_formula_sum "Si O2"
_cell_formula_units_Z 12
_cell_length_a 23.910692
_cell_length_b 21.044434
_cell_length_c 8.362180
_cell_angle_alpha 139.919482
_cell_angle_beta 39.377497
_cell_angle_gamma 169.714866
_cell_volume 476.242238
_symmetry_space_group_name_H-M "P -1"
_symmetry_group_IT_number 2
_symmetry_cell_setting 'triclinic'
loop_
_space_group_symop_operation_xyz
x,y,z
-x,-y,-z
loop_
_atom_site_type_symbol
_atom_site_label
_atom_site_fract_x
_atom_site_fract_y
_atom_site_fract_z
Si Si1 0.223861 0.223181 0.202707
Si Si2 0.547245 0.848650 0.811164
Si Si3 0.109971 0.915103 0.043416
Si Si4 0.317641 0.966963 0.470827
Si Si5 0.707633 0.824633 0.527676
Si Si6 0.341692 0.823443 0.680722
O O1 0.367860 0.425443 0.436875
O O2 0.051140 0.935091 0.076387
O O3 0.500000 0.500000 0.000000
O O4 0.979475 0.036140 0.299510
O O5 0.787235 0.015548 0.636327
O O6 0.221349 0.482768 0.924227
O O7 0.465398 0.764366 0.640556
O O8 0.725028 0.138663 0.034179
O O9 0.326779 0.195368 0.244551
O O10 0.310797 0.041835 0.767894
O O11 0.973153 0.579982 0.409405
O O12 0.426102 0.980238 0.329963
O O13 0.500000 0.000000 0.500000
#
# Coordination Sequence:
#
# PCOD8037782 Si02
#       6
#     2   2   2   2   2   2
#     4  12  28  50  77 112 148 198 247 306 373 444
#     4  12  28  48  77 111 150 197 251 306 370 438
#     4  12  28  47  78 108 152 195 250 308 369 439
#     4  12  29  48  76 110 151 197 250 303 372 440
#     4  12  27  49  74 107 153 190 248 306 372 435
#     4  12  26  50  77 109 153 198 245 308 370 438
#
# _framework density 25.197261999999998
#
# number of rings (size 3 to 8) (size 9 to 14) (size 15 to 20)
#    0.000    0.000    3.333    5.000    7.000    0.000 
#    0.000    0.000    0.000    0.000    0.000    0.000 
#    0.000    0.000    0.000    0.000    0.000    0.000 
#
# Total GULP energy -148865.489441 kJ/mol
# GULP energy per Si atom -12405.457453 kJ/mol
# Density = 2.513991 g / cm^3
# Si number density = 25.197262 Si / 1000 Ang^3
#
#
#
# Elastic Constant Matrix: (Units=GPa)
#
#
# Indices 1 2 3 4 5 6 
#
# 1 183.6377 27.2677 50.5968 -23.9584 -24.8583 -16.0242
# 2 27.2677 55.6591 20.1110 -9.5800 -3.4710 -0.1692
# 3 50.5968 20.1110 113.6079 -3.3287 -16.6253 -14.9514
# 4 -23.9584 -9.5800 -3.3287 27.2913 -1.0216 6.1191
# 5 -24.8583 -3.4710 -16.6253 -1.0216 55.8438 -5.0011
# 6 -16.0242 -0.1692 -14.9514 6.1191 -5.0011 44.1686
#
#
#
# Elastic Compliance Matrix: (Units=1/GPa)
#
#
# Indices 1 2 3 4 5 6 
#
# 1 0.007569 -0.001752 -0.002287 0.005516 0.002817 0.001520
# 2 -0.001752 0.020955 -0.003163 0.005976 -0.000535 -0.002515
# 3 -0.002287 -0.003163 0.011120 -0.002465 0.002367 0.003532
# 4 0.005516 0.005976 -0.002465 0.044424 0.002486 -0.004684
# 5 0.002817 -0.000535 0.002367 0.002486 0.020215 0.003766
# 6 0.001520 -0.002515 0.003532 -0.004684 0.003766 0.025453
#
#
# Mechanical properties :
#
#
# Convention : Reuss Voigt Hill
#
# Bulk Modulus (GPa) = 39.62100 60.98396 50.30248
# Shear Modulus (GPa) = 32.77508 42.45603 37.61555
#
# Velocity S-wave (km/s) = 3.61049 4.10926 3.86792
# Velocity P-wave (km/s) = 5.75668 6.83885 6.32096
#
# Compressibility (1/GPa) = 0.02523914
#
# Stress axis : x y z
#
# Youngs Moduli (GPa) = 132.11188 47.72020 89.93039
#
# Poissons Ratio (x) = 0.08362 0.20568
# Poissons Ratio (y) = 0.23150 0.28448
# Poissons Ratio (z) = 0.30215 0.15096
#
# Static dielectric constant tensor:
#      x y z
#    x 4.851510 -0.094580 -0.071040 
#    y -0.094580 4.371430 -0.001030 
#    z -0.071040 -0.001030 4.884170 
# 
# 
# High freq. dielectric constant tensor:
#      x y z
#    x 2.024260 -0.007900 -0.006540 
#    y -0.007900 1.992500 0.001300 
#    z -0.006540 0.001300 2.021170 
# 
# From -- ./inp_files/88479.got.cif
#   From: 2010.06.25/outbox.cif.g09.slc.cpg/sg2_45_cif.got.tgz:88479.got - 2010.06.27 13:26:56.
