data_PCOD8037162
_publ_section_title
;
Structure prediction by ZEFSAII (Michael W. Deem and Ramdas Pophale) SiO2 
 PCOD8037162
Probable space group: P -1
;
_chemical_formula_sum "Si O2"
_cell_formula_units_Z 12
_cell_length_a 14.697485
_cell_length_b 10.445695
_cell_length_c 11.261373
_cell_angle_alpha 26.169689
_cell_angle_beta 47.401815
_cell_angle_gamma 61.353191
_cell_volume 515.779261
_symmetry_space_group_name_H-M "P -1"
_symmetry_group_IT_number 2
_symmetry_cell_setting 'triclinic'
loop_
_space_group_symop_operation_xyz
x,y,z
-x,-y,-z
loop_
_atom_site_type_symbol
_atom_site_label
_atom_site_fract_x
_atom_site_fract_y
_atom_site_fract_z
Si Si1 0.539155 0.855348 0.199814
Si Si2 0.819320 0.022284 0.915177
Si Si3 0.140289 0.300928 0.634700
Si Si4 0.916087 0.711065 0.891990
Si Si5 0.652971 0.655533 0.781364
Si Si6 0.329784 0.698575 0.706009
O O1 0.500000 0.500000 0.500000
O O2 0.468321 0.891886 0.353247
O O3 0.500000 0.000000 0.000000
O O4 0.696752 0.021592 0.944621
O O5 0.899156 0.398144 0.555090
O O6 0.905567 0.862445 0.901398
O O7 0.775827 0.801813 0.254364
O O8 0.238419 0.405822 0.346552
O O9 0.000000 0.000000 0.000000
O O10 0.772394 0.511866 0.127464
O O11 0.000000 0.000000 0.500000
O O12 0.000000 0.500000 0.000000
O O13 0.710174 0.035323 0.420266
O O14 0.500000 0.500000 0.000000
O O15 0.654065 0.523999 0.021185
#
# Coordination Sequence:
#
# PCOD8037162 Si02
#       6
#     2   2   2   2   2   2
#     4  12  24  44  73 110 143 181 235 293 370 432
#     4  12  26  49  75 104 148 186 243 304 360 434
#     4  12  28  47  74 106 144 198 248 297 356 430
#     4  12  28  45  73 108 145 190 236 298 372 427
#     4  12  26  48  74 104 147 192 244 296 358 429
#     4  12  26  46  75 106 145 184 241 301 360 434
#
# _framework density 23.265764999999998
#
# number of rings (size 3 to 8) (size 9 to 14) (size 15 to 20)
#    0.000    0.000    1.667    8.000    9.333    0.000 
#    0.000    0.000    0.000    0.000    0.000    0.000 
#    0.000    0.000    0.000    0.000    0.000    0.000 
#
# Total GULP energy -148799.228211 kJ/mol
# GULP energy per Si atom -12399.935684 kJ/mol
# Density = 2.321281 g / cm^3
# Si number density = 23.265765 Si / 1000 Ang^3
#
#
#
# Elastic Constant Matrix: (Units=GPa)
#
#
# Indices 1 2 3 4 5 6 
#
# 1 96.4348 43.8039 32.8238 3.4969 17.6430 -2.1427
# 2 43.8039 150.8891 54.9480 -10.0653 -6.7666 -3.5668
# 3 32.8238 54.9480 124.5855 -11.3606 10.3701 -0.6439
# 4 3.4969 -10.0653 -11.3606 58.1543 1.1539 -0.6359
# 5 17.6430 -6.7666 10.3701 1.1539 52.0157 -2.9252
# 6 -2.1427 -3.5668 -0.6439 -0.6359 -2.9252 33.8998
#
#
#
# Elastic Compliance Matrix: (Units=1/GPa)
#
#
# Indices 1 2 3 4 5 6 
#
# 1 0.013517 -0.003615 -0.001731 -0.001684 -0.004672 0.000006
# 2 -0.003615 0.009077 -0.003200 0.001113 0.003074 0.000952
# 3 -0.001731 -0.003200 0.010196 0.001576 -0.001919 -0.000388
# 4 -0.001684 0.001113 0.001576 0.017801 0.000028 0.000377
# 5 -0.004672 0.003074 -0.001919 0.000028 0.021696 0.001864
# 6 0.000006 0.000952 -0.000388 0.000377 0.001864 0.029760
#
#
# Mechanical properties :
#
#
# Convention : Reuss Voigt Hill
#
# Bulk Modulus (GPa) = 63.71173 70.56233 67.13703
# Shear Modulus (GPa) = 40.20169 44.83621 42.51895
#
# Velocity S-wave (km/s) = 4.16135 4.39467 4.27960
# Velocity P-wave (km/s) = 7.10865 7.49303 7.30337
#
# Compressibility (1/GPa) = 0.01569570
#
# Stress axis : x y z
#
# Youngs Moduli (GPa) = 73.97964 110.16924 98.08104
#
# Poissons Ratio (x) = 0.39830 0.16982
# Poissons Ratio (y) = 0.26746 0.31389
# Poissons Ratio (z) = 0.12809 0.35258
#
# Static dielectric constant tensor:
#      x y z
#    x 4.459450 0.153860 0.037890 
#    y 0.153860 4.497740 -0.167110 
#    z 0.037890 -0.167110 4.268200 
# 
# 
# High freq. dielectric constant tensor:
#      x y z
#    x 1.928490 0.005050 0.007030 
#    y 0.005050 1.936600 -0.009610 
#    z 0.007030 -0.009610 1.937840 
# 
# From -- ./inp_files/28539.got.cif
#   From: 2010.06.25/outbox.cif.g09.slc.cpg/sg2_15_cif.got.tgz:28539.got - 2010.06.27 13:26:56.
