data_PCOD8037954
_publ_section_title
;
Structure prediction by ZEFSAII (Michael W. Deem and Ramdas Pophale) SiO2 
 PCOD8037954
Probable space group: P -1
;
_chemical_formula_sum "Si O2"
_cell_formula_units_Z 16
_cell_length_a 14.437860
_cell_length_b 14.174479
_cell_length_c 9.532898
_cell_angle_alpha 128.807415
_cell_angle_beta 121.809103
_cell_angle_gamma 38.812468
_cell_volume 949.847950
_symmetry_space_group_name_H-M "P -1"
_symmetry_group_IT_number 2
_symmetry_cell_setting 'triclinic'
loop_
_space_group_symop_operation_xyz
x,y,z
-x,-y,-z
loop_
_atom_site_type_symbol
_atom_site_label
_atom_site_fract_x
_atom_site_fract_y
_atom_site_fract_z
Si Si1 0.836520 0.830779 0.043716
Si Si2 0.567941 0.205870 0.198345
Si Si3 0.923832 0.428491 0.216609
Si Si4 0.953110 0.404502 0.536946
Si Si5 0.235763 0.781797 0.454349
Si Si6 0.725695 0.652255 0.804180
Si Si7 0.966835 0.858076 0.436433
Si Si8 0.700131 0.510346 0.898888
O O1 0.941134 0.805862 0.223047
O O2 0.699733 0.021918 0.077800
O O3 0.774316 0.750461 0.973796
O O4 0.935001 0.742776 0.901162
O O5 0.625691 0.277406 0.398490
O O6 0.454010 0.219520 0.224012
O O7 0.474594 0.322155 0.095876
O O8 0.919562 0.391013 0.339161
O O9 0.935824 0.564708 0.339314
O O10 0.769704 0.500228 0.091762
O O11 0.796223 0.556419 0.624633
O O12 0.032496 0.232579 0.516075
O O13 0.285874 0.644194 0.253672
O O14 0.119932 0.815755 0.506620
O O15 0.166094 0.945939 0.464285
O O16 0.787538 0.514904 0.846718
#
# Coordination Sequence:
#
# PCOD8037954 Si02
#       8
#     2   2   2   2   2   2   2   2
#     4  10  17  33  53  81 101 124 174 214 259 297
#     4   9  20  30  54  76 105 133 164 212 257 299
#     4  10  20  32  55  75 106 132 169 212 253 303
#     4  10  19  34  51  78 103 136 168 209 259 298
#     4  10  18  31  51  78 102 132 172 211 249 293
#     4   9  18  30  54  75 102 130 166 211 257 301
#     4  10  18  30  55  76 101 131 171 219 247 291
#     4  10  18  32  51  77  97 135 169 207 250 295
#
# _framework density 16.844802000000001
#
# number of rings (size 3 to 8) (size 9 to 14) (size 15 to 20)
#    0.750    1.500    2.500    1.500    0.000    2.000 
#    0.000    0.625    5.500    3.750    0.000    0.000 
#    0.000    0.000    0.000    0.000    0.000    0.000 
#
# Total GULP energy -198340.951378 kJ/mol
# GULP energy per Si atom -12396.309461 kJ/mol
# Density = 1.680646 g / cm^3
# Si number density = 16.844802 Si / 1000 Ang^3
#
#
#
# Elastic Constant Matrix: (Units=GPa)
#
#
# Indices 1 2 3 4 5 6 
#
# 1 47.4480 33.7394 36.1921 -2.0711 6.3473 3.1514
# 2 33.7394 110.5630 52.9289 -2.8096 2.9348 5.7742
# 3 36.1921 52.9289 104.9161 -9.1234 7.4043 8.3688
# 4 -2.0711 -2.8096 -9.1234 22.1373 2.0840 6.7468
# 5 6.3473 2.9348 7.4043 2.0840 28.0773 -5.7947
# 6 3.1514 5.7742 8.3688 6.7468 -5.7947 29.0989
#
#
#
# Elastic Compliance Matrix: (Units=1/GPa)
#
#
# Indices 1 2 3 4 5 6 
#
# 1 0.031734 -0.005882 -0.007577 -0.000146 -0.004758 -0.001004
# 2 -0.005882 0.013044 -0.004708 -0.000910 0.001247 -0.000138
# 3 -0.007577 -0.004708 0.015799 0.007107 -0.003551 -0.005144
# 4 -0.000146 -0.000910 0.007107 0.053735 -0.009059 -0.016110
# 5 -0.004758 0.001247 -0.003551 -0.009059 0.040535 0.011462
# 6 -0.001004 -0.000138 -0.005144 -0.016110 0.011462 0.041999
#
#
# Mechanical properties :
#
#
# Convention : Reuss Voigt Hill
#
# Bulk Modulus (GPa) = 41.24581 56.51643 48.88112
# Shear Modulus (GPa) = 20.72445 25.20049 22.96247
#
# Velocity S-wave (km/s) = 3.51139 3.87206 3.69613
# Velocity P-wave (km/s) = 6.40147 7.32220 6.87726
#
# Compressibility (1/GPa) = 0.02424489
#
# Stress axis : x y z
#
# Youngs Moduli (GPa) = 31.51166 76.66220 63.29530
#
# Poissons Ratio (x) = 0.45092 0.47956
# Poissons Ratio (y) = 0.18535 0.29798
# Poissons Ratio (z) = 0.23875 0.36091
#
# Static dielectric constant tensor:
#      x y z
#    x 3.043490 0.003220 0.248980 
#    y 0.003220 3.139320 0.091280 
#    z 0.248980 0.091280 3.052640 
# 
# 
# High freq. dielectric constant tensor:
#      x y z
#    x 1.631270 -0.004430 0.029340 
#    y -0.004430 1.650590 0.010040 
#    z 0.029340 0.010040 1.638910 
# 
# From -- ./inp_files/305492.got.cif
#   From: 2010.06.25/outbox.cif.g09.slc.cpg/sg2_153_cif.got.tgz:305492.got - 2010.06.27 13:26:56.
