data_PCOD8037353
_publ_section_title
;
Structure prediction by ZEFSAII (Michael W. Deem and Ramdas Pophale) SiO2 
 PCOD8037353
Probable space group: P -1
;
_chemical_formula_sum "Si O2"
_cell_formula_units_Z 16
_cell_length_a 21.550212
_cell_length_b 9.409689
_cell_length_c 14.413189
_cell_angle_alpha 32.269023
_cell_angle_beta 148.006692
_cell_angle_gamma 124.812046
_cell_volume 707.697944
_symmetry_space_group_name_H-M "P -1"
_symmetry_group_IT_number 2
_symmetry_cell_setting 'triclinic'
loop_
_space_group_symop_operation_xyz
x,y,z
-x,-y,-z
loop_
_atom_site_type_symbol
_atom_site_label
_atom_site_fract_x
_atom_site_fract_y
_atom_site_fract_z
Si Si1 0.545462 0.709997 0.896778
Si Si2 0.949268 0.803932 0.096963
Si Si3 0.504395 0.679597 0.669480
Si Si4 0.774876 0.821231 0.196671
Si Si5 0.774068 0.196920 0.816275
Si Si6 0.254311 0.271562 0.242818
Si Si7 0.161790 0.301593 0.319326
Si Si8 0.266457 0.810804 0.881801
O O1 0.584978 0.525697 0.950705
O O2 0.417509 0.066977 0.541037
O O3 0.500000 0.500000 0.000000
O O4 0.680390 0.686118 0.121931
O O5 0.067909 0.446937 0.451050
O O6 0.820732 0.845897 0.854277
O O7 0.907179 0.931801 0.077675
O O8 0.000000 0.000000 0.000000
O O9 0.354153 0.731731 0.448850
O O10 0.500000 0.000000 0.500000
O O11 0.581517 0.464827 0.798278
O O12 0.725175 0.966617 0.154936
O O13 0.760855 0.080834 0.964486
O O14 0.779715 0.507404 0.660613
O O15 0.223777 0.226714 0.335419
O O16 0.196511 0.633385 0.939924
O O17 0.196311 0.003352 0.591985
O O18 0.000000 0.500000 0.000000
#
# Coordination Sequence:
#
# PCOD8037353 Si02
#       8
#     2   2   2   2   2   2   2   2
#     4  12  26  46  74 108 145 192 251 302 373 440
#     4  12  26  48  72 105 148 191 250 306 368 441
#     4  12  24  48  72 106 144 189 244 308 368 443
#     4  12  27  45  75 109 145 197 244 307 373 441
#     4  12  25  47  73 105 148 192 249 304 371 441
#     4  12  25  49  75 103 149 196 240 307 370 443
#     4  12  29  48  72 110 148 197 252 304 368 450
#     4  12  27  47  76 108 151 190 247 308 375 437
#
# _framework density 22.608516000000002
#
# number of rings (size 3 to 8) (size 9 to 14) (size 15 to 20)
#    0.000    0.000    5.000    4.125    5.250    3.500 
#    0.000    0.000    0.000    0.000    0.000    0.000 
#    0.000    0.000    0.000    0.000    0.000    0.000 
#
# Total GULP energy -198276.741439 kJ/mol
# GULP energy per Si atom -12392.296340 kJ/mol
# Density = 2.255706 g / cm^3
# Si number density = 22.608516 Si / 1000 Ang^3
#
#
#
# Elastic Constant Matrix: (Units=GPa)
#
#
# Indices 1 2 3 4 5 6 
#
# 1 131.1029 20.3722 34.5298 -2.5474 -11.7582 -19.1929
# 2 20.3722 69.9223 22.5942 8.3172 -5.1048 4.2939
# 3 34.5298 22.5942 87.2407 -3.7570 -4.1168 -4.3079
# 4 -2.5474 8.3172 -3.7570 34.3920 5.9244 -1.1421
# 5 -11.7582 -5.1048 -4.1168 5.9244 54.0071 -9.0818
# 6 -19.1929 4.2939 -4.3079 -1.1421 -9.0818 48.5377
#
#
#
# Elastic Compliance Matrix: (Units=1/GPa)
#
#
# Indices 1 2 3 4 5 6 
#
# 1 0.009527 -0.001992 -0.002917 0.000611 0.002291 0.004127
# 2 -0.001992 0.016956 -0.003896 -0.004928 0.000981 -0.002566
# 3 -0.002917 -0.003896 0.013739 0.002264 -0.000130 0.000440
# 4 0.000611 -0.004928 0.002264 0.031182 -0.003417 0.000973
# 5 0.002291 0.000981 -0.000130 -0.003417 0.020231 0.004512
# 6 0.004127 -0.002566 0.000440 0.000973 0.004512 0.023368
#
#
# Mechanical properties :
#
#
# Convention : Reuss Voigt Hill
#
# Bulk Modulus (GPa) = 44.22177 49.25093 46.73635
# Shear Modulus (GPa) = 35.67627 41.43868 38.55748
#
# Velocity S-wave (km/s) = 3.97672 4.28586 4.13418
# Velocity P-wave (km/s) = 6.37871 6.80610 6.59587
#
# Compressibility (1/GPa) = 0.02261330
#
# Stress axis : x y z
#
# Youngs Moduli (GPa) = 104.96615 58.97554 72.78629
#
# Poissons Ratio (x) = 0.11749 0.21228
# Poissons Ratio (y) = 0.20912 0.28354
# Poissons Ratio (z) = 0.30614 0.22974
#
# Static dielectric constant tensor:
#      x y z
#    x 4.482070 -0.044040 -0.335470 
#    y -0.044040 4.149260 0.006400 
#    z -0.335470 0.006400 4.029880 
# 
# 
# High freq. dielectric constant tensor:
#      x y z
#    x 1.918330 -0.004110 -0.008060 
#    y -0.004110 1.898720 -0.006830 
#    z -0.008060 -0.006830 1.890940 
# 
# From -- ./inp_files/542636.got.cif
#   From: 2010.06.25/outbox.cif.g09.slc.cpg/sg2_272_cif.got.tgz:542636.got - 2010.06.27 13:26:56.
