data_PCOD8037713
_publ_section_title
;
Structure prediction by ZEFSAII (Michael W. Deem and Ramdas Pophale) SiO2 
 PCOD8037713
Probable space group: P -1
;
_chemical_formula_sum "Si O2"
_cell_formula_units_Z 14
_cell_length_a 12.475907
_cell_length_b 15.494222
_cell_length_c 9.457548
_cell_angle_alpha 130.214835
_cell_angle_beta 119.742368
_cell_angle_gamma 26.735510
_cell_volume 610.548024
_symmetry_space_group_name_H-M "P -1"
_symmetry_group_IT_number 2
_symmetry_cell_setting 'triclinic'
loop_
_space_group_symop_operation_xyz
x,y,z
-x,-y,-z
loop_
_atom_site_type_symbol
_atom_site_label
_atom_site_fract_x
_atom_site_fract_y
_atom_site_fract_z
Si Si1 0.212988 0.887770 0.206706
Si Si2 0.580091 0.661424 0.429510
Si Si3 0.442445 0.014027 0.814780
Si Si4 0.903068 0.268250 0.025813
Si Si5 0.095967 0.638140 0.180533
Si Si6 0.584566 0.130442 0.930498
Si Si7 0.737078 0.372722 0.464409
O O1 0.319695 0.827973 0.370142
O O2 0.370803 0.845484 0.165097
O O3 0.245655 0.728515 0.026025
O O4 0.923570 0.141629 0.260036
O O5 0.796665 0.459170 0.245629
O O6 0.640600 0.549616 0.493846
O O7 0.572882 0.797513 0.614960
O O8 0.547405 0.024695 0.785937
O O9 0.148782 0.242217 0.854941
O O10 0.500000 0.000000 0.000000
O O11 0.868895 0.316970 0.889960
O O12 0.190711 0.022128 0.979275
O O13 0.083614 0.731300 0.402824
O O14 0.333406 0.374661 0.089958
O O15 0.500000 0.500000 0.500000
#
# Coordination Sequence:
#
# PCOD8037713 Si02
#       7
#     2   2   2   2   2   2   2
#     4  12  26  47  74 112 152 192 250 304 377 444
#     4  12  27  49  73 111 148 194 251 300 375 441
#     4  12  27  51  75 106 153 197 253 308 362 438
#     4  12  26  47  77 111 150 191 249 312 369 448
#     4  12  26  48  75 111 147 196 248 309 369 427
#     4  12  26  47  75 106 148 202 247 301 369 440
#     4  12  27  44  75 113 152 195 241 306 375 445
#
# _framework density 22.930218
#
# number of rings (size 3 to 8) (size 9 to 14) (size 15 to 20)
#    0.000    0.000    5.714    3.857    4.000    2.286 
#    0.000    0.000    0.000    0.000    0.000    0.000 
#    0.000    0.000    0.000    0.000    0.000    0.000 
#
# Total GULP energy -173571.822784 kJ/mol
# GULP energy per Si atom -12397.987342 kJ/mol
# Density = 2.287803 g / cm^3
# Si number density = 22.930218 Si / 1000 Ang^3
#
#
#
# Elastic Constant Matrix: (Units=GPa)
#
#
# Indices 1 2 3 4 5 6 
#
# 1 148.4771 46.3349 42.8820 4.3945 8.9852 3.6319
# 2 46.3349 152.8905 41.8426 2.8223 7.4024 -5.2684
# 3 42.8820 41.8426 105.2851 5.2328 16.2465 9.9430
# 4 4.3945 2.8223 5.2328 43.5179 3.1328 -1.4874
# 5 8.9852 7.4024 16.2465 3.1328 35.7598 -1.8838
# 6 3.6319 -5.2684 9.9430 -1.4874 -1.8838 41.5271
#
#
#
# Elastic Compliance Matrix: (Units=1/GPa)
#
#
# Indices 1 2 3 4 5 6 
#
# 1 0.008039 -0.001748 -0.002442 -0.000379 -0.000535 -0.000378
# 2 -0.001748 0.007834 -0.002583 0.000034 0.000081 0.001770
# 3 -0.002442 -0.002583 0.012604 -0.000880 -0.004679 -0.003376
# 4 -0.000379 0.000034 -0.000880 0.023263 -0.001497 0.001013
# 5 -0.000535 0.000081 -0.004679 -0.001497 0.030471 0.002506
# 6 -0.000378 0.001770 -0.003376 0.001013 0.002506 0.025296
#
#
# Mechanical properties :
#
#
# Convention : Reuss Voigt Hill
#
# Bulk Modulus (GPa) = 66.97902 74.30796 70.64349
# Shear Modulus (GPa) = 39.67336 42.53383 41.10360
#
# Velocity S-wave (km/s) = 4.16405 4.31156 4.23845
# Velocity P-wave (km/s) = 7.23826 7.56720 7.40456
#
# Compressibility (1/GPa) = 0.01493005
#
# Stress axis : x y z
#
# Youngs Moduli (GPa) = 124.39751 127.65500 79.34196
#
# Poissons Ratio (x) = 0.22313 0.19378
# Poissons Ratio (y) = 0.21744 0.20492
# Poissons Ratio (z) = 0.30383 0.32970
#
# Static dielectric constant tensor:
#      x y z
#    x 4.271110 0.048370 0.026200 
#    y 0.048370 4.462840 0.115610 
#    z 0.026200 0.115610 3.961450 
# 
# 
# High freq. dielectric constant tensor:
#      x y z
#    x 1.900540 0.005010 0.000290 
#    y 0.005010 1.938270 0.002990 
#    z 0.000290 0.002990 1.902250 
# 
# From -- ./inp_files/274457.got.cif
#   From: 2010.06.25/outbox.cif.g09.slc.cpg/sg2_138_cif.got.tgz:274457.got - 2010.06.27 13:26:56.
