data_PCOD8037758
_publ_section_title
;
Structure prediction by ZEFSAII (Michael W. Deem and Ramdas Pophale) SiO2 
 PCOD8037758
Probable space group: P -1
;
_chemical_formula_sum "Si O2"
_cell_formula_units_Z 12
_cell_length_a 9.435308
_cell_length_b 8.800650
_cell_length_c 13.853097
_cell_angle_alpha 134.599793
_cell_angle_beta 69.840496
_cell_angle_gamma 74.688991
_cell_volume 502.318935
_symmetry_space_group_name_H-M "P -1"
_symmetry_group_IT_number 2
_symmetry_cell_setting 'triclinic'
loop_
_space_group_symop_operation_xyz
x,y,z
-x,-y,-z
loop_
_atom_site_type_symbol
_atom_site_label
_atom_site_fract_x
_atom_site_fract_y
_atom_site_fract_z
Si Si1 0.061529 0.747982 0.148894
Si Si2 0.556454 0.128061 0.471560
Si Si3 0.728572 0.829291 0.820341
Si Si4 0.073315 0.088454 0.441256
Si Si5 0.461533 0.947491 0.245024
Si Si6 0.809882 0.203865 0.053892
O O1 0.042273 0.008170 0.309733
O O2 0.274950 0.399126 0.995735
O O3 0.113685 0.702354 0.002003
O O4 0.830620 0.865480 0.279695
O O5 0.432252 0.474150 0.694148
O O6 0.500000 0.000000 0.500000
O O7 0.456941 0.168945 0.407961
O O8 0.928386 0.459463 0.643768
O O9 0.693403 0.851249 0.723508
O O10 0.500000 0.000000 0.000000
O O11 0.788157 0.001303 0.917570
O O12 0.339815 0.879235 0.301026
O O13 0.000000 0.000000 0.500000
O O14 0.000000 0.000000 0.000000
#
# Coordination Sequence:
#
# PCOD8037758 Si02
#       6
#     2   2   2   2   2   2
#     4  12  27  47  77 113 153 204 255 311 383 450
#     4  12  27  49  77 114 155 203 255 308 383 454
#     4  12  28  49  76 114 150 201 257 315 381 448
#     4  12  26  48  80 110 151 199 256 316 382 452
#     4  12  26  48  79 112 155 195 257 317 376 456
#     4  12  29  50  75 112 158 200 255 314 381 455
#
# _framework density 23.889203999999999
#
# number of rings (size 3 to 8) (size 9 to 14) (size 15 to 20)
#    0.000    0.000    3.333    5.500    7.000    0.667 
#    0.000    0.000    0.000    0.000    0.000    0.000 
#    0.000    0.000    0.000    0.000    0.000    0.000 
#
# Total GULP energy -148845.055108 kJ/mol
# GULP energy per Si atom -12403.754592 kJ/mol
# Density = 2.383483 g / cm^3
# Si number density = 23.889204 Si / 1000 Ang^3
#
#
#
# Elastic Constant Matrix: (Units=GPa)
#
#
# Indices 1 2 3 4 5 6 
#
# 1 159.8096 49.6802 78.6257 -6.2744 -4.0664 -1.4765
# 2 49.6802 97.7670 64.4844 3.9478 -7.6601 -3.0727
# 3 78.6257 64.4844 147.9376 -9.9486 -1.6663 5.8188
# 4 -6.2744 3.9478 -9.9486 35.2751 6.0013 -3.3230
# 5 -4.0664 -7.6601 -1.6663 6.0013 59.5644 -10.6395
# 6 -1.4765 -3.0727 5.8188 -3.3230 -10.6395 41.6072
#
#
#
# Elastic Compliance Matrix: (Units=1/GPa)
#
#
# Indices 1 2 3 4 5 6 
#
# 1 0.008772 -0.001927 -0.003803 0.000728 0.000322 0.000841
# 2 -0.001927 0.015699 -0.006152 -0.004051 0.002530 0.002275
# 3 -0.003803 -0.006152 0.011764 0.003361 -0.001479 -0.002344
# 4 0.000728 -0.004051 0.003361 0.030521 -0.003300 0.000850
# 5 0.000322 0.002530 -0.001479 -0.003300 0.018288 0.004818
# 6 0.000841 0.002275 -0.002344 0.000850 0.004818 0.025860
#
#
# Mechanical properties :
#
#
# Convention : Reuss Voigt Hill
#
# Bulk Modulus (GPa) = 80.18713 87.89942 84.04327
# Shear Modulus (GPa) = 36.01710 41.47094 38.74402
#
# Velocity S-wave (km/s) = 3.88709 4.17102 4.03155
# Velocity P-wave (km/s) = 7.33383 7.75055 7.54507
#
# Compressibility (1/GPa) = 0.01247083
#
# Stress axis : x y z
#
# Youngs Moduli (GPa) = 114.00002 63.69987 85.00701
#
# Poissons Ratio (x) = 0.12276 0.32325
# Poissons Ratio (y) = 0.21969 0.52296
# Poissons Ratio (z) = 0.43349 0.39188
#
# Static dielectric constant tensor:
#      x y z
#    x 4.679930 0.053370 0.176580 
#    y 0.053370 4.541500 -0.240600 
#    z 0.176580 -0.240600 4.755640 
# 
# 
# High freq. dielectric constant tensor:
#      x y z
#    x 1.965120 -0.001110 0.000360 
#    y -0.001110 1.940330 -0.015540 
#    z 0.000360 -0.015540 1.968700 
# 
# From -- ./inp_files/158042.got.cif
#   From: 2010.06.25/outbox.cif.g09.slc.cpg/sg2_80_cif.got.tgz:158042.got - 2010.06.27 13:26:56.
