data_PCOD8037909
_publ_section_title
;
Structure prediction by ZEFSAII (Michael W. Deem and Ramdas Pophale) SiO2 
 PCOD8037909
Probable space group: P -1
;
_chemical_formula_sum "Si O2"
_cell_formula_units_Z 16
_cell_length_a 12.313886
_cell_length_b 13.349517
_cell_length_c 9.318298
_cell_angle_alpha 61.806184
_cell_angle_beta 131.267067
_cell_angle_gamma 131.120829
_cell_volume 865.316354
_symmetry_space_group_name_H-M "P -1"
_symmetry_group_IT_number 2
_symmetry_cell_setting 'triclinic'
loop_
_space_group_symop_operation_xyz
x,y,z
-x,-y,-z
loop_
_atom_site_type_symbol
_atom_site_label
_atom_site_fract_x
_atom_site_fract_y
_atom_site_fract_z
Si Si1 0.736006 0.827800 0.663984
Si Si2 0.358884 0.071465 0.060837
Si Si3 0.816558 0.978379 0.359968
Si Si4 0.275197 0.846312 0.671111
Si Si5 0.837772 0.442516 0.297795
Si Si6 0.483729 0.321879 0.187195
Si Si7 0.852810 0.085421 0.751920
Si Si8 0.179788 0.330435 0.980971
O O1 0.707558 0.852829 0.458133
O O2 0.556518 0.757472 0.640967
O O3 0.864018 0.967678 0.762632
O O4 0.818546 0.734493 0.818218
O O5 0.525596 0.064694 0.178452
O O6 0.421251 0.217559 0.073853
O O7 0.236116 0.956024 0.142372
O O8 0.261836 0.055094 0.841165
O O9 0.824207 0.109843 0.338899
O O10 0.000000 0.000000 0.500000
O O11 0.198468 0.688347 0.730440
O O12 0.255288 0.873278 0.469412
O O13 0.684541 0.420584 0.283026
O O14 0.860251 0.551851 0.123903
O O15 0.000000 0.500000 0.500000
O O16 0.368194 0.389117 0.034807
O O17 0.041795 0.211863 0.841069
#
# Coordination Sequence:
#
# PCOD8037909 Si02
#       8
#     2   2   2   2   2   2   2   2
#     4   8  19  33  54  83 114 135 184 229 275 315
#     4  10  20  34  58  84 114 145 174 228 289 324
#     4  11  22  35  58  83 110 147 187 224 279 330
#     4  10  22  37  51  84 116 143 181 229 275 336
#     4  11  20  35  55  87 111 146 185 226 278 320
#     4   8  20  34  57  85 110 142 181 233 268 324
#     4  10  17  32  58  85 112 138 180 232 278 324
#     4  10  18  32  57  81 117 138 182 226 273 321
#
# _framework density 18.490348000000001
#
# number of rings (size 3 to 8) (size 9 to 14) (size 15 to 20)
#    0.750    1.500    1.250    2.250    3.500    1.000 
#    0.000    0.000    0.000    6.000    3.250    0.000 
#    0.000    0.000    0.000    0.000    0.000    0.000 
#
# Total GULP energy -198226.442030 kJ/mol
# GULP energy per Si atom -12389.152627 kJ/mol
# Density = 1.844826 g / cm^3
# Si number density = 18.490348 Si / 1000 Ang^3
#
#
#
# Elastic Constant Matrix: (Units=GPa)
#
#
# Indices 1 2 3 4 5 6 
#
# 1 83.5821 29.0048 46.3117 3.2957 11.4859 -1.6200
# 2 29.0048 78.7098 47.3787 -14.9266 10.2074 1.4353
# 3 46.3117 47.3787 126.8110 -4.7981 2.5224 2.0035
# 4 3.2957 -14.9266 -4.7981 35.8914 2.0657 15.1766
# 5 11.4859 10.2074 2.5224 2.0657 36.5070 -1.8731
# 6 -1.6200 1.4353 2.0035 15.1766 -1.8731 22.6204
#
#
#
# Elastic Compliance Matrix: (Units=1/GPa)
#
#
# Indices 1 2 3 4 5 6 
#
# 1 0.016908 -0.004165 -0.004883 -0.006214 -0.003168 0.005814
# 2 -0.004165 0.020935 -0.005537 0.013028 -0.005427 -0.010326
# 3 -0.004883 -0.005537 0.011702 -0.000083 0.002240 -0.000794
# 4 -0.006214 0.013028 -0.000083 0.048791 -0.006213 -0.034514
# 5 -0.003168 -0.005427 0.002240 -0.006213 0.030442 0.006609
# 6 0.005814 -0.010326 -0.000794 -0.034514 0.006609 0.069053
#
#
# Mechanical properties :
#
#
# Convention : Reuss Voigt Hill
#
# Bulk Modulus (GPa) = 49.07550 59.38815 54.23183
# Shear Modulus (GPa) = 21.38641 30.09760 25.74200
#
# Velocity S-wave (km/s) = 3.40461 4.03891 3.73525
# Velocity P-wave (km/s) = 6.48490 7.34429 6.92793
#
# Compressibility (1/GPa) = 0.02037676
#
# Stress axis : x y z
#
# Youngs Moduli (GPa) = 59.14296 47.76635 85.45326
#
# Poissons Ratio (x) = 0.19896 0.41724
# Poissons Ratio (y) = 0.24635 0.47312
# Poissons Ratio (z) = 0.28878 0.26446
#
# Static dielectric constant tensor:
#      x y z
#    x 3.326570 0.131810 0.185570 
#    y 0.131810 3.359440 -0.226750 
#    z 0.185570 -0.226750 3.502380 
# 
# 
# High freq. dielectric constant tensor:
#      x y z
#    x 1.697060 0.010650 0.022990 
#    y 0.010650 1.705290 -0.015510 
#    z 0.022990 -0.015510 1.718620 
# 
# From -- ./inp_files/267208.got.cif
#   From: 2010.06.25/outbox.cif.g09.slc.cpg/sg2_134_cif.got.tgz:267208.got - 2010.06.27 13:26:56.
