data_PCOD8037222
_publ_section_title
;
Structure prediction by ZEFSAII (Michael W. Deem and Ramdas Pophale) SiO2 
 PCOD8037222
Probable space group: P -1
;
_chemical_formula_sum "Si O2"
_cell_formula_units_Z 12
_cell_length_a 13.474437
_cell_length_b 11.063145
_cell_length_c 9.277928
_cell_angle_alpha 110.515290
_cell_angle_beta 112.194324
_cell_angle_gamma 21.729264
_cell_volume 474.099022
_symmetry_space_group_name_H-M "P -1"
_symmetry_group_IT_number 2
_symmetry_cell_setting 'triclinic'
loop_
_space_group_symop_operation_xyz
x,y,z
-x,-y,-z
loop_
_atom_site_type_symbol
_atom_site_label
_atom_site_fract_x
_atom_site_fract_y
_atom_site_fract_z
Si Si1 0.702343 0.602127 0.113119
Si Si2 0.696097 0.837493 0.419581
Si Si3 0.895749 0.759541 0.050274
Si Si4 0.633335 0.431031 0.174451
Si Si5 0.520314 0.320372 0.511859
Si Si6 0.070602 0.062716 0.654578
O O1 0.667599 0.780209 0.240010
O O2 0.760126 0.425590 0.186668
O O3 0.958490 0.322442 0.031247
O O4 0.427245 0.874327 0.990721
O O5 0.000000 0.500000 0.500000
O O6 0.500000 0.000000 0.500000
O O7 0.613584 0.072167 0.430595
O O8 0.969437 0.744151 0.237289
O O9 0.000000 0.500000 0.000000
O O10 0.418536 0.703046 0.299305
O O11 0.871121 0.080631 0.226430
O O12 0.500000 0.500000 0.000000
O O13 0.194779 0.693604 0.470914
O O14 0.677416 0.232008 0.441994
#
# Coordination Sequence:
#
# PCOD8037222 Si02
#       6
#     2   2   2   2   2   2
#     4  12  26  46  76 112 149 197 255 310 376 446
#     4  12  24  45  76 110 150 194 247 313 382 443
#     4  12  25  47  76 109 153 196 249 313 381 448
#     4  12  28  51  78 112 155 204 256 312 376 455
#     4  12  27  51  76 110 151 196 256 312 376 448
#     4  12  27  50  76 110 151 203 250 310 374 449
#
# _framework density 25.311169
#
# number of rings (size 3 to 8) (size 9 to 14) (size 15 to 20)
#    0.000    0.000    3.333    6.500    0.000    2.000 
#    0.000    0.000    0.000    0.000    0.000    0.000 
#    0.000    0.000    0.000    0.000    0.000    0.000 
#
# Total GULP energy -148888.286837 kJ/mol
# GULP energy per Si atom -12407.357236 kJ/mol
# Density = 2.525356 g / cm^3
# Si number density = 25.311169 Si / 1000 Ang^3
#
#
#
# Elastic Constant Matrix: (Units=GPa)
#
#
# Indices 1 2 3 4 5 6 
#
# 1 131.7022 51.7173 61.5208 0.4054 -2.5692 1.3078
# 2 51.7173 122.8265 31.0532 -5.1488 -2.5167 -9.1112
# 3 61.5208 31.0532 185.8150 17.0702 13.6719 -10.6699
# 4 0.4054 -5.1488 17.0702 46.9005 4.9779 0.2224
# 5 -2.5692 -2.5167 13.6719 4.9779 47.7222 3.5239
# 6 1.3078 -9.1112 -10.6699 0.2224 3.5239 51.7872
#
#
#
# Elastic Compliance Matrix: (Units=1/GPa)
#
#
# Indices 1 2 3 4 5 6 
#
# 1 0.010551 -0.003731 -0.003109 0.000497 0.001332 -0.001656
# 2 -0.003731 0.010018 -0.000471 0.001274 0.000201 0.001741
# 3 -0.003109 -0.000471 0.006946 -0.002343 -0.002054 0.001577
# 4 0.000497 0.001274 -0.002343 0.022477 -0.001560 -0.000261
# 5 0.001332 0.000201 -0.002054 -0.001560 0.021929 -0.001907
# 6 -0.001656 0.001741 0.001577 -0.000261 -0.001907 0.020114
#
#
# Mechanical properties :
#
#
# Convention : Reuss Voigt Hill
#
# Bulk Modulus (GPa) = 77.55174 80.99179 79.27177
# Shear Modulus (GPa) = 45.06340 49.01883 47.04111
#
# Velocity S-wave (km/s) = 4.22403 4.40551 4.31572
# Velocity P-wave (km/s) = 7.38212 7.61222 7.49806
#
# Compressibility (1/GPa) = 0.01289462
#
# Stress axis : x y z
#
# Youngs Moduli (GPa) = 94.77654 99.81665 143.95873
#
# Poissons Ratio (x) = 0.37246 0.44750
# Poissons Ratio (y) = 0.35366 0.06776
# Poissons Ratio (z) = 0.29461 0.04698
#
# Static dielectric constant tensor:
#      x y z
#    x 5.042730 0.240900 0.192950 
#    y 0.240900 4.634790 0.288270 
#    z 0.192950 0.288270 4.798460 
# 
# 
# High freq. dielectric constant tensor:
#      x y z
#    x 2.036500 0.014830 0.012300 
#    y 0.014830 2.014910 0.019530 
#    z 0.012300 0.019530 2.026720 
# 
# From -- ./inp_files/67484.got.cif
#   From: 2010.06.25/outbox.cif.g09.slc.cpg/sg2_34_cif.got.tgz:67484.got - 2010.06.27 13:26:56.
