data_PCOD8037437
_publ_section_title
;
Structure prediction by ZEFSAII (Michael W. Deem and Ramdas Pophale) SiO2 
 PCOD8037437
Probable space group: P -1
;
_chemical_formula_sum "Si O2"
_cell_formula_units_Z 16
_cell_length_a 26.037480
_cell_length_b 9.098945
_cell_length_c 26.220511
_cell_angle_alpha 36.480774
_cell_angle_beta 169.155042
_cell_angle_gamma 142.051180
_cell_volume 694.877490
_symmetry_space_group_name_H-M "P -1"
_symmetry_group_IT_number 2
_symmetry_cell_setting 'triclinic'
loop_
_space_group_symop_operation_xyz
x,y,z
-x,-y,-z
loop_
_atom_site_type_symbol
_atom_site_label
_atom_site_fract_x
_atom_site_fract_y
_atom_site_fract_z
Si Si1 0.696822 0.440474 0.022957
Si Si2 0.837297 0.744460 0.406193
Si Si3 0.729942 0.471562 0.274897
Si Si4 0.433423 0.005663 0.256239
Si Si5 0.909316 0.769261 0.849742
Si Si6 0.758947 0.827351 0.799267
Si Si7 0.390717 0.073546 0.660838
Si Si8 0.159359 0.657571 0.922473
O O1 0.451214 0.244374 0.847526
O O2 0.535057 0.700079 0.794248
O O3 0.852664 0.378379 0.139853
O O4 0.936457 0.449639 0.296934
O O5 0.743948 0.676001 0.276610
O O6 0.000000 0.000000 0.500000
O O7 0.000000 0.500000 0.500000
O O8 0.714090 0.203770 0.359691
O O9 0.500000 0.500000 0.000000
O O10 0.669886 0.869254 0.554161
O O11 0.452860 0.895577 0.248951
O O12 0.155188 0.955818 0.028823
O O13 0.801630 0.731483 0.811453
O O14 0.000000 0.500000 0.000000
O O15 0.500000 0.000000 0.500000
O O16 0.736185 0.596600 0.879397
O O17 0.000000 0.000000 0.000000
O O18 0.135840 0.263075 0.365583
O O19 0.617218 0.132232 0.907785
#
# Coordination Sequence:
#
# PCOD8037437 Si02
#       8
#     2   2   2   2   2   2   2   2
#     4  12  26  48  73 106 145 193 246 290 365 427
#     4  12  28  49  77 109 147 190 244 299 357 440
#     4  12  28  48  78 107 148 191 237 297 370 431
#     4  12  25  46  72 100 143 191 237 299 357 431
#     4  12  25  43  71 105 139 186 241 298 360 422
#     4  12  25  46  70 103 144 187 241 296 360 425
#     4  12  26  47  71 104 147 186 244 293 363 434
#     4  12  27  45  72 107 144 193 239 302 357 427
#
# _framework density 23.025642999999999
#
# number of rings (size 3 to 8) (size 9 to 14) (size 15 to 20)
#    0.000    0.000    1.250    9.000    7.000    0.000 
#    0.000    0.000    0.000    0.000    0.000    0.000 
#    0.000    0.000    0.000    0.000    0.000    0.000 
#
# Total GULP energy -198393.567446 kJ/mol
# GULP energy per Si atom -12399.597965 kJ/mol
# Density = 2.297324 g / cm^3
# Si number density = 23.025643 Si / 1000 Ang^3
#
#
#
# Elastic Constant Matrix: (Units=GPa)
#
#
# Indices 1 2 3 4 5 6 
#
# 1 147.1610 41.7552 42.5618 3.7555 -0.1205 -11.8020
# 2 41.7552 100.4185 25.1618 6.1535 -4.7533 -10.9821
# 3 42.5618 25.1618 144.3308 8.2373 -3.9208 -6.6831
# 4 3.7555 6.1535 8.2373 40.0060 0.8316 3.5347
# 5 -0.1205 -4.7533 -3.9208 0.8316 51.6811 4.4905
# 6 -11.8020 -10.9821 -6.6831 3.5347 4.4905 41.0267
#
#
#
# Elastic Compliance Matrix: (Units=1/GPa)
#
#
# Indices 1 2 3 4 5 6 
#
# 1 0.008255 -0.002830 -0.001888 -0.000062 -0.000502 0.001370
# 2 -0.002830 0.011763 -0.001003 -0.001550 0.000832 0.002214
# 3 -0.001888 -0.001003 0.007772 -0.001324 0.000469 0.000517
# 4 -0.000062 -0.001550 -0.001324 0.025771 -0.000413 -0.002824
# 5 -0.000502 0.000832 0.000469 -0.000413 0.019637 -0.001959
# 6 0.001370 0.002214 0.000517 -0.002824 -0.001959 0.025903
#
#
# Mechanical properties :
#
#
# Convention : Reuss Voigt Hill
#
# Bulk Modulus (GPa) = 61.16231 67.87421 64.51826
# Shear Modulus (GPa) = 43.10648 45.37153 44.23901
#
# Velocity S-wave (km/s) = 4.33148 4.44382 4.38801
# Velocity P-wave (km/s) = 7.18582 7.47474 7.33170
#
# Compressibility (1/GPa) = 0.01634994
#
# Stress axis : x y z
#
# Youngs Moduli (GPa) = 121.13588 85.01481 128.66223
#
# Poissons Ratio (x) = 0.24057 0.24288
# Poissons Ratio (y) = 0.34279 0.12900
# Poissons Ratio (z) = 0.22867 0.08524
#
# Static dielectric constant tensor:
#      x y z
#    x 11.687800 3.132530 2.916220 
#    y 3.132530 5.517750 1.272880 
#    z 2.916220 1.272880 5.528870 
# 
# 
# High freq. dielectric constant tensor:
#      x y z
#    x 1.925950 0.002420 0.003510 
#    y 0.002420 1.919660 0.001500 
#    z 0.003510 0.001500 1.930210 
# 
# From -- ./inp_files/621151.got.cif
#   From: 2010.06.25/outbox.cif.g09.slc.cpg/sg2_311_cif.got.tgz:621151.got - 2010.06.27 13:26:56.
