data_PCOD8037756
_publ_section_title
;
Structure prediction by ZEFSAII (Michael W. Deem and Ramdas Pophale) SiO2 
 PCOD8037756
Probable space group: P -1
;
_chemical_formula_sum "Si O2"
_cell_formula_units_Z 10
_cell_length_a 23.901379
_cell_length_b 9.008068
_cell_length_c 11.410034
_cell_angle_alpha 141.760629
_cell_angle_beta 18.850616
_cell_angle_gamma 149.735907
_cell_volume 392.259137
_symmetry_space_group_name_H-M "P -1"
_symmetry_group_IT_number 2
_symmetry_cell_setting 'triclinic'
loop_
_space_group_symop_operation_xyz
x,y,z
-x,-y,-z
loop_
_atom_site_type_symbol
_atom_site_label
_atom_site_fract_x
_atom_site_fract_y
_atom_site_fract_z
Si Si1 0.406036 0.868943 0.915667
Si Si2 0.795116 0.653354 0.830451
Si Si3 0.196973 0.194245 0.494992
Si Si4 0.581896 0.304827 0.460595
Si Si5 0.168180 0.544070 0.596900
O O1 0.318792 0.671659 0.848717
O O2 0.667144 0.102292 0.537665
O O3 0.335529 0.664236 0.041549
O O4 0.323354 0.069446 0.210005
O O5 0.927907 0.638505 0.449399
O O6 0.624425 0.694495 0.140416
O O7 0.951493 0.917308 0.775407
O O8 0.214488 0.400794 0.694779
O O9 0.292925 0.418466 0.331114
O O10 0.500000 0.000000 0.500000
O O11 0.000000 0.500000 0.000000
#
# Coordination Sequence:
#
# PCOD8037756 Si02
#       5
#     2   2   2   2   2
#     4  12  26  52  78 114 158 199 250 327 385 444
#     4  12  28  51  77 116 158 195 258 324 381 451
#     4  12  27  48  79 113 153 204 257 309 383 461
#     4  12  26  48  80 112 155 202 256 311 384 459
#     4  12  26  48  79 110 153 208 255 309 381 459
#
# _framework density 25.493351000000001
#
# number of rings (size 3 to 8) (size 9 to 14) (size 15 to 20)
#    0.000    0.000    4.000    5.400    2.800    0.800 
#    0.000    0.000    0.000    0.000    0.000    0.000 
#    0.000    0.000    0.000    0.000    0.000    0.000 
#
# Total GULP energy -123947.073321 kJ/mol
# GULP energy per Si atom -12394.707332 kJ/mol
# Density = 2.543533 g / cm^3
# Si number density = 25.493351 Si / 1000 Ang^3
#
#
#
# Elastic Constant Matrix: (Units=GPa)
#
#
# Indices 1 2 3 4 5 6 
#
# 1 135.6121 87.7146 56.5296 10.1536 14.5317 -0.3411
# 2 87.7146 190.0240 63.7540 -4.7042 4.5057 13.5267
# 3 56.5296 63.7540 64.4217 1.8269 9.3766 -12.1704
# 4 10.1536 -4.7042 1.8269 41.0090 9.8574 -10.0678
# 5 14.5317 4.5057 9.3766 9.8574 37.6865 -3.9868
# 6 -0.3411 13.5267 -12.1704 -10.0678 -3.9868 59.1595
#
#
#
# Elastic Compliance Matrix: (Units=1/GPa)
#
#
# Indices 1 2 3 4 5 6 
#
# 1 0.013511 -0.003301 -0.008507 -0.003255 -0.002017 -0.001607
# 2 -0.003301 0.009502 -0.007380 0.001073 0.001329 -0.003438
# 3 -0.008507 -0.007380 0.032364 0.002805 -0.003722 0.008523
# 4 -0.003255 0.001073 0.002805 0.027855 -0.006368 0.004624
# 5 -0.002017 0.001329 -0.003722 -0.006368 0.029728 -0.000161
# 6 -0.001607 -0.003438 0.008523 0.004624 -0.000161 0.020210
#
#
# Mechanical properties :
#
#
# Convention : Reuss Voigt Hill
#
# Bulk Modulus (GPa) = 58.82213 89.56158 74.19185
# Shear Modulus (GPa) = 28.21483 39.70828 33.96156
#
# Velocity S-wave (km/s) = 3.33040 3.95092 3.65385
# Velocity P-wave (km/s) = 6.15730 7.48469 6.85321
#
# Compressibility (1/GPa) = 0.01700041
#
# Stress axis : x y z
#
# Youngs Moduli (GPa) = 74.01503 105.23988 30.89894
#
# Poissons Ratio (x) = 0.34738 0.26285
# Poissons Ratio (y) = 0.24431 0.22805
# Poissons Ratio (z) = 0.62963 0.77672
#
# Static dielectric constant tensor:
#      x y z
#    x 4.977590 0.133650 -0.089810 
#    y 0.133650 5.276220 0.108590 
#    z -0.089810 0.108590 4.305680 
# 
# 
# High freq. dielectric constant tensor:
#      x y z
#    x 2.036330 0.006190 -0.005780 
#    y 0.006190 2.046020 0.012950 
#    z -0.005780 0.012950 1.993880 
# 
# From -- ./inp_files/144172.got.cif
#   From: 2010.06.25/outbox.cif.g09.slc.cpg/sg2_73_cif.got.tgz:144172.got - 2010.06.27 13:26:56.
