data_PCOD8037100
_publ_section_title
;
Structure prediction by ZEFSAII (Michael W. Deem and Ramdas Pophale) SiO2 
 PCOD8037100
Probable space group: P -1
;
_chemical_formula_sum "Si O2"
_cell_formula_units_Z 16
_cell_length_a 11.669903
_cell_length_b 5.274300
_cell_length_c 11.855995
_cell_angle_alpha 109.630013
_cell_angle_beta 67.363992
_cell_angle_gamma 108.533196
_cell_volume 619.283262
_symmetry_space_group_name_H-M "P -1"
_symmetry_group_IT_number 2
_symmetry_cell_setting 'triclinic'
loop_
_space_group_symop_operation_xyz
x,y,z
-x,-y,-z
loop_
_atom_site_type_symbol
_atom_site_label
_atom_site_fract_x
_atom_site_fract_y
_atom_site_fract_z
Si Si1 0.481003 0.721425 0.395908
Si Si2 0.757071 0.420040 0.875364
Si Si3 0.517345 0.104525 0.827964
Si Si4 0.924656 0.600715 0.647149
Si Si5 0.733967 0.737712 0.374612
Si Si6 0.766984 0.039580 0.014450
Si Si7 0.281389 0.213092 0.373477
Si Si8 0.852632 0.219602 0.247761
O O1 0.511241 0.776391 0.261985
O O2 0.588858 0.567484 0.381795
O O3 0.339804 0.534448 0.435087
O O4 0.500000 0.000000 0.500000
O O5 0.603519 0.341488 0.908720
O O6 0.824011 0.363203 0.720431
O O7 0.810417 0.248062 0.925637
O O8 0.795198 0.742872 0.935033
O O9 0.383193 0.968842 0.914163
O O10 0.608079 0.884142 0.751317
O O11 0.843573 0.810029 0.658352
O O12 0.000000 0.500000 0.500000
O O13 0.015805 0.765529 0.733530
O O14 0.751930 0.923923 0.511079
O O15 0.822802 0.520932 0.315948
O O16 0.756454 0.959194 0.298382
O O17 0.855341 0.161003 0.104877
#
# Coordination Sequence:
#
# PCOD8037100 Si02
#       8
#     2   2   2   2   2   2   2   2
#     4  12  24  42  73 116 164 196 252 322 404 473
#     4  12  29  53  79 117 155 211 261 326 388 467
#     4  12  26  45  82 115 160 203 254 325 403 473
#     4  12  29  53  82 115 158 209 268 326 389 463
#     4  12  25  45  74 118 160 200 255 319 399 464
#     4  12  28  53  82 114 161 204 267 319 394 469
#     4  12  26  45  75 118 166 203 254 322 402 471
#     4  12  28  50  80 114 154 214 265 320 384 461
#
# _framework density 25.836316
#
# number of rings (size 3 to 8) (size 9 to 14) (size 15 to 20)
#    0.000    0.000    5.000    4.125    3.500    3.500 
#    0.000    0.000    0.000    0.000    0.000    0.000 
#    0.000    0.000    0.000    0.000    0.000    0.000 
#
# Total GULP energy -198355.853546 kJ/mol
# GULP energy per Si atom -12397.240847 kJ/mol
# Density = 2.577751 g / cm^3
# Si number density = 25.836316 Si / 1000 Ang^3
#
#
#
# Elastic Constant Matrix: (Units=GPa)
#
#
# Indices 1 2 3 4 5 6 
#
# 1 171.0406 23.9254 46.9538 4.3682 32.2863 -2.8817
# 2 23.9254 76.1784 30.4966 2.8256 10.3798 -26.4916
# 3 46.9538 30.4966 141.6664 -13.3074 23.9320 -13.3145
# 4 4.3682 2.8256 -13.3074 36.0537 -9.2840 6.4553
# 5 32.2863 10.3798 23.9320 -9.2840 44.3918 -0.0926
# 6 -2.8817 -26.4916 -13.3145 6.4553 -0.0926 36.5059
#
#
#
# Elastic Compliance Matrix: (Units=1/GPa)
#
#
# Indices 1 2 3 4 5 6 
#
# 1 0.007423 -0.001005 -0.001711 -0.002630 -0.004792 -0.000315
# 2 -0.001005 0.020393 -0.002576 -0.006087 -0.003890 0.014846
# 3 -0.001711 -0.002576 0.008922 0.002971 -0.002341 0.000719
# 4 -0.002630 -0.006087 0.002971 0.033571 0.008735 -0.009455
# 5 -0.004792 -0.003890 -0.002341 0.008735 0.029999 -0.005524
# 6 -0.000315 0.014846 0.000719 -0.009455 -0.005524 0.040062
#
#
# Mechanical properties :
#
#
# Convention : Reuss Voigt Hill
#
# Bulk Modulus (GPa) = 38.23536 65.73744 51.98640
# Shear Modulus (GPa) = 31.31395 42.55760 36.93578
#
# Velocity S-wave (km/s) = 3.48517 4.06298 3.78512
# Velocity P-wave (km/s) = 5.57014 6.89271 6.26641
#
# Compressibility (1/GPa) = 0.02615380
#
# Stress axis : x y z
#
# Youngs Moduli (GPa) = 134.70997 49.03661 112.07635
#
# Poissons Ratio (x) = 0.04931 0.19176
# Poissons Ratio (y) = 0.13545 0.28871
# Poissons Ratio (z) = 0.23049 0.12632
#
# Static dielectric constant tensor:
#      x y z
#    x 5.004060 0.178840 0.163320 
#    y 0.178840 4.583690 -0.152820 
#    z 0.163320 -0.152820 4.981290 
# 
# 
# High freq. dielectric constant tensor:
#      x y z
#    x 2.046820 -0.003090 0.020790 
#    y -0.003090 2.025190 -0.006510 
#    z 0.020790 -0.006510 2.042640 
# 
# From -- ./inp_files/410759.got.cif
#   From: 2010.06.25/outbox.cif.g09.slc.cpg/sg2_206_cif.got.tgz:410759.got - 2010.06.27 13:26:56.
