data_PCOD8037118
_publ_section_title
;
Structure prediction by ZEFSAII (Michael W. Deem and Ramdas Pophale) SiO2 
 PCOD8037118
Probable space group: P -1
;
_chemical_formula_sum "Si O2"
_cell_formula_units_Z 16
_cell_length_a 11.127131
_cell_length_b 6.719103
_cell_length_c 24.831934
_cell_angle_alpha 130.619989
_cell_angle_beta 30.881950
_cell_angle_gamma 117.278159
_cell_volume 698.856376
_symmetry_space_group_name_H-M "P -1"
_symmetry_group_IT_number 2
_symmetry_cell_setting 'triclinic'
loop_
_space_group_symop_operation_xyz
x,y,z
-x,-y,-z
loop_
_atom_site_type_symbol
_atom_site_label
_atom_site_fract_x
_atom_site_fract_y
_atom_site_fract_z
Si Si1 0.977682 0.151075 0.592476
Si Si2 0.501614 0.813052 0.048428
Si Si3 0.972881 0.744125 0.696043
Si Si4 0.710157 0.363410 0.229669
Si Si5 0.048978 0.545048 0.049610
Si Si6 0.994837 0.841267 0.817215
Si Si7 0.490334 0.106275 0.821021
Si Si8 0.335746 0.890993 0.500170
O O1 0.902477 0.467057 0.660235
O O2 0.765883 0.076415 0.694411
O O3 0.000000 0.000000 0.500000
O O4 0.213205 0.082356 0.530157
O O5 0.531200 0.956295 0.118954
O O6 0.246764 0.996120 0.157409
O O7 0.500000 0.500000 0.000000
O O8 0.715998 0.834993 0.930298
O O9 0.111393 0.693313 0.691320
O O10 0.124192 0.815756 0.601761
O O11 0.490369 0.628075 0.363783
O O12 0.895721 0.386410 0.115861
O O13 0.849134 0.333415 0.227001
O O14 0.612874 0.101039 0.210905
O O15 0.973501 0.858730 0.146649
O O16 0.334419 0.415449 0.926447
O O17 0.000000 0.500000 0.000000
O O18 0.500000 0.000000 0.500000
#
# Coordination Sequence:
#
# PCOD8037118 Si02
#       8
#     2   2   2   2   2   2   2   2
#     4  12  29  49  76 107 146 193 247 299 359 429
#     4  12  25  45  75 104 146 185 236 299 363 428
#     4  12  27  48  75 104 141 194 237 296 364 426
#     4  12  27  44  72 107 144 189 239 299 356 429
#     4  12  24  43  71 109 147 190 234 296 364 433
#     4  12  25  45  73 106 144 186 240 292 366 429
#     4  12  24  46  73 105 147 185 238 299 363 423
#     4  12  29  50  74 103 146 191 247 301 356 430
#
# _framework density 22.894548
#
# number of rings (size 3 to 8) (size 9 to 14) (size 15 to 20)
#    0.000    0.000    3.750    6.000    5.250    5.000 
#    0.000    0.000    0.000    0.000    0.000    0.000 
#    0.000    0.000    0.000    0.000    0.000    0.000 
#
# Total GULP energy -198387.544658 kJ/mol
# GULP energy per Si atom -12399.221541 kJ/mol
# Density = 2.284244 g / cm^3
# Si number density = 22.894548 Si / 1000 Ang^3
#
#
#
# Elastic Constant Matrix: (Units=GPa)
#
#
# Indices 1 2 3 4 5 6 
#
# 1 122.8513 23.9174 30.5033 -6.6639 11.9073 -14.9160
# 2 23.9174 108.6715 26.1123 14.3308 -3.4857 5.2172
# 3 30.5033 26.1123 99.5534 14.9911 -4.8037 -4.3928
# 4 -6.6639 14.3308 14.9911 31.4119 2.9904 1.1557
# 5 11.9073 -3.4857 -4.8037 2.9904 43.4994 1.8009
# 6 -14.9160 5.2172 -4.3928 1.1557 1.8009 36.8219
#
#
#
# Elastic Compliance Matrix: (Units=1/GPa)
#
#
# Indices 1 2 3 4 5 6 
#
# 1 0.010689 -0.002570 -0.003403 0.005291 -0.004050 0.004320
# 2 -0.002570 0.010939 -0.001362 -0.004966 0.001882 -0.002690
# 3 -0.003403 -0.001362 0.012545 -0.006352 0.002628 0.000382
# 4 0.005291 -0.004966 -0.006352 0.038713 -0.005256 0.001131
# 5 -0.004050 0.001882 0.002628 -0.005256 0.025010 -0.002652
# 6 0.004320 -0.002690 0.000382 0.001131 -0.002652 0.029429
#
#
# Mechanical properties :
#
#
# Convention : Reuss Voigt Hill
#
# Bulk Modulus (GPa) = 51.27050 54.68247 52.97648
# Shear Modulus (GPa) = 33.67107 39.04953 36.36030
#
# Velocity S-wave (km/s) = 3.83913 4.13440 3.98950
# Velocity P-wave (km/s) = 6.48805 6.83574 6.66416
#
# Compressibility (1/GPa) = 0.01950439
#
# Stress axis : x y z
#
# Youngs Moduli (GPa) = 93.55226 91.41315 79.71442
#
# Poissons Ratio (x) = 0.23493 0.27123
# Poissons Ratio (y) = 0.24043 0.10856
# Poissons Ratio (z) = 0.31832 0.12449
#
# Static dielectric constant tensor:
#      x y z
#    x 4.274340 -0.201760 0.022790 
#    y -0.201760 3.926480 0.071730 
#    z 0.022790 0.071730 4.229480 
# 
# 
# High freq. dielectric constant tensor:
#      x y z
#    x 1.927040 -0.008590 0.008030 
#    y -0.008590 1.908520 0.005120 
#    z 0.008030 0.005120 1.911670 
# 
# From -- ./inp_files/617940.got.cif
#   From: 2010.06.25/outbox.cif.g09.slc.cpg/sg2_309_cif.got.tgz:617940.got - 2010.06.27 13:26:56.
