data_PCOD8037321
_publ_section_title
;
Structure prediction by ZEFSAII (Michael W. Deem and Ramdas Pophale) SiO2 
 PCOD8037321
Probable space group: P -1
;
_chemical_formula_sum "Si O2"
_cell_formula_units_Z 12
_cell_length_a 9.977092
_cell_length_b 8.701904
_cell_length_c 11.254780
_cell_angle_alpha 112.560306
_cell_angle_beta 140.921587
_cell_angle_gamma 87.405771
_cell_volume 512.511135
_symmetry_space_group_name_H-M "P -1"
_symmetry_group_IT_number 2
_symmetry_cell_setting 'triclinic'
loop_
_space_group_symop_operation_xyz
x,y,z
-x,-y,-z
loop_
_atom_site_type_symbol
_atom_site_label
_atom_site_fract_x
_atom_site_fract_y
_atom_site_fract_z
Si Si1 0.231433 0.751244 0.988972
Si Si2 0.931938 0.147153 0.552381
Si Si3 0.743799 0.507849 0.707872
Si Si4 0.438612 0.922723 0.562444
Si Si5 0.247403 0.669313 0.709588
Si Si6 0.668899 0.553360 0.935092
O O1 0.285755 0.772858 0.892571
O O2 0.956669 0.634444 0.804199
O O3 0.389260 0.655836 0.127676
O O4 0.323362 0.962851 0.162050
O O5 0.766131 0.030769 0.511496
O O6 0.768449 0.200563 0.366925
O O7 0.000000 0.000000 0.500000
O O8 0.158146 0.323202 0.806568
O O9 0.500000 0.500000 0.500000
O O10 0.690289 0.297202 0.591016
O O11 0.797365 0.581953 0.902804
O O12 0.500000 0.000000 0.500000
O O13 0.442001 0.595909 0.787997
O O14 0.000000 0.500000 0.500000
#
# Coordination Sequence:
#
# PCOD8037321 Si02
#       6
#     2   2   2   2   2   2
#     4  12  25  46  78 105 150 197 243 302 373 428
#     4  12  28  47  73 109 148 190 245 307 364 434
#     4  12  26  48  74 110 149 190 248 307 359 439
#     4  12  25  45  73 107 142 191 248 294 365 436
#     4  12  26  46  74 110 145 192 251 294 367 443
#     4  12  24  47  76 102 151 195 236 305 368 426
#
# _framework density 23.414124999999999
#
# number of rings (size 3 to 8) (size 9 to 14) (size 15 to 20)
#    0.000    0.000    5.000    5.000    2.333    6.000 
#    0.000    0.000    0.000    0.000    0.000    0.000 
#    0.000    0.000    0.000    0.000    0.000    0.000 
#
# Total GULP energy -148679.414170 kJ/mol
# GULP energy per Si atom -12389.951181 kJ/mol
# Density = 2.336083 g / cm^3
# Si number density = 23.414125 Si / 1000 Ang^3
#
#
#
# Elastic Constant Matrix: (Units=GPa)
#
#
# Indices 1 2 3 4 5 6 
#
# 1 178.7155 49.5854 51.5728 0.9558 -1.3430 -16.2287
# 2 49.5854 70.8741 41.9708 -17.1737 9.0479 -15.4862
# 3 51.5728 41.9708 115.4505 8.9847 -3.6378 -14.4082
# 4 0.9558 -17.1737 8.9847 46.6911 -0.9393 3.3176
# 5 -1.3430 9.0479 -3.6378 -0.9393 53.5187 -2.7449
# 6 -16.2287 -15.4862 -14.4082 3.3176 -2.7449 30.9894
#
#
#
# Elastic Compliance Matrix: (Units=1/GPa)
#
#
# Indices 1 2 3 4 5 6 
#
# 1 0.007388 -0.004666 -0.001295 -0.001685 0.000918 0.001197
# 2 -0.004666 0.026441 -0.007824 0.010838 -0.004644 0.005561
# 3 -0.001295 -0.007824 0.012845 -0.005433 0.002179 0.002159
# 4 -0.001685 0.010838 -0.005433 0.026517 -0.001829 -0.000993
# 5 0.000918 -0.004644 0.002179 -0.001829 0.019666 0.001111
# 6 0.001197 0.005561 0.002159 -0.000993 0.001111 0.036883
#
#
# Mechanical properties :
#
#
# Convention : Reuss Voigt Hill
#
# Bulk Modulus (GPa) = 52.34117 72.36644 62.35381
# Shear Modulus (GPa) = 30.54740 41.03392 35.79066
#
# Velocity S-wave (km/s) = 3.61592 4.19086 3.91396
# Velocity P-wave (km/s) = 6.31160 7.37510 6.86397
#
# Compressibility (1/GPa) = 0.01910542
#
# Stress axis : x y z
#
# Youngs Moduli (GPa) = 135.34704 37.81936 77.85040
#
# Poissons Ratio (x) = 0.17648 0.10078
# Poissons Ratio (y) = 0.63159 0.60908
# Poissons Ratio (z) = 0.17521 0.29589
#
# Static dielectric constant tensor:
#      x y z
#    x 4.069360 -0.783420 -0.196350 
#    y -0.783420 4.071250 0.678890 
#    z -0.196350 0.678890 4.915550 
# 
# 
# High freq. dielectric constant tensor:
#      x y z
#    x 1.961340 -0.004640 -0.008870 
#    y -0.004640 1.910590 0.010330 
#    z -0.008870 0.010330 1.941120 
# 
# From -- ./inp_files/233032.got.cif
#   From: 2010.06.25/outbox.cif.g09.slc.cpg/sg2_117_cif.got.tgz:233032.got - 2010.06.27 13:26:56.
