data_PCOD8037988
_publ_section_title
;
Structure prediction by ZEFSAII (Michael W. Deem and Ramdas Pophale) SiO2 
 PCOD8037988
Probable space group: P -1
;
_chemical_formula_sum "Si O2"
_cell_formula_units_Z 16
_cell_length_a 11.422785
_cell_length_b 16.992862
_cell_length_c 8.857416
_cell_angle_alpha 102.786705
_cell_angle_beta 60.526138
_cell_angle_gamma 53.554891
_cell_volume 818.505120
_symmetry_space_group_name_H-M "P -1"
_symmetry_group_IT_number 2
_symmetry_cell_setting 'triclinic'
loop_
_space_group_symop_operation_xyz
x,y,z
-x,-y,-z
loop_
_atom_site_type_symbol
_atom_site_label
_atom_site_fract_x
_atom_site_fract_y
_atom_site_fract_z
Si Si1 0.816173 0.699374 0.818015
Si Si2 0.516538 0.676599 0.489410
Si Si3 0.146124 0.769652 0.585920
Si Si4 0.363201 0.042258 0.956773
Si Si5 0.665843 0.750471 0.594874
Si Si6 0.666462 0.498366 0.577682
Si Si7 0.558300 0.379572 0.935057
Si Si8 0.187379 0.452183 0.042509
O O1 0.690864 0.737090 0.755660
O O2 0.770192 0.655657 0.954599
O O3 0.098767 0.567289 0.549265
O O4 0.719426 0.831789 0.010224
O O5 0.262322 0.785983 0.614303
O O6 0.493269 0.762475 0.658147
O O7 0.592330 0.558010 0.480859
O O8 0.730741 0.592171 0.202073
O O9 0.281087 0.622356 0.494783
O O10 0.195349 0.762159 0.371836
O O11 0.863116 0.903376 0.841692
O O12 0.543366 0.896602 0.682972
O O13 0.500000 0.000000 0.000000
O O14 0.915664 0.617589 0.294239
O O15 0.446899 0.634029 0.887154
O O16 0.500000 0.500000 0.000000
O O17 0.341646 0.440745 0.024030
#
# Coordination Sequence:
#
# PCOD8037988 Si02
#       8
#     2   2   2   2   2   2   2   2
#     4  10  19  35  59  83 111 143 191 236 268 322
#     4  11  22  32  55  86 118 146 182 231 280 333
#     4   9  20  36  54  81 116 147 179 233 279 331
#     4   9  21  38  61  81 108 149 189 227 280 331
#     4  11  20  34  57  86 109 150 185 227 276 331
#     4  10  17  33  56  83 112 146 184 229 283 316
#     4   9  18  31  55  86 109 142 183 237 276 318
#     4  11  20  34  55  89 115 141 187 236 276 317
#
# _framework density 19.547830000000001
#
# number of rings (size 3 to 8) (size 9 to 14) (size 15 to 20)
#    0.000    2.000    2.500    1.875    1.750    0.500 
#    0.000    0.625    0.000   20.250    0.000    0.000 
#    0.000    0.000    0.000    0.000    0.000    0.000 
#
# Total GULP energy -198242.608105 kJ/mol
# GULP energy per Si atom -12390.163007 kJ/mol
# Density = 1.950334 g / cm^3
# Si number density = 19.547830 Si / 1000 Ang^3
#
#
#
# Elastic Constant Matrix: (Units=GPa)
#
#
# Indices 1 2 3 4 5 6 
#
# 1 95.2027 24.1843 53.7418 2.8845 -6.3058 9.8658
# 2 24.1843 81.8808 62.2214 -11.4291 4.1463 10.7613
# 3 53.7418 62.2214 81.1447 -1.9204 -4.1649 -0.2313
# 4 2.8845 -11.4291 -1.9204 31.5382 -2.3063 -0.0696
# 5 -6.3058 4.1463 -4.1649 -2.3063 23.6867 -3.5313
# 6 9.8658 10.7613 -0.2313 -0.0696 -3.5313 23.9461
#
#
#
# Elastic Compliance Matrix: (Units=1/GPa)
#
#
# Indices 1 2 3 4 5 6 
#
# 1 0.026315 0.022395 -0.034901 0.003093 -0.006049 -0.022126
# 2 0.022395 0.062359 -0.063473 0.015078 -0.020741 -0.040879
# 3 -0.034901 -0.063473 0.085096 -0.012876 0.022537 0.047012
# 4 0.003093 0.015078 -0.012876 0.035953 -0.001823 -0.008339
# 5 -0.006049 -0.020741 0.022537 -0.001823 0.050936 0.019537
# 6 -0.022126 -0.040879 0.047012 -0.008339 0.019537 0.072558
#
#
# Mechanical properties :
#
#
# Convention : Reuss Voigt Hill
#
# Bulk Modulus (GPa) = 45.84782 59.83589 52.84186
# Shear Modulus (GPa) = 10.15340 23.70623 16.92981
#
# Velocity S-wave (km/s) = 2.28154 3.48620 2.94610
# Velocity P-wave (km/s) = 5.51776 6.84699 6.21799
#
# Compressibility (1/GPa) = 0.02181129
#
# Stress axis : x y z
#
# Youngs Moduli (GPa) = 38.00085 16.03616 11.75150
#
# Poissons Ratio (x) = -0.35913 0.41014
# Poissons Ratio (y) = -0.85103 0.74590
# Poissons Ratio (z) = 1.32628 1.01786
#
# Static dielectric constant tensor:
#      x y z
#    x 3.816960 0.203470 0.078000 
#    y 0.203470 3.585690 -0.051160 
#    z 0.078000 -0.051160 3.712260 
# 
# 
# High freq. dielectric constant tensor:
#      x y z
#    x 1.784740 0.010990 -0.002590 
#    y 0.010990 1.732260 -0.011480 
#    z -0.002590 -0.011480 1.742960 
# 
# From -- ./inp_files/254164.got.cif
#   From: 2010.06.25/outbox.cif.g09.slc.cpg/sg2_128_cif.got.tgz:254164.got - 2010.06.27 13:26:56.
