data_PCOD8037114
_publ_section_title
;
Structure prediction by ZEFSAII (Michael W. Deem and Ramdas Pophale) SiO2 
 PCOD8037114
Probable space group: P -1
;
_chemical_formula_sum "Si O2"
_cell_formula_units_Z 12
_cell_length_a 14.658171
_cell_length_b 18.060377
_cell_length_c 9.649576
_cell_angle_alpha 36.346582
_cell_angle_beta 132.519846
_cell_angle_gamma 159.287602
_cell_volume 497.480852
_symmetry_space_group_name_H-M "P -1"
_symmetry_group_IT_number 2
_symmetry_cell_setting 'triclinic'
loop_
_space_group_symop_operation_xyz
x,y,z
-x,-y,-z
loop_
_atom_site_type_symbol
_atom_site_label
_atom_site_fract_x
_atom_site_fract_y
_atom_site_fract_z
Si Si1 0.928115 0.023399 0.516553
Si Si2 0.881323 0.496468 0.780335
Si Si3 0.538321 0.905765 0.596311
Si Si4 0.606403 0.309889 0.518520
Si Si5 0.054224 0.128030 0.999548
Si Si6 0.451658 0.654663 0.133405
O O1 0.227209 0.344027 0.384357
O O2 0.710976 0.940257 0.388879
O O3 0.789838 0.818628 0.808705
O O4 0.000000 0.000000 0.500000
O O5 0.744045 0.337099 0.730299
O O6 0.619398 0.314539 0.864560
O O7 0.137091 0.820610 0.520436
O O8 0.000000 0.500000 0.000000
O O9 0.370543 0.742685 0.525068
O O10 0.500000 0.000000 0.500000
O O11 0.433432 0.698722 0.895662
O O12 0.777763 0.593836 0.273045
O O13 0.759428 0.888958 0.128591
O O14 0.000000 0.000000 0.000000
#
# Coordination Sequence:
#
# PCOD8037114 Si02
#       6
#     2   2   2   2   2   2
#     4  12  24  43  70 113 145 192 252 296 369 449
#     4  12  26  50  73 109 149 194 252 311 371 443
#     4  12  26  50  73 109 151 195 252 312 369 438
#     4  12  26  47  77 110 152 197 247 309 373 440
#     4  12  24  45  76 109 153 196 244 304 371 443
#     4  12  24  47  75 104 156 193 241 312 366 437
#
# _framework density 24.121531999999998
#
# number of rings (size 3 to 8) (size 9 to 14) (size 15 to 20)
#    0.000    0.000    5.000    6.000    0.000    1.333 
#    0.000    0.000    0.000    0.000    0.000    0.000 
#    0.000    0.000    0.000    0.000    0.000    0.000 
#
# Total GULP energy -148712.071889 kJ/mol
# GULP energy per Si atom -12392.672657 kJ/mol
# Density = 2.406663 g / cm^3
# Si number density = 24.121532 Si / 1000 Ang^3
#
#
#
# Elastic Constant Matrix: (Units=GPa)
#
#
# Indices 1 2 3 4 5 6 
#
# 1 136.1687 41.3190 30.2040 8.5202 -15.0130 -21.0406
# 2 41.3190 99.2756 15.7669 13.0720 -10.9019 -13.4255
# 3 30.2040 15.7669 75.8781 14.1266 -18.4270 -12.6339
# 4 8.5202 13.0720 14.1266 61.8005 -2.8357 -16.7181
# 5 -15.0130 -10.9019 -18.4270 -2.8357 38.4104 -0.5473
# 6 -21.0406 -13.4255 -12.6339 -16.7181 -0.5473 53.3757
#
#
#
# Elastic Compliance Matrix: (Units=1/GPa)
#
#
# Indices 1 2 3 4 5 6 
#
# 1 0.009345 -0.003064 -0.002357 0.000678 0.001739 0.002585
# 2 -0.003064 0.011992 -0.000284 -0.001620 0.001968 0.001254
# 3 -0.002357 -0.000284 0.016677 -0.002509 0.006846 0.002231
# 4 0.000678 -0.001620 -0.002509 0.018363 0.000028 0.005017
# 5 0.001739 0.001968 0.006846 0.000028 0.030604 0.003124
# 6 0.002585 0.001254 0.002231 0.005017 0.003124 0.022202
#
#
# Mechanical properties :
#
#
# Convention : Reuss Voigt Hill
#
# Bulk Modulus (GPa) = 37.58532 53.98912 45.78722
# Shear Modulus (GPa) = 38.62206 45.65280 42.13743
#
# Velocity S-wave (km/s) = 4.00577 4.35514 4.18410
# Velocity P-wave (km/s) = 6.08362 6.90799 6.50887
#
# Compressibility (1/GPa) = 0.02660613
#
# Stress axis : x y z
#
# Youngs Moduli (GPa) = 107.00809 83.38699 59.96192
#
# Poissons Ratio (x) = 0.25548 0.14130
# Poissons Ratio (y) = 0.32785 0.01703
# Poissons Ratio (z) = 0.25217 0.02368
#
# Static dielectric constant tensor:
#      x y z
#    x 4.275700 0.017830 -0.364160 
#    y 0.017830 4.497460 0.045620 
#    z -0.364160 0.045620 4.559790 
# 
# 
# High freq. dielectric constant tensor:
#      x y z
#    x 1.959090 -0.001650 -0.018490 
#    y -0.001650 1.966430 0.004270 
#    z -0.018490 0.004270 1.965280 
# 
# From -- ./inp_files/24426.got.cif
#   From: 2010.06.25/outbox.cif.g09.slc.cpg/sg2_13_cif.got.tgz:24426.got - 2010.06.27 13:26:56.
