data_PCOD8037054
_publ_section_title
;
Structure prediction by ZEFSAII (Michael W. Deem and Ramdas Pophale) SiO2 
 PCOD8037054
Probable space group: P -1
;
_chemical_formula_sum "Si O2"
_cell_formula_units_Z 12
_cell_length_a 15.679548
_cell_length_b 15.502937
_cell_length_c 5.703224
_cell_angle_alpha 128.809563
_cell_angle_beta 126.393283
_cell_angle_gamma 28.676471
_cell_volume 514.871827
_symmetry_space_group_name_H-M "P -1"
_symmetry_group_IT_number 2
_symmetry_cell_setting 'triclinic'
loop_
_space_group_symop_operation_xyz
x,y,z
-x,-y,-z
loop_
_atom_site_type_symbol
_atom_site_label
_atom_site_fract_x
_atom_site_fract_y
_atom_site_fract_z
Si Si1 0.050285 0.337340 0.214577
Si Si2 0.447233 0.774446 0.611943
Si Si3 0.846688 0.933470 0.713057
Si Si4 0.817927 0.379048 0.589388
Si Si5 0.431698 0.012263 0.158448
Si Si6 0.203086 0.833011 0.616805
O O1 0.115741 0.204781 0.306227
O O2 0.220683 0.210931 0.113318
O O3 0.000000 0.500000 0.500000
O O4 0.891070 0.412453 0.939862
O O5 0.644111 0.571971 0.494987
O O6 0.331641 0.769305 0.512540
O O7 0.332115 0.937183 0.507273
O O8 0.476364 0.843871 0.974994
O O9 0.026320 0.799446 0.625429
O O10 0.793332 0.090411 0.024327
O O11 0.736367 0.343552 0.537059
O O12 0.500000 0.000000 0.500000
O O13 0.500000 0.000000 0.000000
O O14 0.000000 0.000000 0.500000
#
# Coordination Sequence:
#
# PCOD8037054 Si02
#       6
#     2   2   2   2   2   2
#     4  12  27  49  75 108 152 200 253 319 384 466
#     4  12  27  46  74 112 149 195 256 314 382 457
#     4  12  24  48  75 103 154 191 255 310 391 442
#     4  12  27  46  75 111 145 199 252 311 382 470
#     4  12  26  48  76 110 154 205 257 322 387 459
#     4  12  23  49  75 105 153 195 248 316 388 451
#
# _framework density 23.306771000000001
#
# number of rings (size 3 to 8) (size 9 to 14) (size 15 to 20)
#    0.000    0.000    6.667    3.000    2.333    2.667 
#    0.000    0.000    0.000    0.000    0.000    0.000 
#    0.000    0.000    0.000    0.000    0.000    0.000 
#
# Total GULP energy -148702.353055 kJ/mol
# GULP energy per Si atom -12391.862755 kJ/mol
# Density = 2.325372 g / cm^3
# Si number density = 23.306771 Si / 1000 Ang^3
#
#
#
# Elastic Constant Matrix: (Units=GPa)
#
#
# Indices 1 2 3 4 5 6 
#
# 1 123.0538 41.8584 44.7171 -13.4721 7.2253 2.7046
# 2 41.8584 164.8368 30.3234 -15.3122 2.1086 -19.8457
# 3 44.7171 30.3234 107.5551 -0.5375 12.5705 -3.3424
# 4 -13.4721 -15.3122 -0.5375 36.6686 9.2537 3.3079
# 5 7.2253 2.1086 12.5705 9.2537 38.7561 0.7240
# 6 2.7046 -19.8457 -3.3424 3.3079 0.7240 15.7090
#
#
#
# Elastic Compliance Matrix: (Units=1/GPa)
#
#
# Indices 1 2 3 4 5 6 
#
# 1 0.011064 -0.002509 -0.003908 0.003933 -0.001473 -0.006666
# 2 -0.002509 0.008279 -0.000929 0.001655 -0.000270 0.010357
# 3 -0.003908 -0.000929 0.011571 -0.001174 -0.002737 0.002334
# 4 0.003933 0.001655 -0.001174 0.031865 -0.007954 -0.005179
# 5 -0.001473 -0.000270 -0.002737 -0.007954 0.028885 -0.000326
# 6 -0.006666 0.010357 0.002334 -0.005179 -0.000326 0.079492
#
#
# Mechanical properties :
#
#
# Convention : Reuss Voigt Hill
#
# Bulk Modulus (GPa) = 61.64749 69.91594 65.78172
# Shear Modulus (GPa) = 26.14321 36.79654 31.46987
#
# Velocity S-wave (km/s) = 3.35281 3.97771 3.67856
# Velocity P-wave (km/s) = 6.44177 7.15259 6.80646
#
# Compressibility (1/GPa) = 0.01622126
#
# Stress axis : x y z
#
# Youngs Moduli (GPa) = 90.38584 120.78933 86.42424
#
# Poissons Ratio (x) = 0.30306 0.33773
# Poissons Ratio (y) = 0.22678 0.08031
# Poissons Ratio (z) = 0.35321 0.11224
#
# Static dielectric constant tensor:
#      x y z
#    x 4.427740 -0.105690 -0.112490 
#    y -0.105690 4.381870 -0.245420 
#    z -0.112490 -0.245420 4.336030 
# 
# 
# High freq. dielectric constant tensor:
#      x y z
#    x 1.928390 -0.007170 0.017290 
#    y -0.007170 1.930390 0.002760 
#    z 0.017290 0.002760 1.931950 
# 
# From -- ./inp_files/25417.got.cif
#   From: 2010.06.25/outbox.cif.g09.slc.cpg/sg2_13_cif.got.tgz:25417.got - 2010.06.27 13:26:56.
