data_PCOD8037632
_publ_section_title
;
Structure prediction by ZEFSAII (Michael W. Deem and Ramdas Pophale) SiO2 
 PCOD8037632
Probable space group: P -1
;
_chemical_formula_sum "Si O2"
_cell_formula_units_Z 12
_cell_length_a 19.854101
_cell_length_b 13.822030
_cell_length_c 5.145485
_cell_angle_alpha 69.809605
_cell_angle_beta 76.514087
_cell_angle_gamma 20.941160
_cell_volume 456.636338
_symmetry_space_group_name_H-M "P -1"
_symmetry_group_IT_number 2
_symmetry_cell_setting 'triclinic'
loop_
_space_group_symop_operation_xyz
x,y,z
-x,-y,-z
loop_
_atom_site_type_symbol
_atom_site_label
_atom_site_fract_x
_atom_site_fract_y
_atom_site_fract_z
Si Si1 0.048624 0.322176 0.738046
Si Si2 0.289637 0.958731 0.367656
Si Si3 0.688620 0.677781 0.724842
Si Si4 0.628096 0.586951 0.245995
Si Si5 0.611714 0.388528 0.249897
Si Si6 0.039403 0.857334 0.303686
O O1 0.854643 0.528336 0.785717
O O2 0.000000 0.500000 0.500000
O O3 0.180835 0.084928 0.618378
O O4 0.151983 0.188729 0.046691
O O5 0.454602 0.818815 0.404077
O O6 0.395624 0.698345 0.442967
O O7 0.777781 0.471835 0.632865
O O8 0.500000 0.000000 0.500000
O O9 0.619715 0.709796 0.008958
O O10 0.558509 0.584635 0.137361
O O11 0.853284 0.244861 0.440483
O O12 0.500000 0.500000 0.000000
O O13 0.848623 0.055507 0.324766
O O14 0.000000 0.000000 0.000000
#
# Coordination Sequence:
#
# PCOD8037632 Si02
#       6
#     2   2   2   2   2   2
#     4  12  28  52  79 112 161 213 271 332 404 482
#     4  12  27  48  80 116 158 207 270 335 402 476
#     4  12  29  50  79 112 160 213 268 329 403 484
#     4  12  28  47  81 114 160 208 268 329 407 481
#     4  12  25  48  79 119 159 209 269 334 405 478
#     4  12  26  48  80 112 160 205 268 331 405 478
#
# _framework density 26.279115999999998
#
# number of rings (size 3 to 8) (size 9 to 14) (size 15 to 20)
#    0.000    0.000    3.333    5.500    7.000    0.667 
#    0.000    0.000    0.000    0.000    0.000    0.000 
#    0.000    0.000    0.000    0.000    0.000    0.000 
#
# Total GULP energy -148689.585033 kJ/mol
# GULP energy per Si atom -12390.798753 kJ/mol
# Density = 2.621930 g / cm^3
# Si number density = 26.279116 Si / 1000 Ang^3
#
#
#
# Elastic Constant Matrix: (Units=GPa)
#
#
# Indices 1 2 3 4 5 6 
#
# 1 158.2183 49.1540 73.2862 -9.6980 -20.8236 -51.2950
# 2 49.1540 115.0264 36.3735 -23.1942 -17.5492 -39.9645
# 3 73.2862 36.3735 182.9798 -19.6063 -18.8404 -31.5304
# 4 -9.6980 -23.1942 -19.6063 49.2255 -5.7394 -2.3587
# 5 -20.8236 -17.5492 -18.8404 -5.7394 64.7594 -4.6662
# 6 -51.2950 -39.9645 -31.5304 -2.3587 -4.6662 58.7011
#
#
#
# Elastic Compliance Matrix: (Units=1/GPa)
#
#
# Indices 1 2 3 4 5 6 
#
# 1 0.010722 0.000092 -0.002230 0.002103 0.003630 0.008607
# 2 0.000092 0.015078 0.000441 0.008522 0.005819 0.011387
# 3 -0.002230 0.000441 0.007224 0.002993 0.001950 0.002507
# 4 0.002103 0.008522 0.002993 0.027282 0.007060 0.010904
# 5 0.003630 0.005819 0.001950 0.007060 0.020104 0.010063
# 6 0.008607 0.011387 0.002507 0.010904 0.010063 0.034893
#
#
# Mechanical properties :
#
#
# Convention : Reuss Voigt Hill
#
# Bulk Modulus (GPa) = 33.75266 85.98353 59.86809
# Shear Modulus (GPa) = 38.88784 54.36460 46.62622
#
# Velocity S-wave (km/s) = 3.85099 4.55327 4.21678
# Velocity P-wave (km/s) = 5.71361 7.77389 6.82198
#
# Compressibility (1/GPa) = 0.02962730
#
# Stress axis : x y z
#
# Youngs Moduli (GPa) = 93.26615 66.32375 138.42385
#
# Poissons Ratio (x) = -0.00608 0.30874
# Poissons Ratio (y) = -0.00854 -0.06098
# Poissons Ratio (z) = 0.20802 -0.02922
#
# Static dielectric constant tensor:
#      x y z
#    x 5.009520 -0.198810 -0.224890 
#    y -0.198810 6.056680 0.071100 
#    z -0.224890 0.071100 4.553480 
# 
# 
# High freq. dielectric constant tensor:
#      x y z
#    x 2.079220 -0.018300 -0.022670 
#    y -0.018300 2.095070 -0.011950 
#    z -0.022670 -0.011950 2.053490 
# 
# From -- ./inp_files/119390.got.cif
#   From: 2010.06.25/outbox.cif.g09.slc.cpg/sg2_60_cif.got.tgz:119390.got - 2010.06.27 13:26:56.
