data_PCOD8037195
_publ_section_title
;
Structure prediction by ZEFSAII (Michael W. Deem and Ramdas Pophale) SiO2 
 PCOD8037195
Probable space group: P -1
;
_chemical_formula_sum "Si O2"
_cell_formula_units_Z 14
_cell_length_a 11.853688
_cell_length_b 14.633032
_cell_length_c 8.419712
_cell_angle_alpha 128.752972
_cell_angle_beta 116.786880
_cell_angle_gamma 32.491465
_cell_volume 601.295361
_symmetry_space_group_name_H-M "P -1"
_symmetry_group_IT_number 2
_symmetry_cell_setting 'triclinic'
loop_
_space_group_symop_operation_xyz
x,y,z
-x,-y,-z
loop_
_atom_site_type_symbol
_atom_site_label
_atom_site_fract_x
_atom_site_fract_y
_atom_site_fract_z
Si Si1 0.704050 0.891394 0.603551
Si Si2 0.719654 0.783875 0.842321
Si Si3 0.310095 0.671313 0.684885
Si Si4 0.942004 0.076123 0.721606
Si Si5 0.589937 0.234945 0.873231
Si Si6 0.137631 0.568660 0.373662
Si Si7 0.125399 0.609939 0.039323
O O1 0.743368 0.790246 0.678632
O O2 0.894103 0.717662 0.415200
O O3 0.500000 0.000000 0.500000
O O4 0.687805 0.042009 0.796148
O O5 0.707084 0.654888 0.728747
O O6 0.922562 0.680397 0.954617
O O7 0.500000 0.000000 0.000000
O O8 0.500000 0.500000 0.500000
O O9 0.194816 0.633163 0.598479
O O10 0.399891 0.660302 0.890024
O O11 0.138605 0.893441 0.757659
O O12 0.723640 0.170756 0.731799
O O13 0.916091 0.233394 0.893068
O O14 0.000000 0.000000 0.500000
O O15 0.338428 0.400474 0.859800
O O16 0.165952 0.586289 0.228327
#
# Coordination Sequence:
#
# PCOD8037195 Si02
#       7
#     2   2   2   2   2   2   2
#     4  12  26  50  74 105 143 191 248 311 363 438
#     4  12  28  48  76 104 141 197 250 301 373 435
#     4  12  25  46  74 106 151 191 244 302 366 438
#     4  12  24  45  71 109 144 190 242 298 369 434
#     4  12  25  47  73 108 150 193 240 306 369 435
#     4  12  25  48  70 107 151 189 244 303 363 437
#     4  12  25  46  72 108 146 192 244 301 363 435
#
# _framework density 23.283066999999999
#
# number of rings (size 3 to 8) (size 9 to 14) (size 15 to 20)
#    0.000    0.000    4.286    5.143    4.000    0.000 
#    2.571    0.000    0.000    0.000    0.000    0.000 
#    0.000    0.000    0.000    0.000    0.000    0.000 
#
# Total GULP energy -173660.518733 kJ/mol
# GULP energy per Si atom -12404.322767 kJ/mol
# Density = 2.323007 g / cm^3
# Si number density = 23.283067 Si / 1000 Ang^3
#
#
#
# Elastic Constant Matrix: (Units=GPa)
#
#
# Indices 1 2 3 4 5 6 
#
# 1 129.4066 60.7713 41.4359 10.5748 -5.8988 4.4047
# 2 60.7713 122.8138 44.4722 30.4987 3.0917 -2.8901
# 3 41.4359 44.4722 91.0175 5.8218 -3.5704 0.1874
# 4 10.5748 30.4987 5.8218 48.0071 -6.4724 4.5295
# 5 -5.8988 3.0917 -3.5704 -6.4724 48.3751 20.7449
# 6 4.4047 -2.8901 0.1874 4.5295 20.7449 53.8644
#
#
#
# Elastic Compliance Matrix: (Units=1/GPa)
#
#
# Indices 1 2 3 4 5 6 
#
# 1 0.010977 -0.005062 -0.002521 0.001690 0.002708 -0.002345
# 2 -0.005062 0.014604 -0.004471 -0.008595 -0.004624 0.003717
# 3 -0.002521 -0.004471 0.014260 0.001977 0.001680 -0.000897
# 4 0.001690 -0.008595 0.001977 0.027134 0.006912 -0.005550
# 5 0.002708 -0.004624 0.001680 0.006912 0.027310 -0.011575
# 6 -0.002345 0.003717 -0.000897 -0.005550 -0.011575 0.023884
#
#
# Mechanical properties :
#
#
# Convention : Reuss Voigt Hill
#
# Bulk Modulus (GPa) = 63.55478 70.73296 67.14387
# Shear Modulus (GPa) = 33.89325 43.15321 38.52323
#
# Velocity S-wave (km/s) = 3.81951 4.30980 4.07204
# Velocity P-wave (km/s) = 6.84159 7.43044 7.14208
#
# Compressibility (1/GPa) = 0.01573446
#
# Stress axis : x y z
#
# Youngs Moduli (GPa) = 91.09844 68.47274 70.12445
#
# Poissons Ratio (x) = 0.34660 0.17679
# Poissons Ratio (y) = 0.46113 0.31351
# Poissons Ratio (z) = 0.22967 0.30612
#
# Static dielectric constant tensor:
#      x y z
#    x 4.580450 0.036210 0.045350 
#    y 0.036210 4.036050 0.430940 
#    z 0.045350 0.430940 4.146600 
# 
# 
# High freq. dielectric constant tensor:
#      x y z
#    x 1.937990 -0.006540 0.003050 
#    y -0.006540 1.931990 0.020640 
#    z 0.003050 0.020640 1.922390 
# 
# From -- ./inp_files/271789.got.cif
#   From: 2010.06.25/outbox.cif.g09.slc.cpg/sg2_136_cif.got.tgz:271789.got - 2010.06.27 13:26:56.
