data_PCOD8037783
_publ_section_title
;
Structure prediction by ZEFSAII (Michael W. Deem and Ramdas Pophale) SiO2 
 PCOD8037783
Probable space group: P -1
;
_chemical_formula_sum "Si O2"
_cell_formula_units_Z 14
_cell_length_a 31.818261
_cell_length_b 5.550320
_cell_length_c 9.655324
_cell_angle_alpha 126.473271
_cell_angle_beta 151.617319
_cell_angle_gamma 46.006737
_cell_volume 582.440423
_symmetry_space_group_name_H-M "P -1"
_symmetry_group_IT_number 2
_symmetry_cell_setting 'triclinic'
loop_
_space_group_symop_operation_xyz
x,y,z
-x,-y,-z
loop_
_atom_site_type_symbol
_atom_site_label
_atom_site_fract_x
_atom_site_fract_y
_atom_site_fract_z
Si Si1 0.236056 0.157524 0.809784
Si Si2 0.730249 0.828828 0.406023
Si Si3 0.093604 0.878919 0.328119
Si Si4 0.743661 0.204495 0.830306
Si Si5 0.487946 0.874900 0.073310
Si Si6 0.400476 0.798110 0.364061
Si Si7 0.052429 0.122030 0.577098
O O1 0.255505 0.100488 0.685365
O O2 0.130688 0.165240 0.533544
O O3 0.233282 0.481780 0.984362
O O4 0.323460 0.851081 0.036769
O O5 0.816843 0.470054 0.582077
O O6 0.732984 0.117719 0.610709
O O7 0.621477 0.850054 0.105439
O O8 0.063748 0.862346 0.395213
O O9 0.000000 0.000000 0.000000
O O10 0.643792 0.273852 0.647434
O O11 0.841614 0.905275 0.077010
O O12 0.572172 0.894299 0.422844
O O13 0.500000 0.500000 0.000000
O O14 0.500000 0.000000 0.000000
O O15 0.500000 0.500000 0.500000
O O16 0.000000 0.500000 0.500000
O O17 0.000000 0.000000 0.500000
#
# Coordination Sequence:
#
# PCOD8037783 Si02
#       7
#     2   2   2   2   2   2   2
#     4  12  26  50  78 112 162 206 276 331 409 489
#     4  12  28  48  81 115 159 215 273 338 408 492
#     4  12  28  51  78 118 162 211 274 344 410 491
#     4  12  26  50  77 115 157 215 266 334 409 486
#     4  12  28  51  79 120 165 213 275 331 408 491
#     4  12  27  49  81 112 165 213 272 335 412 482
#     4  12  27  50  79 114 159 209 270 333 406 483
#
# _framework density 24.036794
#
# number of rings (size 3 to 8) (size 9 to 14) (size 15 to 20)
#    0.000    0.000    4.286    4.286    6.000    2.857 
#    0.000    0.000    0.000    0.000    0.000    0.000 
#    0.000    0.000    0.000    0.000    0.000    0.000 
#
# Total GULP energy -173556.459962 kJ/mol
# GULP energy per Si atom -12396.889997 kJ/mol
# Density = 2.398208 g / cm^3
# Si number density = 24.036794 Si / 1000 Ang^3
#
#
#
# Elastic Constant Matrix: (Units=GPa)
#
#
# Indices 1 2 3 4 5 6 
#
# 1 157.2737 58.1113 56.1319 9.0516 1.6804 -3.7764
# 2 58.1113 119.3150 32.1620 12.4424 15.3950 2.5173
# 3 56.1319 32.1620 168.3708 15.3596 8.7352 -3.2649
# 4 9.0516 12.4424 15.3596 48.2563 -7.4272 1.9304
# 5 1.6804 15.3950 8.7352 -7.4272 50.3456 3.6911
# 6 -3.7764 2.5173 -3.2649 1.9304 3.6911 39.5866
#
#
#
# Elastic Compliance Matrix: (Units=1/GPa)
#
#
# Indices 1 2 3 4 5 6 
#
# 1 0.008521 -0.003756 -0.002193 0.000227 0.001223 0.000746
# 2 -0.003756 0.011063 -0.000463 -0.002513 -0.003500 -0.000651
# 3 -0.002193 -0.000463 0.007016 -0.001932 -0.001333 0.000617
# 4 0.000227 -0.002513 -0.001932 0.022705 0.004556 -0.001510
# 5 0.001223 -0.003500 -0.001333 0.004556 0.021945 -0.002039
# 6 0.000746 -0.000651 0.000617 -0.001510 -0.002039 0.025688
#
#
# Mechanical properties :
#
#
# Convention : Reuss Voigt Hill
#
# Bulk Modulus (GPa) = 72.58881 81.97443 77.28162
# Shear Modulus (GPa) = 43.72424 47.54131 45.63278
#
# Velocity S-wave (km/s) = 4.26966 4.45213 4.36185
# Velocity P-wave (km/s) = 7.38724 7.78501 7.58873
#
# Compressibility (1/GPa) = 0.01377623
#
# Stress axis : x y z
#
# Youngs Moduli (GPa) = 117.36297 90.39394 142.52871
#
# Poissons Ratio (x) = 0.33952 0.31254
# Poissons Ratio (y) = 0.44082 0.06596
# Poissons Ratio (z) = 0.25736 0.04183
#
# Static dielectric constant tensor:
#      x y z
#    x 3.814700 0.106130 -0.152990 
#    y 0.106130 4.508880 0.139450 
#    z -0.152990 0.139450 5.120810 
# 
# 
# High freq. dielectric constant tensor:
#      x y z
#    x 1.962460 -0.011200 0.001350 
#    y -0.011200 1.955970 -0.003770 
#    z 0.001350 -0.003770 1.978930 
# 
# From -- ./inp_files/358281.got.cif
#   From: 2010.06.25/outbox.cif.g09.slc.cpg/sg2_180_cif.got.tgz:358281.got - 2010.06.27 13:26:56.
