data_PCOD8037911
_publ_section_title
;
Structure prediction by ZEFSAII (Michael W. Deem and Ramdas Pophale) SiO2 
 PCOD8037911
Probable space group: P -1
;
_chemical_formula_sum "Si O2"
_cell_formula_units_Z 16
_cell_length_a 16.205306
_cell_length_b 11.140944
_cell_length_c 8.938662
_cell_angle_alpha 125.625559
_cell_angle_beta 78.462649
_cell_angle_gamma 58.847733
_cell_volume 778.247748
_symmetry_space_group_name_H-M "P -1"
_symmetry_group_IT_number 2
_symmetry_cell_setting 'triclinic'
loop_
_space_group_symop_operation_xyz
x,y,z
-x,-y,-z
loop_
_atom_site_type_symbol
_atom_site_label
_atom_site_fract_x
_atom_site_fract_y
_atom_site_fract_z
Si Si1 0.151216 0.638007 0.946643
Si Si2 0.946649 0.234735 0.232645
Si Si3 0.542007 0.326317 0.063029
Si Si4 0.131653 0.949501 0.492031
Si Si5 0.806992 0.092782 0.895179
Si Si6 0.295141 0.470105 0.231163
Si Si7 0.649922 0.146870 0.566626
Si Si8 0.649409 0.822599 0.253755
O O1 0.097802 0.627456 0.808004
O O2 0.242195 0.395451 0.826498
O O3 0.229510 0.681427 0.902617
O O4 0.022633 0.870586 0.265780
O O5 0.813058 0.415726 0.518067
O O6 0.076879 0.131358 0.193654
O O7 0.000000 0.000000 0.000000
O O8 0.431438 0.355660 0.176003
O O9 0.468889 0.587358 0.270886
O O10 0.670555 0.178182 0.023032
O O11 0.603467 0.183387 0.780321
O O12 0.129269 0.009622 0.367701
O O13 0.230148 0.668252 0.271425
O O14 0.200666 0.981365 0.590889
O O15 0.335882 0.263935 0.980588
O O16 0.669548 0.969319 0.339315
O O17 0.500000 0.000000 0.500000
#
# Coordination Sequence:
#
# PCOD8037911 Si02
#       8
#     2   2   2   2   2   2   2   2
#     4  11  21  35  57  85 121 150 193 241 283 342
#     4  10  21  36  57  87 115 155 201 235 277 343
#     4   9  18  34  59  86 119 144 190 245 285 334
#     4  10  18  34  62  87 111 146 200 242 285 327
#     4  10  17  32  58  87 113 145 194 241 283 330
#     4  11  19  36  63  89 116 151 192 243 286 340
#     4   9  19  33  54  90 118 142 185 246 294 338
#     4  12  22  35  60  89 118 148 190 236 304 341
#
# _framework density 20.559004000000002
#
# number of rings (size 3 to 8) (size 9 to 14) (size 15 to 20)
#    0.000    1.750    5.000    2.625    0.000    0.500 
#    0.000    3.125    2.750    5.250    0.000    0.000 
#    0.000    0.000    0.000    0.000    0.000    0.000 
#
# Total GULP energy -198315.487850 kJ/mol
# GULP energy per Si atom -12394.717991 kJ/mol
# Density = 2.051221 g / cm^3
# Si number density = 20.559004 Si / 1000 Ang^3
#
#
#
# Elastic Constant Matrix: (Units=GPa)
#
#
# Indices 1 2 3 4 5 6 
#
# 1 121.6051 28.1129 41.7642 20.2971 6.1833 -29.3066
# 2 28.1129 52.4920 24.7488 -5.9682 1.3195 -24.2992
# 3 41.7642 24.7488 110.0441 5.6047 9.0985 -8.1787
# 4 20.2971 -5.9682 5.6047 16.9565 -2.7655 6.0290
# 5 6.1833 1.3195 9.0985 -2.7655 34.4308 11.1503
# 6 -29.3066 -24.2992 -8.1787 6.0290 11.1503 31.4373
#
#
#
# Elastic Compliance Matrix: (Units=1/GPa)
#
#
# Indices 1 2 3 4 5 6 
#
# 1 0.033772 0.002391 -0.003904 -0.061989 -0.027588 0.053989
# 2 0.002391 0.035431 -0.005453 -0.001933 -0.011019 0.032476
# 3 -0.003904 -0.005453 0.011450 0.000596 -0.000510 -0.004809
# 4 -0.061989 -0.001933 0.000596 0.184336 0.063777 -0.117100
# 5 -0.027588 -0.011019 -0.000510 0.063777 0.061876 -0.068546
# 6 0.053989 0.032476 -0.004809 -0.117100 -0.068546 0.152760
#
#
# Mechanical properties :
#
#
# Convention : Reuss Voigt Hill
#
# Bulk Modulus (GPa) = 14.98763 52.59924 33.79344
# Shear Modulus (GPa) = 9.69372 29.19927 19.44650
#
# Velocity S-wave (km/s) = 2.17378 3.77273 3.07886
# Velocity P-wave (km/s) = 3.68867 6.67968 5.39557
#
# Compressibility (1/GPa) = 0.06672169
#
# Stress axis : x y z
#
# Youngs Moduli (GPa) = 29.61025 28.22349 87.33800
#
# Poissons Ratio (x) = -0.06749 0.34099
# Poissons Ratio (y) = -0.07081 0.47624
# Poissons Ratio (z) = 0.11561 0.15390
#
# Static dielectric constant tensor:
#      x y z
#    x 3.724200 -0.548650 -0.298270 
#    y -0.548650 3.420120 -0.143610 
#    z -0.298270 -0.143610 3.430370 
# 
# 
# High freq. dielectric constant tensor:
#      x y z
#    x 1.812550 -0.032340 -0.007080 
#    y -0.032340 1.764600 -0.001930 
#    z -0.007080 -0.001930 1.793010 
# 
# From -- ./inp_files/295408.got.cif
#   From: 2010.06.25/outbox.cif.g09.slc.cpg/sg2_148_cif.got.tgz:295408.got - 2010.06.27 13:26:56.
