data_PCOD8037485
_publ_section_title
;
Structure prediction by ZEFSAII (Michael W. Deem and Ramdas Pophale) SiO2 
 PCOD8037485
Probable space group: P -1
;
_chemical_formula_sum "Si O2"
_cell_formula_units_Z 16
_cell_length_a 11.433734
_cell_length_b 11.997711
_cell_length_c 6.072571
_cell_angle_alpha 85.296718
_cell_angle_beta 84.681618
_cell_angle_gamma 55.447933
_cell_volume 682.696778
_symmetry_space_group_name_H-M "P -1"
_symmetry_group_IT_number 2
_symmetry_cell_setting 'triclinic'
loop_
_space_group_symop_operation_xyz
x,y,z
-x,-y,-z
loop_
_atom_site_type_symbol
_atom_site_label
_atom_site_fract_x
_atom_site_fract_y
_atom_site_fract_z
Si Si1 0.910280 0.327219 0.745049
Si Si2 0.309398 0.368362 0.235503
Si Si3 0.205588 0.223017 0.550495
Si Si4 0.042163 0.090736 0.090456
Si Si5 0.416179 0.147483 0.885641
Si Si6 0.470056 0.568535 0.743362
Si Si7 0.299511 0.953429 0.331595
Si Si8 0.194801 0.780768 0.564774
O O1 0.813575 0.477733 0.834743
O O2 0.805515 0.296942 0.640756
O O3 0.034419 0.309935 0.570689
O O4 0.993302 0.224178 0.944043
O O5 0.249523 0.321352 0.442892
O O6 0.448389 0.358246 0.296475
O O7 0.351562 0.272356 0.037979
O O8 0.281302 0.169262 0.780690
O O9 0.268577 0.090328 0.416402
O O10 0.966344 0.133169 0.334907
O O11 0.212125 0.999996 0.108893
O O12 0.000000 0.000000 0.000000
O O13 0.531694 0.150739 0.714608
O O14 0.500000 0.000000 0.000000
O O15 0.500000 0.500000 0.500000
O O16 0.299562 0.676577 0.752806
O O17 0.500000 0.500000 0.000000
O O18 0.244737 0.879827 0.496532
#
# Coordination Sequence:
#
# PCOD8037485 Si02
#       8
#     2   2   2   2   2   2   2   2
#     4  12  26  49  77 111 153 199 261 322 397 471
#     4  12  29  49  75 112 153 204 257 320 397 476
#     4  12  27  50  74 107 151 203 260 319 392 472
#     4  12  25  45  75 113 153 199 258 326 401 469
#     4  12  28  48  73 106 150 203 258 318 388 473
#     4  12  29  51  80 116 161 207 261 328 407 483
#     4  12  25  48  76 112 152 201 261 322 396 469
#     4  12  26  46  76 112 153 197 261 327 397 470
#
# _framework density 23.436465999999999
#
# number of rings (size 3 to 8) (size 9 to 14) (size 15 to 20)
#    0.000    0.000    5.000    4.125    7.000    1.500 
#    0.000    0.000    0.000    0.000    0.000    0.000 
#    0.000    0.000    0.000    0.000    0.000    0.000 
#
# Total GULP energy -198290.530065 kJ/mol
# GULP energy per Si atom -12393.158129 kJ/mol
# Density = 2.338312 g / cm^3
# Si number density = 23.436466 Si / 1000 Ang^3
#
#
#
# Elastic Constant Matrix: (Units=GPa)
#
#
# Indices 1 2 3 4 5 6 
#
# 1 105.6365 17.5674 18.2916 -7.0020 6.5221 4.4033
# 2 17.5674 121.8514 33.0487 3.2392 8.4683 1.5339
# 3 18.2916 33.0487 91.6736 -0.5030 14.3567 6.6163
# 4 -7.0020 3.2392 -0.5030 42.3152 0.3283 -1.4174
# 5 6.5221 8.4683 14.3567 0.3283 50.9950 -2.5953
# 6 4.4033 1.5339 6.6163 -1.4174 -2.5953 46.7622
#
#
#
# Elastic Compliance Matrix: (Units=1/GPa)
#
#
# Indices 1 2 3 4 5 6 
#
# 1 0.010081 -0.001042 -0.001458 0.001713 -0.000752 -0.000699
# 2 -0.001042 0.009245 -0.003060 -0.000907 -0.000526 0.000171
# 3 -0.001458 -0.003060 0.012904 0.000111 -0.003028 -0.001753
# 4 0.001713 -0.000907 0.000111 0.024007 -0.000225 0.000568
# 5 -0.000752 -0.000526 -0.003028 -0.000225 0.020732 0.001660
# 6 -0.000699 0.000171 -0.001753 0.000568 0.001660 0.021802
#
#
# Mechanical properties :
#
#
# Convention : Reuss Voigt Hill
#
# Bulk Modulus (GPa) = 47.37210 50.77522 49.07366
# Shear Modulus (GPa) = 42.76094 44.69809 43.72952
#
# Velocity S-wave (km/s) = 4.27611 4.37189 4.32426
# Velocity P-wave (km/s) = 6.68109 6.86998 6.77619
#
# Compressibility (1/GPa) = 0.02110947
#
# Stress axis : x y z
#
# Youngs Moduli (GPa) = 99.19277 108.16144 77.49743
#
# Poissons Ratio (x) = 0.11275 0.11300
# Poissons Ratio (y) = 0.10340 0.23714
# Poissons Ratio (z) = 0.14463 0.33097
#
# Static dielectric constant tensor:
#      x y z
#    x 4.699230 0.012490 -0.021890 
#    y 0.012490 4.586960 -0.047870 
#    z -0.021890 -0.047870 4.659430 
# 
# 
# High freq. dielectric constant tensor:
#      x y z
#    x 1.953950 -0.001070 0.004530 
#    y -0.001070 1.934690 -0.002730 
#    z 0.004530 -0.002730 1.924930 
# 
# From -- ./inp_files/70655.got.cif
#   From: 2010.06.25/outbox.cif.g09.slc.cpg/sg2_36_cif.got.tgz:70655.got - 2010.06.27 13:26:56.
