data_PCOD8037271
_publ_section_title
;
Structure prediction by ZEFSAII (Michael W. Deem and Ramdas Pophale) SiO2 
 PCOD8037271
Probable space group: P -1
;
_chemical_formula_sum "Si O2"
_cell_formula_units_Z 16
_cell_length_a 9.395159
_cell_length_b 22.217979
_cell_length_c 6.575343
_cell_angle_alpha 82.777241
_cell_angle_beta 50.062670
_cell_angle_gamma 50.370503
_cell_volume 710.862976
_symmetry_space_group_name_H-M "P -1"
_symmetry_group_IT_number 2
_symmetry_cell_setting 'triclinic'
loop_
_space_group_symop_operation_xyz
x,y,z
-x,-y,-z
loop_
_atom_site_type_symbol
_atom_site_label
_atom_site_fract_x
_atom_site_fract_y
_atom_site_fract_z
Si Si1 0.737191 0.576359 0.071048
Si Si2 0.421238 0.961386 0.223210
Si Si3 0.053642 0.355932 0.219628
Si Si4 0.635932 0.527809 0.788173
Si Si5 0.933234 0.074164 0.892999
Si Si6 0.149068 0.148555 0.797289
Si Si7 0.247581 0.661397 0.757583
Si Si8 0.357704 0.180663 0.236482
O O1 0.456838 0.619164 0.400347
O O2 0.695514 0.659999 0.064181
O O3 0.768040 0.536752 0.840235
O O4 0.000000 0.500000 0.000000
O O5 0.563018 0.932648 0.324735
O O6 0.520397 0.878054 0.052931
O O7 0.099727 0.032990 0.542772
O O8 0.500000 0.000000 0.000000
O O9 0.135965 0.284113 0.333598
O O10 0.863652 0.453165 0.451703
O O11 0.916746 0.360745 0.140222
O O12 0.400703 0.621737 0.848819
O O13 0.500000 0.500000 0.000000
O O14 0.999207 0.120690 0.925544
O O15 0.608644 0.153066 0.128396
O O16 0.000000 0.000000 0.000000
O O17 0.205890 0.167791 0.522087
O O18 0.965765 0.232837 0.079319
#
# Coordination Sequence:
#
# PCOD8037271 Si02
#       8
#     2   2   2   2   2   2   2   2
#     4  12  27  46  73 107 145 195 247 299 363 435
#     4  12  24  49  78 102 148 195 243 301 374 447
#     4  12  26  47  72 108 145 191 252 298 367 438
#     4  12  24  46  76 100 146 197 236 294 367 435
#     4  12  26  47  78 108 146 195 245 302 377 444
#     4  12  27  47  73 110 151 188 246 310 366 436
#     4  12  27  47  72 105 148 196 241 304 366 432
#     4  12  27  47  73 111 147 191 244 310 367 438
#
# _framework density 22.507854999999999
#
# number of rings (size 3 to 8) (size 9 to 14) (size 15 to 20)
#    0.000    0.000    6.250    3.750    1.750    3.000 
#    0.000    0.000    0.000    0.000    0.000    0.000 
#    0.000    0.000    0.000    0.000    0.000    0.000 
#
# Total GULP energy -198425.048372 kJ/mol
# GULP energy per Si atom -12401.565523 kJ/mol
# Density = 2.245663 g / cm^3
# Si number density = 22.507855 Si / 1000 Ang^3
#
#
#
# Elastic Constant Matrix: (Units=GPa)
#
#
# Indices 1 2 3 4 5 6 
#
# 1 169.9406 44.7981 23.4431 1.1359 10.8386 14.9318
# 2 44.7981 101.5243 19.5808 -15.6447 -1.7294 3.3691
# 3 23.4431 19.5808 84.2536 2.7277 4.8868 13.4521
# 4 1.1359 -15.6447 2.7277 39.7743 5.2234 -1.1034
# 5 10.8386 -1.7294 4.8868 5.2234 38.3980 -1.8453
# 6 14.9318 3.3691 13.4521 -1.1034 -1.8453 48.0765
#
#
#
# Elastic Compliance Matrix: (Units=1/GPa)
#
#
# Indices 1 2 3 4 5 6 
#
# 1 0.007121 -0.003141 -0.000800 -0.001176 -0.001980 -0.001871
# 2 -0.003141 0.012462 -0.002399 0.005036 0.001113 0.000932
# 3 -0.000800 -0.002399 0.013337 -0.001732 -0.001508 -0.003413
# 4 -0.001176 0.005036 -0.001732 0.027689 -0.002939 0.001020
# 5 -0.001980 0.001113 -0.001508 -0.002939 0.027337 0.001941
# 6 -0.001871 0.000932 -0.003413 0.001020 0.001941 0.022369
#
#
# Mechanical properties :
#
#
# Convention : Reuss Voigt Hill
#
# Bulk Modulus (GPa) = 49.40177 59.04028 54.22103
# Shear Modulus (GPa) = 38.53793 43.10953 40.82373
#
# Velocity S-wave (km/s) = 4.14236 4.38117 4.26344
# Velocity P-wave (km/s) = 6.69890 7.20283 6.95543
#
# Compressibility (1/GPa) = 0.02024219
#
# Stress axis : x y z
#
# Youngs Moduli (GPa) = 140.42560 80.24097 74.97695
#
# Poissons Ratio (x) = 0.25202 0.05997
# Poissons Ratio (y) = 0.44105 0.17985
# Poissons Ratio (z) = 0.11233 0.19248
#
# Static dielectric constant tensor:
#      x y z
#    x 4.120260 0.047160 0.198900 
#    y 0.047160 4.248090 -0.187760 
#    z 0.198900 -0.187760 3.782430 
# 
# 
# High freq. dielectric constant tensor:
#      x y z
#    x 1.903420 0.007120 -0.005850 
#    y 0.007120 1.890560 -0.003820 
#    z -0.005850 -0.003820 1.893870 
# 
# From -- ./inp_files/55482.got.cif
#   From: 2010.06.25/outbox.cif.g09.slc.cpg/sg2_28_cif.got.tgz:55482.got - 2010.06.27 13:26:56.
