data_PCOD8037238
_publ_section_title
;
Structure prediction by ZEFSAII (Michael W. Deem and Ramdas Pophale) SiO2 
 PCOD8037238
Probable space group: P -1
;
_chemical_formula_sum "Si O2"
_cell_formula_units_Z 16
_cell_length_a 9.565137
_cell_length_b 16.038667
_cell_length_c 8.716362
_cell_angle_alpha 110.259180
_cell_angle_beta 111.232905
_cell_angle_gamma 33.412526
_cell_volume 683.835933
_symmetry_space_group_name_H-M "P -1"
_symmetry_group_IT_number 2
_symmetry_cell_setting 'triclinic'
loop_
_space_group_symop_operation_xyz
x,y,z
-x,-y,-z
loop_
_atom_site_type_symbol
_atom_site_label
_atom_site_fract_x
_atom_site_fract_y
_atom_site_fract_z
Si Si1 0.973565 0.873521 0.514533
Si Si2 0.805540 0.120613 0.128308
Si Si3 0.976668 0.409851 0.892261
Si Si4 0.547687 0.328740 0.624553
Si Si5 0.064069 0.635113 0.484941
Si Si6 0.479486 0.407771 0.980219
Si Si7 0.442199 0.131179 0.056830
Si Si8 0.587854 0.799083 0.585535
O O1 0.045801 0.919446 0.685528
O O2 0.169347 0.776935 0.385863
O O3 0.993510 0.771657 0.544963
O O4 0.678499 0.022741 0.442242
O O5 0.668166 0.093989 0.099750
O O6 0.634720 0.286107 0.104905
O O7 0.000000 0.000000 0.000000
O O8 0.868088 0.440697 0.700881
O O9 0.809802 0.450328 0.988176
O O10 0.000000 0.500000 0.000000
O O11 0.255149 0.231633 0.901681
O O12 0.545764 0.316592 0.799467
O O13 0.471172 0.276035 0.475209
O O14 0.323884 0.506123 0.606032
O O15 0.816790 0.702813 0.495074
O O16 0.500000 0.500000 0.000000
O O17 0.306652 0.219490 0.220493
O O18 0.500000 0.000000 0.000000
#
# Coordination Sequence:
#
# PCOD8037238 Si02
#       8
#     2   2   2   2   2   2   2   2
#     4  12  26  47  72 103 145 182 236 290 353 419
#     4  12  28  46  72 103 145 185 233 291 355 418
#     4  12  24  47  72 103 145 183 238 293 348 417
#     4  12  24  46  71 103 140 184 236 287 349 422
#     4  12  26  45  74 105 139 186 236 291 352 418
#     4  12  26  45  74 106 141 185 234 289 353 418
#     4  12  28  47  72 103 142 187 235 290 352 420
#     4  12  26  46  71 104 141 186 236 288 350 419
#
# _framework density 23.397425999999999
#
# number of rings (size 3 to 8) (size 9 to 14) (size 15 to 20)
#    0.000    0.000    2.500    7.500    7.000    0.000 
#    0.000    0.000    0.000    0.000    0.000    0.000 
#    0.000    0.000    0.000    0.000    0.000    0.000 
#
# Total GULP energy -198352.471824 kJ/mol
# GULP energy per Si atom -12397.029489 kJ/mol
# Density = 2.334417 g / cm^3
# Si number density = 23.397426 Si / 1000 Ang^3
#
#
#
# Elastic Constant Matrix: (Units=GPa)
#
#
# Indices 1 2 3 4 5 6 
#
# 1 118.3224 28.5462 11.5429 10.6162 -6.1751 6.5726
# 2 28.5462 98.0416 -0.2673 3.4142 -5.5290 0.5471
# 3 11.5429 -0.2673 98.2368 6.2137 -14.5979 -10.7876
# 4 10.6162 3.4142 6.2137 35.5091 0.8444 3.5684
# 5 -6.1751 -5.5290 -14.5979 0.8444 34.1135 11.4303
# 6 6.5726 0.5471 -10.7876 3.5684 11.4303 54.2655
#
#
#
# Elastic Compliance Matrix: (Units=1/GPa)
#
#
# Indices 1 2 3 4 5 6 
#
# 1 0.009537 -0.002608 -0.000925 -0.002326 0.001457 -0.001467
# 2 -0.002608 0.011065 0.000601 -0.000429 0.001583 0.000019
# 3 -0.000925 0.000601 0.011221 -0.002004 0.004255 0.001572
# 4 -0.002326 -0.000429 -0.002004 0.029459 -0.001496 -0.001734
# 5 0.001457 0.001583 0.004255 -0.001496 0.033827 -0.006374
# 6 -0.001467 0.000019 0.001572 -0.001734 -0.006374 0.020374
#
#
# Mechanical properties :
#
#
# Convention : Reuss Voigt Hill
#
# Bulk Modulus (GPa) = 38.52251 43.80493 41.16372
# Shear Modulus (GPa) = 38.46099 43.09623 40.77861
#
# Velocity S-wave (km/s) = 4.05879 4.29642 4.17930
# Velocity P-wave (km/s) = 6.20204 6.58597 6.39689
#
# Compressibility (1/GPa) = 0.02595885
#
# Stress axis : x y z
#
# Youngs Moduli (GPa) = 104.85324 90.37622 89.11480
#
# Poissons Ratio (x) = 0.23571 0.08245
# Poissons Ratio (y) = 0.27346 -0.05355
# Poissons Ratio (z) = 0.09701 -0.05431
#
# Static dielectric constant tensor:
#      x y z
#    x 4.422290 0.012080 -0.130980 
#    y 0.012080 4.485520 -0.095410 
#    z -0.130980 -0.095410 4.398090 
# 
# 
# High freq. dielectric constant tensor:
#      x y z
#    x 1.939390 0.004530 -0.004390 
#    y 0.004530 1.939160 0.003390 
#    z -0.004390 0.003390 1.934740 
# 
# From -- ./inp_files/208460.got.cif
#   From: 2010.06.25/outbox.cif.g09.slc.cpg/sg2_105_cif.got.tgz:208460.got - 2010.06.27 13:26:56.
