data_PCOD8037705
_publ_section_title
;
Structure prediction by ZEFSAII (Michael W. Deem and Ramdas Pophale) SiO2 
 PCOD8037705
Probable space group: P -1
;
_chemical_formula_sum "Si O2"
_cell_formula_units_Z 16
_cell_length_a 8.895011
_cell_length_b 11.449238
_cell_length_c 8.045966
_cell_angle_alpha 111.794569
_cell_angle_beta 105.546483
_cell_angle_gamma 107.199607
_cell_volume 657.586816
_symmetry_space_group_name_H-M "P -1"
_symmetry_group_IT_number 2
_symmetry_cell_setting 'triclinic'
loop_
_space_group_symop_operation_xyz
x,y,z
-x,-y,-z
loop_
_atom_site_type_symbol
_atom_site_label
_atom_site_fract_x
_atom_site_fract_y
_atom_site_fract_z
Si Si1 0.581030 0.912624 0.076775
Si Si2 0.110061 0.843834 0.573223
Si Si3 0.715505 0.717371 0.883653
Si Si4 0.224962 0.177646 0.389749
Si Si5 0.805202 0.386479 0.384363
Si Si6 0.387593 0.596620 0.335200
Si Si7 0.079150 0.850464 0.195041
Si Si8 0.280229 0.703103 0.047457
O O1 0.464359 0.841875 0.166875
O O2 0.777035 0.998795 0.245261
O O3 0.582239 0.787797 0.895488
O O4 0.500000 0.000000 0.000000
O O5 0.190688 0.759485 0.656421
O O6 0.145335 0.831405 0.384811
O O7 0.907027 0.804439 0.510892
O O8 0.810963 0.761441 0.758721
O O9 0.603860 0.549697 0.774745
O O10 0.869738 0.783185 0.098863
O O11 0.422879 0.272658 0.554805
O O12 0.178060 0.014465 0.263011
O O13 0.692803 0.414251 0.510077
O O14 0.000000 0.500000 0.500000
O O15 0.736261 0.383870 0.174094
O O16 0.269746 0.612956 0.161327
O O17 0.130927 0.756315 0.036096
#
# Coordination Sequence:
#
# PCOD8037705 Si02
#       8
#     2   2   2   2   2   2   2   2
#     4  12  26  48  79 114 150 201 262 318 390 459
#     4  12  26  47  73 114 156 197 261 322 387 457
#     4  12  28  49  78 109 156 204 261 312 389 468
#     4  12  26  48  75 108 158 204 255 326 387 448
#     4  12  27  50  79 111 160 206 252 322 393 463
#     4  12  29  52  76 119 155 206 263 316 385 467
#     4  12  26  46  78 114 154 205 260 318 385 462
#     4  12  27  47  81 114 155 206 260 322 380 458
#
# _framework density 24.331388
#
# number of rings (size 3 to 8) (size 9 to 14) (size 15 to 20)
#    0.000    0.000    3.750    5.625    5.250    3.500 
#    0.000    0.000    0.000    0.000    0.000    0.000 
#    0.000    0.000    0.000    0.000    0.000    0.000 
#
# Total GULP energy -198380.198595 kJ/mol
# GULP energy per Si atom -12398.762412 kJ/mol
# Density = 2.427601 g / cm^3
# Si number density = 24.331388 Si / 1000 Ang^3
#
#
#
# Elastic Constant Matrix: (Units=GPa)
#
#
# Indices 1 2 3 4 5 6 
#
# 1 121.3780 38.3544 30.9576 16.2292 -4.0541 -7.6270
# 2 38.3544 84.8724 44.2665 0.0149 -21.3576 -12.7659
# 3 30.9576 44.2665 130.1350 -1.0176 -0.9835 -2.9126
# 4 16.2292 0.0149 -1.0176 46.1635 4.3524 -1.2477
# 5 -4.0541 -21.3576 -0.9835 4.3524 29.4279 7.3049
# 6 -7.6270 -12.7659 -2.9126 -1.2477 7.3049 43.7226
#
#
#
# Elastic Compliance Matrix: (Units=1/GPa)
#
#
# Indices 1 2 3 4 5 6 
#
# 1 0.010349 -0.004448 -0.000974 -0.003505 -0.001462 0.000586
# 2 -0.004448 0.020586 -0.005783 0.000232 0.013453 0.002609
# 3 -0.000974 -0.005783 0.009849 0.000926 -0.004013 -0.000505
# 4 -0.003505 0.000232 0.000926 0.023309 -0.003940 0.000841
# 5 -0.001462 0.013453 -0.004013 -0.003940 0.045043 -0.004232
# 6 0.000586 0.002609 -0.000505 0.000841 -0.004232 0.024433
#
#
# Mechanical properties :
#
#
# Convention : Reuss Voigt Hill
#
# Bulk Modulus (GPa) = 54.42328 62.61582 58.51955
# Shear Modulus (GPa) = 30.84466 38.71658 34.78062
#
# Velocity S-wave (km/s) = 3.56433 3.99334 3.78491
# Velocity P-wave (km/s) = 6.27338 6.85950 6.57298
#
# Compressibility (1/GPa) = 0.01837449
#
# Stress axis : x y z
#
# Youngs Moduli (GPa) = 96.62455 48.57676 101.53642
#
# Poissons Ratio (x) = 0.21606 0.09893
# Poissons Ratio (y) = 0.42978 0.58714
# Poissons Ratio (z) = 0.09415 0.28090
#
# Static dielectric constant tensor:
#      x y z
#    x 4.241480 0.144400 -0.018310 
#    y 0.144400 4.402980 0.060870 
#    z -0.018310 0.060870 4.309010 
# 
# 
# High freq. dielectric constant tensor:
#      x y z
#    x 1.973090 0.003160 0.003350 
#    y 0.003160 1.974360 0.003710 
#    z 0.003350 0.003710 1.972460 
# 
# From -- ./inp_files/189460.got.cif
#   From: 2010.06.25/outbox.cif.g09.slc.cpg/sg2_95_cif.got.tgz:189460.got - 2010.06.27 13:26:56.
