data_PCOD8038007
_publ_section_title
;
Structure prediction by ZEFSAII (Michael W. Deem and Ramdas Pophale) SiO2 
 PCOD8038007
Probable space group: P -1
;
_chemical_formula_sum "Si O2"
_cell_formula_units_Z 12
_cell_length_a 5.046738
_cell_length_b 7.550047
_cell_length_c 13.851269
_cell_angle_alpha 108.615109
_cell_angle_beta 66.386121
_cell_angle_gamma 115.583082
_cell_volume 429.290341
_symmetry_space_group_name_H-M "P -1"
_symmetry_group_IT_number 2
_symmetry_cell_setting 'triclinic'
loop_
_space_group_symop_operation_xyz
x,y,z
-x,-y,-z
loop_
_atom_site_type_symbol
_atom_site_label
_atom_site_fract_x
_atom_site_fract_y
_atom_site_fract_z
Si Si1 0.770312 0.383727 0.256304
Si Si2 0.735821 0.958024 0.110530
Si Si3 0.236441 0.126695 0.700790
Si Si4 0.766119 0.410260 0.933914
Si Si5 0.096865 0.324647 0.374961
Si Si6 0.942866 0.195697 0.577118
O O1 0.451053 0.426562 0.306138
O O2 0.041021 0.534584 0.181462
O O3 0.897563 0.420044 0.354080
O O4 0.706950 0.158764 0.190797
O O5 0.800295 0.832082 0.171923
O O6 0.410161 0.830004 0.084961
O O7 0.000000 0.000000 0.000000
O O8 0.582796 0.141067 0.634978
O O9 0.136652 0.269451 0.663075
O O10 0.002902 0.908828 0.672104
O O11 0.500000 0.500000 0.000000
O O12 0.000000 0.500000 0.000000
O O13 0.050150 0.357410 0.501795
O O14 0.000000 0.000000 0.500000
#
# Coordination Sequence:
#
# PCOD8038007 Si02
#       6
#     2   2   2   2   2   2
#     4  11  23  41  65  97 129 165 218 256 323 381
#     4  11  24  44  68  94 131 174 215 268 319 384
#     4  10  20  33  57  93 126 162 213 258 313 375
#     4  12  27  45  65  94 131 172 216 270 321 376
#     4  10  19  36  64  93 128 169 207 264 316 382
#     4  10  17  33  57  92 128 159 210 262 310 375
#
# _framework density 27.953109999999999
#
# number of rings (size 3 to 8) (size 9 to 14) (size 15 to 20)
#    0.000    1.333    1.667    8.000    2.333    4.667 
#    0.000    0.000    0.000    6.000    0.000    0.000 
#    0.000    0.000    0.000    0.000    0.000    0.000 
#
# Total GULP energy -148799.561287 kJ/mol
# GULP energy per Si atom -12399.963441 kJ/mol
# Density = 2.788949 g / cm^3
# Si number density = 27.953110 Si / 1000 Ang^3
#
#
#
# Elastic Constant Matrix: (Units=GPa)
#
#
# Indices 1 2 3 4 5 6 
#
# 1 197.7018 54.0880 84.6341 -11.4868 13.8768 27.3094
# 2 54.0880 125.8304 69.0762 -1.6291 4.3119 39.2871
# 3 84.6341 69.0762 215.3824 -14.0732 10.3975 18.5168
# 4 -11.4868 -1.6291 -14.0732 59.8609 7.3889 5.9113
# 5 13.8768 4.3119 10.3975 7.3889 53.2994 -16.3402
# 6 27.3094 39.2871 18.5168 5.9113 -16.3402 53.8464
#
#
#
# Elastic Compliance Matrix: (Units=1/GPa)
#
#
# Indices 1 2 3 4 5 6 
#
# 1 0.006789 -0.000777 -0.001936 0.001441 -0.002484 -0.003123
# 2 -0.000777 0.012744 -0.002804 0.000815 -0.003149 -0.008985
# 3 -0.001936 -0.002804 0.006343 0.001043 -0.000470 0.000589
# 4 0.001441 0.000815 0.001043 0.018346 -0.004765 -0.005144
# 5 -0.002484 -0.003149 -0.000470 -0.004765 0.023944 0.011509
# 6 -0.003123 -0.008985 0.000589 -0.005144 0.011509 0.030566
#
#
# Mechanical properties :
#
#
# Convention : Reuss Voigt Hill
#
# Bulk Modulus (GPa) = 67.37359 106.05680 86.71520
# Shear Modulus (GPa) = 43.58684 55.47576 49.53130
#
# Velocity S-wave (km/s) = 3.95306 4.45972 4.21401
# Velocity P-wave (km/s) = 6.70748 8.03381 7.40042
#
# Compressibility (1/GPa) = 0.01484261
#
# Stress axis : x y z
#
# Youngs Moduli (GPa) = 147.29994 78.46540 157.64677
#
# Poissons Ratio (x) = 0.06093 0.30521
# Poissons Ratio (y) = 0.11439 0.44211
# Poissons Ratio (z) = 0.28518 0.22005
#
# Static dielectric constant tensor:
#      x y z
#    x 4.820270 -0.594030 -0.218640 
#    y -0.594030 6.899860 -0.173420 
#    z -0.218640 -0.173420 5.023120 
# 
# 
# High freq. dielectric constant tensor:
#      x y z
#    x 2.137020 0.001630 0.001620 
#    y 0.001630 2.167920 0.016950 
#    z 0.001620 0.016950 2.159740 
# 
# From -- ./inp_files/479902.got.cif
#   From: 2010.06.25/outbox.cif.g09.slc.cpg/sg2_240_cif.got.tgz:479902.got - 2010.06.27 13:26:56.
