data_PCOD8038287
_publ_section_title
;
Structure prediction by ZEFSAII (Michael W. Deem and Ramdas Pophale) SiO2 
 PCOD8038287
Probable space group: P -1
;
_chemical_formula_sum "Si O2"
_cell_formula_units_Z 16
_cell_length_a 15.000000
_cell_length_b 9.000000
_cell_length_c 12.000000
_cell_angle_alpha 130.000000
_cell_angle_beta 70.000000
_cell_angle_gamma 70.000000
_cell_volume 728.972637
_symmetry_space_group_name_H-M "P -1"
_symmetry_group_IT_number 2
_symmetry_cell_setting 'triclinic'
loop_
_space_group_symop_operation_xyz
x,y,z
-x,-y,-z
loop_
_atom_site_type_symbol
_atom_site_label
_atom_site_fract_x
_atom_site_fract_y
_atom_site_fract_z
Si Si1 0.828666 0.232471 0.224976
Si Si2 0.795600 0.833617 0.001100
Si Si3 0.065302 0.287680 0.474481
Si Si4 0.895342 0.191658 0.434913
Si Si5 0.095303 0.524807 0.013447
Si Si6 0.650785 0.790434 0.411580
Si Si7 0.600483 0.148697 0.790146
Si Si8 0.604957 0.815631 0.971006
O O1 0.832077 0.288715 0.381248
O O2 0.692155 0.567921 0.383902
O O3 0.779261 0.088912 0.152380
O O4 0.000000 0.000000 0.000000
O O5 0.659137 0.949907 0.045000
O O6 0.965179 0.519648 0.732749
O O7 0.782716 0.739988 0.076911
O O8 0.000000 0.500000 0.500000
O O9 0.034340 0.115411 0.368898
O O10 0.243426 0.055070 0.306386
O O11 0.755373 0.452517 0.703217
O O12 0.968538 0.871537 0.282553
O O13 0.195303 0.467398 0.849100
O O14 0.000000 0.500000 0.000000
O O15 0.500000 0.000000 0.500000
O O16 0.638449 0.021583 0.586499
O O17 0.500000 0.500000 0.000000
O O18 0.496164 0.138343 0.874355
O O19 0.500000 0.000000 0.000000
#
# Coordination Sequence:
#
# PCOD8038287 Si02
#       8
#     2   2   2   2   2   2   2   2
#     4  12  22  46  76 106 136 184 241 288 351 421
#     4  11  25  43  76 102 138 186 234 293 348 426
#     4  11  24  44  73 103 138 185 240 282 346 420
#     4  11  25  42  78 102 137 189 236 295 349 423
#     4  12  24  45  70 107 140 178 241 292 357 413
#     4  12  28  46  71 105 146 182 236 297 350 416
#     4  12  28  45  70 103 144 184 231 289 355 413
#     4  11  26  48  67 101 146 184 235 286 353 421
#
# _framework density 21.948698
#
# number of rings (size 3 to 8) (size 9 to 14) (size 15 to 20)
#    0.000    0.500    2.500    6.000    7.000    2.000 
#    0.000    1.875    0.000    0.000    0.000    0.000 
#    0.000    0.000    0.000    0.000    0.000    0.000 
#
# Total GULP energy -198254.644896 kJ/mol
# GULP energy per Si atom -12390.915306 kJ/mol
# Density = 2.189874 g / cm^3
# Si number density = 21.948698 Si / 1000 Ang^3
#
#
#
# Elastic Constant Matrix: (Units=GPa)
#
#
# Indices 1 2 3 4 5 6 
#
# 1 200.2241 40.4983 60.0445 14.6356 -4.4257 -16.8471
# 2 40.4983 88.1251 18.6030 20.4470 1.3906 -15.7258
# 3 60.0445 18.6030 98.8808 15.1063 1.5906 0.9587
# 4 14.6356 20.4470 15.1063 41.5253 0.9642 -4.0348
# 5 -4.4257 1.3906 1.5906 0.9642 52.9234 4.2324
# 6 -16.8471 -15.7258 0.9587 -4.0348 4.2324 46.5049
#
#
#
# Elastic Compliance Matrix: (Units=1/GPa)
#
#
# Indices 1 2 3 4 5 6 
#
# 1 0.006667 -0.002006 -0.003720 0.000150 0.000577 0.001774
# 2 -0.002006 0.014422 -0.000636 -0.005784 -0.000720 0.003727
# 3 -0.003720 -0.000636 0.013024 -0.003305 -0.000460 -0.002076
# 4 0.000150 -0.005784 -0.003305 0.028148 -0.000300 0.000636
# 5 0.000577 -0.000720 -0.000460 -0.000300 0.019125 -0.001791
# 6 0.001774 0.003727 -0.002076 0.000636 -0.001791 0.023667
#
#
# Mechanical properties :
#
#
# Convention : Reuss Voigt Hill
#
# Bulk Modulus (GPa) = 46.75413 69.50240 58.12827
# Shear Modulus (GPa) = 40.02950 46.06301 43.04625
#
# Velocity S-wave (km/s) = 4.27520 4.58609 4.43337
# Velocity P-wave (km/s) = 6.76148 7.73159 7.26275
#
# Compressibility (1/GPa) = 0.02138849
#
# Stress axis : x y z
#
# Youngs Moduli (GPa) = 149.99512 69.33800 76.77842
#
# Poissons Ratio (x) = 0.13908 0.28565
# Poissons Ratio (y) = 0.30086 0.04885
# Poissons Ratio (z) = 0.55806 0.04411
#
# Static dielectric constant tensor:
#      x y z
#    x 4.638810 0.141740 -0.328520 
#    y 0.141740 4.041400 -0.188540 
#    z -0.328520 -0.188540 4.286130 
# 
# 
# High freq. dielectric constant tensor:
#      x y z
#    x 1.899440 -0.011520 0.001790 
#    y -0.011520 1.867000 0.000770 
#    z 0.001790 0.000770 1.877290 
# 
# From -- ./inp_files/448193.got.cif
#   From: 2010.06.25/outbox.ucp.g09.slc.cvg/sg2_225_cif.got.tgz:448193.got - 2010.06.28 11:54:26.
