data_PCOD8038968
_publ_section_title
;
Structure prediction by ZEFSAII (Michael W. Deem and Ramdas Pophale) SiO2 
 PCOD8038968
Probable space group: P -1
;
_chemical_formula_sum "Si O2"
_cell_formula_units_Z 16
_cell_length_a 14.361834
_cell_length_b 14.976309
_cell_length_c 11.801654
_cell_angle_alpha 29.430631
_cell_angle_beta 48.946708
_cell_angle_gamma 39.423444
_cell_volume 791.038827
_symmetry_space_group_name_H-M "P -1"
_symmetry_group_IT_number 2
_symmetry_cell_setting 'triclinic'
loop_
_space_group_symop_operation_xyz
x,y,z
-x,-y,-z
loop_
_atom_site_type_symbol
_atom_site_label
_atom_site_fract_x
_atom_site_fract_y
_atom_site_fract_z
Si Si1 0.032156 0.187920 0.741030
Si Si2 0.192446 0.321721 0.615884
Si Si3 0.548904 0.732736 0.412066
Si Si4 0.729706 0.592350 0.199183
Si Si5 0.521402 0.381235 0.732371
Si Si6 0.218547 0.074565 0.279289
Si Si7 0.995632 0.151255 0.562018
Si Si8 0.182438 0.034217 0.102814
O O1 0.899690 0.426121 0.622576
O O2 0.053372 0.199121 0.577247
O O3 0.174353 0.165472 0.714426
O O4 0.000000 0.000000 0.000000
O O5 0.358982 0.261947 0.560982
O O6 0.147206 0.269791 0.832413
O O7 0.622291 0.736070 0.230160
O O8 0.539081 0.519892 0.662537
O O9 0.388469 0.942661 0.322393
O O10 0.630995 0.610128 0.149031
O O11 0.840420 0.351372 0.420729
O O12 0.827772 0.680768 0.977820
O O13 0.500000 0.500000 0.500000
O O14 0.663439 0.139943 0.887914
O O15 0.122068 0.060204 0.468859
O O16 0.193556 0.986868 0.279900
O O17 0.955441 0.975364 0.819701
#
# Coordination Sequence:
#
# PCOD8038968 Si02
#       8
#     2   2   2   2   2   2   2   2
#     4  11  23  43  64  90 115 155 214 263 291 346
#     4  11  23  37  69  93 109 158 219 250 294 345
#     4  11  19  38  58  88 121 156 207 240 291 365
#     4  11  19  36  57  85 122 163 198 234 299 370
#     4  10  18  31  60  84 125 159 205 237 287 359
#     4  12  23  33  57  93 132 155 191 246 308 379
#     4  12  23  38  56  89 125 164 193 252 316 348
#     4  12  19  36  58  93 123 158 196 249 299 371
#
# _framework density 20.226565999999998
#
# number of rings (size 3 to 8) (size 9 to 14) (size 15 to 20)
#    0.000    0.750    8.750    1.875    0.000    0.000 
#    0.000    0.625    0.000    0.750    0.000    0.000 
#    0.000    0.000    0.000    0.000    0.000    0.000 
#
# Total GULP energy -198248.861333 kJ/mol
# GULP energy per Si atom -12390.553833 kJ/mol
# Density = 2.018053 g / cm^3
# Si number density = 20.226566 Si / 1000 Ang^3
#
#
#
# Elastic Constant Matrix: (Units=GPa)
#
#
# Indices 1 2 3 4 5 6 
#
# 1 172.8792 37.9770 26.9376 -0.5441 -10.7000 4.6093
# 2 37.9770 66.8888 25.0106 3.1637 2.4660 -7.4699
# 3 26.9376 25.0106 81.0517 -15.6597 -10.7919 -1.6241
# 4 -0.5441 3.1637 -15.6597 16.2950 4.8134 -3.7658
# 5 -10.7000 2.4660 -10.7919 4.8134 27.7554 -2.6446
# 6 4.6093 -7.4699 -1.6241 -3.7658 -2.6446 25.0545
#
#
#
# Elastic Compliance Matrix: (Units=1/GPa)
#
#
# Indices 1 2 3 4 5 6 
#
# 1 0.007035 -0.003882 -0.001115 -0.001430 0.002637 -0.002461
# 2 -0.003882 0.021030 -0.007406 -0.008991 -0.004237 0.004705
# 3 -0.001115 -0.007406 0.019392 0.019265 0.004679 0.002644
# 4 -0.001430 -0.008991 0.019265 0.085952 -0.006109 0.011105
# 5 0.002637 -0.004237 0.004679 -0.006109 0.040483 0.001910
# 6 -0.002461 0.004705 0.002644 0.011105 0.001910 0.043811
#
#
# Mechanical properties :
#
#
# Convention : Reuss Voigt Hill
#
# Bulk Modulus (GPa) = 44.14739 55.63003 49.88871
# Shear Modulus (GPa) = 19.99521 29.21395 24.60458
#
# Velocity S-wave (km/s) = 3.14755 3.80456 3.49155
# Velocity P-wave (km/s) = 5.92311 6.84564 6.40102
#
# Compressibility (1/GPa) = 0.02265139
#
# Stress axis : x y z
#
# Youngs Moduli (GPa) = 142.14345 47.55006 51.56776
#
# Poissons Ratio (x) = 0.18458 0.05749
# Poissons Ratio (y) = 0.55177 0.38193
# Poissons Ratio (z) = 0.15847 0.35218
#
# Static dielectric constant tensor:
#      x y z
#    x 4.641420 -0.031890 -0.468800 
#    y -0.031890 3.179520 -0.161680 
#    z -0.468800 -0.161680 3.825250 
# 
# 
# High freq. dielectric constant tensor:
#      x y z
#    x 1.814650 -0.007530 -0.022020 
#    y -0.007530 1.730540 -0.028860 
#    z -0.022020 -0.028860 1.785480 
# 
# From -- ./inp_files/451622.got.cif
#   From: 2010.06.25/outbox.cif.g09.slc.cpg/sg2_226_cif.got.tgz:451622.got - 2010.06.27 13:26:56.
