data_PCOD8038901
_publ_section_title
;
Structure prediction by ZEFSAII (Michael W. Deem and Ramdas Pophale) SiO2 
 PCOD8038901
Probable space group: P -1
;
_chemical_formula_sum "Si O2"
_cell_formula_units_Z 16
_cell_length_a 20.490328
_cell_length_b 9.500861
_cell_length_c 9.665654
_cell_angle_alpha 60.396012
_cell_angle_beta 36.218130
_cell_angle_gamma 42.710881
_cell_volume 730.860417
_symmetry_space_group_name_H-M "P -1"
_symmetry_group_IT_number 2
_symmetry_cell_setting 'triclinic'
loop_
_space_group_symop_operation_xyz
x,y,z
-x,-y,-z
loop_
_atom_site_type_symbol
_atom_site_label
_atom_site_fract_x
_atom_site_fract_y
_atom_site_fract_z
Si Si1 0.799517 0.848918 0.838097
Si Si2 0.531925 0.350910 0.337788
Si Si3 0.490337 0.275097 0.744210
Si Si4 0.752625 0.806835 0.469195
Si Si5 0.007788 0.070142 0.603280
Si Si6 0.518629 0.863100 0.663547
Si Si7 0.187143 0.433807 0.255934
Si Si8 0.141590 0.088411 0.997393
O O1 0.869663 0.627844 0.742931
O O2 0.839006 0.978772 0.624114
O O3 0.873180 0.793123 0.892371
O O4 0.626167 0.991910 0.065482
O O5 0.458264 0.349416 0.602729
O O6 0.500620 0.568400 0.261619
O O7 0.456936 0.339152 0.339835
O O8 0.703825 0.150807 0.143523
O O9 0.644532 0.038283 0.614586
O O10 0.361178 0.287649 0.015365
O O11 0.657849 0.771246 0.560343
O O12 0.844500 0.625985 0.515729
O O13 0.866634 0.784992 0.181492
O O14 0.885907 0.320376 0.731713
O O15 0.000000 0.000000 0.500000
O O16 0.981910 0.933337 0.806928
O O17 0.500000 0.000000 0.500000
#
# Coordination Sequence:
#
# PCOD8038901 Si02
#       8
#     2   2   2   2   2   2   2   2
#     4  10  20  35  61  85 109 151 200 234 273 341
#     4   9  17  30  54  84 110 153 192 225 267 343
#     4  10  18  31  53  85 119 145 181 230 289 338
#     4  11  22  35  57  93 123 146 178 244 305 332
#     4  10  22  41  62  81 108 158 206 234 270 345
#     4  11  17  34  59  86 117 151 190 231 281 355
#     4  12  22  36  58  90 119 146 187 249 295 327
#     4   9  18  38  59  81 111 156 196 226 276 348
#
# _framework density 21.892004
#
# number of rings (size 3 to 8) (size 9 to 14) (size 15 to 20)
#    0.000    1.750    6.250    0.750    0.000    0.000 
#    0.000    6.250    0.000    0.000    0.000    0.000 
#    0.000    0.000    0.000    0.000    0.000    0.000 
#
# Total GULP energy -198269.503101 kJ/mol
# GULP energy per Si atom -12391.843944 kJ/mol
# Density = 2.184218 g / cm^3
# Si number density = 21.892004 Si / 1000 Ang^3
#
#
#
# Elastic Constant Matrix: (Units=GPa)
#
#
# Indices 1 2 3 4 5 6 
#
# 1 67.1775 44.8088 31.0035 -6.1130 14.1487 25.9446
# 2 44.8088 79.7364 22.3398 -6.1613 10.9218 41.7229
# 3 31.0035 22.3398 145.1149 -24.8291 4.8994 9.8057
# 4 -6.1130 -6.1613 -24.8291 30.5589 4.1179 4.3411
# 5 14.1487 10.9218 4.8994 4.1179 21.5710 -0.0675
# 6 25.9446 41.7229 9.8057 4.3411 -0.0675 40.3685
#
#
#
# Elastic Compliance Matrix: (Units=1/GPa)
#
#
# Indices 1 2 3 4 5 6 
#
# 1 0.029245 -0.006773 -0.002821 0.006065 -0.016307 -0.011790
# 2 -0.006773 0.040889 0.001315 0.016310 -0.019798 -0.040015
# 3 -0.002821 0.001315 0.008826 0.007533 -0.002266 -0.002504
# 4 0.006065 0.016310 0.007533 0.050523 -0.023680 -0.028058
# 5 -0.016307 -0.019798 -0.002266 -0.023680 0.072221 0.034161
# 6 -0.011790 -0.040015 -0.002504 -0.028058 0.034161 0.077389
#
#
# Mechanical properties :
#
#
# Convention : Reuss Voigt Hill
#
# Bulk Modulus (GPa) = 16.02460 54.25921 35.14190
# Shear Modulus (GPa) = 15.80022 31.42479 23.61251
#
# Velocity S-wave (km/s) = 2.68943 3.79284 3.28775
# Velocity P-wave (km/s) = 4.12065 6.63473 5.52265
#
# Compressibility (1/GPa) = 0.06240406
#
# Stress axis : x y z
#
# Youngs Moduli (GPa) = 34.19359 24.45630 113.30320
#
# Poissons Ratio (x) = 0.16564 0.31957
# Poissons Ratio (y) = 0.23159 -0.14902
# Poissons Ratio (z) = 0.09644 -0.03217
#
# Static dielectric constant tensor:
#      x y z
#    x 3.910200 0.855280 -0.002170 
#    y 0.855280 4.048510 -0.242770 
#    z -0.002170 -0.242770 4.553940 
# 
# 
# High freq. dielectric constant tensor:
#      x y z
#    x 1.823810 0.051600 0.005770 
#    y 0.051600 1.846790 -0.006760 
#    z 0.005770 -0.006760 1.885660 
# 
# From -- ./inp_files/474152.got.cif
#   From: 2010.06.25/outbox.cif.g09.slc.cpg/sg2_238_cif.got.tgz:474152.got - 2010.06.27 13:26:56.
