data_PCOD8038049
_publ_section_title
;
Structure prediction by ZEFSAII (Michael W. Deem and Ramdas Pophale) SiO2 
 PCOD8038049
Probable space group: P -1
;
_chemical_formula_sum "Si O2"
_cell_formula_units_Z 16
_cell_length_a 8.287498
_cell_length_b 22.607736
_cell_length_c 7.968270
_cell_angle_alpha 56.242553
_cell_angle_beta 104.987725
_cell_angle_gamma 60.915639
_cell_volume 743.994383
_symmetry_space_group_name_H-M "P -1"
_symmetry_group_IT_number 2
_symmetry_cell_setting 'triclinic'
loop_
_space_group_symop_operation_xyz
x,y,z
-x,-y,-z
loop_
_atom_site_type_symbol
_atom_site_label
_atom_site_fract_x
_atom_site_fract_y
_atom_site_fract_z
Si Si1 0.980819 0.131481 0.804395
Si Si2 0.492692 0.891172 0.462816
Si Si3 0.095288 0.334168 0.266523
Si Si4 0.949464 0.299166 0.589323
Si Si5 0.485934 0.288109 0.647409
Si Si6 0.437697 0.465616 0.388530
Si Si7 0.700991 0.956139 0.270382
Si Si8 0.518990 0.836296 0.927141
O O1 0.041889 0.187259 0.816903
O O2 0.685467 0.209613 0.665876
O O3 0.007724 0.130486 0.608234
O O4 0.199482 0.001598 0.131477
O O5 0.639933 0.780529 0.575481
O O6 0.681864 0.899842 0.495230
O O7 0.430936 0.880888 0.645300
O O8 0.192381 0.365931 0.366354
O O9 0.974860 0.311032 0.382766
O O10 0.869000 0.430299 0.920080
O O11 0.642979 0.417551 0.371438
O O12 0.155748 0.273675 0.802211
O O13 0.489219 0.365792 0.606732
O O14 0.576409 0.207654 0.954152
O O15 0.500000 0.500000 0.500000
O O16 0.612952 0.060488 0.153913
O O17 0.500000 0.000000 0.000000
#
# Coordination Sequence:
#
# PCOD8038049 Si02
#       8
#     2   2   2   2   2   2   2   2
#     4  10  19  37  60  92 125 171 214 254 301 377
#     4  11  21  34  62  95 133 164 215 258 313 374
#     4  11  22  42  66  94 123 170 216 260 318 377
#     4  10  19  38  64  89 121 165 221 256 305 383
#     4  10  24  42  65  90 134 167 211 261 321 387
#     4  11  24  44  67  94 123 162 216 277 320 372
#     4  10  17  33  59  90 127 166 218 251 300 379
#     4  11  21  36  59  96 132 173 199 265 328 364
#
# _framework density 21.505538999999999
#
# number of rings (size 3 to 8) (size 9 to 14) (size 15 to 20)
#    0.000    1.500    3.750    4.125    0.000    2.500 
#    0.000    9.375    0.000    0.000    0.000    0.000 
#    0.000    0.000    0.000    0.000    0.000    0.000 
#
# Total GULP energy -198258.478504 kJ/mol
# GULP energy per Si atom -12391.154907 kJ/mol
# Density = 2.145659 g / cm^3
# Si number density = 21.505539 Si / 1000 Ang^3
#
#
#
# Elastic Constant Matrix: (Units=GPa)
#
#
# Indices 1 2 3 4 5 6 
#
# 1 103.1327 48.0271 38.1327 -0.0592 -13.7411 -6.8786
# 2 48.0271 118.7484 43.1540 -7.0251 -8.4972 -0.3091
# 3 38.1327 43.1540 78.4016 -4.6826 -6.4145 -3.0711
# 4 -0.0592 -7.0251 -4.6826 32.7158 -6.3290 -5.7803
# 5 -13.7411 -8.4972 -6.4145 -6.3290 29.2590 0.4124
# 6 -6.8786 -0.3091 -3.0711 -5.7803 0.4124 32.6642
#
#
#
# Elastic Compliance Matrix: (Units=1/GPa)
#
#
# Indices 1 2 3 4 5 6 
#
# 1 0.013715 -0.003714 -0.004180 -0.000100 0.004391 0.002387
# 2 -0.003714 0.011745 -0.004480 0.001956 0.001119 -0.000760
# 3 -0.004180 -0.004480 0.017488 0.001905 0.000967 0.001047
# 4 -0.000100 0.001956 0.001905 0.033917 0.008190 0.006075
# 5 0.004391 0.001119 0.000967 0.008190 0.038520 0.001989
# 6 0.002387 -0.000760 0.001047 0.006075 0.001989 0.032258
#
#
# Mechanical properties :
#
#
# Convention : Reuss Voigt Hill
#
# Bulk Modulus (GPa) = 54.94185 62.10113 58.52149
# Shear Modulus (GPa) = 28.01799 30.32574 29.17187
#
# Velocity S-wave (km/s) = 3.61339 3.75925 3.68704
# Velocity P-wave (km/s) = 6.55835 6.91246 6.73773
#
# Compressibility (1/GPa) = 0.01820106
#
# Stress axis : x y z
#
# Youngs Moduli (GPa) = 72.91131 85.14339 57.18318
#
# Poissons Ratio (x) = 0.31618 0.23902
# Poissons Ratio (y) = 0.27076 0.25618
# Poissons Ratio (z) = 0.30477 0.38143
#
# Static dielectric constant tensor:
#      x y z
#    x 4.316830 -0.253040 -0.169750 
#    y -0.253040 4.022070 -0.107140 
#    z -0.169750 -0.107140 3.699050 
# 
# 
# High freq. dielectric constant tensor:
#      x y z
#    x 1.853750 -0.014810 -0.011970 
#    y -0.014810 1.835200 -0.015630 
#    z -0.011970 -0.015630 1.820020 
# 
# From -- ./inp_files/225310.got.cif
#   From: 2010.06.25/outbox.cif.g09.slc.cpg/sg2_113_cif.got.tgz:225310.got - 2010.06.27 13:26:56.
