data_PCOD8038932
_publ_section_title
;
Structure prediction by ZEFSAII (Michael W. Deem and Ramdas Pophale) SiO2 
 PCOD8038932
Probable space group: P -1
;
_chemical_formula_sum "Si O2"
_cell_formula_units_Z 16
_cell_length_a 4.996040
_cell_length_b 19.889245
_cell_length_c 6.706076
_cell_angle_alpha 85.756666
_cell_angle_beta 91.105594
_cell_angle_gamma 63.805032
_cell_volume 595.283052
_symmetry_space_group_name_H-M "P -1"
_symmetry_group_IT_number 2
_symmetry_cell_setting 'triclinic'
loop_
_space_group_symop_operation_xyz
x,y,z
-x,-y,-z
loop_
_atom_site_type_symbol
_atom_site_label
_atom_site_fract_x
_atom_site_fract_y
_atom_site_fract_z
Si Si1 0.879757 0.106627 0.134533
Si Si2 0.354015 0.479013 0.686165
Si Si3 0.489556 0.735264 0.042292
Si Si4 0.870660 0.353672 0.861454
Si Si5 0.766625 0.869725 0.540073
Si Si6 0.112908 0.379058 0.475929
Si Si7 0.262457 0.023409 0.819566
Si Si8 0.566560 0.223767 0.522790
O O1 0.180122 0.099053 0.253560
O O2 0.768454 0.049589 0.248846
O O3 0.625671 0.193925 0.127623
O O4 0.953193 0.083240 0.907858
O O5 0.500000 0.500000 0.500000
O O6 0.600841 0.439220 0.875244
O O7 0.236463 0.418809 0.631622
O O8 0.075044 0.560877 0.715504
O O9 0.238976 0.706499 0.053190
O O10 0.530131 0.765827 0.250661
O O11 0.820567 0.668968 0.006941
O O12 0.914015 0.351104 0.619662
O O13 0.650284 0.938156 0.367809
O O14 0.520282 0.838699 0.560090
O O15 0.082693 0.802742 0.490424
O O16 0.381709 0.306007 0.394633
O O17 0.500000 0.000000 0.000000
#
# Coordination Sequence:
#
# PCOD8038932 Si02
#       8
#     2   2   2   2   2   2   2   2
#     4  11  27  45  67 102 128 174 221 273 328 395
#     4   9  16  28  50  88 134 164 216 274 318 377
#     4  11  21  37  63  87 129 168 220 262 328 385
#     4  10  18  31  55  88 123 172 213 269 316 385
#     4  12  27  44  69  98 135 172 221 271 329 393
#     4   9  18  30  52  88 133 169 213 273 323 379
#     4  11  26  47  73  95 132 175 216 274 332 393
#     4  11  22  40  63  96 131 177 216 269 328 388
#
# _framework density 26.877972
#
# number of rings (size 3 to 8) (size 9 to 14) (size 15 to 20)
#    0.000    1.500    3.750    2.625    7.000    0.500 
#    0.000    0.000    0.000    0.000    0.000    5.250 
#    0.000    0.000    0.000    0.000    0.000    0.000 
#
# Total GULP energy -198298.713223 kJ/mol
# GULP energy per Si atom -12393.669576 kJ/mol
# Density = 2.681680 g / cm^3
# Si number density = 26.877972 Si / 1000 Ang^3
#
#
#
# Elastic Constant Matrix: (Units=GPa)
#
#
# Indices 1 2 3 4 5 6 
#
# 1 84.3401 23.5482 3.3909 -17.2757 13.1811 8.3122
# 2 23.5482 135.8816 18.4648 -32.7316 -10.3727 -7.6551
# 3 3.3909 18.4648 61.9465 -30.4600 11.1001 -0.6354
# 4 -17.2757 -32.7316 -30.4600 45.2946 -4.9009 6.5939
# 5 13.1811 -10.3727 11.1001 -4.9009 29.0899 -8.8559
# 6 8.3122 -7.6551 -0.6354 6.5939 -8.8559 48.1111
#
#
#
# Elastic Compliance Matrix: (Units=1/GPa)
#
#
# Indices 1 2 3 4 5 6 
#
# 1 0.016439 -0.003013 0.005728 0.007644 -0.011364 -0.006383
# 2 -0.003013 0.010134 -0.001343 0.005667 0.007260 0.002675
# 3 0.005728 -0.001343 0.027965 0.019538 -0.012206 -0.005759
# 4 0.007644 0.005667 0.019538 0.042801 -0.003731 -0.006714
# 5 -0.011364 0.007260 -0.012206 -0.003731 0.050001 0.012673
# 6 -0.006383 0.002675 -0.005759 -0.006714 0.012673 0.025490
#
#
# Mechanical properties :
#
#
# Convention : Reuss Voigt Hill
#
# Bulk Modulus (GPa) = 17.45746 41.44179 29.44963
# Shear Modulus (GPa) = 26.42985 40.28340 33.35663
#
# Velocity S-wave (km/s) = 3.13921 3.87557 3.52666
# Velocity P-wave (km/s) = 4.43268 5.95640 5.25011
#
# Compressibility (1/GPa) = 0.05728210
#
# Stress axis : x y z
#
# Youngs Moduli (GPa) = 60.83251 98.67770 35.75911
#
# Poissons Ratio (x) = 0.29731 -0.20482
# Poissons Ratio (y) = 0.18328 0.04801
# Poissons Ratio (z) = -0.34843 0.13248
#
# Static dielectric constant tensor:
#      x y z
#    x 5.387440 -0.486890 0.067830 
#    y -0.486890 5.594740 -0.406310 
#    z 0.067830 -0.406310 4.498350 
# 
# 
# High freq. dielectric constant tensor:
#      x y z
#    x 2.088620 -0.017600 0.006600 
#    y -0.017600 2.096690 -0.027330 
#    z 0.006600 -0.027330 2.050220 
# 
# From -- ./inp_files/139087.got.cif
#   From: 2010.06.25/outbox.cif.g09.slc.cpg/sg2_70_cif.got.tgz:139087.got - 2010.06.27 13:26:56.
