data_PCOD8038288
_publ_section_title
;
Structure prediction by ZEFSAII (Michael W. Deem and Ramdas Pophale) SiO2 
 PCOD8038288
Probable space group: P -1
;
_chemical_formula_sum "Si O2"
_cell_formula_units_Z 16
_cell_length_a 11.105368
_cell_length_b 8.728469
_cell_length_c 13.934632
_cell_angle_alpha 137.707711
_cell_angle_beta 89.696873
_cell_angle_gamma 114.840381
_cell_volume 714.218549
_symmetry_space_group_name_H-M "P -1"
_symmetry_group_IT_number 2
_symmetry_cell_setting 'triclinic'
loop_
_space_group_symop_operation_xyz
x,y,z
-x,-y,-z
loop_
_atom_site_type_symbol
_atom_site_label
_atom_site_fract_x
_atom_site_fract_y
_atom_site_fract_z
Si Si1 0.885513 0.731581 0.742728
Si Si2 0.765702 0.791181 0.267618
Si Si3 0.411822 0.139458 0.561887
Si Si4 0.798589 0.384685 0.188370
Si Si5 0.870976 0.382652 0.753838
Si Si6 0.788766 0.707810 0.016895
Si Si7 0.665180 0.765180 0.863868
Si Si8 0.075849 0.383617 0.503535
O O1 0.843898 0.476194 0.694888
O O2 0.817886 0.883625 0.857722
O O3 0.825467 0.629908 0.586121
O O4 0.069081 0.956264 0.843342
O O5 0.656168 0.870941 0.337543
O O6 0.733094 0.546898 0.228028
O O7 0.720749 0.652284 0.097537
O O8 0.943899 0.069071 0.402655
O O9 0.519780 0.474417 0.678524
O O10 0.500000 0.000000 0.500000
O O11 0.267754 0.963184 0.406412
O O12 0.815316 0.406162 0.313754
O O13 0.961824 0.533893 0.203987
O O14 0.670739 0.044293 0.003685
O O15 0.845877 0.517472 0.907680
O O16 0.661794 0.638656 0.909526
O O17 0.000000 0.500000 0.500000
#
# Coordination Sequence:
#
# PCOD8038288 Si02
#       8
#     2   2   2   2   2   2   2   2
#     4  10  17  34  62  98 119 151 219 260 301 354
#     4  11  26  39  62 100 130 162 207 260 325 364
#     4  12  24  41  63  91 127 170 212 260 306 379
#     4  12  22  41  65  95 133 163 202 265 318 375
#     4  11  19  37  66  94 124 161 210 258 315 360
#     4  10  19  38  63 100 119 158 220 264 299 364
#     4  11  22  39  65  91 126 170 204 259 315 366
#     4  11  20  37  65  98 120 158 214 268 300 357
#
# _framework density 22.402106
#
# number of rings (size 3 to 8) (size 9 to 14) (size 15 to 20)
#    0.000    1.000    7.500    1.875    0.000    1.500 
#    0.000    0.000    0.000    1.500    0.000    0.000 
#    0.000    0.000    0.000    0.000    0.000    0.000 
#
# Total GULP energy -198316.351770 kJ/mol
# GULP energy per Si atom -12394.771986 kJ/mol
# Density = 2.235112 g / cm^3
# Si number density = 22.402106 Si / 1000 Ang^3
#
#
#
# Elastic Constant Matrix: (Units=GPa)
#
#
# Indices 1 2 3 4 5 6 
#
# 1 54.3280 26.1711 32.1106 -9.7600 -17.7754 7.7176
# 2 26.1711 80.1021 46.8644 -10.8970 -15.4389 -0.5690
# 3 32.1106 46.8644 142.0653 4.8074 -15.1505 2.1241
# 4 -9.7600 -10.8970 4.8074 44.5945 16.8801 -8.5392
# 5 -17.7754 -15.4389 -15.1505 16.8801 32.7260 -0.3539
# 6 7.7176 -0.5690 2.1241 -8.5392 -0.3539 24.4422
#
#
#
# Elastic Compliance Matrix: (Units=1/GPa)
#
#
# Indices 1 2 3 4 5 6 
#
# 1 0.027569 -0.005135 -0.003157 -0.000879 0.011450 -0.008691
# 2 -0.005135 0.017770 -0.004741 0.003930 0.001414 0.003840
# 3 -0.003157 -0.004741 0.009770 -0.004199 0.002723 -0.001390
# 4 -0.000879 0.003930 -0.004199 0.032397 -0.017150 0.011804
# 5 0.011450 0.001414 0.002723 -0.017150 0.047451 -0.009124
# 6 -0.008691 0.003840 -0.001390 0.011804 -0.009124 0.047859
#
#
# Mechanical properties :
#
#
# Convention : Reuss Voigt Hill
#
# Bulk Modulus (GPa) = 34.43106 54.08750 44.25928
# Shear Modulus (GPa) = 22.87679 31.77581 27.32630
#
# Velocity S-wave (km/s) = 3.19907 3.77029 3.49637
# Velocity P-wave (km/s) = 5.38965 6.56885 6.00825
#
# Compressibility (1/GPa) = 0.02904354
#
# Stress axis : x y z
#
# Youngs Moduli (GPa) = 36.27241 56.27505 102.35746
#
# Poissons Ratio (x) = 0.28898 0.32311
# Poissons Ratio (y) = 0.18626 0.48526
# Poissons Ratio (z) = 0.11450 0.26679
#
# Static dielectric constant tensor:
#      x y z
#    x 3.754770 0.337920 -0.206650 
#    y 0.337920 3.872600 -0.198570 
#    z -0.206650 -0.198570 4.601740 
# 
# 
# High freq. dielectric constant tensor:
#      x y z
#    x 1.847310 0.025130 -0.020270 
#    y 0.025130 1.850090 0.000390 
#    z -0.020270 0.000390 1.909570 
# 
# From -- ./inp_files/514737.got.cif
#   From: 2010.06.25/outbox.cif.g09.slc.cpg/sg2_258_cif.got.tgz:514737.got - 2010.06.27 13:26:56.
