data_PCOD8038517
_publ_section_title
;
Structure prediction by ZEFSAII (Michael W. Deem and Ramdas Pophale) SiO2 
 PCOD8038517
Probable space group: P -1
;
_chemical_formula_sum "Si O2"
_cell_formula_units_Z 16
_cell_length_a 9.365836
_cell_length_b 13.595804
_cell_length_c 8.591162
_cell_angle_alpha 114.257852
_cell_angle_beta 55.330133
_cell_angle_gamma 88.719373
_cell_volume 770.973214
_symmetry_space_group_name_H-M "P -1"
_symmetry_group_IT_number 2
_symmetry_cell_setting 'triclinic'
loop_
_space_group_symop_operation_xyz
x,y,z
-x,-y,-z
loop_
_atom_site_type_symbol
_atom_site_label
_atom_site_fract_x
_atom_site_fract_y
_atom_site_fract_z
Si Si1 0.863756 0.576332 0.762046
Si Si2 0.182404 0.640452 0.273533
Si Si3 0.353590 0.972622 0.465306
Si Si4 0.237132 0.819413 0.956142
Si Si5 0.996838 0.944745 0.767603
Si Si6 0.935063 0.853226 0.428156
Si Si7 0.525707 0.253372 0.962968
Si Si8 0.893403 0.286271 0.293321
O O1 0.808751 0.489680 0.856531
O O2 0.000000 0.500000 0.500000
O O3 0.973754 0.650886 0.825602
O O4 0.683816 0.664664 0.852043
O O5 0.345752 0.671897 0.112066
O O6 0.212154 0.647142 0.445847
O O7 0.979850 0.727447 0.399724
O O8 0.446219 0.853790 0.237528
O O9 0.196948 0.958582 0.668236
O O10 0.500000 0.000000 0.500000
O O11 0.271363 0.080471 0.465289
O O12 0.251259 0.721832 0.754404
O O13 0.427300 0.789022 0.914580
O O14 0.071305 0.832459 0.185840
O O15 0.173595 0.944847 0.994233
O O16 0.978879 0.932001 0.584477
O O17 0.980546 0.841276 0.813784
#
# Coordination Sequence:
#
# PCOD8038517 Si02
#       8
#     2   2   2   2   2   2   2   2
#     4  10  23  40  59  84 114 153 197 246 283 327
#     4   9  19  40  65  77 111 159 199 229 279 346
#     4  11  20  32  60  95 118 141 191 242 278 341
#     4  10  18  32  57  88 115 152 186 232 291 350
#     4  10  17  37  56  82 123 159 182 221 292 361
#     4   9  17  35  60  82 118 153 187 228 290 346
#     4  11  20  39  63  85 113 154 194 234 291 342
#     4  10  20  35  59  84 118 153 188 231 289 339
#
# _framework density 20.752993
#
# number of rings (size 3 to 8) (size 9 to 14) (size 15 to 20)
#    0.000    2.000    5.000    1.500    3.500    0.000 
#    0.000    9.375    2.750    0.000    0.000    0.000 
#    0.000    0.000    0.000    0.000    0.000    0.000 
#
# Total GULP energy -198208.750589 kJ/mol
# GULP energy per Si atom -12388.046912 kJ/mol
# Density = 2.070576 g / cm^3
# Si number density = 20.752993 Si / 1000 Ang^3
#
#
#
# Elastic Constant Matrix: (Units=GPa)
#
#
# Indices 1 2 3 4 5 6 
#
# 1 117.1056 42.4823 26.6610 15.9907 2.8865 -5.7822
# 2 42.4823 83.4180 22.8096 22.5235 4.9819 9.0282
# 3 26.6610 22.8096 47.9440 12.3563 -1.0795 -14.3294
# 4 15.9907 22.5235 12.3563 24.2235 -10.0253 -4.1855
# 5 2.8865 4.9819 -1.0795 -10.0253 34.1737 7.4350
# 6 -5.7822 9.0282 -14.3294 -4.1855 7.4350 21.0654
#
#
#
# Elastic Compliance Matrix: (Units=1/GPa)
#
#
# Indices 1 2 3 4 5 6 
#
# 1 0.011356 -0.005024 -0.002380 -0.001608 -0.001623 0.003905
# 2 -0.005024 0.025984 -0.010884 -0.021257 -0.005081 -0.022349
# 3 -0.002380 -0.010884 0.037382 -0.004142 -0.004844 0.030327
# 4 -0.001608 -0.021257 -0.004142 0.075780 0.022515 0.012962
# 5 -0.001623 -0.005081 -0.004844 0.022515 0.038950 -0.010837
# 6 0.003905 -0.022349 0.030327 0.012962 -0.010837 0.085151
#
#
# Mechanical properties :
#
#
# Convention : Reuss Voigt Hill
#
# Bulk Modulus (GPa) = 26.21493 48.04149 37.12821
# Shear Modulus (GPa) = 15.43717 26.32682 20.88199
#
# Velocity S-wave (km/s) = 2.73032 3.56558 3.17553
# Velocity P-wave (km/s) = 4.75383 6.33645 5.60131
#
# Compressibility (1/GPa) = 0.03814620
#
# Stress axis : x y z
#
# Youngs Moduli (GPa) = 88.05859 38.48467 26.75119
#
# Poissons Ratio (x) = 0.19335 0.06366
# Poissons Ratio (y) = 0.44241 0.29116
# Poissons Ratio (z) = 0.20956 0.41887
#
# Static dielectric constant tensor:
#      x y z
#    x 3.824390 -0.147730 0.139800 
#    y -0.147730 4.513880 0.334320 
#    z 0.139800 0.334320 3.524020 
# 
# 
# High freq. dielectric constant tensor:
#      x y z
#    x 1.795120 -0.009530 0.012690 
#    y -0.009530 1.819740 0.014460 
#    z 0.012690 0.014460 1.786900 
# 
# From -- ./inp_files/202188.got.cif
#   From: 2010.06.25/outbox.cif.g09.slc.cpg/sg2_102_cif.got.tgz:202188.got - 2010.06.27 13:26:56.
