data_PCOD8038769
_publ_section_title
;
Structure prediction by ZEFSAII (Michael W. Deem and Ramdas Pophale) SiO2 
 PCOD8038769
Probable space group: P -1
;
_chemical_formula_sum "Si O2"
_cell_formula_units_Z 16
_cell_length_a 22.334040
_cell_length_b 9.852564
_cell_length_c 11.656119
_cell_angle_alpha 72.970235
_cell_angle_beta 133.843344
_cell_angle_gamma 143.897981
_cell_volume 848.420425
_symmetry_space_group_name_H-M "P -1"
_symmetry_group_IT_number 2
_symmetry_cell_setting 'triclinic'
loop_
_space_group_symop_operation_xyz
x,y,z
-x,-y,-z
loop_
_atom_site_type_symbol
_atom_site_label
_atom_site_fract_x
_atom_site_fract_y
_atom_site_fract_z
Si Si1 0.200116 0.851878 0.504335
Si Si2 0.323555 0.247550 0.760802
Si Si3 0.507195 0.237390 0.237291
Si Si4 0.515692 0.307875 0.493478
Si Si5 0.629588 0.116020 0.426253
Si Si6 0.228492 0.080646 0.266662
Si Si7 0.858320 0.188261 0.199181
Si Si8 0.012498 0.369827 0.114585
O O1 0.318646 0.895389 0.615283
O O2 0.010428 0.513150 0.375856
O O3 0.302844 0.092686 0.676923
O O4 0.164759 0.894279 0.335767
O O5 0.335305 0.418852 0.673144
O O6 0.167781 0.990668 0.709453
O O7 0.500000 0.500000 0.000000
O O8 0.488371 0.203597 0.357403
O O9 0.558900 0.160325 0.278796
O O10 0.323434 0.999807 0.994804
O O11 0.367510 0.200594 0.347844
O O12 0.700612 0.662497 0.660641
O O13 0.516194 0.184113 0.619268
O O14 0.791504 0.378471 0.662225
O O15 0.068156 0.867900 0.020035
O O16 0.904788 0.207958 0.129206
O O17 0.000000 0.500000 0.000000
#
# Coordination Sequence:
#
# PCOD8038769 Si02
#       8
#     2   2   2   2   2   2   2   2
#     4  10  19  38  57  82 107 145 190 222 271 331
#     4  10  22  37  59  82 106 147 191 229 264 329
#     4  11  20  37  52  85 114 144 182 233 277 316
#     4  10  18  30  52  81 110 144 178 222 270 322
#     4  10  22  33  57  83 115 145 178 231 282 323
#     4  10  18  30  57  83 107 143 185 228 257 325
#     4  10  20  34  61  79 107 149 190 222 265 334
#     4  11  17  35  55  85 110 146 183 221 272 332
#
# _framework density 18.858574999999998
#
# number of rings (size 3 to 8) (size 9 to 14) (size 15 to 20)
#    0.000    1.750    6.250    0.750    0.000    0.000 
#    0.000    6.875    0.000    0.000    0.000    0.000 
#    0.000    0.000    0.000    0.000    0.000    0.000 
#
# Total GULP energy -198321.412271 kJ/mol
# GULP energy per Si atom -12395.088267 kJ/mol
# Density = 1.881565 g / cm^3
# Si number density = 18.858575 Si / 1000 Ang^3
#
#
#
# Elastic Constant Matrix: (Units=GPa)
#
#
# Indices 1 2 3 4 5 6 
#
# 1 70.9388 52.1681 25.7551 -2.6851 -12.4622 -0.3112
# 2 52.1681 131.7381 20.9886 10.7221 9.3951 3.1437
# 3 25.7551 20.9886 58.9396 11.8128 -11.9846 -7.9619
# 4 -2.6851 10.7221 11.8128 26.3725 -2.6672 -3.7750
# 5 -12.4622 9.3951 -11.9846 -2.6672 29.8068 0.7192
# 6 -0.3112 3.1437 -7.9619 -3.7750 0.7192 30.8746
#
#
#
# Elastic Compliance Matrix: (Units=1/GPa)
#
#
# Indices 1 2 3 4 5 6 
#
# 1 0.028945 -0.012264 -0.007958 0.013013 0.013914 0.000755
# 2 -0.012264 0.013973 -0.000421 -0.008135 -0.010371 -0.002408
# 3 -0.007958 -0.000421 0.024462 -0.010332 0.005599 0.004877
# 4 0.013013 -0.008135 -0.010332 0.048576 0.008100 0.004046
# 5 0.013914 -0.010371 0.005599 0.008100 0.045550 0.002569
# 6 0.000755 -0.002408 0.004877 0.004046 0.002569 0.034334
#
#
# Mechanical properties :
#
#
# Convention : Reuss Voigt Hill
#
# Bulk Modulus (GPa) = 38.32096 51.04892 44.68494
# Shear Modulus (GPa) = 20.33988 28.25776 24.29882
#
# Velocity S-wave (km/s) = 3.28769 3.87512 3.59343
# Velocity P-wave (km/s) = 5.89713 6.86660 6.40025
#
# Compressibility (1/GPa) = 0.02609538
#
# Stress axis : x y z
#
# Youngs Moduli (GPa) = 34.54883 71.56470 40.88038
#
# Poissons Ratio (x) = 0.87764 0.32532
# Poissons Ratio (y) = 0.42369 0.01720
# Poissons Ratio (z) = 0.27493 0.03011
#
# Static dielectric constant tensor:
#      x y z
#    x 3.255850 0.157570 -0.247400 
#    y 0.157570 3.958640 0.260020 
#    z -0.247400 0.260020 3.522740 
# 
# 
# High freq. dielectric constant tensor:
#      x y z
#    x 1.704480 0.016910 -0.026380 
#    y 0.016910 1.746860 0.019150 
#    z -0.026380 0.019150 1.719050 
# 
# From -- ./inp_files/185761.got.cif
#   From: 2010.06.25/outbox.cif.g09.slc.cpg/sg2_93_cif.got.tgz:185761.got - 2010.06.27 13:26:56.
