data_PCOD8038031
_publ_section_title
;
Structure prediction by ZEFSAII (Michael W. Deem and Ramdas Pophale) SiO2 
 PCOD8038031
Probable space group: P -1
;
_chemical_formula_sum "Si O2"
_cell_formula_units_Z 14
_cell_length_a 9.108922
_cell_length_b 11.655337
_cell_length_c 8.803264
_cell_angle_alpha 128.941724
_cell_angle_beta 104.371557
_cell_angle_gamma 65.444010
_cell_volume 661.076038
_symmetry_space_group_name_H-M "P -1"
_symmetry_group_IT_number 2
_symmetry_cell_setting 'triclinic'
loop_
_space_group_symop_operation_xyz
x,y,z
-x,-y,-z
loop_
_atom_site_type_symbol
_atom_site_label
_atom_site_fract_x
_atom_site_fract_y
_atom_site_fract_z
Si Si1 0.214645 0.488027 0.175965
Si Si2 0.088157 0.030216 0.763115
Si Si3 0.356690 0.955619 0.002062
Si Si4 0.748176 0.000562 0.657976
Si Si5 0.534209 0.656877 0.656346
Si Si6 0.342034 0.764162 0.421976
Si Si7 0.876989 0.720791 0.243001
O O1 0.285955 0.386756 0.263936
O O2 0.317782 0.598171 0.247562
O O3 0.029473 0.588613 0.249072
O O4 0.231394 0.366578 0.940728
O O5 0.054771 0.186588 0.785583
O O6 0.181959 0.878050 0.560267
O O7 0.918409 0.018205 0.757877
O O8 0.186698 0.044201 0.949834
O O9 0.345836 0.001777 0.213516
O O10 0.405842 0.768065 0.836372
O O11 0.500000 0.000000 0.000000
O O12 0.769985 0.838985 0.440182
O O13 0.637458 0.150505 0.656427
O O14 0.500000 0.500000 0.500000
O O15 0.500051 0.740572 0.550601
#
# Coordination Sequence:
#
# PCOD8038031 Si02
#       7
#     2   2   2   2   2   2   2
#     4  10  17  33  58  92 124 155 186 232 308 348
#     4  10  18  37  61  87 116 155 196 246 292 346
#     4  11  24  40  60  84 120 158 198 251 299 342
#     4  11  20  38  61  91 114 152 209 244 286 350
#     4   9  20  38  60  80 117 164 188 230 299 357
#     4   9  17  35  62  86 115 155 197 239 288 351
#     4  10  19  32  64  90 119 151 191 249 291 344
#
# _framework density 21.177596000000001
#
# number of rings (size 3 to 8) (size 9 to 14) (size 15 to 20)
#    0.000    2.000    2.857    2.143    0.000    0.000 
#    0.000   15.714    0.000    4.286    0.000    0.000 
#    0.000    0.000    0.000    0.000    0.000    0.000 
#
# Total GULP energy -173533.896802 kJ/mol
# GULP energy per Si atom -12395.278343 kJ/mol
# Density = 2.112940 g / cm^3
# Si number density = 21.177596 Si / 1000 Ang^3
#
#
#
# Elastic Constant Matrix: (Units=GPa)
#
#
# Indices 1 2 3 4 5 6 
#
# 1 64.2766 55.4994 54.9345 -15.9545 -1.9346 0.2967
# 2 55.4994 138.3827 71.3743 -27.0313 4.4108 -23.9933
# 3 54.9345 71.3743 157.0700 -7.1675 5.6902 6.5328
# 4 -15.9545 -27.0313 -7.1675 45.5288 -0.5287 8.2392
# 5 -1.9346 4.4108 5.6902 -0.5287 29.1893 -14.6182
# 6 0.2967 -23.9933 6.5328 8.2392 -14.6182 28.3979
#
#
#
# Elastic Compliance Matrix: (Units=1/GPa)
#
#
# Indices 1 2 3 4 5 6 
#
# 1 0.029984 -0.009598 -0.005529 0.005495 0.000317 -0.008582
# 2 -0.009598 0.017628 -0.005603 0.002807 0.007532 0.019346
# 3 -0.005529 -0.005603 0.011459 -0.001651 -0.007014 -0.010443
# 4 0.005495 0.002807 -0.001651 0.026386 -0.002351 -0.006171
# 5 0.000317 0.007532 -0.007014 -0.002351 0.052279 0.035567
# 6 -0.008582 0.019346 -0.010443 -0.006171 0.035567 0.074150
#
#
# Mechanical properties :
#
#
# Convention : Reuss Voigt Hill
#
# Bulk Modulus (GPa) = 56.78213 80.37177 68.57695
# Shear Modulus (GPa) = 19.28890 32.48460 25.88675
#
# Velocity S-wave (km/s) = 3.02125 3.92077 3.50003
# Velocity P-wave (km/s) = 6.24829 7.65051 6.98468
#
# Compressibility (1/GPa) = 0.01761117
#
# Stress axis : x y z
#
# Youngs Moduli (GPa) = 33.35140 56.72776 87.26483
#
# Poissons Ratio (x) = 0.54449 0.48248
# Poissons Ratio (y) = 0.32012 0.48893
# Poissons Ratio (z) = 0.18440 0.31783
#
# Static dielectric constant tensor:
#      x y z
#    x -6.680290 6.576950 5.912670 
#    y 6.576950 -0.278900 -3.976670 
#    z 5.912670 -3.976670 1.038710 
# 
# 
# High freq. dielectric constant tensor:
#      x y z
#    x 1.779340 -0.021380 0.033670 
#    y -0.021380 1.849230 0.001260 
#    z 0.033670 0.001260 1.841500 
# 
# From -- ./inp_files/159515.got.cif
#   From: 2010.06.25/outbox.cif.g09.slc.cpg/sg2_80_cif.got.tgz:159515.got - 2010.06.27 13:26:56.
