data_PCOD8038648
_publ_section_title
;
Structure prediction by ZEFSAII (Michael W. Deem and Ramdas Pophale) SiO2 
 PCOD8038648
Probable space group: P -1
;
_chemical_formula_sum "Si O2"
_cell_formula_units_Z 14
_cell_length_a 10.202601
_cell_length_b 9.648672
_cell_length_c 12.158161
_cell_angle_alpha 116.109054
_cell_angle_beta 126.026899
_cell_angle_gamma 48.225733
_cell_volume 719.564599
_symmetry_space_group_name_H-M "P -1"
_symmetry_group_IT_number 2
_symmetry_cell_setting 'triclinic'
loop_
_space_group_symop_operation_xyz
x,y,z
-x,-y,-z
loop_
_atom_site_type_symbol
_atom_site_label
_atom_site_fract_x
_atom_site_fract_y
_atom_site_fract_z
Si Si1 0.209640 0.538938 0.396971
Si Si2 0.441664 0.797687 0.863346
Si Si3 0.703099 0.067152 0.562275
Si Si4 0.455237 0.530971 0.325985
Si Si5 0.819612 0.927104 0.339591
Si Si6 0.724651 0.826275 0.671247
Si Si7 0.566153 0.008683 0.872785
O O1 0.369748 0.459326 0.350300
O O2 0.322163 0.539408 0.560639
O O3 0.139306 0.398711 0.329963
O O4 0.025990 0.742282 0.348196
O O5 0.531717 0.577133 0.817491
O O6 0.242254 0.918805 0.733224
O O7 0.597119 0.843399 0.911117
O O8 0.399332 0.853910 0.990862
O O9 0.685291 0.244504 0.673479
O O10 0.489638 0.122336 0.444550
O O11 0.830843 0.007895 0.492318
O O12 0.804021 0.896689 0.639527
O O13 0.655600 0.878390 0.246279
O O14 0.719802 0.922037 0.817791
#
# Coordination Sequence:
#
# PCOD8038648 Si02
#       7
#     2   2   2   2   2   2   2
#     4  10  18  28  49  70  97 117 155 191 236 267
#     4   9  16  31  48  68  97 118 155 190 227 269
#     4   9  18  29  47  67  96 120 155 186 235 271
#     4  10  18  30  45  71  94 125 149 190 232 281
#     4   9  17  29  46  75  93 118 152 197 227 268
#     4   9  16  32  47  66  91 129 152 187 224 281
#     4   8  16  32  49  66  94 123 156 187 225 268
#
# _framework density 19.456211
#
# number of rings (size 3 to 8) (size 9 to 14) (size 15 to 20)
#    0.857    2.000    1.429    1.714    0.000    2.857 
#    0.000    3.571    0.000    0.000    0.000    5.000 
#    0.000    0.000    0.000    0.000    0.000    0.000 
#
# Total GULP energy -173446.218505 kJ/mol
# GULP energy per Si atom -12389.015608 kJ/mol
# Density = 1.941193 g / cm^3
# Si number density = 19.456211 Si / 1000 Ang^3
#
#
#
# Elastic Constant Matrix: (Units=GPa)
#
#
# Indices 1 2 3 4 5 6 
#
# 1 17.3342 20.8812 18.8754 3.2413 -7.0221 -3.0031
# 2 20.8812 118.6352 52.7213 26.2731 -6.1671 0.9616
# 3 18.8754 52.7213 97.6744 39.4769 -20.8512 -1.9421
# 4 3.2413 26.2731 39.4769 35.5730 -4.9725 -2.7096
# 5 -7.0221 -6.1671 -20.8512 -4.9725 17.5488 -1.3515
# 6 -3.0031 0.9616 -1.9421 -2.7096 -1.3515 26.1791
#
#
#
# Elastic Compliance Matrix: (Units=1/GPa)
#
#
# Indices 1 2 3 4 5 6 
#
# 1 0.100344 -0.014892 -0.015253 0.023324 0.024530 0.014607
# 2 -0.014892 0.013684 -0.003875 -0.005787 -0.007663 -0.003493
# 3 -0.015253 -0.003875 0.030662 -0.026879 0.021272 -0.001017
# 4 0.023324 -0.005787 -0.026879 0.059586 -0.007239 0.006688
# 5 0.024530 -0.007663 0.021272 -0.007239 0.087983 0.008466
# 6 0.014607 -0.003493 -0.001017 0.006688 0.008466 0.041056
#
#
# Mechanical properties :
#
#
# Convention : Reuss Voigt Hill
#
# Bulk Modulus (GPa) = 13.04627 46.51106 29.77866
# Shear Modulus (GPa) = 11.71225 25.27124 18.49175
#
# Velocity S-wave (km/s) = 2.45619 3.60790 3.08625
# Velocity P-wave (km/s) = 3.84237 6.42755 5.29515
#
# Compressibility (1/GPa) = 0.07665027
#
# Stress axis : x y z
#
# Youngs Moduli (GPa) = 9.96571 73.07926 32.61417
#
# Poissons Ratio (x) = 1.08830 0.49746
# Poissons Ratio (y) = 0.14841 0.12637
# Poissons Ratio (z) = 0.15201 0.28315
#
# Static dielectric constant tensor:
#      x y z
#    x 3.078700 0.112400 -0.157030 
#    y 0.112400 3.456650 0.182420 
#    z -0.157030 0.182420 3.425590 
# 
# 
# High freq. dielectric constant tensor:
#      x y z
#    x 1.706510 -0.001670 -0.013960 
#    y -0.001670 1.746670 0.026790 
#    z -0.013960 0.026790 1.734170 
# 
# From -- ./inp_files/417897.got.cif
#   From: 2010.06.25/outbox.cif.g09.slc.cpg/sg2_209_cif.got.tgz:417897.got - 2010.06.27 13:26:56.
