data_PCOD8038469
_publ_section_title
;
Structure prediction by ZEFSAII (Michael W. Deem and Ramdas Pophale) SiO2 
 PCOD8038469
Probable space group: P -1
;
_chemical_formula_sum "Si O2"
_cell_formula_units_Z 16
_cell_length_a 23.804754
_cell_length_b 12.102503
_cell_length_c 8.594763
_cell_angle_alpha 125.020954
_cell_angle_beta 125.209561
_cell_angle_gamma 26.116557
_cell_volume 879.643338
_symmetry_space_group_name_H-M "P -1"
_symmetry_group_IT_number 2
_symmetry_cell_setting 'triclinic'
loop_
_space_group_symop_operation_xyz
x,y,z
-x,-y,-z
loop_
_atom_site_type_symbol
_atom_site_label
_atom_site_fract_x
_atom_site_fract_y
_atom_site_fract_z
Si Si1 0.817862 0.589324 0.906016
Si Si2 0.568973 0.252655 0.966940
Si Si3 0.289523 0.033576 0.738926
Si Si4 0.795463 0.772126 0.729206
Si Si5 0.690806 0.764976 0.282330
Si Si6 0.937582 0.248494 0.081664
Si Si7 0.518413 0.046491 0.727314
Si Si8 0.899581 0.767244 0.629158
O O1 0.876713 0.544863 0.799772
O O2 0.668478 0.791124 0.811069
O O3 0.824956 0.701474 0.132090
O O4 0.900296 0.331078 0.905666
O O5 0.477378 0.272386 0.825175
O O6 0.689684 0.027669 0.865990
O O7 0.500000 0.500000 0.000000
O O8 0.612162 0.202373 0.175647
O O9 0.360256 0.036386 0.758554
O O10 0.230601 0.023249 0.515366
O O11 0.735389 0.765562 0.509544
O O12 0.876649 0.752851 0.756933
O O13 0.810931 0.479178 0.173561
O O14 0.571041 0.866867 0.210817
O O15 0.050728 0.163795 0.240501
O O16 0.000000 0.000000 0.000000
O O17 0.500000 0.000000 0.500000
O O18 0.000000 0.500000 0.500000
#
# Coordination Sequence:
#
# PCOD8038469 Si02
#       8
#     2   2   2   2   2   2   2   2
#     4   9  18  35  56  86 110 136 194 225 268 328
#     4  10  21  37  54  86 122 134 175 236 277 319
#     4   8  18  34  56  83 104 143 188 218 261 333
#     4   9  18  34  61  83 101 145 192 222 256 336
#     4  10  17  36  61  82 106 146 195 220 267 336
#     4  11  24  38  52  84 119 141 179 241 276 318
#     4  10  18  34  63  81 105 149 184 225 272 326
#     4  11  18  37  61  76 104 148 188 223 267 321
#
# _framework density 18.18919
#
# number of rings (size 3 to 8) (size 9 to 14) (size 15 to 20)
#    0.000    2.500    6.250    0.000    0.000    6.000 
#    2.250    3.125    0.000    0.000    0.000    0.000 
#    0.000    0.000    0.000    0.000    0.000    0.000 
#
# Total GULP energy -198236.798201 kJ/mol
# GULP energy per Si atom -12389.799888 kJ/mol
# Density = 1.814779 g / cm^3
# Si number density = 18.189190 Si / 1000 Ang^3
#
#
#
# Elastic Constant Matrix: (Units=GPa)
#
#
# Indices 1 2 3 4 5 6 
#
# 1 151.1672 58.3894 59.7300 -2.2759 -1.1574 13.7586
# 2 58.3894 97.9232 45.7489 -1.5395 2.3782 35.1353
# 3 59.7300 45.7489 91.9754 -9.8353 1.0865 17.3116
# 4 -2.2759 -1.5395 -9.8353 18.3375 4.7420 -1.7077
# 5 -1.1574 2.3782 1.0865 4.7420 40.3849 -2.6255
# 6 13.7586 35.1353 17.3116 -1.7077 -2.6255 40.1268
#
#
#
# Elastic Compliance Matrix: (Units=1/GPa)
#
#
# Indices 1 2 3 4 5 6 
#
# 1 0.010153 -0.004836 -0.004937 -0.001812 0.001108 0.002878
# 2 -0.004836 0.020403 -0.004489 -0.002151 -0.001909 -0.014487
# 3 -0.004937 -0.004489 0.017572 0.008660 -0.001476 -0.001686
# 4 -0.001812 -0.002151 0.008660 0.060724 -0.007231 0.000879
# 5 0.001108 -0.001909 -0.001476 -0.007231 0.026011 0.003322
# 6 0.002878 -0.014487 -0.001686 0.000879 0.003322 0.037601
#
#
# Mechanical properties :
#
#
# Convention : Reuss Voigt Hill
#
# Bulk Modulus (GPa) = 51.00637 74.31136 62.65886
# Shear Modulus (GPa) = 24.09381 31.58299 27.83840
#
# Velocity S-wave (km/s) = 3.64348 4.17149 3.91639
# Velocity P-wave (km/s) = 6.76779 8.00906 7.41445
#
# Compressibility (1/GPa) = 0.01960540
#
# Stress axis : x y z
#
# Youngs Moduli (GPa) = 98.49445 49.01197 56.90846
#
# Poissons Ratio (x) = 0.23700 0.28094
# Poissons Ratio (y) = 0.47628 0.25546
# Poissons Ratio (z) = 0.48624 0.22002
#
# Static dielectric constant tensor:
#      x y z
#    x 3.717310 0.133130 -0.293910 
#    y 0.133130 3.055850 -0.244670 
#    z -0.293910 -0.244670 3.470630 
# 
# 
# High freq. dielectric constant tensor:
#      x y z
#    x 1.720520 0.005700 -0.010500 
#    y 0.005700 1.664330 -0.022870 
#    z -0.010500 -0.022870 1.707930 
# 
# From -- ./inp_files/269927.got.cif
#   From: 2010.06.25/outbox.cif.g09.slc.cpg/sg2_135_cif.got.tgz:269927.got - 2010.06.27 13:26:56.
