data_PCOD8038627
_publ_section_title
;
Structure prediction by ZEFSAII (Michael W. Deem and Ramdas Pophale) SiO2 
 PCOD8038627
Probable space group: P -1
;
_chemical_formula_sum "Si O2"
_cell_formula_units_Z 16
_cell_length_a 14.188170
_cell_length_b 8.169509
_cell_length_c 8.696482
_cell_angle_alpha 104.065929
_cell_angle_beta 60.092174
_cell_angle_gamma 121.953770
_cell_volume 741.078158
_symmetry_space_group_name_H-M "P -1"
_symmetry_group_IT_number 2
_symmetry_cell_setting 'triclinic'
loop_
_space_group_symop_operation_xyz
x,y,z
-x,-y,-z
loop_
_atom_site_type_symbol
_atom_site_label
_atom_site_fract_x
_atom_site_fract_y
_atom_site_fract_z
Si Si1 0.008497 0.246048 0.423215
Si Si2 0.944629 0.089784 0.776424
Si Si3 0.318518 0.145003 0.012809
Si Si4 0.184199 0.649438 0.502252
Si Si5 0.801368 0.581747 0.293340
Si Si6 0.368160 0.520566 0.874044
Si Si7 0.366008 0.361330 0.327779
Si Si8 0.584754 0.264496 0.812596
O O1 0.950411 0.166079 0.617804
O O2 0.903080 0.252912 0.404617
O O3 0.126681 0.458556 0.396233
O O4 0.053283 0.112257 0.270921
O O5 0.058642 0.250990 0.818591
O O6 0.814094 0.046841 0.953280
O O7 0.311496 0.189987 0.209112
O O8 0.329888 0.314297 0.932099
O O9 0.437066 0.107956 0.883644
O O10 0.197843 0.592345 0.651978
O O11 0.320646 0.800834 0.354585
O O12 0.733219 0.496251 0.169900
O O13 0.734072 0.682008 0.466484
O O14 0.503379 0.607175 0.701548
O O15 0.378542 0.675896 0.027207
O O16 0.396080 0.552983 0.257281
#
# Coordination Sequence:
#
# PCOD8038627 Si02
#       8
#     2   2   2   2   2   2   2   2
#     4   9  17  30  50  70  90 119 159 200 226 262
#     4  10  18  29  47  72  96 119 153 191 231 275
#     4   9  16  28  45  67  95 124 153 188 228 271
#     4   9  17  31  50  70  90 119 160 197 228 264
#     4  10  18  27  45  73  98 121 151 189 233 278
#     4   9  16  26  44  70  98 123 150 190 233 271
#     4   8  14  26  44  67  90 118 161 200 222 252
#     4   8  15  28  47  68  92 121 154 192 229 266
#
# _framework density 21.590164999999999
#
# number of rings (size 3 to 8) (size 9 to 14) (size 15 to 20)
#    0.000    3.000    0.000    5.625    0.000    0.500 
#    0.000    0.625    0.000   13.500    0.000   22.750 
#    0.000    2.000    0.000    0.000    0.000    0.000 
#
# Total GULP energy -198292.538221 kJ/mol
# GULP energy per Si atom -12393.283639 kJ/mol
# Density = 2.154102 g / cm^3
# Si number density = 21.590165 Si / 1000 Ang^3
#
#
#
# Elastic Constant Matrix: (Units=GPa)
#
#
# Indices 1 2 3 4 5 6 
#
# 1 168.0113 34.3781 53.4785 -13.0469 -7.0096 27.6136
# 2 34.3781 27.4112 16.8505 -10.5553 -9.5313 9.3125
# 3 53.4785 16.8505 66.6253 -17.1561 -22.0208 19.4132
# 4 -13.0469 -10.5553 -17.1561 15.8630 15.5377 -8.2994
# 5 -7.0096 -9.5313 -22.0208 15.5377 38.9327 -9.1632
# 6 27.6136 9.3125 19.4132 -8.2994 -9.1632 29.3524
#
#
#
# Elastic Compliance Matrix: (Units=1/GPa)
#
#
# Indices 1 2 3 4 5 6 
#
# 1 0.010521 -0.010441 -0.006895 -0.004243 -0.003915 -0.004447
# 2 -0.010441 0.061933 0.001959 0.033181 0.000797 -0.001492
# 3 -0.006895 0.001959 0.028375 0.015701 0.007587 -0.006093
# 4 -0.004243 0.033181 0.015701 0.141216 -0.037455 0.011317
# 5 -0.003915 0.000797 0.007587 -0.037455 0.044844 0.001821
# 6 -0.004447 -0.001492 -0.006093 0.011317 0.001821 0.046524
#
#
# Mechanical properties :
#
#
# Convention : Reuss Voigt Hill
#
# Bulk Modulus (GPa) = 14.27054 52.38466 33.32760
# Shear Modulus (GPa) = 12.90238 27.31900 20.11069
#
# Velocity S-wave (km/s) = 2.44725 3.56103 3.05532
# Velocity P-wave (km/s) = 3.82223 6.42057 5.28362
#
# Compressibility (1/GPa) = 0.07007442
#
# Stress axis : x y z
#
# Youngs Moduli (GPa) = 95.04544 16.14648 35.24282
#
# Poissons Ratio (x) = 0.16859 0.24301
# Poissons Ratio (y) = 0.99239 -0.06906
# Poissons Ratio (z) = 0.65538 -0.03164
#
# Static dielectric constant tensor:
#      x y z
#    x 4.354030 0.137200 -0.593270 
#    y 0.137200 3.355410 -0.271440 
#    z -0.593270 -0.271440 4.030480 
# 
# 
# High freq. dielectric constant tensor:
#      x y z
#    x 1.862640 0.010760 -0.021980 
#    y 0.010760 1.792010 -0.027870 
#    z -0.021980 -0.027870 1.826910 
# 
# From -- ./inp_files/298508.got.cif
#   From: 2010.06.25/outbox.cif.g09.slc.cpg/sg2_150_cif.got.tgz:298508.got - 2010.06.27 13:26:56.
