data_PCOD8038246
_publ_section_title
;
Structure prediction by ZEFSAII (Michael W. Deem and Ramdas Pophale) SiO2 
 PCOD8038246
Probable space group: P -1
;
_chemical_formula_sum "Si O2"
_cell_formula_units_Z 14
_cell_length_a 11.261097
_cell_length_b 10.769238
_cell_length_c 12.035501
_cell_angle_alpha 91.918133
_cell_angle_beta 130.386193
_cell_angle_gamma 51.296290
_cell_volume 677.079060
_symmetry_space_group_name_H-M "P -1"
_symmetry_group_IT_number 2
_symmetry_cell_setting 'triclinic'
loop_
_space_group_symop_operation_xyz
x,y,z
-x,-y,-z
loop_
_atom_site_type_symbol
_atom_site_label
_atom_site_fract_x
_atom_site_fract_y
_atom_site_fract_z
Si Si1 0.328413 0.751029 0.783702
Si Si2 0.519083 0.417728 0.356093
Si Si3 0.939775 0.542600 0.335631
Si Si4 0.813709 0.190100 0.971935
Si Si5 0.645401 0.083349 0.022423
Si Si6 0.863898 0.330424 0.194515
Si Si7 0.128721 0.631328 0.302226
O O1 0.352639 0.751472 0.665153
O O2 0.259204 0.929898 0.797740
O O3 0.130111 0.766756 0.698359
O O4 0.585395 0.549804 0.995822
O O5 0.298691 0.483344 0.293521
O O6 0.739533 0.327383 0.568486
O O7 0.395964 0.611293 0.224221
O O8 0.009446 0.364628 0.317933
O O9 0.000000 0.500000 0.500000
O O10 0.124599 0.522862 0.384908
O O11 0.648472 0.775722 0.149202
O O12 0.654604 0.194738 0.949353
O O13 0.972002 0.186890 0.147411
O O14 0.000000 0.000000 0.000000
O O15 0.839995 0.851164 0.095902
#
# Coordination Sequence:
#
# PCOD8038246 Si02
#       7
#     2   2   2   2   2   2   2
#     4   8  15  32  55  79 106 136 182 232 269 314
#     4  10  20  35  54  84 109 146 183 222 283 321
#     4  11  21  37  58  76 114 152 184 220 275 330
#     4  10  17  34  61  83 106 142 183 229 274 317
#     4  10  20  35  57  87 104 141 190 229 267 325
#     4   8  16  30  54  83 103 139 190 219 261 331
#     4  11  22  34  54  83 114 142 183 226 272 333
#
# _framework density 20.677054999999999
#
# number of rings (size 3 to 8) (size 9 to 14) (size 15 to 20)
#    0.000    2.286    1.429    4.714    0.000    0.571 
#    0.000    6.429    0.000    1.714    0.000    0.000 
#    0.000    0.000    0.000    0.000    0.000    0.000 
#
# Total GULP energy -173482.382368 kJ/mol
# GULP energy per Si atom -12391.598741 kJ/mol
# Density = 2.062999 g / cm^3
# Si number density = 20.677055 Si / 1000 Ang^3
#
#
#
# Elastic Constant Matrix: (Units=GPa)
#
#
# Indices 1 2 3 4 5 6 
#
# 1 122.2638 32.4443 23.2769 11.3819 -4.2291 -13.4439
# 2 32.4443 86.8678 14.7172 14.9061 5.2297 -18.6700
# 3 23.2769 14.7172 47.5211 6.8453 -3.3399 -4.3532
# 4 11.3819 14.9061 6.8453 21.6104 -2.3258 -3.2056
# 5 -4.2291 5.2297 -3.3399 -2.3258 26.0843 4.8947
# 6 -13.4439 -18.6700 -4.3532 -3.2056 4.8947 33.0194
#
#
#
# Elastic Compliance Matrix: (Units=1/GPa)
#
#
# Indices 1 2 3 4 5 6 
#
# 1 0.009934 -0.002428 -0.003574 -0.002033 0.001113 0.001838
# 2 -0.002428 0.016439 -0.002337 -0.008799 -0.006289 0.008076
# 3 -0.003574 -0.002337 0.024243 -0.003948 0.002710 -0.000365
# 4 -0.002033 -0.008799 -0.003948 0.055049 0.006193 -0.001897
# 5 0.001113 -0.006289 0.002710 0.006193 0.042255 -0.008408
# 6 0.001838 0.008076 -0.000365 -0.001897 -0.008408 0.036614
#
#
# Mechanical properties :
#
#
# Convention : Reuss Voigt Hill
#
# Bulk Modulus (GPa) = 29.46533 44.16996 36.81764
# Shear Modulus (GPa) = 23.52669 28.55711 26.04190
#
# Velocity S-wave (km/s) = 3.37681 3.72035 3.55274
# Velocity P-wave (km/s) = 5.43001 6.31370 5.88846
#
# Compressibility (1/GPa) = 0.03393819
#
# Stress axis : x y z
#
# Youngs Moduli (GPa) = 100.66818 60.83256 41.24841
#
# Poissons Ratio (x) = 0.14768 0.14744
# Poissons Ratio (y) = 0.24439 0.09638
# Poissons Ratio (z) = 0.35983 0.14214
#
# Static dielectric constant tensor:
#      x y z
#    x 3.777420 -0.274420 -0.085100 
#    y -0.274420 4.356120 0.271260 
#    z -0.085100 0.271260 3.350840 
# 
# 
# High freq. dielectric constant tensor:
#      x y z
#    x 1.798390 -0.013710 -0.015940 
#    y -0.013710 1.806300 0.005400 
#    z -0.015940 0.005400 1.784390 
# 
# From -- ./inp_files/226633.got.cif
#   From: 2010.06.25/outbox.cif.g09.slc.cpg/sg2_114_cif.got.tgz:226633.got - 2010.06.27 13:26:56.
