data_PCOD8038124
_publ_section_title
;
Structure prediction by ZEFSAII (Michael W. Deem and Ramdas Pophale) SiO2 
 PCOD8038124
Probable space group: P -1
;
_chemical_formula_sum "Si O2"
_cell_formula_units_Z 16
_cell_length_a 12.000000
_cell_length_b 12.000000
_cell_length_c 12.000000
_cell_angle_alpha 120.000000
_cell_angle_beta 50.000000
_cell_angle_gamma 80.000000
_cell_volume 763.164900
_symmetry_space_group_name_H-M "P -1"
_symmetry_group_IT_number 2
_symmetry_cell_setting 'triclinic'
loop_
_space_group_symop_operation_xyz
x,y,z
-x,-y,-z
loop_
_atom_site_type_symbol
_atom_site_label
_atom_site_fract_x
_atom_site_fract_y
_atom_site_fract_z
Si Si1 0.039437 0.281957 0.347935
Si Si2 0.545103 0.118931 0.500549
Si Si3 0.327184 0.408201 0.582690
Si Si4 0.980529 0.132403 0.989374
Si Si5 0.015192 0.465126 0.661241
Si Si6 0.590450 0.617682 0.093022
Si Si7 0.710070 0.143921 0.038962
Si Si8 0.466856 0.422048 0.134318
O O1 0.112550 0.306881 0.425191
O O2 0.788571 0.399814 0.579518
O O3 0.076119 0.347929 0.249702
O O4 0.204399 0.056968 0.111917
O O5 0.373960 0.312848 0.627680
O O6 0.552958 0.187410 0.647568
O O7 0.500000 0.000000 0.500000
O O8 0.783138 0.960040 0.213513
O O9 0.191005 0.633037 0.770541
O O10 0.205885 0.375448 0.577816
O O11 0.558328 0.278311 0.309575
O O12 0.913184 0.108151 0.904466
O O13 0.000000 0.000000 0.000000
O O14 0.835295 0.510605 0.873393
O O15 0.579620 0.487416 0.097723
O O16 0.493598 0.667505 0.056254
O O17 0.585712 0.248872 0.056442
#
# Coordination Sequence:
#
# PCOD8038124 Si02
#       8
#     2   2   2   2   2   2   2   2
#     4  10  22  42  67 100 130 169 217 272 329 379
#     4  12  28  45  66  96 138 182 212 269 338 395
#     4  12  26  43  68 101 133 172 229 273 323 393
#     4  12  26  44  70 100 131 175 224 277 326 387
#     4  10  22  43  67  95 137 171 213 274 322 394
#     4  10  23  43  67  91 139 171 211 265 336 389
#     4  12  24  39  74 100 126 167 227 275 323 387
#     4  10  22  44  68  97 127 173 213 276 325 386
#
# _framework density 20.965325
#
# number of rings (size 3 to 8) (size 9 to 14) (size 15 to 20)
#    0.000    1.000    2.500    3.375    3.500    4.500 
#    0.000   10.000    0.000    0.000    0.000    0.000 
#    0.000    0.000    0.000    0.000    0.000    0.000 
#
# Total GULP energy -198284.354099 kJ/mol
# GULP energy per Si atom -12392.772131 kJ/mol
# Density = 2.091761 g / cm^3
# Si number density = 20.965325 Si / 1000 Ang^3
#
#
#
# Elastic Constant Matrix: (Units=GPa)
#
#
# Indices 1 2 3 4 5 6 
#
# 1 110.1552 47.3184 38.3768 10.8752 2.7553 9.9924
# 2 47.3184 151.2422 68.0897 14.4878 0.3611 18.2608
# 3 38.3768 68.0897 110.4804 18.7023 7.1495 9.0700
# 4 10.8752 14.4878 18.7023 44.3777 7.1927 -4.3162
# 5 2.7553 0.3611 7.1495 7.1927 34.6820 -2.0575
# 6 9.9924 18.2608 9.0700 -4.3162 -2.0575 38.2769
#
#
#
# Elastic Compliance Matrix: (Units=1/GPa)
#
#
# Indices 1 2 3 4 5 6 
#
# 1 0.011022 -0.002194 -0.002139 -0.001186 -0.000253 -0.001471
# 2 -0.002194 0.010056 -0.005072 -0.001096 0.001159 -0.003084
# 3 -0.002139 -0.005072 0.013672 -0.003339 -0.001947 -0.000743
# 4 -0.001186 -0.001096 -0.003339 0.025700 -0.004282 0.004291
# 5 -0.000253 0.001159 -0.001947 -0.004282 0.030197 0.001115
# 6 -0.001471 -0.003084 -0.000743 0.004291 0.001115 0.028701
#
#
# Mechanical properties :
#
#
# Convention : Reuss Voigt Hill
#
# Bulk Modulus (GPa) = 62.72805 75.49419 69.11112
# Shear Modulus (GPa) = 34.84979 38.00684 36.42832
#
# Velocity S-wave (km/s) = 4.08150 4.26237 4.17292
# Velocity P-wave (km/s) = 7.22471 7.76601 7.50025
#
# Compressibility (1/GPa) = 0.01594183
#
# Stress axis : x y z
#
# Youngs Moduli (GPa) = 90.72361 99.43998 73.13973
#
# Poissons Ratio (x) = 0.21815 0.15644
# Poissons Ratio (y) = 0.19903 0.37097
# Poissons Ratio (z) = 0.19405 0.50436
#
# Static dielectric constant tensor:
#      x y z
#    x 4.076500 0.074440 -0.017610 
#    y 0.074440 4.174320 -0.060890 
#    z -0.017610 -0.060890 3.809950 
# 
# 
# High freq. dielectric constant tensor:
#      x y z
#    x 1.842050 0.008660 0.002700 
#    y 0.008660 1.845570 -0.001120 
#    z 0.002700 -0.001120 1.818200 
# 
# From -- ./inp_files/428671.got.cif
#   From: 2010.06.25/outbox.ucp.g09.slc.cvg/sg2_215_cif.got.tgz:428671.got - 2010.06.28 11:54:26.
