data_PCOD8038084
_publ_section_title
;
Structure prediction by ZEFSAII (Michael W. Deem and Ramdas Pophale) SiO2 
 PCOD8038084
Probable space group: P -1
;
_chemical_formula_sum "Si O2"
_cell_formula_units_Z 16
_cell_length_a 12.000000
_cell_length_b 9.000000
_cell_length_c 15.000000
_cell_angle_alpha 70.000000
_cell_angle_beta 60.000000
_cell_angle_gamma 120.000000
_cell_volume 745.925389
_symmetry_space_group_name_H-M "P -1"
_symmetry_group_IT_number 2
_symmetry_cell_setting 'triclinic'
loop_
_space_group_symop_operation_xyz
x,y,z
-x,-y,-z
loop_
_atom_site_type_symbol
_atom_site_label
_atom_site_fract_x
_atom_site_fract_y
_atom_site_fract_z
Si Si1 0.876549 0.537650 0.711669
Si Si2 0.638014 0.005093 0.666058
Si Si3 0.383316 0.734635 0.650008
Si Si4 0.441778 0.755698 0.265770
Si Si5 0.364849 0.367953 0.729000
Si Si6 0.619255 0.458636 0.990746
Si Si7 0.883472 0.237636 0.882105
Si Si8 0.098055 0.098389 0.072148
O O1 0.720246 0.427889 0.715371
O O2 0.862926 0.341465 0.788343
O O3 0.136317 0.832765 0.510903
O O4 0.763147 0.522519 0.840715
O O5 0.671812 0.225411 0.630376
O O6 0.428814 0.788210 0.726036
O O7 0.568902 0.839629 0.818792
O O8 0.470851 0.647075 0.599951
O O9 0.116068 0.485515 0.792865
O O10 0.500000 0.000000 0.500000
O O11 0.459523 0.602537 0.341309
O O12 0.687691 0.063285 0.070097
O O13 0.249768 0.284492 0.886953
O O14 0.165379 0.122868 0.790257
O O15 0.500000 0.500000 0.000000
O O16 0.823142 0.705449 0.923797
O O17 0.865845 0.047650 0.882706
#
# Coordination Sequence:
#
# PCOD8038084 Si02
#       8
#     2   2   2   2   2   2   2   2
#     4  12  26  47  69 104 143 184 237 292 347 423
#     4  12  27  45  71 105 140 189 234 289 357 416
#     4  11  22  43  70 103 147 176 231 299 350 409
#     4  11  24  44  70  98 142 187 239 286 348 420
#     4   9  19  40  67 101 133 184 233 283 345 417
#     4  12  26  45  72 105 141 188 235 289 354 418
#     4  10  21  41  73  97 138 187 227 286 349 412
#     4   9  19  38  69 102 134 178 235 286 342 417
#
# _framework density 21.449866
#
# number of rings (size 3 to 8) (size 9 to 14) (size 15 to 20)
#    0.000    1.250    3.750    3.000    1.750    2.000 
#    0.000    0.625    0.000    0.000    0.000    0.000 
#    0.000    0.000    0.000    0.000    0.000    0.000 
#
# Total GULP energy -198233.710488 kJ/mol
# GULP energy per Si atom -12389.606906 kJ/mol
# Density = 2.140105 g / cm^3
# Si number density = 21.449866 Si / 1000 Ang^3
#
#
#
# Elastic Constant Matrix: (Units=GPa)
#
#
# Indices 1 2 3 4 5 6 
#
# 1 166.8927 43.9944 45.0508 -7.2437 5.8032 -22.7607
# 2 43.9944 107.0081 38.8724 1.1436 -6.4115 -7.0942
# 3 45.0508 38.8724 121.0984 4.0462 -3.3294 -16.0399
# 4 -7.2437 1.1436 4.0462 32.6026 -8.9792 -1.0701
# 5 5.8032 -6.4115 -3.3294 -8.9792 36.5271 -7.5562
# 6 -22.7607 -7.0942 -16.0399 -1.0701 -7.5562 37.2994
#
#
#
# Elastic Compliance Matrix: (Units=1/GPa)
#
#
# Indices 1 2 3 4 5 6 
#
# 1 0.007646 -0.002349 -0.001720 0.001941 -0.000601 0.003413
# 2 -0.002349 0.011433 -0.002738 0.000003 0.002130 -0.000005
# 3 -0.001720 -0.002738 0.010244 -0.001165 0.001064 0.003017
# 4 0.001941 0.000003 -0.001165 0.033721 0.008577 0.003389
# 5 -0.000601 0.002130 0.001064 0.008577 0.031526 0.007129
# 6 0.003413 -0.000005 0.003017 0.003389 0.007129 0.031731
#
#
# Mechanical properties :
#
#
# Convention : Reuss Voigt Hill
#
# Bulk Modulus (GPa) = 63.65734 72.31494 67.98614
# Shear Modulus (GPa) = 34.44652 39.09126 36.76889
#
# Velocity S-wave (km/s) = 4.01173 4.27365 4.14476
# Velocity P-wave (km/s) = 7.15544 7.62487 7.39388
#
# Compressibility (1/GPa) = 0.01570911
#
# Stress axis : x y z
#
# Youngs Moduli (GPa) = 130.78715 87.46681 97.61551
#
# Poissons Ratio (x) = 0.20548 0.16786
# Poissons Ratio (y) = 0.30726 0.26729
# Poissons Ratio (z) = 0.22490 0.23950
#
# Static dielectric constant tensor:
#      x y z
#    x 4.418090 -0.165680 0.106030 
#    y -0.165680 3.942420 -0.098090 
#    z 0.106030 -0.098090 4.101090 
# 
# 
# High freq. dielectric constant tensor:
#      x y z
#    x 1.877470 -0.005090 0.004320 
#    y -0.005090 1.840660 -0.006740 
#    z 0.004320 -0.006740 1.838150 
# 
# From -- ./inp_files/515356.got.cif
#   From: 2010.06.25/outbox.ucp.g09.slc.cvg/sg2_258_cif.got.tgz:515356.got - 2010.06.28 11:54:26.
