data_PCOD8038888
_publ_section_title
;
Structure prediction by ZEFSAII (Michael W. Deem and Ramdas Pophale) SiO2 
 PCOD8038888
Probable space group: P -1
;
_chemical_formula_sum "Si O2"
_cell_formula_units_Z 14
_cell_length_a 9.559381
_cell_length_b 20.913146
_cell_length_c 26.150571
_cell_angle_alpha 160.186425
_cell_angle_beta 25.568306
_cell_angle_gamma 152.487803
_cell_volume 738.204550
_symmetry_space_group_name_H-M "P -1"
_symmetry_group_IT_number 2
_symmetry_cell_setting 'triclinic'
loop_
_space_group_symop_operation_xyz
x,y,z
-x,-y,-z
loop_
_atom_site_type_symbol
_atom_site_label
_atom_site_fract_x
_atom_site_fract_y
_atom_site_fract_z
Si Si1 0.857706 0.702942 0.361118
Si Si2 0.513319 0.651937 0.849391
Si Si3 0.619056 0.078516 0.720080
Si Si4 0.065937 0.585018 0.688393
Si Si5 0.022291 0.041702 0.952510
Si Si6 0.206830 0.298051 0.501385
Si Si7 0.703726 0.101732 0.820343
O O1 0.667135 0.495467 0.244977
O O2 0.912028 0.673930 0.381053
O O3 0.223603 0.781363 0.273107
O O4 0.639848 0.856796 0.537315
O O5 0.746051 0.554101 0.733909
O O6 0.229469 0.712297 0.023973
O O7 0.726807 0.846204 0.896712
O O8 0.229988 0.076617 0.856268
O O9 0.829392 0.159477 0.764219
O O10 0.996983 0.392878 0.602526
O O11 0.396344 0.597998 0.555392
O O12 0.118292 0.772048 0.849276
O O13 0.288596 0.016309 0.890391
O O14 0.136564 0.066915 0.337821
#
# Coordination Sequence:
#
# PCOD8038888 Si02
#       7
#     2   2   2   2   2   2   2
#     4  10  20  32  51  82 100 130 166 216 246 296
#     4  11  17  30  57  82  96 118 185 217 235 276
#     4   8  18  34  51  70 106 138 165 192 262 304
#     4  10  18  31  53  76 101 137 167 202 251 308
#     4   9  16  32  53  77  94 135 170 207 235 303
#     4  10  18  32  52  73 105 138 162 197 264 307
#     4   8  15  31  53  69  96 138 166 196 239 308
#
# _framework density 18.964932999999998
#
# number of rings (size 3 to 8) (size 9 to 14) (size 15 to 20)
#    0.857    1.714    2.857    0.857    0.000    2.857 
#    0.000    1.429    3.143    7.714    0.000    0.000 
#    0.000    0.000    0.000    0.000    0.000    0.000 
#
# Total GULP energy -173497.807771 kJ/mol
# GULP energy per Si atom -12392.700555 kJ/mol
# Density = 1.892177 g / cm^3
# Si number density = 18.964933 Si / 1000 Ang^3
#
#
#
# Elastic Constant Matrix: (Units=GPa)
#
#
# Indices 1 2 3 4 5 6 
#
# 1 49.9518 24.8198 30.3222 -4.4444 -2.6426 -20.6171
# 2 24.8198 57.5736 26.5749 -4.4472 10.0624 -25.1332
# 3 30.3222 26.5749 88.0236 -5.0589 6.7928 -9.6662
# 4 -4.4444 -4.4472 -5.0589 16.5445 -7.5596 8.8118
# 5 -2.6426 10.0624 6.7928 -7.5596 31.3362 4.1653
# 6 -20.6171 -25.1332 -9.6662 8.8118 4.1653 29.3648
#
#
#
# Elastic Compliance Matrix: (Units=1/GPa)
#
#
# Indices 1 2 3 4 5 6 
#
# 1 0.035210 -0.002734 -0.009498 -0.003810 0.002319 0.020069
# 2 -0.002734 0.043414 -0.006878 -0.026164 -0.024888 0.044356
# 3 -0.009498 -0.006878 0.016000 0.005499 0.000463 -0.009004
# 4 -0.003810 -0.026164 0.005499 0.104525 0.040122 -0.060316
# 5 0.002319 -0.024888 0.000463 0.040122 0.054909 -0.039349
# 6 0.020069 0.044356 -0.009004 -0.060316 -0.039349 0.106827
#
#
# Mechanical properties :
#
#
# Convention : Reuss Voigt Hill
#
# Bulk Modulus (GPa) = 17.72837 39.88700 28.80768
# Shear Modulus (GPa) = 11.96441 23.03791 17.50116
#
# Velocity S-wave (km/s) = 2.51444 3.48913 3.04109
# Velocity P-wave (km/s) = 4.21878 6.10816 5.24918
#
# Compressibility (1/GPa) = 0.05640677
#
# Stress axis : x y z
#
# Youngs Moduli (GPa) = 28.40085 23.03394 62.49840
#
# Poissons Ratio (x) = 0.06296 0.59361
# Poissons Ratio (y) = 0.07764 0.42984
# Poissons Ratio (z) = 0.26975 0.15842
#
# Static dielectric constant tensor:
#      x y z
#    x 3.026850 -0.390730 0.160580 
#    y -0.390730 3.203350 -0.121720 
#    z 0.160580 -0.121720 3.646100 
# 
# 
# High freq. dielectric constant tensor:
#      x y z
#    x 1.688390 -0.038800 0.017010 
#    y -0.038800 1.713240 -0.004310 
#    z 0.017010 -0.004310 1.749440 
# 
# From -- ./inp_files/177736.got.cif
#   From: 2010.06.25/outbox.cif.g09.slc.cpg/sg2_89_cif.got.tgz:177736.got - 2010.06.27 13:26:56.
