data_PCOD8038285
_publ_section_title
;
Structure prediction by ZEFSAII (Michael W. Deem and Ramdas Pophale) SiO2 
 PCOD8038285
Probable space group: P -1
;
_chemical_formula_sum "Si O2"
_cell_formula_units_Z 14
_cell_length_a 9.806334
_cell_length_b 8.827407
_cell_length_c 8.802410
_cell_angle_alpha 98.642955
_cell_angle_beta 61.770021
_cell_angle_gamma 85.182411
_cell_volume 653.118062
_symmetry_space_group_name_H-M "P -1"
_symmetry_group_IT_number 2
_symmetry_cell_setting 'triclinic'
loop_
_space_group_symop_operation_xyz
x,y,z
-x,-y,-z
loop_
_atom_site_type_symbol
_atom_site_label
_atom_site_fract_x
_atom_site_fract_y
_atom_site_fract_z
Si Si1 0.640623 0.866139 0.183210
Si Si2 0.781834 0.689415 0.369523
Si Si3 0.508153 0.216092 0.269562
Si Si4 0.441498 0.681781 0.073706
Si Si5 0.944148 0.912327 0.873473
Si Si6 0.100115 0.776437 0.200687
Si Si7 0.807927 0.341652 0.199786
O O1 0.715529 0.819306 0.299865
O O2 0.529827 0.744190 0.177015
O O3 0.536480 0.036615 0.276116
O O4 0.776628 0.863098 0.985777
O O5 0.664906 0.701184 0.575680
O O6 0.802999 0.521616 0.257111
O O7 0.949086 0.722223 0.347582
O O8 0.634367 0.301539 0.300684
O O9 0.522545 0.228259 0.083205
O O10 0.254449 0.714718 0.210602
O O11 0.500000 0.500000 0.000000
O O12 0.076295 0.758720 0.751975
O O13 0.926193 0.034280 0.761922
O O14 0.000000 0.000000 0.000000
O O15 0.122991 0.700370 0.010024
#
# Coordination Sequence:
#
# PCOD8038285 Si02
#       7
#     2   2   2   2   2   2   2
#     4  12  21  39  67  91 118 166 204 245 297 367
#     4  12  23  36  66  95 125 153 201 258 308 340
#     4  11  23  41  59  94 128 158 197 253 307 361
#     4  11  25  42  65  86 123 161 210 243 300 365
#     4  10  17  34  62  91 116 151 215 249 279 351
#     4  10  20  39  59  90 119 160 210 245 290 368
#     4  10  19  35  60  90 121 159 203 248 289 358
#
# _framework density 21.435632999999999
#
# number of rings (size 3 to 8) (size 9 to 14) (size 15 to 20)
#    0.000    1.143    7.143    3.429    2.000    0.000 
#    0.000    1.429    3.143    0.000    0.000    0.000 
#    0.000    0.000    0.000    0.000    0.000    0.000 
#
# Total GULP energy -173638.058079 kJ/mol
# GULP energy per Si atom -12402.718434 kJ/mol
# Density = 2.138684 g / cm^3
# Si number density = 21.435633 Si / 1000 Ang^3
#
#
#
# Elastic Constant Matrix: (Units=GPa)
#
#
# Indices 1 2 3 4 5 6 
#
# 1 125.5914 16.1919 23.2815 -1.5803 -37.6731 5.8408
# 2 16.1919 97.9840 -1.0399 1.9389 -7.7357 -5.0377
# 3 23.2815 -1.0399 59.3819 1.1177 -34.2757 2.0111
# 4 -1.5803 1.9389 1.1177 11.7124 -1.6577 -6.3544
# 5 -37.6731 -7.7357 -34.2757 -1.6577 37.4343 -0.8626
# 6 5.8408 -5.0377 2.0111 -6.3544 -0.8626 33.8175
#
#
#
# Elastic Compliance Matrix: (Units=1/GPa)
#
#
# Indices 1 2 3 4 5 6 
#
# 1 0.012290 -0.000799 0.004799 0.002844 0.016687 -0.001567
# 2 -0.000799 0.010770 0.002727 -0.000762 0.003919 0.001537
# 3 0.004799 0.002727 0.038512 0.001527 0.040691 -0.001388
# 4 0.002844 -0.000762 0.001527 0.096577 0.008787 0.017676
# 5 0.016687 0.003919 0.040691 0.008787 0.081941 -0.000977
# 6 -0.001567 0.001537 -0.001388 0.017676 -0.000977 0.033449
#
#
# Mechanical properties :
#
#
# Convention : Reuss Voigt Hill
#
# Bulk Modulus (GPa) = 13.32904 39.98050 26.65477
# Shear Modulus (GPa) = 17.53805 32.89444 25.21624
#
# Velocity S-wave (km/s) = 2.86347 3.92161 3.43355
# Velocity P-wave (km/s) = 4.14298 6.26077 5.30856
#
# Compressibility (1/GPa) = 0.07502414
#
# Stress axis : x y z
#
# Youngs Moduli (GPa) = 81.36699 92.84774 25.96617
#
# Poissons Ratio (x) = 0.07423 -0.12461
# Poissons Ratio (y) = 0.06505 -0.07080
# Poissons Ratio (z) = -0.39048 -0.25315
#
# Static dielectric constant tensor:
#      x y z
#    x 4.234970 -0.309650 -0.385750 
#    y -0.309650 4.184560 0.003720 
#    z -0.385750 0.003720 3.470970 
# 
# 
# High freq. dielectric constant tensor:
#      x y z
#    x 1.843950 -0.004670 -0.032300 
#    y -0.004670 1.857340 0.001150 
#    z -0.032300 0.001150 1.797090 
# 
# From -- ./inp_files/156939.got.cif
#   From: 2010.06.25/outbox.cif.g09.slc.cpg/sg2_79_cif.got.tgz:156939.got - 2010.06.27 13:26:56.
