data_PCOD8038611
_publ_section_title
;
Structure prediction by ZEFSAII (Michael W. Deem and Ramdas Pophale) SiO2 
 PCOD8038611
Probable space group: P -1
;
_chemical_formula_sum "Si O2"
_cell_formula_units_Z 12
_cell_length_a 7.000146
_cell_length_b 7.650080
_cell_length_c 8.866392
_cell_angle_alpha 99.862030
_cell_angle_beta 83.524576
_cell_angle_gamma 85.114021
_cell_volume 462.154202
_symmetry_space_group_name_H-M "P -1"
_symmetry_group_IT_number 2
_symmetry_cell_setting 'triclinic'
loop_
_space_group_symop_operation_xyz
x,y,z
-x,-y,-z
loop_
_atom_site_type_symbol
_atom_site_label
_atom_site_fract_x
_atom_site_fract_y
_atom_site_fract_z
Si Si1 0.707613 0.617752 0.132044
Si Si2 0.727685 0.449428 0.796032
Si Si3 0.214902 0.677421 0.693753
Si Si4 0.016078 0.206767 0.545977
Si Si5 0.389937 0.991390 0.850794
Si Si6 0.611313 0.732873 0.601692
O O1 0.476925 0.622797 0.166929
O O2 0.813415 0.505633 0.243802
O O3 0.741249 0.826942 0.157174
O O4 0.796454 0.526762 0.958723
O O5 0.887196 0.288750 0.707320
O O6 0.715580 0.608780 0.702531
O O7 0.038341 0.709434 0.600953
O O8 0.408434 0.654203 0.563797
O O9 0.243352 0.834684 0.836554
O O10 0.242534 0.247050 0.548672
O O11 0.000000 0.000000 0.500000
O O12 0.556616 0.933029 0.703710
O O13 0.500000 0.000000 0.000000
#
# Coordination Sequence:
#
# PCOD8038611 Si02
#       6
#     2   2   2   2   2   2
#     4  10  18  40  70  96 128 174 213 268 326 383
#     4  10  20  39  66  96 131 170 215 267 324 384
#     4   9  24  42  68  98 127 173 217 268 326 383
#     4  12  25  44  63  96 133 174 218 272 324 386
#     4  10  17  39  70  97 128 169 215 261 322 386
#     4   9  21  41  64  96 130 165 218 266 319 387
#
# _framework density 25.96536
#
# number of rings (size 3 to 8) (size 9 to 14) (size 15 to 20)
#    1.000    1.000    1.667    2.500    0.000    3.333 
#    6.000    4.167    0.000    0.000    0.000    0.000 
#    0.000    0.000    0.000    0.000    0.000    0.000 
#
# Total GULP energy -148692.182024 kJ/mol
# GULP energy per Si atom -12391.015169 kJ/mol
# Density = 2.590626 g / cm^3
# Si number density = 25.965360 Si / 1000 Ang^3
#
#
#
# Elastic Constant Matrix: (Units=GPa)
#
#
# Indices 1 2 3 4 5 6 
#
# 1 35.2745 2.6241 8.1887 -8.7268 -8.5432 -1.0514
# 2 2.6241 185.6666 49.1331 9.9640 6.5353 -11.2238
# 3 8.1887 49.1331 81.7654 25.8691 -16.2374 -3.8289
# 4 -8.7268 9.9640 25.8691 48.2676 -1.4150 -0.8304
# 5 -8.5432 6.5353 -16.2374 -1.4150 35.7299 1.2068
# 6 -1.0514 -11.2238 -3.8289 -0.8304 1.2068 31.1574
#
#
#
# Elastic Compliance Matrix: (Units=1/GPa)
#
#
# Indices 1 2 3 4 5 6 
#
# 1 0.033140 0.000218 -0.005041 0.008832 0.005923 0.000584
# 2 0.000218 0.006950 -0.005247 0.001346 -0.003619 0.002042
# 3 -0.005041 -0.005247 0.021093 -0.010874 0.008913 -0.000103
# 4 0.008832 0.001346 -0.010874 0.027811 -0.001984 0.000265
# 5 0.005923 -0.003619 0.008913 -0.001984 0.034085 -0.001382
# 6 0.000584 0.002042 -0.000103 0.000265 -0.001382 0.032898
#
#
# Mechanical properties :
#
#
# Convention : Reuss Voigt Hill
#
# Bulk Modulus (GPa) = 24.36393 46.95537 35.65965
# Shear Modulus (GPa) = 26.34377 39.21503 32.77940
#
# Velocity S-wave (km/s) = 3.18869 3.89045 3.55692
# Velocity P-wave (km/s) = 4.79173 6.18902 5.53464
#
# Compressibility (1/GPa) = 0.04104428
#
# Stress axis : x y z
#
# Youngs Moduli (GPa) = 30.17502 143.88324 47.40814
#
# Poissons Ratio (x) = -0.03142 0.23898
# Poissons Ratio (y) = -0.00659 0.24876
# Poissons Ratio (z) = 0.15211 0.75498
#
# Static dielectric constant tensor:
#      x y z
#    x 4.480240 -0.010830 -0.096480 
#    y -0.010830 4.920430 0.114700 
#    z -0.096480 0.114700 4.677880 
# 
# 
# High freq. dielectric constant tensor:
#      x y z
#    x 2.030860 0.003180 0.005020 
#    y 0.003180 2.052140 0.015400 
#    z 0.005020 0.015400 2.031370 
# 
# From -- ./inp_files/146103.got.cif
#   From: 2010.06.25/outbox.cif.g09.slc.cpg/sg2_74_cif.got.tgz:146103.got - 2010.06.27 13:26:56.
