data_PCOD8038891
_publ_section_title
;
Structure prediction by ZEFSAII (Michael W. Deem and Ramdas Pophale) SiO2 
 PCOD8038891
Probable space group: P -1
;
_chemical_formula_sum "Si O2"
_cell_formula_units_Z 14
_cell_length_a 8.926338
_cell_length_b 11.380316
_cell_length_c 25.630884
_cell_angle_alpha 31.536568
_cell_angle_beta 48.166302
_cell_angle_gamma 70.102655
_cell_volume 822.671613
_symmetry_space_group_name_H-M "P -1"
_symmetry_group_IT_number 2
_symmetry_cell_setting 'triclinic'
loop_
_space_group_symop_operation_xyz
x,y,z
-x,-y,-z
loop_
_atom_site_type_symbol
_atom_site_label
_atom_site_fract_x
_atom_site_fract_y
_atom_site_fract_z
Si Si1 0.411423 0.819208 0.658845
Si Si2 0.387113 0.743861 0.470611
Si Si3 0.314115 0.112556 0.278019
Si Si4 0.112758 0.150076 0.723634
Si Si5 0.806673 0.546114 0.051544
Si Si6 0.031282 0.782452 0.378879
Si Si7 0.185078 0.035900 0.564673
O O1 0.271954 0.579479 0.824908
O O2 0.212311 0.808802 0.671331
O O3 0.580252 0.126436 0.529105
O O4 0.593612 0.779612 0.597934
O O5 0.199898 0.410675 0.642060
O O6 0.654685 0.847192 0.348000
O O7 0.277366 0.858192 0.414330
O O8 0.571042 0.401767 0.122144
O O9 0.082842 0.126777 0.340685
O O10 0.289486 0.032731 0.252028
O O11 0.969183 0.152094 0.706082
O O12 0.923763 0.870159 0.905627
O O13 0.000000 0.500000 0.000000
O O14 0.000000 0.500000 0.500000
O O15 0.805254 0.761714 0.469772
#
# Coordination Sequence:
#
# PCOD8038891 Si02
#       7
#     2   2   2   2   2   2   2
#     4  10  19  36  57  76 109 140 180 216 260 320
#     4  10  18  31  53  78 100 144 174 214 257 312
#     4   9  19  32  52  79 102 138 178 216 262 300
#     4  11  19  32  52  78 110 133 176 217 270 306
#     4  11  20  33  49  82 111 138 172 221 270 313
#     4  10  18  34  54  81 105 131 182 224 254 309
#     4   9  19  35  56  79 102 145 180 216 257 315
#
# _framework density 17.017726
#
# number of rings (size 3 to 8) (size 9 to 14) (size 15 to 20)
#    0.857    1.143    5.714    0.000    0.000    2.857 
#    0.000    0.000    0.000   11.143    0.000    0.000 
#    0.000    0.000    0.000    0.000    0.000    0.000 
#
# Total GULP energy -173471.819910 kJ/mol
# GULP energy per Si atom -12390.844279 kJ/mol
# Density = 1.697899 g / cm^3
# Si number density = 17.017726 Si / 1000 Ang^3
#
#
#
# Elastic Constant Matrix: (Units=GPa)
#
#
# Indices 1 2 3 4 5 6 
#
# 1 110.4855 11.7692 44.9679 2.3758 -0.0553 -10.1559
# 2 11.7692 54.2806 37.7061 -1.1811 7.3036 -5.2632
# 3 44.9679 37.7061 127.3566 -11.6362 8.4906 0.9559
# 4 2.3758 -1.1811 -11.6362 25.5298 2.3516 0.8616
# 5 -0.0553 7.3036 8.4906 2.3516 23.1740 5.6470
# 6 -10.1559 -5.2632 0.9559 0.8616 5.6470 23.1997
#
#
#
# Elastic Compliance Matrix: (Units=1/GPa)
#
#
# Indices 1 2 3 4 5 6 
#
# 1 0.011450 0.001257 -0.004794 -0.003415 0.000387 0.005528
# 2 0.001257 0.025193 -0.007695 -0.002101 -0.006939 0.008350
# 3 -0.004794 -0.007695 0.012531 0.006106 -0.001785 -0.004153
# 4 -0.003415 -0.002101 0.006106 0.042748 -0.005307 -0.002519
# 5 0.000387 -0.006939 -0.001785 -0.005307 0.049760 -0.013246
# 6 0.005528 0.008350 -0.004153 -0.002519 -0.013246 0.050907
#
#
# Mechanical properties :
#
#
# Convention : Reuss Voigt Hill
#
# Bulk Modulus (GPa) = 37.43847 53.44546 45.44197
# Shear Modulus (GPa) = 22.32578 27.55932 24.94255
#
# Velocity S-wave (km/s) = 3.62596 4.02860 3.83257
# Velocity P-wave (km/s) = 6.29107 7.28790 6.80775
#
# Compressibility (1/GPa) = 0.02671049
#
# Stress axis : x y z
#
# Youngs Moduli (GPa) = 87.33530 39.69353 79.80130
#
# Poissons Ratio (x) = -0.04991 0.38261
# Poissons Ratio (y) = -0.10982 0.61406
# Poissons Ratio (z) = 0.41873 0.30544
#
# Static dielectric constant tensor:
#      x y z
#    x 3.435670 -0.015240 -0.011690 
#    y -0.015240 3.086840 -0.105640 
#    z -0.011690 -0.105640 3.009770 
# 
# 
# High freq. dielectric constant tensor:
#      x y z
#    x 1.679010 -0.004480 0.002850 
#    y -0.004480 1.638080 -0.008960 
#    z 0.002850 -0.008960 1.623160 
# 
# From -- ./inp_files/247974.got.cif
#   From: 2010.06.25/outbox.cif.g09.slc.cpg/sg2_124_cif.got.tgz:247974.got - 2010.06.27 13:26:56.
