data_PCOD8038734
_publ_section_title
;
Structure prediction by ZEFSAII (Michael W. Deem and Ramdas Pophale) SiO2 
 PCOD8038734
Probable space group: P -1
;
_chemical_formula_sum "Si O2"
_cell_formula_units_Z 16
_cell_length_a 22.673681
_cell_length_b 5.463840
_cell_length_c 7.025106
_cell_angle_alpha 104.233043
_cell_angle_beta 78.800055
_cell_angle_gamma 54.757408
_cell_volume 623.795693
_symmetry_space_group_name_H-M "P -1"
_symmetry_group_IT_number 2
_symmetry_cell_setting 'triclinic'
loop_
_space_group_symop_operation_xyz
x,y,z
-x,-y,-z
loop_
_atom_site_type_symbol
_atom_site_label
_atom_site_fract_x
_atom_site_fract_y
_atom_site_fract_z
Si Si1 0.512238 0.176513 0.867731
Si Si2 0.307848 0.338698 0.337006
Si Si3 0.031964 0.160729 0.816487
Si Si4 0.247938 0.994968 0.361473
Si Si5 0.646330 0.443721 0.153496
Si Si6 0.708495 0.789644 0.116911
Si Si7 0.091964 0.198226 0.421506
Si Si8 0.884476 0.276381 0.966467
O O1 0.602240 0.890766 0.684987
O O2 0.500000 0.500000 0.000000
O O3 0.448636 0.283599 0.765564
O O4 0.500000 0.000000 0.000000
O O5 0.264733 0.731223 0.460153
O O6 0.300687 0.279063 0.108143
O O7 0.266514 0.228575 0.467627
O O8 0.094304 0.036541 0.585448
O O9 0.951224 0.251106 0.803611
O O10 0.000000 0.500000 0.000000
O O11 0.080664 0.846077 0.867286
O O12 0.306288 0.773557 0.106522
O O13 0.153316 0.261556 0.417755
O O14 0.677539 0.637418 0.237050
O O15 0.659295 0.186242 0.253332
O O16 0.797362 0.638595 0.089615
O O17 0.000000 0.500000 0.500000
O O18 0.128541 0.952531 0.173215
#
# Coordination Sequence:
#
# PCOD8038734 Si02
#       8
#     2   2   2   2   2   2   2   2
#     4  12  16  26  44  75 124 155 187 250 308 359
#     4  10  18  30  49  81 116 157 196 249 304 365
#     4  11  26  43  60  92 121 156 219 267 318 376
#     4  10  20  33  50  81 112 153 208 244 297 372
#     4  10  18  30  48  83 115 157 200 245 302 373
#     4  10  19  31  55  76 111 160 197 246 305 360
#     4  12  24  40  67  89 118 173 209 260 325 373
#     4  11  24  43  63  86 123 165 207 270 315 372
#
# _framework density 25.649424
#
# number of rings (size 3 to 8) (size 9 to 14) (size 15 to 20)
#    0.000    1.250    8.750    0.375    5.250    1.000 
#    0.000    0.000    0.000    0.000    0.000    0.000 
#    0.000   11.000    0.000    0.000    0.000    0.000 
#
# Total GULP energy -198260.647853 kJ/mol
# GULP energy per Si atom -12391.290491 kJ/mol
# Density = 2.559104 g / cm^3
# Si number density = 25.649424 Si / 1000 Ang^3
#
#
#
# Elastic Constant Matrix: (Units=GPa)
#
#
# Indices 1 2 3 4 5 6 
#
# 1 193.8276 76.0631 17.1242 8.5413 -42.8757 -6.1189
# 2 76.0631 168.2364 5.3390 13.3850 -22.1299 13.9552
# 3 17.1242 5.3390 26.6739 -0.6203 -13.7983 -6.5038
# 4 8.5413 13.3850 -0.6203 15.1362 1.0494 -18.6485
# 5 -42.8757 -22.1299 -13.7983 1.0494 33.2666 8.5645
# 6 -6.1189 13.9552 -6.5038 -18.6485 8.5645 71.3405
#
#
#
# Elastic Compliance Matrix: (Units=1/GPa)
#
#
# Indices 1 2 3 4 5 6 
#
# 1 0.008322 -0.001831 -0.000364 -0.005871 0.009979 -0.001694
# 2 -0.001831 0.009517 0.000544 -0.016531 0.006540 -0.007075
# 3 -0.000364 0.000544 0.048290 0.004175 0.018999 0.003075
# 4 -0.005871 -0.016531 0.004175 0.140221 -0.032496 0.043666
# 5 0.009979 0.006540 0.018999 -0.032496 0.059877 -0.014374
# 6 -0.001694 -0.007075 0.003075 0.043666 -0.014374 0.028677
#
#
# Mechanical properties :
#
#
# Convention : Reuss Voigt Hill
#
# Bulk Modulus (GPa) = 15.91679 65.08781 40.50230
# Shear Modulus (GPa) = 15.66668 43.29609 29.48139
#
# Velocity S-wave (km/s) = 2.47412 4.11298 3.39395
# Velocity P-wave (km/s) = 3.79219 6.92723 5.58423
#
# Compressibility (1/GPa) = 0.06282675
#
# Stress axis : x y z
#
# Youngs Moduli (GPa) = 120.15631 105.07545 20.70841
#
# Poissons Ratio (x) = 0.19240 0.00754
# Poissons Ratio (y) = 0.22001 -0.01126
# Poissons Ratio (z) = 0.04374 -0.05715
#
# Static dielectric constant tensor:
#      x y z
#    x 5.253170 0.450950 -0.330640 
#    y 0.450950 5.505780 -0.243740 
#    z -0.330640 -0.243740 3.941530 
# 
# 
# High freq. dielectric constant tensor:
#      x y z
#    x 2.045900 0.002130 -0.018370 
#    y 0.002130 2.039650 -0.001840 
#    z -0.018370 -0.001840 1.978170 
# 
# From -- ./inp_files/340475.got.cif
#   From: 2010.06.25/outbox.cif.g09.slc.cpg/sg2_171_cif.got.tgz:340475.got - 2010.06.27 13:26:56.
