data_PCOD8038489
_publ_section_title
;
Structure prediction by ZEFSAII (Michael W. Deem and Ramdas Pophale) SiO2 
 PCOD8038489
Probable space group: P -1
;
_chemical_formula_sum "Si O2"
_cell_formula_units_Z 14
_cell_length_a 17.761949
_cell_length_b 11.483736
_cell_length_c 9.700613
_cell_angle_alpha 138.506005
_cell_angle_beta 149.701867
_cell_angle_gamma 48.826694
_cell_volume 660.973710
_symmetry_space_group_name_H-M "P -1"
_symmetry_group_IT_number 2
_symmetry_cell_setting 'triclinic'
loop_
_space_group_symop_operation_xyz
x,y,z
-x,-y,-z
loop_
_atom_site_type_symbol
_atom_site_label
_atom_site_fract_x
_atom_site_fract_y
_atom_site_fract_z
Si Si1 0.322211 0.712922 0.511860
Si Si2 0.295689 0.170649 0.193610
Si Si3 0.810165 0.169264 0.148854
Si Si4 0.151181 0.080136 0.610615
Si Si5 0.623883 0.193495 0.622050
Si Si6 0.831351 0.475406 0.675521
Si Si7 0.602796 0.869503 0.142399
O O1 0.347975 0.689581 0.367265
O O2 0.247907 0.549403 0.322565
O O3 0.209390 0.879322 0.508082
O O4 0.484882 0.719701 0.854235
O O5 0.455371 0.215517 0.426118
O O6 0.237361 0.343669 0.339472
O O7 0.173874 0.143601 0.857590
O O8 0.295192 0.993722 0.126593
O O9 0.805123 0.313454 0.388952
O O10 0.977181 0.099536 0.317109
O O11 0.739346 0.255609 0.975445
O O12 0.248944 0.198489 0.765590
O O13 0.653025 0.983731 0.453835
O O14 0.000000 0.500000 0.000000
O O15 0.500000 0.000000 0.000000
#
# Coordination Sequence:
#
# PCOD8038489 Si02
#       7
#     2   2   2   2   2   2   2
#     4  10  19  39  65  92 117 159 208 249 291 371
#     4  12  21  40  65  88 120 166 204 242 301 362
#     4  12  24  39  62  93 127 158 195 261 302 349
#     4  10  17  36  64  87 117 157 207 240 293 357
#     4  10  21  39  63  92 124 157 201 251 311 349
#     4  12  25  38  64  92 119 160 213 243 293 371
#     4   8  15  33  63  87 111 154 204 238 284 369
#
# _framework density 21.180873999999999
#
# number of rings (size 3 to 8) (size 9 to 14) (size 15 to 20)
#    0.000    1.714    7.143    1.714    0.000    3.429 
#    0.000    0.714    3.143    0.000    0.000    0.000 
#    0.000    0.000    0.000    0.000    0.000    0.000 
#
# Total GULP energy -173474.944561 kJ/mol
# GULP energy per Si atom -12391.067469 kJ/mol
# Density = 2.113267 g / cm^3
# Si number density = 21.180874 Si / 1000 Ang^3
#
#
#
# Elastic Constant Matrix: (Units=GPa)
#
#
# Indices 1 2 3 4 5 6 
#
# 1 101.3456 23.7374 44.7439 5.2218 9.8805 -3.6121
# 2 23.7374 65.5357 13.1365 15.2055 -4.4636 -7.6622
# 3 44.7439 13.1365 98.4078 -6.4922 -2.6118 9.0550
# 4 5.2218 15.2055 -6.4922 17.8214 2.7286 4.8069
# 5 9.8805 -4.4636 -2.6118 2.7286 30.6994 1.7687
# 6 -3.6121 -7.6622 9.0550 4.8069 1.7687 25.9487
#
#
#
# Elastic Compliance Matrix: (Units=1/GPa)
#
#
# Indices 1 2 3 4 5 6 
#
# 1 0.014677 -0.002267 -0.007385 -0.005666 -0.005488 0.005374
# 2 -0.002267 0.025584 -0.005337 -0.027710 0.005660 0.013849
# 3 -0.007385 -0.005337 0.016347 0.015375 0.002277 -0.011312
# 4 -0.005666 -0.027710 0.015375 0.096750 -0.007668 -0.031736
# 5 -0.005488 0.005660 0.002277 -0.007668 0.036092 -0.000926
# 6 0.005374 0.013849 -0.011312 -0.031736 -0.000926 0.053264
#
#
# Mechanical properties :
#
#
# Convention : Reuss Voigt Hill
#
# Bulk Modulus (GPa) = 37.54900 47.61387 42.58144
# Shear Modulus (GPa) = 17.75772 27.13865 22.44819
#
# Velocity S-wave (km/s) = 2.89863 3.58338 3.25904
# Velocity P-wave (km/s) = 5.38229 6.29677 5.85740
#
# Compressibility (1/GPa) = 0.02663186
#
# Stress axis : x y z
#
# Youngs Moduli (GPa) = 68.13416 39.08762 61.17165
#
# Poissons Ratio (x) = 0.08860 0.45173
# Poissons Ratio (y) = 0.15443 0.32646
# Poissons Ratio (z) = 0.50315 0.20860
#
# Static dielectric constant tensor:
#      x y z
#    x 4.157520 0.014900 0.270180 
#    y 0.014900 3.613940 0.316850 
#    z 0.270180 0.316850 4.060930 
# 
# 
# High freq. dielectric constant tensor:
#      x y z
#    x 1.839880 -0.013900 0.018980 
#    y -0.013900 1.796790 0.010960 
#    z 0.018980 0.010960 1.821530 
# 
# From -- ./inp_files/333853.got.cif
#   From: 2010.06.25/outbox.cif.g09.slc.cpg/sg2_167_cif.got.tgz:333853.got - 2010.06.27 13:26:56.
