data_PCOD8038097
_publ_section_title
;
Structure prediction by ZEFSAII (Michael W. Deem and Ramdas Pophale) SiO2 
 PCOD8038097
Probable space group: P -1
;
_chemical_formula_sum "Si O2"
_cell_formula_units_Z 16
_cell_length_a 12.000000
_cell_length_b 9.000000
_cell_length_c 21.000000
_cell_angle_alpha 70.000000
_cell_angle_beta 140.000000
_cell_angle_gamma 140.000000
_cell_volume 754.890988
_symmetry_space_group_name_H-M "P -1"
_symmetry_group_IT_number 2
_symmetry_cell_setting 'triclinic'
loop_
_space_group_symop_operation_xyz
x,y,z
-x,-y,-z
loop_
_atom_site_type_symbol
_atom_site_label
_atom_site_fract_x
_atom_site_fract_y
_atom_site_fract_z
Si Si1 0.290467 0.967557 0.996487
Si Si2 0.380400 0.711989 0.780362
Si Si3 0.615820 0.145436 0.729066
Si Si4 0.415991 0.535836 0.279696
Si Si5 0.324736 0.651512 0.007012
Si Si6 0.683713 0.678153 0.242958
Si Si7 0.707910 0.243290 0.606382
Si Si8 0.392532 0.308400 0.426013
O O1 0.397763 0.869509 0.044268
O O2 0.347960 0.055145 0.082394
O O3 0.925466 0.718830 0.863286
O O4 0.481984 0.219947 0.992954
O O5 0.420217 0.578028 0.781080
O O6 0.069532 0.475731 0.721996
O O7 0.380795 0.845604 0.705623
O O8 0.509349 0.240564 0.687111
O O9 0.599578 0.118782 0.649252
O O10 0.959616 0.361690 0.873183
O O11 0.664534 0.689615 0.309396
O O12 0.429823 0.409840 0.357273
O O13 0.432468 0.597563 0.109710
O O14 0.036474 0.977661 0.328997
O O15 0.660915 0.385365 0.543988
O O16 0.500000 0.000000 0.500000
O O17 0.500000 0.500000 0.500000
#
# Coordination Sequence:
#
# PCOD8038097 Si02
#       8
#     2   2   2   2   2   2   2   2
#     4  10  21  42  73 101 134 178 218 278 344 399
#     4  12  27  44  69 102 141 181 216 276 349 406
#     4  11  25  45  73 102 133 181 224 278 341 398
#     4  11  25  45  72 104 134 173 231 284 330 398
#     4  10  21  42  73 102 133 172 230 276 333 403
#     4  12  27  44  68 106 139 175 223 280 340 403
#     4  12  27  49  67  97 138 182 228 276 338 402
#     4  12  27  47  71  99 132 180 236 282 329 387
#
# _framework density 21.195112999999999
#
# number of rings (size 3 to 8) (size 9 to 14) (size 15 to 20)
#    0.000    0.750    5.000    1.500    5.250    6.500 
#    0.000    0.000    0.000    0.000    0.000    0.000 
#    0.000    0.000    0.000    0.000    0.000    0.000 
#
# Total GULP energy -198379.131266 kJ/mol
# GULP energy per Si atom -12398.695704 kJ/mol
# Density = 2.114687 g / cm^3
# Si number density = 21.195113 Si / 1000 Ang^3
#
#
#
# Elastic Constant Matrix: (Units=GPa)
#
#
# Indices 1 2 3 4 5 6 
#
# 1 122.1849 46.6426 25.9155 -14.6754 -29.5451 13.6829
# 2 46.6426 106.6737 21.0748 -21.5133 -22.4314 18.1637
# 3 25.9155 21.0748 72.3111 -15.8083 -23.1048 -0.1649
# 4 -14.6754 -21.5133 -15.8083 35.0734 4.4518 -9.6421
# 5 -29.5451 -22.4314 -23.1048 4.4518 41.4419 -3.2391
# 6 13.6829 18.1637 -0.1649 -9.6421 -3.2391 42.7904
#
#
#
# Elastic Compliance Matrix: (Units=1/GPa)
#
#
# Indices 1 2 3 4 5 6 
#
# 1 0.011228 -0.003013 -0.001136 0.001193 0.005484 -0.001632
# 2 -0.003013 0.013206 -0.000337 0.005316 0.003995 -0.003143
# 3 -0.001136 -0.000337 0.018831 0.007480 0.008932 0.002941
# 4 0.001193 0.005316 0.007480 0.036732 0.004421 0.006002
# 5 0.005484 0.003995 0.008932 0.004421 0.034724 0.000210
# 6 -0.001632 -0.003143 0.002941 0.006002 0.000210 0.026605
#
#
# Mechanical properties :
#
#
# Convention : Reuss Voigt Hill
#
# Bulk Modulus (GPa) = 29.16250 54.27061 41.71655
# Shear Modulus (GPa) = 30.91589 37.69691 34.30640
#
# Velocity S-wave (km/s) = 3.82335 4.22188 4.02755
# Velocity P-wave (km/s) = 5.76885 7.03040 6.43063
#
# Compressibility (1/GPa) = 0.03429061
#
# Stress axis : x y z
#
# Youngs Moduli (GPa) = 89.06524 75.72357 53.10522
#
# Poissons Ratio (x) = 0.22816 0.06034
# Poissons Ratio (y) = 0.26836 0.01792
# Poissons Ratio (z) = 0.10120 0.02555
#
# Static dielectric constant tensor:
#      x y z
#    x 4.007990 0.293230 -0.045660 
#    y 0.293230 4.946220 0.271240 
#    z -0.045660 0.271240 3.965490 
# 
# 
# High freq. dielectric constant tensor:
#      x y z
#    x 1.845800 0.012270 -0.007370 
#    y 0.012270 1.838340 -0.008770 
#    z -0.007370 -0.008770 1.839400 
# 
# From -- ./inp_files/256039.got.cif
#   From: 2010.06.25/outbox.ucp.g09.slc.cvg/sg2_129_cif.got.tgz:256039.got - 2010.06.28 11:54:26.
