data_PCOD8038394
_publ_section_title
;
Structure prediction by ZEFSAII (Michael W. Deem and Ramdas Pophale) SiO2 
 PCOD8038394
Probable space group: P -1
;
_chemical_formula_sum "Si O2"
_cell_formula_units_Z 16
_cell_length_a 12.505324
_cell_length_b 17.994628
_cell_length_c 7.748387
_cell_angle_alpha 57.992041
_cell_angle_beta 80.652235
_cell_angle_gamma 33.888518
_cell_volume 667.386939
_symmetry_space_group_name_H-M "P -1"
_symmetry_group_IT_number 2
_symmetry_cell_setting 'triclinic'
loop_
_space_group_symop_operation_xyz
x,y,z
-x,-y,-z
loop_
_atom_site_type_symbol
_atom_site_label
_atom_site_fract_x
_atom_site_fract_y
_atom_site_fract_z
Si Si1 0.325133 0.206165 0.816055
Si Si2 0.487200 0.927113 0.717191
Si Si3 0.808892 0.185267 0.546879
Si Si4 0.986066 0.673545 0.483979
Si Si5 0.139968 0.732795 0.235310
Si Si6 0.286144 0.739395 0.896951
Si Si7 0.383510 0.838603 0.217981
Si Si8 0.411508 0.329599 0.999041
O O1 0.083866 0.356342 0.590085
O O2 0.431093 0.220441 0.692722
O O3 0.300145 0.229945 0.002185
O O4 0.500000 0.000000 0.000000
O O5 0.500000 0.000000 0.500000
O O6 0.237734 0.109744 0.658112
O O7 0.513926 0.815564 0.744960
O O8 0.805287 0.257462 0.612556
O O9 0.748662 0.275169 0.268546
O O10 0.613228 0.250292 0.554145
O O11 0.068443 0.956216 0.748620
O O12 0.164823 0.610651 0.412722
O O13 0.129526 0.532027 0.783634
O O14 0.320344 0.636244 0.155505
O O15 0.879120 0.934133 0.982254
O O16 0.516349 0.637021 0.951877
O O17 0.439536 0.772249 0.090422
#
# Coordination Sequence:
#
# PCOD8038394 Si02
#       8
#     2   2   2   2   2   2   2   2
#     4   9  18  37  59  89 115 160 208 248 313 374
#     4  10  22  41  63  89 125 163 203 267 314 366
#     4  10  19  34  62  91 119 168 214 259 315 372
#     4  11  23  39  63  92 122 170 208 255 313 385
#     4  11  18  39  61  86 129 163 210 256 314 367
#     4  10  20  34  59  97 121 167 213 257 313 378
#     4  10  17  35  62  83 120 161 206 264 306 372
#     4  11  21  40  63  89 127 167 209 253 327 369
#
# _framework density 23.974098999999999
#
# number of rings (size 3 to 8) (size 9 to 14) (size 15 to 20)
#    0.000    1.750    6.250    0.750    0.000    5.000 
#    4.500    1.875    0.000    0.000    0.000    0.000 
#    0.000    0.000    0.000    0.000    0.000    0.000 
#
# Total GULP energy -198291.100873 kJ/mol
# GULP energy per Si atom -12393.193805 kJ/mol
# Density = 2.391953 g / cm^3
# Si number density = 23.974099 Si / 1000 Ang^3
#
#
#
# Elastic Constant Matrix: (Units=GPa)
#
#
# Indices 1 2 3 4 5 6 
#
# 1 197.4642 27.2966 65.3557 20.9179 5.1665 -21.9306
# 2 27.2966 32.5185 19.4427 21.2941 6.3451 -7.1224
# 3 65.3557 19.4427 97.4240 16.2589 4.4207 -18.6410
# 4 20.9179 21.2941 16.2589 30.6590 -7.3406 0.5521
# 5 5.1665 6.3451 4.4207 -7.3406 37.0071 3.4802
# 6 -21.9306 -7.1224 -18.6410 0.5521 3.4802 22.8310
#
#
#
# Elastic Compliance Matrix: (Units=1/GPa)
#
#
# Indices 1 2 3 4 5 6 
#
# 1 0.007058 -0.000953 -0.003212 -0.002859 -0.001395 0.004142
# 2 -0.000953 0.094563 0.003423 -0.075963 -0.035185 0.038580
# 3 -0.003212 0.003423 0.015965 -0.010111 -0.005184 0.012052
# 4 -0.002859 -0.075963 -0.010111 0.102824 0.039084 -0.043143
# 5 -0.001395 -0.035185 -0.005184 0.039084 0.043896 -0.024186
# 6 0.004142 0.038580 0.012052 -0.043143 -0.024186 0.074385
#
#
# Mechanical properties :
#
#
# Convention : Reuss Voigt Hill
#
# Bulk Modulus (GPa) = 8.61305 61.28849 34.95077
# Shear Modulus (GPa) = 13.19700 32.45353 22.82527
#
# Velocity S-wave (km/s) = 2.34875 3.68325 3.08893
# Velocity P-wave (km/s) = 3.30998 6.61123 5.22802
#
# Compressibility (1/GPa) = 0.11610284
#
# Stress axis : x y z
#
# Youngs Moduli (GPa) = 141.67534 10.57498 62.63892
#
# Poissons Ratio (x) = 0.01007 0.20119
# Poissons Ratio (y) = 0.13496 -0.21441
# Poissons Ratio (z) = 0.45504 -0.03620
#
# Static dielectric constant tensor:
#      x y z
#    x 4.766480 -0.173590 0.057740 
#    y -0.173590 4.078180 0.028210 
#    z 0.057740 0.028210 4.399930 
# 
# 
# High freq. dielectric constant tensor:
#      x y z
#    x 1.961460 -0.002300 -0.005630 
#    y -0.002300 1.917790 -0.011230 
#    z -0.005630 -0.011230 1.946840 
# 
# From -- ./inp_files/282888.got.cif
#   From: 2010.06.25/outbox.cif.g09.slc.cpg/sg2_142_cif.got.tgz:282888.got - 2010.06.27 13:26:56.
