data_PCOD8038079
_publ_section_title
;
Structure prediction by ZEFSAII (Michael W. Deem and Ramdas Pophale) SiO2 
 PCOD8038079
Probable space group: P -1
;
_chemical_formula_sum "Si O2"
_cell_formula_units_Z 16
_cell_length_a 12.735139
_cell_length_b 9.390867
_cell_length_c 14.765978
_cell_angle_alpha 29.168583
_cell_angle_beta 65.513916
_cell_angle_gamma 76.115699
_cell_volume 753.082195
_symmetry_space_group_name_H-M "P -1"
_symmetry_group_IT_number 2
_symmetry_cell_setting 'triclinic'
loop_
_space_group_symop_operation_xyz
x,y,z
-x,-y,-z
loop_
_atom_site_type_symbol
_atom_site_label
_atom_site_fract_x
_atom_site_fract_y
_atom_site_fract_z
Si Si1 0.411739 0.796865 0.568647
Si Si2 0.402754 0.428814 0.930303
Si Si3 0.376651 0.978308 0.743991
Si Si4 0.776147 0.642505 0.508234
Si Si5 0.986510 0.164376 0.225255
Si Si6 0.331097 0.567183 0.145907
Si Si7 0.195527 0.881853 0.331280
Si Si8 0.816580 0.049794 0.503661
O O1 0.389379 0.462863 0.806703
O O2 0.283797 0.864972 0.570485
O O3 0.500000 0.000000 0.500000
O O4 0.481340 0.845789 0.420259
O O5 0.343711 0.661150 0.876144
O O6 0.540923 0.504013 0.869893
O O7 0.333705 0.081769 0.169207
O O8 0.308728 0.215464 0.601076
O O9 0.344919 0.892180 0.909423
O O10 0.707992 0.446329 0.727334
O O11 0.826552 0.416364 0.555192
O O12 0.887559 0.917439 0.342756
O O13 0.945042 0.147495 0.354119
O O14 0.112360 0.087957 0.212047
O O15 0.000000 0.500000 0.000000
O O16 0.231308 0.315363 0.265173
O O17 0.164165 0.776756 0.504250
#
# Coordination Sequence:
#
# PCOD8038079 Si02
#       8
#     2   2   2   2   2   2   2   2
#     4  10  17  33  61  99 129 164 212 271 308 365
#     4  11  19  37  68  94 131 169 224 260 313 380
#     4  11  19  37  65  96 127 168 223 258 309 388
#     4  11  26  45  63  95 140 170 207 269 342 388
#     4  11  24  47  72  91 117 171 229 271 321 382
#     4  11  20  39  69  96 126 180 216 262 315 386
#     4  12  25  42  63  96 136 168 207 279 331 380
#     4  11  21  39  68  99 124 162 228 270 316 379
#
# _framework density 21.246020999999999
#
# number of rings (size 3 to 8) (size 9 to 14) (size 15 to 20)
#    0.000    1.000    5.000    5.625    0.000    0.500 
#    4.500    1.875    0.000    0.000    0.000    0.000 
#    0.000    0.000    0.000    0.000    0.000    0.000 
#
# Total GULP energy -198309.178858 kJ/mol
# GULP energy per Si atom -12394.323679 kJ/mol
# Density = 2.119766 g / cm^3
# Si number density = 21.246021 Si / 1000 Ang^3
#
#
#
# Elastic Constant Matrix: (Units=GPa)
#
#
# Indices 1 2 3 4 5 6 
#
# 1 59.5582 30.8773 23.7887 0.2725 11.5567 -14.6671
# 2 30.8773 125.6903 64.4840 5.2203 8.5794 -5.9192
# 3 23.7887 64.4840 123.8793 20.4014 9.7484 -3.8110
# 4 0.2725 5.2203 20.4014 30.0763 4.9669 1.7734
# 5 11.5567 8.5794 9.7484 4.9669 37.6911 8.1853
# 6 -14.6671 -5.9192 -3.8110 1.7734 8.1853 15.1624
#
#
#
# Elastic Compliance Matrix: (Units=1/GPa)
#
#
# Indices 1 2 3 4 5 6 
#
# 1 0.032417 -0.004088 -0.001955 0.002313 -0.017113 0.038239
# 2 -0.004088 0.011742 -0.005675 0.001905 0.000021 -0.001031
# 3 -0.001955 -0.005675 0.012684 -0.007541 -0.000439 0.000201
# 4 0.002313 0.001905 -0.007541 0.038751 -0.004023 -0.001274
# 5 -0.017113 0.000021 -0.000439 -0.004023 0.040704 -0.038159
# 6 0.038239 -0.001031 0.000201 -0.001274 -0.038159 0.123339
#
#
# Mechanical properties :
#
#
# Convention : Reuss Voigt Hill
#
# Bulk Modulus (GPa) = 29.93222 60.82532 45.37877
# Shear Modulus (GPa) = 16.99462 29.25116 23.12289
#
# Velocity S-wave (km/s) = 2.83131 3.71453 3.30258
# Velocity P-wave (km/s) = 4.98070 6.86208 5.99565
#
# Compressibility (1/GPa) = 0.03340881
#
# Stress axis : x y z
#
# Youngs Moduli (GPa) = 30.84767 85.16106 78.83778
#
# Poissons Ratio (x) = 0.34812 0.15415
# Poissons Ratio (y) = 0.12610 0.44737
# Poissons Ratio (z) = 0.06032 0.48325
#
# Static dielectric constant tensor:
#      x y z
#    x 3.762660 -0.025660 0.057160 
#    y -0.025660 3.690010 0.494080 
#    z 0.057160 0.494080 4.287180 
# 
# 
# High freq. dielectric constant tensor:
#      x y z
#    x 1.831240 -0.003700 0.005540 
#    y -0.003700 1.801600 0.030280 
#    z 0.005540 0.030280 1.840040 
# 
# From -- ./inp_files/514804.got.cif
#   From: 2010.06.25/outbox.cif.g09.slc.cpg/sg2_258_cif.got.tgz:514804.got - 2010.06.27 13:26:56.
