data_PCOD8038980
_publ_section_title
;
Structure prediction by ZEFSAII (Michael W. Deem and Ramdas Pophale) SiO2 
 PCOD8038980
Probable space group: P -1
;
_chemical_formula_sum "Si O2"
_cell_formula_units_Z 16
_cell_length_a 11.802674
_cell_length_b 11.500435
_cell_length_c 16.843219
_cell_angle_alpha 146.090803
_cell_angle_beta 136.300263
_cell_angle_gamma 56.258170
_cell_volume 875.265084
_symmetry_space_group_name_H-M "P -1"
_symmetry_group_IT_number 2
_symmetry_cell_setting 'triclinic'
loop_
_space_group_symop_operation_xyz
x,y,z
-x,-y,-z
loop_
_atom_site_type_symbol
_atom_site_label
_atom_site_fract_x
_atom_site_fract_y
_atom_site_fract_z
Si Si1 0.720115 0.980135 0.851527
Si Si2 0.004988 0.306200 0.148141
Si Si3 0.458192 0.639168 0.481469
Si Si4 0.079331 0.566164 0.493712
Si Si5 0.532222 0.919019 0.089885
Si Si6 0.088887 0.971999 0.640684
Si Si7 0.904809 0.281716 0.650603
Si Si8 0.546274 0.336962 0.237968
O O1 0.600042 0.086035 0.910135
O O2 0.850501 0.840308 0.878493
O O3 0.604041 0.828113 0.648395
O O4 0.827157 0.171452 0.969240
O O5 0.014310 0.411878 0.301048
O O6 0.022242 0.474870 0.181229
O O7 0.500000 0.500000 0.500000
O O8 0.292450 0.744502 0.470274
O O9 0.430282 0.498060 0.308358
O O10 0.272360 0.551645 0.589713
O O11 0.000000 0.500000 0.500000
O O12 0.056585 0.813528 0.609177
O O13 0.721332 0.930964 0.219703
O O14 0.504408 0.118770 0.137264
O O15 0.489595 0.703467 0.896036
O O16 0.975900 0.166190 0.697925
O O17 0.027708 0.829203 0.454396
#
# Coordination Sequence:
#
# PCOD8038980 Si02
#       8
#     2   2   2   2   2   2   2   2
#     4  11  19  31  53  79 109 133 176 228 263 307
#     4  10  20  31  51  84 110 133 176 228 270 309
#     4  12  17  33  56  79 102 140 185 221 262 313
#     4  10  18  33  52  77 110 141 174 217 272 316
#     4  10  18  32  49  77 108 132 178 219 266 313
#     4   9  19  33  55  79 104 144 181 218 260 326
#     4  10  18  34  57  78 107 139 182 221 265 314
#     4  10  19  29  51  78 101 138 174 223 262 313
#
# _framework density 18.280176999999998
#
# number of rings (size 3 to 8) (size 9 to 14) (size 15 to 20)
#    0.000    1.750    5.000    1.500    0.000    0.000 
#    0.000    1.250    2.750    0.750    0.000    0.000 
#    0.000    0.000    0.000    0.000    0.000    0.000 
#
# Total GULP energy -198242.577363 kJ/mol
# GULP energy per Si atom -12390.161085 kJ/mol
# Density = 1.823857 g / cm^3
# Si number density = 18.280177 Si / 1000 Ang^3
#
#
#
# Elastic Constant Matrix: (Units=GPa)
#
#
# Indices 1 2 3 4 5 6 
#
# 1 68.6432 33.9697 32.4158 4.4252 9.7419 -5.4898
# 2 33.9697 101.4184 23.6224 5.8091 17.2138 -9.9331
# 3 32.4158 23.6224 105.9735 10.1655 12.0363 -3.9572
# 4 4.4252 5.8091 10.1655 15.2566 0.2962 2.4110
# 5 9.7419 17.2138 12.0363 0.2962 41.8971 1.0082
# 6 -5.4898 -9.9331 -3.9572 2.4110 1.0082 18.5262
#
#
#
# Elastic Compliance Matrix: (Units=1/GPa)
#
#
# Indices 1 2 3 4 5 6 
#
# 1 0.019635 -0.005009 -0.004553 -0.001105 -0.001249 0.002372
# 2 -0.005009 0.013198 -0.000272 -0.004308 -0.004302 0.006329
# 3 -0.004553 -0.000272 0.011869 -0.006764 -0.002241 0.002043
# 4 -0.001105 -0.004308 -0.006764 0.074142 0.003781 -0.013937
# 5 -0.001249 -0.004302 -0.002241 0.003781 0.026665 -0.005098
# 6 0.002372 0.006329 0.002043 -0.013937 -0.005098 0.060601
#
#
# Mechanical properties :
#
#
# Convention : Reuss Voigt Hill
#
# Bulk Modulus (GPa) = 39.94388 50.67231 45.30810
# Shear Modulus (GPa) = 21.35633 27.53781 24.44707
#
# Velocity S-wave (km/s) = 3.42172 3.88549 3.66095
# Velocity P-wave (km/s) = 6.12448 6.92166 6.53523
#
# Compressibility (1/GPa) = 0.02503512
#
# Stress axis : x y z
#
# Youngs Moduli (GPa) = 50.92929 75.77060 84.25143
#
# Poissons Ratio (x) = 0.37950 0.38362
# Poissons Ratio (y) = 0.25508 0.02289
# Poissons Ratio (z) = 0.23189 0.02059
#
# Static dielectric constant tensor:
#      x y z
#    x 3.527230 -0.187480 0.008570 
#    y -0.187480 3.395620 0.181870 
#    z 0.008570 0.181870 3.591610 
# 
# 
# High freq. dielectric constant tensor:
#      x y z
#    x 1.693550 -0.023190 0.010710 
#    y -0.023190 1.674990 0.012410 
#    z 0.010710 0.012410 1.715510 
# 
# From -- ./inp_files/266669.got.cif
#   From: 2010.06.25/outbox.cif.g09.slc.cpg/sg2_134_cif.got.tgz:266669.got - 2010.06.27 13:26:56.
