data_PCOD8038187
_publ_section_title
;
Structure prediction by ZEFSAII (Michael W. Deem and Ramdas Pophale) SiO2 
 PCOD8038187
Probable space group: P -1
;
_chemical_formula_sum "Si O2"
_cell_formula_units_Z 14
_cell_length_a 17.990213
_cell_length_b 13.751474
_cell_length_c 11.173687
_cell_angle_alpha 30.609375
_cell_angle_beta 144.622925
_cell_angle_gamma 147.824629
_cell_volume 710.006625
_symmetry_space_group_name_H-M "P -1"
_symmetry_group_IT_number 2
_symmetry_cell_setting 'triclinic'
loop_
_space_group_symop_operation_xyz
x,y,z
-x,-y,-z
loop_
_atom_site_type_symbol
_atom_site_label
_atom_site_fract_x
_atom_site_fract_y
_atom_site_fract_z
Si Si1 0.316359 0.725989 0.266121
Si Si2 0.398924 0.536412 0.000809
Si Si3 0.593867 0.779031 0.476808
Si Si4 0.395946 0.970522 0.561463
Si Si5 0.693980 0.781155 0.990574
Si Si6 0.119460 0.226624 0.563438
Si Si7 0.198608 0.010537 0.687570
O O1 0.420175 0.710410 0.314232
O O2 0.196858 0.487526 0.407611
O O3 0.425234 0.868502 0.367927
O O4 0.228495 0.844285 0.979304
O O5 0.388218 0.422445 0.235059
O O6 0.293064 0.361183 0.949663
O O7 0.350363 0.717741 0.764057
O O8 0.565318 0.629928 0.074354
O O9 0.673314 0.983848 0.458066
O O10 0.661840 0.841335 0.369126
O O11 0.335020 0.028574 0.300785
O O12 0.843353 0.880447 0.159641
O O13 0.944341 0.127556 0.435960
O O14 0.175109 0.173036 0.570507
#
# Coordination Sequence:
#
# PCOD8038187 Si02
#       7
#     2   2   2   2   2   2   2
#     4  10  20  37  59  85 109 141 192 231 272 326
#     4  10  17  34  58  86 115 137 182 236 285 321
#     4   9  21  36  57  88 111 142 188 234 275 327
#     4   9  20  33  60  87 109 141 182 239 283 319
#     4  10  18  34  54  86 112 141 188 227 276 332
#     4  11  23  39  57  81 115 154 186 224 276 335
#     4  11  24  39  56  80 117 155 185 224 278 332
#
# _framework density 19.718126999999999
#
# number of rings (size 3 to 8) (size 9 to 14) (size 15 to 20)
#    0.857    1.143    1.429    3.000    0.000    2.857 
#    0.000    2.857    0.000    1.714    0.000    0.000 
#    0.000    0.000    0.000    0.000    0.000    0.000 
#
# Total GULP energy -173542.375073 kJ/mol
# GULP energy per Si atom -12395.883934 kJ/mol
# Density = 1.967325 g / cm^3
# Si number density = 19.718127 Si / 1000 Ang^3
#
#
#
# Elastic Constant Matrix: (Units=GPa)
#
#
# Indices 1 2 3 4 5 6 
#
# 1 27.9085 3.6995 10.0750 -5.2829 3.8091 -6.1402
# 2 3.6995 36.9110 35.9197 -11.2852 9.7440 -4.2221
# 3 10.0750 35.9197 139.5643 -9.4706 -0.5982 -9.0196
# 4 -5.2829 -11.2852 -9.4706 35.1421 -5.6903 9.0415
# 5 3.8091 9.7440 -0.5982 -5.6903 18.5090 0.2057
# 6 -6.1402 -4.2221 -9.0196 9.0415 0.2057 16.1217
#
#
#
# Elastic Compliance Matrix: (Units=1/GPa)
#
#
# Indices 1 2 3 4 5 6 
#
# 1 0.041203 0.003335 -0.002865 0.001131 -0.010141 0.014458
# 2 0.003335 0.047147 -0.011750 0.007927 -0.023481 0.002897
# 3 -0.002865 -0.011750 0.010505 -0.000796 0.006847 0.002068
# 4 0.001131 0.007927 -0.000796 0.036934 0.007131 -0.018743
# 5 -0.010141 -0.023481 0.006847 0.007131 0.071013 -0.011086
# 6 0.014458 0.002897 0.002068 -0.018743 -0.011086 0.080104
#
#
# Mechanical properties :
#
#
# Convention : Reuss Voigt Hill
#
# Bulk Modulus (GPa) = 13.10722 33.75246 23.42984
# Shear Modulus (GPa) = 14.92996 24.26721 19.59858
#
# Velocity S-wave (km/s) = 2.75466 3.51195 3.15610
# Velocity P-wave (km/s) = 4.09625 5.79652 5.01891
#
# Compressibility (1/GPa) = 0.07629381
#
# Stress axis : x y z
#
# Youngs Moduli (GPa) = 24.27025 21.21044 95.19146
#
# Poissons Ratio (x) = -0.07074 0.27273
# Poissons Ratio (y) = -0.08094 1.11854
# Poissons Ratio (z) = 0.06954 0.24923
#
# Static dielectric constant tensor:
#      x y z
#    x 3.271160 -0.212040 -0.010900 
#    y -0.212040 3.376530 0.042110 
#    z -0.010900 0.042110 3.637180 
# 
# 
# High freq. dielectric constant tensor:
#      x y z
#    x 1.743030 -0.024850 -0.004650 
#    y -0.024850 1.739890 -0.007240 
#    z -0.004650 -0.007240 1.783400 
# 
# From -- ./inp_files/428906.got.cif
#   From: 2010.06.25/outbox.cif.g09.slc.cpg/sg2_215_cif.got.tgz:428906.got - 2010.06.27 13:26:56.
