data_PCOD8038837
_publ_section_title
;
Structure prediction by ZEFSAII (Michael W. Deem and Ramdas Pophale) SiO2 
 PCOD8038837
Probable space group: P -1
;
_chemical_formula_sum "Si O2"
_cell_formula_units_Z 14
_cell_length_a 12.617680
_cell_length_b 14.997256
_cell_length_c 4.981976
_cell_angle_alpha 120.657894
_cell_angle_beta 101.006960
_cell_angle_gamma 65.701376
_cell_volume 738.916306
_symmetry_space_group_name_H-M "P -1"
_symmetry_group_IT_number 2
_symmetry_cell_setting 'triclinic'
loop_
_space_group_symop_operation_xyz
x,y,z
-x,-y,-z
loop_
_atom_site_type_symbol
_atom_site_label
_atom_site_fract_x
_atom_site_fract_y
_atom_site_fract_z
Si Si1 0.569166 0.596206 0.952885
Si Si2 0.128645 0.588863 0.673648
Si Si3 0.752215 0.367341 0.684494
Si Si4 0.698249 0.756070 0.257481
Si Si5 0.435508 0.130688 0.147556
Si Si6 0.079115 0.405311 0.099130
Si Si7 0.437422 0.705785 0.546796
O O1 0.363105 0.529365 0.310698
O O2 0.668259 0.647031 0.109155
O O3 0.506743 0.604611 0.222585
O O4 0.471977 0.667145 0.806298
O O5 0.143867 0.656021 0.518757
O O6 0.154225 0.460148 0.400458
O O7 0.998144 0.637829 0.804246
O O8 0.215203 0.599762 0.958763
O O9 0.702574 0.266649 0.515285
O O10 0.670934 0.826437 0.626626
O O11 0.621149 0.839415 0.123882
O O12 0.836197 0.705774 0.180812
O O13 0.531399 0.186045 0.339149
O O14 0.500000 0.000000 0.000000
O O15 0.000000 0.500000 0.000000
#
# Coordination Sequence:
#
# PCOD8038837 Si02
#       7
#     2   2   2   2   2   2   2
#     4  10  18  31  47  75 106 141 177 212 257 334
#     4  11  23  31  52  73 115 144 182 213 251 319
#     4  12  20  33  47  76 110 150 175 212 267 322
#     4  10  21  33  60  78 110 144 176 222 284 314
#     4  10  22  39  57  83 107 138 189 234 268 320
#     4  11  22  37  53  82 115 149 183 221 266 325
#     4  10  21  32  51  74 105 143 179 220 270 322
#
# _framework density 18.946666
#
# number of rings (size 3 to 8) (size 9 to 14) (size 15 to 20)
#    0.000    1.429    2.857    3.000    8.000    0.000 
#    0.000    0.000    0.000    0.000    0.000    6.000 
#    0.000    0.000    0.000    0.000    0.000    0.000 
#
# Total GULP energy -173530.945538 kJ/mol
# GULP energy per Si atom -12395.067538 kJ/mol
# Density = 1.890354 g / cm^3
# Si number density = 18.946666 Si / 1000 Ang^3
#
#
#
# Elastic Constant Matrix: (Units=GPa)
#
#
# Indices 1 2 3 4 5 6 
#
# 1 93.0879 15.6714 31.7561 2.7866 -6.7383 5.8226
# 2 15.6714 47.0470 18.5867 -0.7407 -0.2948 1.7022
# 3 31.7561 18.5867 73.7436 -8.9100 -5.8286 5.9702
# 4 2.7866 -0.7407 -8.9100 32.8526 -0.2731 -2.2486
# 5 -6.7383 -0.2948 -5.8286 -0.2731 34.7286 -7.7274
# 6 5.8226 1.7022 5.9702 -2.2486 -7.7274 16.4546
#
#
#
# Elastic Compliance Matrix: (Units=1/GPa)
#
#
# Indices 1 2 3 4 5 6 
#
# 1 0.013201 -0.002312 -0.005147 -0.002724 0.001120 -0.002411
# 2 -0.002312 0.024086 -0.005222 -0.000718 -0.001227 -0.000453
# 3 -0.005147 -0.005222 0.018041 0.005029 0.001392 -0.002843
# 4 -0.002724 -0.000718 0.005029 0.032328 0.001532 0.004350
# 5 0.001120 -0.001227 0.001392 0.001532 0.032520 0.014707
# 6 -0.002411 -0.000453 -0.002843 0.004350 0.014707 0.070206
#
#
# Mechanical properties :
#
#
# Convention : Reuss Voigt Hill
#
# Bulk Modulus (GPa) = 33.37264 38.43409 35.90337
# Shear Modulus (GPa) = 22.14996 26.66478 24.40737
#
# Velocity S-wave (km/s) = 3.42287 3.75555 3.59306
# Velocity P-wave (km/s) = 5.76833 6.25580 6.01700
#
# Compressibility (1/GPa) = 0.02996466
#
# Stress axis : x y z
#
# Youngs Moduli (GPa) = 75.75070 41.51777 55.42908
#
# Poissons Ratio (x) = 0.09601 0.28531
# Poissons Ratio (y) = 0.17517 0.28945
# Poissons Ratio (z) = 0.38992 0.21681
#
# Static dielectric constant tensor:
#      x y z
#    x 3.782150 0.184050 -0.124220 
#    y 0.184050 3.053380 -0.337000 
#    z -0.124220 -0.337000 3.645000 
# 
# 
# High freq. dielectric constant tensor:
#      x y z
#    x 1.746040 0.009520 -0.008710 
#    y 0.009520 1.684260 -0.044850 
#    z -0.008710 -0.044850 1.735600 
# 
# From -- ./inp_files/78588.got.cif
#   From: 2010.06.25/outbox.cif.g09.slc.cpg/sg2_40_cif.got.tgz:78588.got - 2010.06.27 13:26:56.
