data_PCOD8038431
_publ_section_title
;
Structure prediction by ZEFSAII (Michael W. Deem and Ramdas Pophale) SiO2 
 PCOD8038431
Probable space group: P -1
;
_chemical_formula_sum "Si O2"
_cell_formula_units_Z 14
_cell_length_a 15.687213
_cell_length_b 11.611666
_cell_length_c 8.916099
_cell_angle_alpha 41.962472
_cell_angle_beta 33.077521
_cell_angle_gamma 39.746541
_cell_volume 543.318323
_symmetry_space_group_name_H-M "P -1"
_symmetry_group_IT_number 2
_symmetry_cell_setting 'triclinic'
loop_
_space_group_symop_operation_xyz
x,y,z
-x,-y,-z
loop_
_atom_site_type_symbol
_atom_site_label
_atom_site_fract_x
_atom_site_fract_y
_atom_site_fract_z
Si Si1 0.967500 0.814169 0.756884
Si Si2 0.270434 0.132912 0.689423
Si Si3 0.462019 0.287285 0.831105
Si Si4 0.335818 0.590171 0.373233
Si Si5 0.190425 0.473706 0.269955
Si Si6 0.605715 0.895840 0.151530
Si Si7 0.643848 0.267666 0.102036
O O1 0.136200 0.627225 0.646451
O O2 0.000000 0.000000 0.500000
O O3 0.915315 0.803509 0.017872
O O4 0.806706 0.828662 0.877172
O O5 0.282128 0.297220 0.414221
O O6 0.416545 0.088115 0.649098
O O7 0.296249 0.949546 0.726088
O O8 0.605609 0.363254 0.594620
O O9 0.452217 0.261415 0.690022
O O10 0.281088 0.435802 0.012119
O O11 0.493655 0.092414 0.053734
O O12 0.359297 0.731140 0.077220
O O13 0.453665 0.383054 0.338608
O O14 0.216722 0.651496 0.130587
O O15 0.000000 0.500000 0.500000
#
# Coordination Sequence:
#
# PCOD8038431 Si02
#       7
#     2   2   2   2   2   2   2
#     4  10  17  35  67 101 129 182 226 270 339 407
#     4  10  22  44  72 100 129 188 235 268 352 415
#     4  10  19  39  64  97 143 172 221 284 342 394
#     4  10  18  37  65 100 138 182 218 283 340 406
#     4  11  27  43  67 100 140 178 231 293 338 405
#     4   9  20  36  67 102 128 179 228 272 339 415
#     4  10  21  40  68  97 138 180 226 281 344 405
#
# _framework density 25.767583999999999
#
# number of rings (size 3 to 8) (size 9 to 14) (size 15 to 20)
#    0.857    1.143    4.286    0.000    2.000    1.143 
#    0.000    2.857    3.143    4.286    0.000    0.000 
#    0.000    0.000    0.000    0.000    0.000    0.000 
#
# Total GULP energy -173513.680339 kJ/mol
# GULP energy per Si atom -12393.834310 kJ/mol
# Density = 2.570894 g / cm^3
# Si number density = 25.767584 Si / 1000 Ang^3
#
#
#
# Elastic Constant Matrix: (Units=GPa)
#
#
# Indices 1 2 3 4 5 6 
#
# 1 124.4888 42.3460 19.5075 3.6915 -17.5711 19.9290
# 2 42.3460 107.5669 38.1728 6.3272 -23.1142 23.1635
# 3 19.5075 38.1728 75.8288 6.4265 -18.5565 3.2964
# 4 3.6915 6.3272 6.4265 49.5213 0.0492 -11.9909
# 5 -17.5711 -23.1142 -18.5565 0.0492 42.4862 3.2196
# 6 19.9290 23.1635 3.2964 -11.9909 3.2196 38.2759
#
#
#
# Elastic Compliance Matrix: (Units=1/GPa)
#
#
# Indices 1 2 3 4 5 6 
#
# 1 0.010044 -0.001976 -0.000453 -0.001595 0.003245 -0.004768
# 2 -0.001976 0.015418 -0.005060 -0.003463 0.006082 -0.009463
# 3 -0.000453 -0.005060 0.016990 -0.001271 0.004401 0.001067
# 4 -0.001595 -0.003463 -0.001271 0.023523 -0.003940 0.010737
# 5 0.003245 0.006082 0.004401 -0.003940 0.030840 -0.009578
# 6 -0.004768 -0.009463 0.001067 0.010737 -0.009578 0.038413
#
#
# Mechanical properties :
#
#
# Convention : Reuss Voigt Hill
#
# Bulk Modulus (GPa) = 36.39688 56.43744 46.41716
# Shear Modulus (GPa) = 31.37453 39.91389 35.64421
#
# Velocity S-wave (km/s) = 3.49319 3.94000 3.72330
# Velocity P-wave (km/s) = 5.51594 6.53056 6.04457
#
# Compressibility (1/GPa) = 0.02747488
#
# Stress axis : x y z
#
# Youngs Moduli (GPa) = 99.55793 64.85717 58.85899
#
# Poissons Ratio (x) = 0.12814 0.02666
# Poissons Ratio (y) = 0.19670 0.29784
# Poissons Ratio (z) = 0.04509 0.32819
#
# Static dielectric constant tensor:
#      x y z
#    x 4.649370 0.157530 0.032450 
#    y 0.157530 4.830700 0.138920 
#    z 0.032450 0.138920 4.611520 
# 
# 
# High freq. dielectric constant tensor:
#      x y z
#    x 2.013080 0.014280 -0.001430 
#    y 0.014280 2.035080 -0.003170 
#    z -0.001430 -0.003170 2.047140 
# 
# From -- ./inp_files/306412.got.cif
#   From: 2010.06.25/outbox.cif.g09.slc.cpg/sg2_154_cif.got.tgz:306412.got - 2010.06.27 13:26:56.
