data_PCOD8038732
_publ_section_title
;
Structure prediction by ZEFSAII (Michael W. Deem and Ramdas Pophale) SiO2 
 PCOD8038732
Probable space group: P -1
;
_chemical_formula_sum "Si O2"
_cell_formula_units_Z 16
_cell_length_a 20.021823
_cell_length_b 9.358625
_cell_length_c 23.040911
_cell_angle_alpha 111.134184
_cell_angle_beta 10.571501
_cell_angle_gamma 111.629936
_cell_volume 736.252635
_symmetry_space_group_name_H-M "P -1"
_symmetry_group_IT_number 2
_symmetry_cell_setting 'triclinic'
loop_
_space_group_symop_operation_xyz
x,y,z
-x,-y,-z
loop_
_atom_site_type_symbol
_atom_site_label
_atom_site_fract_x
_atom_site_fract_y
_atom_site_fract_z
Si Si1 0.449936 0.716685 0.236419
Si Si2 0.279992 0.452408 0.124015
Si Si3 0.664496 0.867640 0.476064
Si Si4 0.148193 0.492862 0.058982
Si Si5 0.125540 0.343845 0.578291
Si Si6 0.250999 0.720651 0.705738
Si Si7 0.359624 0.118365 0.708400
Si Si8 0.468404 0.919320 0.778758
O O1 0.061363 0.668615 0.589724
O O2 0.480325 0.899328 0.229194
O O3 0.458119 0.633305 0.154965
O O4 0.775948 0.658008 0.988861
O O5 0.150015 0.609765 0.229868
O O6 0.500000 0.500000 0.000000
O O7 0.461899 0.732582 0.588893
O O8 0.455913 0.868186 0.714927
O O9 0.663074 0.039121 0.474600
O O10 0.088989 0.843553 0.118422
O O11 0.042209 0.628815 0.211248
O O12 0.796048 0.444282 0.310893
O O13 0.498633 0.549754 0.730952
O O14 0.206827 0.163867 0.478328
O O15 0.476768 0.845002 0.489791
O O16 0.811854 0.739200 0.092777
O O17 0.000000 0.000000 0.000000
#
# Coordination Sequence:
#
# PCOD8038732 Si02
#       8
#     2   2   2   2   2   2   2   2
#     4  10  21  37  63  91 116 150 190 230 283 346
#     4  10  21  42  68  93 116 145 186 231 279 348
#     4  11  21  33  52  79 115 159 199 246 293 329
#     4  10  20  38  58  80 112 156 203 244 285 341
#     4  10  23  40  59  83 119 157 186 231 299 350
#     4  11  20  33  53  80 110 154 209 255 288 328
#     4  10  18  30  48  76 108 138 187 254 305 330
#     4  12  23  39  56  84 122 157 192 237 290 350
#
# _framework density 21.731670999999999
#
# number of rings (size 3 to 8) (size 9 to 14) (size 15 to 20)
#    0.000    1.500    0.000    7.875    0.000    2.000 
#    0.000    5.000    0.000    0.000    0.000    0.000 
#    0.000    0.000    0.000    0.000    0.000    0.000 
#
# Total GULP energy -198293.213409 kJ/mol
# GULP energy per Si atom -12393.325838 kJ/mol
# Density = 2.168221 g / cm^3
# Si number density = 21.731671 Si / 1000 Ang^3
#
#
#
# Elastic Constant Matrix: (Units=GPa)
#
#
# Indices 1 2 3 4 5 6 
#
# 1 92.4444 30.7940 21.2339 6.8307 6.0219 6.2568
# 2 30.7940 81.2148 20.4235 21.8387 -12.9451 -7.4718
# 3 21.2339 20.4235 68.9961 13.7066 6.5333 -1.8074
# 4 6.8307 21.8387 13.7066 30.5001 -6.2598 -3.3662
# 5 6.0219 -12.9451 6.5333 -6.2598 29.7979 -2.6549
# 6 6.2568 -7.4718 -1.8074 -3.3662 -2.6549 20.6466
#
#
#
# Elastic Compliance Matrix: (Units=1/GPa)
#
#
# Indices 1 2 3 4 5 6 
#
# 1 0.014421 -0.006698 -0.002193 0.000489 -0.005924 -0.007668
# 2 -0.006698 0.020318 -0.002907 -0.008746 0.009779 0.008960
# 3 -0.002193 -0.002907 0.017968 -0.006870 -0.006269 -0.000741
# 4 0.000489 -0.008746 -0.006870 0.043970 0.007217 0.004182
# 5 -0.005924 0.009779 -0.006269 0.007217 0.042918 0.011481
# 6 -0.007668 0.008960 -0.000741 0.004182 0.011481 0.056093
#
#
# Mechanical properties :
#
#
# Convention : Reuss Voigt Hill
#
# Bulk Modulus (GPa) = 34.34953 43.06199 38.70576
# Shear Modulus (GPa) = 21.83528 27.53586 24.68557
#
# Velocity S-wave (km/s) = 3.17325 3.56347 3.37401
# Velocity P-wave (km/s) = 5.40985 6.06543 5.74700
#
# Compressibility (1/GPa) = 0.02911248
#
# Stress axis : x y z
#
# Youngs Moduli (GPa) = 69.34496 49.21640 55.65476
#
# Poissons Ratio (x) = 0.32964 0.12203
# Poissons Ratio (y) = 0.46445 0.16179
# Poissons Ratio (z) = 0.15205 0.14307
#
# Static dielectric constant tensor:
#      x y z
#    x 3.857640 -0.014490 0.364710 
#    y -0.014490 4.199240 0.800790 
#    z 0.364710 0.800790 4.664240 
# 
# 
# High freq. dielectric constant tensor:
#      x y z
#    x 1.839360 -0.008250 0.029510 
#    y -0.008250 1.840000 0.012530 
#    z 0.029510 0.012530 1.861870 
# 
# From -- ./inp_files/571712.got.cif
#   From: 2010.06.25/outbox.cif.g09.slc.cpg/sg2_286_cif.got.tgz:571712.got - 2010.06.27 13:26:56.
