data_PCOD8038862
_publ_section_title
;
Structure prediction by ZEFSAII (Michael W. Deem and Ramdas Pophale) SiO2 
 PCOD8038862
Probable space group: P -1
;
_chemical_formula_sum "Si O2"
_cell_formula_units_Z 16
_cell_length_a 14.482649
_cell_length_b 18.315192
_cell_length_c 11.162657
_cell_angle_alpha 31.190463
_cell_angle_beta 138.572134
_cell_angle_gamma 150.983155
_cell_volume 743.791865
_symmetry_space_group_name_H-M "P -1"
_symmetry_group_IT_number 2
_symmetry_cell_setting 'triclinic'
loop_
_space_group_symop_operation_xyz
x,y,z
-x,-y,-z
loop_
_atom_site_type_symbol
_atom_site_label
_atom_site_fract_x
_atom_site_fract_y
_atom_site_fract_z
Si Si1 0.411583 0.904707 0.915570
Si Si2 0.911322 0.350389 0.886638
Si Si3 0.753027 0.964577 0.156033
Si Si4 0.304067 0.535509 0.945705
Si Si5 0.883712 0.802908 0.951326
Si Si6 0.738894 0.506394 0.409820
Si Si7 0.433964 0.197310 0.374000
Si Si8 0.528834 0.563006 0.574960
O O1 0.400863 0.024096 0.644603
O O2 0.194926 0.701177 0.015590
O O3 0.500000 0.000000 0.000000
O O4 0.549156 0.881130 0.023369
O O5 0.837812 0.420958 0.625132
O O6 0.855184 0.155732 0.062725
O O7 0.140592 0.516870 0.879266
O O8 0.894809 0.012824 0.120466
O O9 0.703108 0.795421 0.428070
O O10 0.206445 0.356807 0.013994
O O11 0.425313 0.542572 0.155152
O O12 0.444754 0.733297 0.728590
O O13 0.769217 0.870531 0.754681
O O14 0.881539 0.719668 0.193249
O O15 0.549419 0.375927 0.326996
O O16 0.668972 0.503855 0.477077
O O17 0.500000 0.500000 0.500000
#
# Coordination Sequence:
#
# PCOD8038862 Si02
#       8
#     2   2   2   2   2   2   2   2
#     4  10  18  31  50  84 119 148 168 223 290 341
#     4  10  20  33  60  88 119 142 180 243 289 343
#     4  10  21  35  54  88 112 147 186 229 294 333
#     4  10  22  34  55  90 111 149 188 233 288 333
#     4  10  21  31  60  91 118 139 179 250 289 337
#     4  11  18  38  57  88 116 150 182 227 301 336
#     4  11  18  33  57  88 125 138 179 237 293 340
#     4  12  24  41  58  75 116 162 196 229 270 341
#
# _framework density 21.511393000000002
#
# number of rings (size 3 to 8) (size 9 to 14) (size 15 to 20)
#    0.000    1.500    6.250    1.500    3.500    2.500 
#    0.000    1.250    0.000    0.750    0.000    0.000 
#    0.000    0.000    0.000    0.000    0.000    0.000 
#
# Total GULP energy -198291.908805 kJ/mol
# GULP energy per Si atom -12393.244300 kJ/mol
# Density = 2.146243 g / cm^3
# Si number density = 21.511393 Si / 1000 Ang^3
#
#
#
# Elastic Constant Matrix: (Units=GPa)
#
#
# Indices 1 2 3 4 5 6 
#
# 1 105.4780 50.2180 46.8087 2.9351 -16.0017 50.0901
# 2 50.2180 40.8165 36.3077 2.2456 -2.4654 39.1921
# 3 46.8087 36.3077 165.4555 -2.2609 -21.2386 29.0004
# 4 2.9351 2.2456 -2.2609 15.9521 11.2228 -6.3795
# 5 -16.0017 -2.4654 -21.2386 11.2228 33.6360 -2.5593
# 6 50.0901 39.1921 29.0004 -6.3795 -2.5593 55.2821
#
#
#
# Elastic Compliance Matrix: (Units=1/GPa)
#
#
# Indices 1 2 3 4 5 6 
#
# 1 0.028892 -0.022636 0.001003 -0.019760 0.018392 -0.012085
# 2 -0.022636 0.143371 -0.010973 -0.053157 0.004361 -0.081309
# 3 0.001003 -0.010973 0.008351 0.000013 0.005149 0.002730
# 4 -0.019760 -0.053157 0.000013 0.139988 -0.054731 0.069204
# 5 0.018392 0.004361 0.005149 -0.054731 0.058328 -0.026073
# 6 -0.012085 -0.081309 0.002730 0.069204 -0.026073 0.092030
#
#
# Mechanical properties :
#
#
# Convention : Reuss Voigt Hill
#
# Bulk Modulus (GPa) = 8.66540 64.26876 36.46708
# Shear Modulus (GPa) = 8.70110 32.86841 20.78475
#
# Velocity S-wave (km/s) = 2.01337 3.91315 3.11178
# Velocity P-wave (km/s) = 3.07277 7.09637 5.46810
#
# Compressibility (1/GPa) = 0.11540150
#
# Stress axis : x y z
#
# Youngs Moduli (GPa) = 34.61157 6.97490 119.74938
#
# Poissons Ratio (x) = 0.15789 -0.12007
# Poissons Ratio (y) = 0.78348 1.31396
# Poissons Ratio (z) = -0.03470 0.07653
#
# Static dielectric constant tensor:
#      x y z
#    x 4.316370 0.946090 -0.149740 
#    y 0.946090 3.672060 -0.131800 
#    z -0.149740 -0.131800 3.991710 
# 
# 
# High freq. dielectric constant tensor:
#      x y z
#    x 1.836710 0.058090 -0.006170 
#    y 0.058090 1.789890 -0.005130 
#    z -0.006170 -0.005130 1.858360 
# 
# From -- ./inp_files/446217.got.cif
#   From: 2010.06.25/outbox.cif.g09.slc.cpg/sg2_224_cif.got.tgz:446217.got - 2010.06.27 13:26:56.
