data_PCOD8038561
_publ_section_title
;
Structure prediction by ZEFSAII (Michael W. Deem and Ramdas Pophale) SiO2 
 PCOD8038561
Probable space group: P -1
;
_chemical_formula_sum "Si O2"
_cell_formula_units_Z 16
_cell_length_a 24.205530
_cell_length_b 9.646743
_cell_length_c 9.306544
_cell_angle_alpha 119.338927
_cell_angle_beta 150.950237
_cell_angle_gamma 49.479902
_cell_volume 784.023943
_symmetry_space_group_name_H-M "P -1"
_symmetry_group_IT_number 2
_symmetry_cell_setting 'triclinic'
loop_
_space_group_symop_operation_xyz
x,y,z
-x,-y,-z
loop_
_atom_site_type_symbol
_atom_site_label
_atom_site_fract_x
_atom_site_fract_y
_atom_site_fract_z
Si Si1 0.026365 0.318993 0.878078
Si Si2 0.062687 0.797171 0.971839
Si Si3 0.505572 0.670773 0.657423
Si Si4 0.384862 0.177068 0.253160
Si Si5 0.745483 0.582283 0.343963
Si Si6 0.794626 0.846989 0.389261
Si Si7 0.777140 0.069641 0.721036
Si Si8 0.787348 0.592290 0.765432
O O1 0.876493 0.369308 0.520307
O O2 0.116499 0.322026 0.953861
O O3 0.000000 0.500000 0.000000
O O4 0.106241 0.124352 0.044319
O O5 0.943829 0.772119 0.628661
O O6 0.166629 0.788720 0.083906
O O7 0.138019 0.632814 0.176683
O O8 0.000000 0.000000 0.000000
O O9 0.500000 0.500000 0.500000
O O10 0.553809 0.747178 0.680518
O O11 0.359559 0.837519 0.455514
O O12 0.611022 0.597028 0.990836
O O13 0.310194 0.333777 0.283732
O O14 0.500000 0.000000 0.500000
O O15 0.293880 0.114342 0.933139
O O16 0.785397 0.703905 0.400933
O O17 0.715338 0.656349 0.478167
O O18 0.746546 0.032687 0.469912
#
# Coordination Sequence:
#
# PCOD8038561 Si02
#       8
#     2   2   2   2   2   2   2   2
#     4  10  17  37  65  97 120 150 212 258 296 371
#     4  10  20  37  62  96 124 152 208 260 302 362
#     4  11  26  47  60  88 131 170 206 249 311 377
#     4  11  26  41  60  93 132 154 209 266 297 363
#     4  10  20  39  71  90 122 163 211 250 307 376
#     4  10  20  39  65  94 120 162 206 253 310 367
#     4  11  21  39  69  90 125 169 203 250 315 373
#     4  11  20  38  66  94 121 159 205 259 310 355
#
# _framework density 20.407541999999999
#
# number of rings (size 3 to 8) (size 9 to 14) (size 15 to 20)
#    0.000    1.500    3.750    3.750    1.750    1.500 
#    9.000    1.875    0.000    0.000    0.000    0.000 
#    0.000    0.000    0.000    0.000    0.000    0.000 
#
# Total GULP energy -198228.602964 kJ/mol
# GULP energy per Si atom -12389.287685 kJ/mol
# Density = 2.036109 g / cm^3
# Si number density = 20.407542 Si / 1000 Ang^3
#
#
#
# Elastic Constant Matrix: (Units=GPa)
#
#
# Indices 1 2 3 4 5 6 
#
# 1 117.7527 26.7319 72.5640 1.4154 6.7274 -3.2631
# 2 26.7319 79.9711 59.6765 -6.4258 -6.1009 4.6175
# 3 72.5640 59.6765 150.1017 -10.5927 5.2995 -0.7770
# 4 1.4154 -6.4258 -10.5927 29.9743 6.1717 5.2499
# 5 6.7274 -6.1009 5.2995 6.1717 31.4648 -1.3926
# 6 -3.2631 4.6175 -0.7770 5.2499 -1.3926 35.3280
#
#
#
# Elastic Compliance Matrix: (Units=1/GPa)
#
#
# Indices 1 2 3 4 5 6 
#
# 1 0.012417 0.000093 -0.006195 -0.002794 -0.000984 0.001375
# 2 0.000093 0.018711 -0.007603 0.000815 0.004616 -0.002543
# 3 -0.006195 -0.007603 0.013067 0.003922 -0.003120 0.000003
# 4 -0.002794 0.000815 0.003922 0.037696 -0.007573 -0.006179
# 5 -0.000984 0.004616 -0.003120 -0.007573 0.034975 0.001741
# 6 0.001375 -0.002543 0.000003 -0.006179 0.001741 0.029752
#
#
# Mechanical properties :
#
#
# Convention : Reuss Voigt Hill
#
# Bulk Modulus (GPa) = 59.57482 73.97448 66.77465
# Shear Modulus (GPa) = 27.83617 31.94363 29.88990
#
# Velocity S-wave (km/s) = 3.69726 3.96066 3.83123
# Velocity P-wave (km/s) = 6.89074 7.56592 7.23621
#
# Compressibility (1/GPa) = 0.01678562
#
# Stress axis : x y z
#
# Youngs Moduli (GPa) = 80.53649 53.44367 76.53041
#
# Poissons Ratio (x) = -0.00499 0.47411
# Poissons Ratio (y) = -0.00752 0.58185
# Poissons Ratio (z) = 0.49893 0.40633
#
# Static dielectric constant tensor:
#      x y z
#    x 4.244520 0.237090 0.513310 
#    y 0.237090 3.744510 -0.017120 
#    z 0.513310 -0.017120 4.255900 
# 
# 
# High freq. dielectric constant tensor:
#      x y z
#    x 1.806130 0.012850 0.019510 
#    y 0.012850 1.783410 -0.013900 
#    z 0.019510 -0.013900 1.792620 
# 
# From -- ./inp_files/352356.got.cif
#   From: 2010.06.25/outbox.cif.g09.slc.cpg/sg2_177_cif.got.tgz:352356.got - 2010.06.27 13:26:56.
