data_PCOD8038962
_publ_section_title
;
Structure prediction by ZEFSAII (Michael W. Deem and Ramdas Pophale) SiO2 
 PCOD8038962
Probable space group: P -1
;
_chemical_formula_sum "Si O2"
_cell_formula_units_Z 12
_cell_length_a 12.329978
_cell_length_b 19.847765
_cell_length_c 9.122234
_cell_angle_alpha 34.349894
_cell_angle_beta 138.948973
_cell_angle_gamma 153.365883
_cell_volume 563.532775
_symmetry_space_group_name_H-M "P -1"
_symmetry_group_IT_number 2
_symmetry_cell_setting 'triclinic'
loop_
_space_group_symop_operation_xyz
x,y,z
-x,-y,-z
loop_
_atom_site_type_symbol
_atom_site_label
_atom_site_fract_x
_atom_site_fract_y
_atom_site_fract_z
Si Si1 0.905658 0.045031 0.506529
Si Si2 0.468190 0.129941 0.817231
Si Si3 0.781542 0.719285 0.989741
Si Si4 0.506207 0.966037 0.400703
Si Si5 0.431709 0.367382 0.374246
Si Si6 0.866430 0.308308 0.673669
O O1 0.780809 0.982567 0.329600
O O2 0.768092 0.052811 0.471815
O O3 0.919258 0.915993 0.816951
O O4 0.173865 0.244337 0.413884
O O5 0.555925 0.306100 0.649626
O O6 0.676445 0.176438 0.848484
O O7 0.424722 0.032919 0.094495
O O8 0.619981 0.577902 0.215100
O O9 0.957402 0.709721 0.126763
O O10 0.595308 0.655934 0.786770
O O11 0.293924 0.757137 0.521258
O O12 0.500000 0.000000 0.500000
O O13 0.000000 0.500000 0.500000
#
# Coordination Sequence:
#
# PCOD8038962 Si02
#       6
#     2   2   2   2   2   2
#     4  10  20  37  60  89 117 157 199 252 297 355
#     4  10  19  37  59  86 119 157 202 242 294 357
#     4  10  19  32  58  95 121 144 199 253 300 347
#     4  11  24  41  60  85 120 164 201 244 305 360
#     4  10  18  31  58  91 120 149 194 255 299 345
#     4  11  20  37  63  92 118 152 201 249 292 352
#
# _framework density 21.294238
#
# number of rings (size 3 to 8) (size 9 to 14) (size 15 to 20)
#    0.000    1.667    1.667    7.000    2.333    0.000 
#    0.000    4.167    0.000    2.000    0.000    0.000 
#    0.000    0.000    0.000    0.000    0.000    0.000 
#
# Total GULP energy -148678.010904 kJ/mol
# GULP energy per Si atom -12389.834242 kJ/mol
# Density = 2.124577 g / cm^3
# Si number density = 21.294238 Si / 1000 Ang^3
#
#
#
# Elastic Constant Matrix: (Units=GPa)
#
#
# Indices 1 2 3 4 5 6 
#
# 1 118.0598 52.8635 68.5817 -3.2120 -1.3083 5.8002
# 2 52.8635 100.1488 54.2105 -27.6696 -8.6245 16.3075
# 3 68.5817 54.2105 110.7918 -19.7938 10.0790 10.1114
# 4 -3.2120 -27.6696 -19.7938 35.3533 4.9431 -4.2008
# 5 -1.3083 -8.6245 10.0790 4.9431 30.9664 10.4165
# 6 5.8002 16.3075 10.1114 -4.2008 10.4165 34.6596
#
#
#
# Elastic Compliance Matrix: (Units=1/GPa)
#
#
# Indices 1 2 3 4 5 6 
#
# 1 0.016029 -0.005807 -0.008932 -0.008436 0.003075 0.000709
# 2 -0.005807 0.020569 -0.004474 0.010931 0.008053 -0.008496
# 3 -0.008932 -0.004474 0.018842 0.007819 -0.009662 0.001955
# 4 -0.008436 0.010931 0.007819 0.041539 -0.006852 0.001081
# 5 0.003075 0.008053 -0.009662 -0.006852 0.044146 -0.015583
# 6 0.000709 -0.008496 0.001955 0.001081 -0.015583 0.036975
#
#
# Mechanical properties :
#
#
# Convention : Reuss Voigt Hill
#
# Bulk Modulus (GPa) = 58.77881 75.59021 67.18451
# Shear Modulus (GPa) = 22.50241 30.41884 26.46062
#
# Velocity S-wave (km/s) = 3.25428 3.78365 3.52890
# Velocity P-wave (km/s) = 6.46401 7.39345 6.94430
#
# Compressibility (1/GPa) = 0.01701293
#
# Stress axis : x y z
#
# Youngs Moduli (GPa) = 62.38621 48.61632 53.07292
#
# Poissons Ratio (x) = 0.28232 0.47407
# Poissons Ratio (y) = 0.36229 0.23746
# Poissons Ratio (z) = 0.55726 0.21752
#
# Static dielectric constant tensor:
#      x y z
#    x 3.538440 0.312950 0.291840 
#    y 0.312950 4.086020 -0.503460 
#    z 0.291840 -0.503460 4.225220 
# 
# 
# High freq. dielectric constant tensor:
#      x y z
#    x 1.805020 0.045480 0.035170 
#    y 0.045480 1.816510 -0.032430 
#    z 0.035170 -0.032430 1.840020 
# 
# From -- ./inp_files/160572.got.cif
#   From: 2010.06.25/outbox.cif.g09.slc.cpg/sg2_81_cif.got.tgz:160572.got - 2010.06.27 13:26:56.
