data_PCOD8038257
_publ_section_title
;
Structure prediction by ZEFSAII (Michael W. Deem and Ramdas Pophale) SiO2 
 PCOD8038257
Probable space group: P -1
;
_chemical_formula_sum "Si O2"
_cell_formula_units_Z 16
_cell_length_a 18.153292
_cell_length_b 9.859383
_cell_length_c 11.832386
_cell_angle_alpha 54.211063
_cell_angle_beta 45.600499
_cell_angle_gamma 90.743609
_cell_volume 840.992114
_symmetry_space_group_name_H-M "P -1"
_symmetry_group_IT_number 2
_symmetry_cell_setting 'triclinic'
loop_
_space_group_symop_operation_xyz
x,y,z
-x,-y,-z
loop_
_atom_site_type_symbol
_atom_site_label
_atom_site_fract_x
_atom_site_fract_y
_atom_site_fract_z
Si Si1 0.830663 0.449473 0.259901
Si Si2 0.809802 0.785710 0.057514
Si Si3 0.403038 0.029490 0.139499
Si Si4 0.840016 0.149683 0.251144
Si Si5 0.670527 0.765635 0.434904
Si Si6 0.657272 0.695154 0.038564
Si Si7 0.842709 0.848567 0.553028
Si Si8 0.403193 0.534525 0.139364
O O1 0.750804 0.527877 0.270948
O O2 0.753511 0.245104 0.535940
O O3 0.838748 0.344252 0.189843
O O4 0.985890 0.688449 0.035662
O O5 0.778324 0.861193 0.165012
O O6 0.708823 0.741992 0.088499
O O7 0.984182 0.994670 0.728860
O O8 0.381543 0.157273 0.014774
O O9 0.500000 0.000000 0.000000
O O10 0.483200 0.178187 0.099785
O O11 0.740090 0.001689 0.318198
O O12 0.793196 0.969475 0.492417
O O13 0.671620 0.603795 0.592707
O O14 0.495711 0.595130 0.672683
O O15 0.794782 0.796686 0.761148
O O16 0.734801 0.581842 0.739199
O O17 0.500000 0.500000 0.000000
#
# Coordination Sequence:
#
# PCOD8038257 Si02
#       8
#     2   2   2   2   2   2   2   2
#     4  10  19  35  55  86 110 141 184 237 283 330
#     4  11  24  36  57  87 119 149 189 229 286 341
#     4  11  21  33  60  87 109 143 188 241 282 326
#     4   9  19  34  60  82 110 143 188 237 285 320
#     4  10  20  35  58  83 112 150 189 238 278 327
#     4  11  21  39  60  81 116 157 190 226 278 346
#     4  10  19  36  62  85 106 154 195 235 268 339
#     4  10  17  34  61  86 109 144 197 236 276 327
#
# _framework density 19.02515
#
# number of rings (size 3 to 8) (size 9 to 14) (size 15 to 20)
#    0.000    1.750    3.750    3.000    0.000    5.500 
#    0.000    0.625    2.750    1.500    0.000    0.000 
#    0.000    0.000    0.000    0.000    0.000    0.000 
#
# Total GULP energy -198243.378370 kJ/mol
# GULP energy per Si atom -12390.211148 kJ/mol
# Density = 1.898185 g / cm^3
# Si number density = 19.025150 Si / 1000 Ang^3
#
#
#
# Elastic Constant Matrix: (Units=GPa)
#
#
# Indices 1 2 3 4 5 6 
#
# 1 82.4020 38.7219 24.5731 -5.9272 -6.0493 14.1077
# 2 38.7219 91.6268 41.0712 1.8737 -6.6063 12.9668
# 3 24.5731 41.0712 101.6378 0.5369 -10.7894 8.8646
# 4 -5.9272 1.8737 0.5369 38.6149 4.4831 2.0863
# 5 -6.0493 -6.6063 -10.7894 4.4831 21.4395 1.0048
# 6 14.1077 12.9668 8.8646 2.0863 1.0048 25.6520
#
#
#
# Elastic Compliance Matrix: (Units=1/GPa)
#
#
# Indices 1 2 3 4 5 6 
#
# 1 0.016465 -0.005539 -0.000988 0.002900 0.002127 -0.006233
# 2 -0.005539 0.015951 -0.004648 -0.001552 0.001494 -0.003343
# 3 -0.000988 -0.004648 0.012612 -0.000576 0.004832 -0.001608
# 4 0.002900 -0.001552 -0.000576 0.027207 -0.005517 -0.002608
# 5 0.002127 0.001494 0.004832 -0.005517 0.051531 -0.005165
# 6 -0.006233 -0.003343 -0.001608 -0.002608 -0.005165 0.045071
#
#
# Mechanical properties :
#
#
# Convention : Reuss Voigt Hill
#
# Bulk Modulus (GPa) = 44.09726 53.82211 48.95968
# Shear Modulus (GPa) = 25.15773 28.56130 26.85951
#
# Velocity S-wave (km/s) = 3.64035 3.87879 3.76146
# Velocity P-wave (km/s) = 6.39517 6.95783 6.68242
#
# Compressibility (1/GPa) = 0.02267715
#
# Stress axis : x y z
#
# Youngs Moduli (GPa) = 60.73449 62.69349 79.28810
#
# Poissons Ratio (x) = 0.34726 0.07836
# Poissons Ratio (y) = 0.33641 0.36853
# Poissons Ratio (z) = 0.06003 0.29140
#
# Static dielectric constant tensor:
#      x y z
#    x 3.343080 0.351290 0.081990 
#    y 0.351290 3.802050 0.049310 
#    z 0.081990 0.049310 3.964900 
# 
# 
# High freq. dielectric constant tensor:
#      x y z
#    x 1.694260 0.017480 -0.012370 
#    y 0.017480 1.734630 -0.001470 
#    z -0.012370 -0.001470 1.760950 
# 
# From -- ./inp_files/391088.got.cif
#   From: 2010.06.25/outbox.cif.g09.slc.cpg/sg2_196_cif.got.tgz:391088.got - 2010.06.27 13:26:56.
