data_PCOD8038154
_publ_section_title
;
Structure prediction by ZEFSAII (Michael W. Deem and Ramdas Pophale) SiO2 
 PCOD8038154
Probable space group: P -1
;
_chemical_formula_sum "Si O2"
_cell_formula_units_Z 16
_cell_length_a 9.000000
_cell_length_b 12.000000
_cell_length_c 15.000000
_cell_angle_alpha 130.000000
_cell_angle_beta 110.000000
_cell_angle_gamma 110.000000
_cell_volume 728.972637
_symmetry_space_group_name_H-M "P -1"
_symmetry_group_IT_number 2
_symmetry_cell_setting 'triclinic'
loop_
_space_group_symop_operation_xyz
x,y,z
-x,-y,-z
loop_
_atom_site_type_symbol
_atom_site_label
_atom_site_fract_x
_atom_site_fract_y
_atom_site_fract_z
Si Si1 0.115036 0.678940 0.690620
Si Si2 0.284944 0.221883 0.137349
Si Si3 0.396723 0.145693 0.936929
Si Si4 0.224425 0.998357 0.498570
Si Si5 0.266962 0.226992 0.791437
Si Si6 0.408904 0.594498 0.541526
Si Si7 0.373035 0.626640 0.361571
Si Si8 0.054233 0.481770 0.754041
O O1 0.166794 0.605725 0.743948
O O2 0.000000 0.500000 0.500000
O O3 0.894779 0.637809 0.643693
O O4 0.356589 0.944468 0.843782
O O5 0.465658 0.262280 0.265861
O O6 0.369718 0.450303 0.259174
O O7 0.328630 0.183869 0.031280
O O8 0.000000 0.000000 0.000000
O O9 0.223109 0.081449 0.788194
O O10 0.681126 0.373158 0.071582
O O11 0.992356 0.871831 0.321811
O O12 0.151394 0.796174 0.429956
O O13 0.306462 0.174768 0.679052
O O14 0.462625 0.163171 0.566397
O O15 0.500000 0.500000 0.000000
O O16 0.500000 0.500000 0.500000
O O17 0.476861 0.739284 0.541537
O O18 0.085704 0.478873 0.212865
#
# Coordination Sequence:
#
# PCOD8038154 Si02
#       8
#     2   2   2   2   2   2   2   2
#     4  11  23  39  64  92 128 175 216 267 336 394
#     4  11  23  39  64 101 130 170 220 276 329 390
#     4  12  24  41  69  96 136 169 224 277 329 398
#     4  11  24  43  71  94 136 176 227 276 324 397
#     4  11  24  43  68 102 128 175 230 277 327 387
#     4   9  20  38  59  90 126 166 214 258 322 388
#     4  10  23  41  67  92 134 177 216 269 337 391
#     4  11  23  43  63  98 134 174 216 271 337 393
#
# _framework density 21.948698
#
# number of rings (size 3 to 8) (size 9 to 14) (size 15 to 20)
#    0.000    1.250    1.250    5.250    7.000    1.000 
#    0.000    0.625    0.000    0.000    0.000    0.000 
#    0.000    0.000    0.000    0.000    0.000    0.000 
#
# Total GULP energy -198231.886081 kJ/mol
# GULP energy per Si atom -12389.492880 kJ/mol
# Density = 2.189874 g / cm^3
# Si number density = 21.948698 Si / 1000 Ang^3
#
#
#
# Elastic Constant Matrix: (Units=GPa)
#
#
# Indices 1 2 3 4 5 6 
#
# 1 70.9532 25.2011 24.0810 -2.3741 6.8253 4.8365
# 2 25.2011 139.1208 45.7667 14.0240 1.4710 3.1744
# 3 24.0810 45.7667 104.3964 5.6321 -0.0713 4.7706
# 4 -2.3741 14.0240 5.6321 46.7931 -5.2423 -0.0696
# 5 6.8253 1.4710 -0.0713 -5.2423 28.6122 5.2907
# 6 4.8365 3.1744 4.7706 -0.0696 5.2907 34.5739
#
#
#
# Elastic Compliance Matrix: (Units=1/GPa)
#
#
# Indices 1 2 3 4 5 6 
#
# 1 0.016250 -0.002084 -0.002860 0.001422 -0.003298 -0.001180
# 2 -0.002084 0.008896 -0.003288 -0.002422 -0.000410 -0.000014
# 3 -0.002860 -0.003288 0.011755 -0.000465 0.000994 -0.001073
# 4 0.001422 -0.002422 -0.000465 0.022675 0.004028 -0.000483
# 5 -0.003298 -0.000410 0.000994 0.004028 0.037491 -0.005367
# 6 -0.001180 -0.000014 -0.001073 -0.000483 -0.005367 0.030058
#
#
# Mechanical properties :
#
#
# Convention : Reuss Voigt Hill
#
# Bulk Modulus (GPa) = 48.93239 56.06310 52.49774
# Shear Modulus (GPa) = 33.24434 36.62393 34.93414
#
# Velocity S-wave (km/s) = 3.89606 4.08930 3.99385
# Velocity P-wave (km/s) = 6.52544 6.92060 6.72593
#
# Compressibility (1/GPa) = 0.02043636
#
# Stress axis : x y z
#
# Youngs Moduli (GPa) = 61.53885 112.40895 85.07168
#
# Poissons Ratio (x) = 0.23431 0.24327
# Poissons Ratio (y) = 0.12827 0.27973
# Poissons Ratio (z) = 0.17598 0.36962
#
# Static dielectric constant tensor:
#      x y z
#    x -1.538330 5.555840 -1.303770 
#    y 5.555840 -1.385460 0.888210 
#    z -1.303770 0.888210 3.880450 
# 
# 
# High freq. dielectric constant tensor:
#      x y z
#    x 1.860760 -0.004660 0.012960 
#    y -0.004660 1.878660 -0.002950 
#    z 0.012960 -0.002950 1.853780 
# 
# From -- ./inp_files/307950.got.cif
#   From: 2010.06.25/outbox.ucp.g09.slc.cvg/sg2_154_cif.got.tgz:307950.got - 2010.06.28 11:54:26.
