data_PCOD8038162
_publ_section_title
;
Structure prediction by ZEFSAII (Michael W. Deem and Ramdas Pophale) SiO2 
 PCOD8038162
Probable space group: P -1
;
_chemical_formula_sum "Si O2"
_cell_formula_units_Z 12
_cell_length_a 9.390061
_cell_length_b 15.434689
_cell_length_c 9.606429
_cell_angle_alpha 34.264861
_cell_angle_beta 54.757217
_cell_angle_gamma 64.477332
_cell_volume 636.993870
_symmetry_space_group_name_H-M "P -1"
_symmetry_group_IT_number 2
_symmetry_cell_setting 'triclinic'
loop_
_space_group_symop_operation_xyz
x,y,z
-x,-y,-z
loop_
_atom_site_type_symbol
_atom_site_label
_atom_site_fract_x
_atom_site_fract_y
_atom_site_fract_z
Si Si1 0.326053 0.898107 0.191306
Si Si2 0.822520 0.681163 0.890550
Si Si3 0.011281 0.002426 0.659365
Si Si4 0.493120 0.151887 0.113117
Si Si5 0.317400 0.828807 0.736861
Si Si6 0.805510 0.369657 0.169343
O O1 0.177137 0.015946 0.135609
O O2 0.274162 0.747716 0.512447
O O3 0.350669 0.837718 0.100855
O O4 0.500000 0.000000 0.000000
O O5 0.651620 0.730926 0.004105
O O6 0.891412 0.833289 0.561647
O O7 0.982997 0.637533 0.956675
O O8 0.765633 0.541797 0.002364
O O9 0.000000 0.000000 0.500000
O O10 0.121129 0.868331 0.833460
O O11 0.573444 0.208503 0.140630
O O12 0.407765 0.974664 0.404721
O O13 0.295110 0.675948 0.856682
#
# Coordination Sequence:
#
# PCOD8038162 Si02
#       6
#     2   2   2   2   2   2
#     4  11  19  31  55  82 103 131 176 223 254 298
#     4   9  19  34  54  79 101 141 176 213 250 316
#     4  10  17  34  57  76 100 139 177 212 252 311
#     4  10  21  33  52  80 111 130 173 221 261 301
#     4  10  19  35  54  77 103 144 171 210 262 313
#     4  10  19  34  58  76 101 141 182 205 257 313
#
# _framework density 18.838486
#
# number of rings (size 3 to 8) (size 9 to 14) (size 15 to 20)
#    0.000    2.000    5.000    1.000    0.000    2.000 
#    0.000    0.000    0.000    9.000    0.000    0.000 
#    0.000    0.000    0.000    0.000    0.000    0.000 
#
# Total GULP energy -148698.826976 kJ/mol
# GULP energy per Si atom -12391.568915 kJ/mol
# Density = 1.879561 g / cm^3
# Si number density = 18.838486 Si / 1000 Ang^3
#
#
#
# Elastic Constant Matrix: (Units=GPa)
#
#
# Indices 1 2 3 4 5 6 
#
# 1 78.1419 49.1906 29.0802 8.2235 -16.5044 4.1535
# 2 49.1906 128.7433 45.2356 6.1742 -16.3983 6.7577
# 3 29.0802 45.2356 48.3700 3.7006 -11.9495 2.8384
# 4 8.2235 6.1742 3.7006 36.7791 -0.2280 -16.5009
# 5 -16.5044 -16.3983 -11.9495 -0.2280 21.3511 -0.6603
# 6 4.1535 6.7577 2.8384 -16.5009 -0.6603 42.2590
#
#
#
# Elastic Compliance Matrix: (Units=1/GPa)
#
#
# Indices 1 2 3 4 5 6 
#
# 1 0.019947 -0.004279 -0.005285 -0.004248 0.009053 -0.002438
# 2 -0.004279 0.012842 -0.008914 -0.000905 0.001515 -0.001364
# 3 -0.005285 -0.008914 0.034342 -0.001007 0.008258 -0.000626
# 4 -0.004248 -0.000905 -0.001007 0.034705 -0.003734 0.014123
# 5 0.009053 0.001515 0.008258 -0.003734 0.059511 -0.002215
# 6 -0.002438 -0.001364 -0.000626 0.014123 -0.002215 0.029643
#
#
# Mechanical properties :
#
#
# Convention : Reuss Voigt Hill
#
# Bulk Modulus (GPa) = 33.14170 55.80755 44.47463
# Shear Modulus (GPa) = 21.00789 28.86112 24.93450
#
# Velocity S-wave (km/s) = 3.34302 3.91836 3.64207
# Velocity P-wave (km/s) = 5.70366 7.08237 6.43008
#
# Compressibility (1/GPa) = 0.03017347
#
# Stress axis : x y z
#
# Youngs Moduli (GPa) = 50.13333 77.86680 29.11901
#
# Poissons Ratio (x) = 0.33322 0.15390
# Poissons Ratio (y) = 0.21454 0.25957
# Poissons Ratio (z) = 0.26497 0.69411
#
# Static dielectric constant tensor:
#      x y z
#    x 3.576470 -0.156480 -0.361670 
#    y -0.156480 3.854900 0.033660 
#    z -0.361670 0.033660 3.214090 
# 
# 
# High freq. dielectric constant tensor:
#      x y z
#    x 1.732140 -0.004750 -0.029400 
#    y -0.004750 1.743750 -0.009790 
#    z -0.029400 -0.009790 1.680150 
# 
# From -- ./inp_files/146752.got.cif
#   From: 2010.06.25/outbox.cif.g09.slc.cpg/sg2_74_cif.got.tgz:146752.got - 2010.06.27 13:26:56.
