data_PCOD8038065
_publ_section_title
;
Structure prediction by ZEFSAII (Michael W. Deem and Ramdas Pophale) SiO2 
 PCOD8038065
Probable space group: P -1
;
_chemical_formula_sum "Si O2"
_cell_formula_units_Z 16
_cell_length_a 23.677026
_cell_length_b 15.090525
_cell_length_c 8.063891
_cell_angle_alpha 65.819715
_cell_angle_beta 58.995606
_cell_angle_gamma 18.759720
_cell_volume 761.644637
_symmetry_space_group_name_H-M "P -1"
_symmetry_group_IT_number 2
_symmetry_cell_setting 'triclinic'
loop_
_space_group_symop_operation_xyz
x,y,z
-x,-y,-z
loop_
_atom_site_type_symbol
_atom_site_label
_atom_site_fract_x
_atom_site_fract_y
_atom_site_fract_z
Si Si1 0.474171 0.957294 0.211103
Si Si2 0.835537 0.233009 0.385613
Si Si3 0.485870 0.628546 0.111562
Si Si4 0.241068 0.608436 0.267816
Si Si5 0.552665 0.226167 0.611825
Si Si6 0.901412 0.357597 0.178631
Si Si7 0.306609 0.862473 0.850753
Si Si8 0.309748 0.299056 0.465813
O O1 0.408745 0.939941 0.272027
O O2 0.686338 0.660426 0.198425
O O3 0.295974 0.244139 0.375195
O O4 0.500000 0.000000 0.000000
O O5 0.725306 0.379888 0.617729
O O6 0.679792 0.434397 0.321711
O O7 0.951428 0.174743 0.258115
O O8 0.009456 0.913630 0.348118
O O9 0.375933 0.806894 0.315098
O O10 0.561269 0.414319 0.176390
O O11 0.663794 0.458084 0.967596
O O12 0.352343 0.832172 0.994280
O O13 0.345355 0.359658 0.301764
O O14 0.658659 0.106546 0.369955
O O15 0.882442 0.434954 0.330105
O O16 0.073968 0.166694 0.959771
O O17 0.500000 0.000000 0.500000
#
# Coordination Sequence:
#
# PCOD8038065 Si02
#       8
#     2   2   2   2   2   2   2   2
#     4  10  21  42  64  91 122 156 210 265 303 351
#     4   9  18  34  61  92 121 151 198 263 312 356
#     4  11  23  37  64  90 129 168 196 245 317 381
#     4  10  17  33  60  94 119 154 207 251 307 367
#     4  11  23  41  64  90 127 161 204 256 307 371
#     4   9  19  39  62  88 122 159 201 255 310 365
#     4  11  23  42  59  91 131 164 199 246 313 378
#     4   9  19  34  62  85 117 161 205 248 303 354
#
# _framework density 21.007173999999999
#
# number of rings (size 3 to 8) (size 9 to 14) (size 15 to 20)
#    0.000    2.000    2.500    1.875    0.000    0.500 
#    4.500    1.250    0.000    0.000    0.000    0.000 
#    0.000    0.000    0.000    0.000    0.000    0.000 
#
# Total GULP energy -198227.897809 kJ/mol
# GULP energy per Si atom -12389.243613 kJ/mol
# Density = 2.095936 g / cm^3
# Si number density = 21.007174 Si / 1000 Ang^3
#
#
#
# Elastic Constant Matrix: (Units=GPa)
#
#
# Indices 1 2 3 4 5 6 
#
# 1 86.1285 26.5186 39.1875 -1.0291 17.7097 11.0352
# 2 26.5186 61.8967 24.0248 -6.7944 -1.2293 20.6152
# 3 39.1875 24.0248 108.8299 -10.9358 1.5800 5.6310
# 4 -1.0291 -6.7944 -10.9358 31.5179 2.6934 -5.2786
# 5 17.7097 -1.2293 1.5800 2.6934 33.9994 -3.4967
# 6 11.0352 20.6152 5.6310 -5.2786 -3.4967 23.6278
#
#
#
# Elastic Compliance Matrix: (Units=1/GPa)
#
#
# Indices 1 2 3 4 5 6 
#
# 1 0.018009 -0.004313 -0.005345 -0.002260 -0.009655 -0.005308
# 2 -0.004313 0.025759 -0.003050 0.001011 0.001252 -0.019322
# 3 -0.005345 -0.003050 0.011948 0.003707 0.002181 0.003461
# 4 -0.002260 0.001011 0.003707 0.034385 -0.000980 0.006827
# 5 -0.009655 0.001252 0.002181 -0.000980 0.035275 0.007898
# 6 -0.005308 -0.019322 0.003461 0.006827 0.007898 0.063530
#
#
# Mechanical properties :
#
#
# Convention : Reuss Voigt Hill
#
# Bulk Modulus (GPa) = 33.00351 48.47963 40.74157
# Shear Modulus (GPa) = 22.27945 28.97064 25.62505
#
# Velocity S-wave (km/s) = 3.26016 3.71763 3.49639
# Velocity P-wave (km/s) = 5.46957 6.44635 5.97795
#
# Compressibility (1/GPa) = 0.03029981
#
# Stress axis : x y z
#
# Youngs Moduli (GPa) = 55.52922 38.82145 83.69392
#
# Poissons Ratio (x) = 0.16744 0.44732
# Poissons Ratio (y) = 0.23950 0.25529
# Poissons Ratio (z) = 0.29679 0.11842
#
# Static dielectric constant tensor:
#      x y z
#    x 4.028480 0.651040 0.520540 
#    y 0.651040 3.954440 0.633430 
#    z 0.520540 0.633430 3.937540 
# 
# 
# High freq. dielectric constant tensor:
#      x y z
#    x 1.799260 0.014490 0.010350 
#    y 0.014490 1.812970 -0.010260 
#    z 0.010350 -0.010260 1.826190 
# 
# From -- ./inp_files/313274.got.cif
#   From: 2010.06.25/outbox.cif.g09.slc.cpg/sg2_157_cif.got.tgz:313274.got - 2010.06.27 13:26:56.
