data_PCOD8038914
_publ_section_title
;
Structure prediction by ZEFSAII (Michael W. Deem and Ramdas Pophale) SiO2 
 PCOD8038914
Probable space group: P -1
;
_chemical_formula_sum "Si O2"
_cell_formula_units_Z 16
_cell_length_a 21.756995
_cell_length_b 29.101835
_cell_length_c 16.535320
_cell_angle_alpha 154.647841
_cell_angle_beta 153.801997
_cell_angle_gamma 10.389254
_cell_volume 803.628485
_symmetry_space_group_name_H-M "P -1"
_symmetry_group_IT_number 2
_symmetry_cell_setting 'triclinic'
loop_
_space_group_symop_operation_xyz
x,y,z
-x,-y,-z
loop_
_atom_site_type_symbol
_atom_site_label
_atom_site_fract_x
_atom_site_fract_y
_atom_site_fract_z
Si Si1 0.291168 0.367657 0.170854
Si Si2 0.203156 0.936220 0.855265
Si Si3 0.654549 0.181980 0.858788
Si Si4 0.567324 0.572056 0.855268
Si Si5 0.155885 0.664724 0.584832
Si Si6 0.711781 0.451693 0.141214
Si Si7 0.649185 0.009631 0.170859
Si Si8 0.513219 0.307386 0.584835
O O1 0.520702 0.258374 0.198909
O O2 0.106235 0.592963 0.359807
O O3 0.530938 0.128386 0.131359
O O4 0.000000 0.500000 0.000000
O O5 0.371427 0.774920 0.878415
O O6 0.898107 0.072024 0.685617
O O7 0.076651 0.148004 0.059407
O O8 0.475253 0.358217 0.850091
O O9 0.406909 0.368445 0.940604
O O10 0.772922 0.976894 0.652068
O O11 0.000000 0.000000 0.000000
O O12 0.365848 0.604290 0.685609
O O13 0.942983 0.277944 0.801083
O O14 0.368615 0.493011 0.644165
O O15 0.730303 0.519880 0.347924
O O16 0.500000 0.500000 0.000000
O O17 0.509417 0.189756 0.359808
O O18 0.500000 0.000000 0.000000
#
# Coordination Sequence:
#
# PCOD8038914 Si02
#       8
#     2   2   2   2   2   2   2   2
#     4  11  24  40  57  79 111 148 185 228 275 325
#     4  11  21  35  58  85 113 145 183 226 271 324
#     4  10  18  31  54  83 113 142 178 225 273 323
#     4  11  21  35  58  85 113 145 183 226 271 324
#     4  10  20  36  58  84 113 144 181 226 275 325
#     4  10  18  31  54  83 113 142 178 225 273 323
#     4  11  24  40  57  79 111 148 185 228 275 325
#     4  10  20  36  58  84 113 144 181 226 275 325
#
# _framework density 19.909697000000001
#
# number of rings (size 3 to 8) (size 9 to 14) (size 15 to 20)
#    0.000    1.500    0.000    9.750    0.000    7.000 
#    0.000    1.250    0.000    7.500    0.000    0.000 
#    0.000    0.000    0.000    0.000    0.000    0.000 
#
# Total GULP energy -198398.408487 kJ/mol
# GULP energy per Si atom -12399.900530 kJ/mol
# Density = 1.986438 g / cm^3
# Si number density = 19.909697 Si / 1000 Ang^3
#
#
#
# Elastic Constant Matrix: (Units=GPa)
#
#
# Indices 1 2 3 4 5 6 
#
# 1 100.2519 31.3972 48.4718 6.8904 -17.4706 35.7787
# 2 31.3972 100.0053 48.0909 14.9125 -7.7883 37.0019
# 3 48.4718 48.0909 114.3670 12.8532 -13.7754 13.2197
# 4 6.8904 14.9125 12.8532 31.6002 1.4342 0.4635
# 5 -17.4706 -7.7883 -13.7754 1.4342 32.8294 -2.8776
# 6 35.7787 37.0019 13.2197 0.4635 -2.8776 36.0335
#
#
#
# Elastic Compliance Matrix: (Units=1/GPa)
#
#
# Indices 1 2 3 4 5 6 
#
# 1 0.023467 0.008879 -0.008696 -0.005748 0.008702 -0.028459
# 2 0.008879 0.024455 -0.008931 -0.009608 0.004555 -0.030164
# 3 -0.008696 -0.008931 0.014834 -0.000131 0.000572 0.012411
# 4 -0.005748 -0.009608 -0.000131 0.037531 -0.005746 0.014680
# 5 0.008702 0.004555 0.000572 -0.005746 0.035734 -0.010600
# 6 -0.028459 -0.030164 0.012411 0.014680 -0.010600 0.081397
#
#
# Mechanical properties :
#
#
# Convention : Reuss Voigt Hill
#
# Bulk Modulus (GPa) = 22.09479 63.39378 42.74429
# Shear Modulus (GPa) = 19.99999 32.53691 26.26845
#
# Velocity S-wave (km/s) = 3.17288 4.04694 3.63627
# Velocity P-wave (km/s) = 4.95424 7.33122 6.25664
#
# Compressibility (1/GPa) = 0.04525953
#
# Stress axis : x y z
#
# Youngs Moduli (GPa) = 42.61321 40.89138 67.41388
#
# Poissons Ratio (x) = -0.36306 0.58621
# Poissons Ratio (y) = -0.37835 0.60208
# Poissons Ratio (z) = 0.37055 0.36521
#
# Static dielectric constant tensor:
#      x y z
#    x 3.712730 0.053990 -0.458150 
#    y 0.053990 3.817660 0.496910 
#    z -0.458150 0.496910 3.932510 
# 
# 
# High freq. dielectric constant tensor:
#      x y z
#    x 1.776590 0.020720 -0.028580 
#    y 0.020720 1.780830 0.027030 
#    z -0.028580 0.027030 1.773300 
# 
# From -- ./inp_files/541882.got.cif
#   From: 2010.06.25/outbox.cif.g09.slc.cpg/sg2_271_cif.got.tgz:541882.got - 2010.06.27 13:26:56.
