data_PCOD8038731
_publ_section_title
;
Structure prediction by ZEFSAII (Michael W. Deem and Ramdas Pophale) SiO2 
 PCOD8038731
Probable space group: P -1
;
_chemical_formula_sum "Si O2"
_cell_formula_units_Z 16
_cell_length_a 6.804972
_cell_length_b 10.074509
_cell_length_c 11.571061
_cell_angle_alpha 99.407201
_cell_angle_beta 93.961299
_cell_angle_gamma 94.600242
_cell_volume 777.355410
_symmetry_space_group_name_H-M "P -1"
_symmetry_group_IT_number 2
_symmetry_cell_setting 'triclinic'
loop_
_space_group_symop_operation_xyz
x,y,z
-x,-y,-z
loop_
_atom_site_type_symbol
_atom_site_label
_atom_site_fract_x
_atom_site_fract_y
_atom_site_fract_z
Si Si1 0.806519 0.323941 0.885741
Si Si2 0.202717 0.713934 0.377014
Si Si3 0.702005 0.080479 0.983320
Si Si4 0.018992 0.230378 0.418324
Si Si5 0.898105 0.612394 0.903018
Si Si6 0.400800 0.380952 0.555443
Si Si7 0.101139 0.526900 0.687609
Si Si8 0.061931 0.117869 0.169661
O O1 0.835259 0.251089 0.753535
O O2 0.658994 0.224941 0.945126
O O3 0.739257 0.477817 0.889405
O O4 0.020041 0.339278 0.961512
O O5 0.437088 0.713876 0.404974
O O6 0.104003 0.817561 0.476514
O O7 0.092038 0.566223 0.379015
O O8 0.810447 0.001835 0.877373
O O9 0.843527 0.102018 0.102757
O O10 0.500000 0.000000 0.000000
O O11 0.242464 0.286992 0.462632
O O12 0.035273 0.112925 0.306881
O O13 0.887724 0.339696 0.370733
O O14 0.819338 0.739211 0.849161
O O15 0.079335 0.562429 0.826658
O O16 0.500000 0.500000 0.500000
O O17 0.296285 0.448187 0.669381
#
# Coordination Sequence:
#
# PCOD8038731 Si02
#       8
#     2   2   2   2   2   2   2   2
#     4   9  18  35  56  80 116 147 176 232 286 327
#     4  10  18  30  48  75 113 146 176 220 277 325
#     4  10  21  41  61  81 108 149 188 227 279 333
#     4  10  18  31  51  79 108 142 185 226 269 324
#     4   8  16  34  57  82 112 141 181 234 282 325
#     4  11  17  27  46  77 114 151 180 215 271 331
#     4   9  16  29  47  74 110 146 177 220 275 327
#     4   9  20  38  61  84 107 143 191 229 271 333
#
# _framework density 20.582605999999998
#
# number of rings (size 3 to 8) (size 9 to 14) (size 15 to 20)
#    0.000    2.500    2.500    0.750    0.000    1.000 
#    2.250   14.375    0.000    1.500    0.000    0.000 
#    0.000    0.000    0.000    0.000    0.000    0.000 
#
# Total GULP energy -198218.726099 kJ/mol
# GULP energy per Si atom -12388.670381 kJ/mol
# Density = 2.053576 g / cm^3
# Si number density = 20.582606 Si / 1000 Ang^3
#
#
#
# Elastic Constant Matrix: (Units=GPa)
#
#
# Indices 1 2 3 4 5 6 
#
# 1 96.7492 21.2564 46.3787 6.3805 -1.7177 10.6239
# 2 21.2564 75.8532 17.6666 -2.0197 -0.6510 18.6805
# 3 46.3787 17.6666 154.9820 13.8533 -3.0983 1.5942
# 4 6.3805 -2.0197 13.8533 26.4989 -1.5623 -6.2241
# 5 -1.7177 -0.6510 -3.0983 -1.5623 11.9948 -1.9994
# 6 10.6239 18.6805 1.5942 -6.2241 -1.9994 20.0315
#
#
#
# Elastic Compliance Matrix: (Units=1/GPa)
#
#
# Indices 1 2 3 4 5 6 
#
# 1 0.013197 -0.001397 -0.003466 -0.003010 -0.000542 -0.006410
# 2 -0.001397 0.017921 -0.001358 -0.001645 -0.002565 -0.016630
# 3 -0.003466 -0.001358 0.007916 -0.002926 0.001377 0.001703
# 4 -0.003010 -0.001645 -0.002926 0.044525 0.007515 0.017948
# 5 -0.000542 -0.002565 0.001377 0.007515 0.086748 0.013563
# 6 -0.006410 -0.016630 0.001703 0.017948 0.013563 0.075625
#
#
# Mechanical properties :
#
#
# Convention : Reuss Voigt Hill
#
# Bulk Modulus (GPa) = 37.60532 55.35418 46.47975
# Shear Modulus (GPa) = 18.70992 27.85723 23.28357
#
# Velocity S-wave (km/s) = 3.01826 3.68290 3.36702
# Velocity P-wave (km/s) = 5.51875 6.71096 6.14384
#
# Compressibility (1/GPa) = 0.02659198
#
# Stress axis : x y z
#
# Youngs Moduli (GPa) = 75.77412 55.80061 126.32826
#
# Poissons Ratio (x) = 0.07797 0.43784
# Poissons Ratio (y) = 0.10588 0.17153
# Poissons Ratio (z) = 0.26262 0.07577
#
# Static dielectric constant tensor:
#      x y z
#    x 3.430780 0.068720 -0.169130 
#    y 0.068720 3.678660 0.111420 
#    z -0.169130 0.111420 4.039890 
# 
# 
# High freq. dielectric constant tensor:
#      x y z
#    x 1.758040 0.005780 -0.005660 
#    y 0.005780 1.778080 0.004960 
#    z -0.005660 0.004960 1.824550 
# 
# From -- ./inp_files/363196.got.cif
#   From: 2010.06.25/outbox.cif.g09.slc.cpg/sg2_182_cif.got.tgz:363196.got - 2010.06.27 13:26:56.
