data_PCOD8038955
_publ_section_title
;
Structure prediction by ZEFSAII (Michael W. Deem and Ramdas Pophale) SiO2 
 PCOD8038955
Probable space group: P -1
;
_chemical_formula_sum "Si O2"
_cell_formula_units_Z 12
_cell_length_a 16.330852
_cell_length_b 11.133449
_cell_length_c 11.798491
_cell_angle_alpha 63.775814
_cell_angle_beta 39.494184
_cell_angle_gamma 33.474205
_cell_volume 615.520475
_symmetry_space_group_name_H-M "P -1"
_symmetry_group_IT_number 2
_symmetry_cell_setting 'triclinic'
loop_
_space_group_symop_operation_xyz
x,y,z
-x,-y,-z
loop_
_atom_site_type_symbol
_atom_site_label
_atom_site_fract_x
_atom_site_fract_y
_atom_site_fract_z
Si Si1 0.619797 0.206095 0.077809
Si Si2 0.788025 0.400902 0.292080
Si Si3 0.939685 0.923259 0.172945
Si Si4 0.461873 0.416686 0.920377
Si Si5 0.399167 0.702359 0.412450
Si Si6 0.494700 0.162669 0.435843
O O1 0.546016 0.420035 0.107371
O O2 0.464081 0.240171 0.306490
O O3 0.535091 0.261140 0.014953
O O4 0.921895 0.907276 0.889614
O O5 0.676185 0.514884 0.235367
O O6 0.588820 0.471542 0.530217
O O7 0.744547 0.574108 0.340442
O O8 0.827346 0.057172 0.361367
O O9 0.762396 0.979552 0.271886
O O10 0.195431 0.615537 0.064110
O O11 0.000000 0.000000 0.000000
O O12 0.662567 0.203689 0.691955
O O13 0.500000 0.000000 0.500000
#
# Coordination Sequence:
#
# PCOD8038955 Si02
#       6
#     2   2   2   2   2   2
#     4  11  22  35  53  87 121 147 183 236 293 333
#     4  10  19  34  57  82 114 145 192 237 277 338
#     4  11  19  38  62  84 114 149 194 238 278 334
#     4  11  21  33  57  87 119 146 183 238 289 341
#     4  10  18  31  57  87 109 143 190 238 285 325
#     4  11  23  39  60  84 113 151 196 236 279 338
#
# _framework density 19.495697
#
# number of rings (size 3 to 8) (size 9 to 14) (size 15 to 20)
#    0.000    1.333    5.000    3.000    0.000    2.667 
#    0.000    0.833    0.000    5.000    0.000    0.000 
#    0.000    0.000    0.000    0.000    0.000    0.000 
#
# Total GULP energy -148674.139199 kJ/mol
# GULP energy per Si atom -12389.511600 kJ/mol
# Density = 1.945132 g / cm^3
# Si number density = 19.495697 Si / 1000 Ang^3
#
#
#
# Elastic Constant Matrix: (Units=GPa)
#
#
# Indices 1 2 3 4 5 6 
#
# 1 98.2652 46.8434 55.3402 -17.2909 27.0307 -4.7427
# 2 46.8434 69.6540 41.0365 -14.2149 14.1247 0.0847
# 3 55.3402 41.0365 82.0967 -8.7333 24.5445 -8.4619
# 4 -17.2909 -14.2149 -8.7333 27.6123 -7.3366 2.1991
# 5 27.0307 14.1247 24.5445 -7.3366 40.2659 -9.6017
# 6 -4.7427 0.0847 -8.4619 2.1991 -9.6017 36.1166
#
#
#
# Elastic Compliance Matrix: (Units=1/GPa)
#
#
# Indices 1 2 3 4 5 6 
#
# 1 0.020468 -0.006607 -0.008358 0.005368 -0.005605 -0.001072
# 2 -0.006607 0.024446 -0.007679 0.006524 0.001052 -0.002842
# 3 -0.008358 -0.007679 0.023332 -0.003604 -0.005847 0.003052
# 4 0.005368 0.006524 -0.003604 0.042921 0.003699 -0.001785
# 5 -0.005605 0.001052 -0.005847 0.003699 0.034070 0.006724
# 6 -0.001072 -0.002842 0.003052 -0.001785 0.006724 0.030165
#
#
# Mechanical properties :
#
#
# Convention : Reuss Voigt Hill
#
# Bulk Modulus (GPa) = 43.55863 59.60623 51.58243
# Shear Modulus (GPa) = 21.89674 27.91868 24.90771
#
# Velocity S-wave (km/s) = 3.35499 3.78834 3.57823
# Velocity P-wave (km/s) = 6.11548 7.05520 6.60208
#
# Compressibility (1/GPa) = 0.02295756
#
# Stress axis : x y z
#
# Youngs Moduli (GPa) = 48.85640 40.90679 42.85885
#
# Poissons Ratio (x) = 0.27029 0.35822
# Poissons Ratio (y) = 0.32282 0.32911
# Poissons Ratio (z) = 0.40835 0.31412
#
# Static dielectric constant tensor:
#      x y z
#    x 3.763350 -0.323320 0.364170 
#    y -0.323320 3.337890 0.071340 
#    z 0.364170 0.071340 3.785420 
# 
# 
# High freq. dielectric constant tensor:
#      x y z
#    x 1.753770 -0.024380 0.035010 
#    y -0.024380 1.716360 0.017580 
#    z 0.035010 0.017580 1.766990 
# 
# From -- ./inp_files/389344.got.cif
#   From: 2010.06.25/outbox.cif.g09.slc.cpg/sg2_195_cif.got.tgz:389344.got - 2010.06.27 13:26:56.
