data_PCOD8038828
_publ_section_title
;
Structure prediction by ZEFSAII (Michael W. Deem and Ramdas Pophale) SiO2 
 PCOD8038828
Probable space group: P -1
;
_chemical_formula_sum "Si O2"
_cell_formula_units_Z 16
_cell_length_a 17.804687
_cell_length_b 8.424645
_cell_length_c 8.047606
_cell_angle_alpha 103.818784
_cell_angle_beta 40.357282
_cell_angle_gamma 108.397778
_cell_volume 741.721332
_symmetry_space_group_name_H-M "P -1"
_symmetry_group_IT_number 2
_symmetry_cell_setting 'triclinic'
loop_
_space_group_symop_operation_xyz
x,y,z
-x,-y,-z
loop_
_atom_site_type_symbol
_atom_site_label
_atom_site_fract_x
_atom_site_fract_y
_atom_site_fract_z
Si Si1 0.165940 0.251053 0.026939
Si Si2 0.082621 0.859247 0.123509
Si Si3 0.411378 0.397506 0.493582
Si Si4 0.215004 0.904082 0.236962
Si Si5 0.566488 0.177875 0.994737
Si Si6 0.950991 0.162486 0.178620
Si Si7 0.815033 0.737506 0.643897
Si Si8 0.623714 0.458681 0.730344
O O1 0.295447 0.281580 0.738240
O O2 0.175652 0.346247 0.211091
O O3 0.067131 0.300263 0.081444
O O4 0.115942 0.058710 0.112461
O O5 0.149217 0.805554 0.160485
O O6 0.942755 0.798341 0.364125
O O7 0.109399 0.783189 0.877068
O O8 0.500000 0.500000 0.500000
O O9 0.373109 0.537332 0.474348
O O10 0.472961 0.271250 0.257686
O O11 0.335920 0.839577 0.036740
O O12 0.141866 0.868354 0.522730
O O13 0.247307 0.103208 0.200558
O O14 0.630589 0.280262 0.752597
O O15 0.500000 0.000000 0.000000
O O16 0.000000 0.000000 0.000000
O O17 0.735792 0.597330 0.632205
O O18 0.500000 0.500000 0.000000
#
# Coordination Sequence:
#
# PCOD8038828 Si02
#       8
#     2   2   2   2   2   2   2   2
#     4  10  18  33  62  97 123 163 229 272 306 386
#     4  10  20  33  59 100 127 175 222 266 325 399
#     4  11  24  44  68  94 129 176 227 270 323 403
#     4  11  20  39  60  99 134 164 219 281 329 384
#     4  11  26  44  67  95 132 175 215 278 343 384
#     4  10  18  30  60  94 127 165 219 267 318 383
#     4  11  18  37  67  94 129 172 223 269 322 400
#     4  10  22  41  63  88 122 177 220 257 328 403
#
# _framework density 21.571442000000001
#
# number of rings (size 3 to 8) (size 9 to 14) (size 15 to 20)
#    0.000    1.500    3.750    4.500    5.250    1.000 
#    2.250    3.750    0.000    1.500    0.000    0.000 
#    0.000    0.000    0.000    0.000    0.000    0.000 
#
# Total GULP energy -198235.821256 kJ/mol
# GULP energy per Si atom -12389.738828 kJ/mol
# Density = 2.152234 g / cm^3
# Si number density = 21.571442 Si / 1000 Ang^3
#
#
#
# Elastic Constant Matrix: (Units=GPa)
#
#
# Indices 1 2 3 4 5 6 
#
# 1 197.3179 48.9726 50.0625 -16.7263 23.5553 18.1257
# 2 48.9726 78.0428 27.9674 -24.5153 -1.9872 9.8383
# 3 50.0625 27.9674 96.7185 -26.2081 13.3620 11.9313
# 4 -16.7263 -24.5153 -26.2081 27.5426 9.8665 -3.6903
# 5 23.5553 -1.9872 13.3620 9.8665 43.5689 -2.1269
# 6 18.1257 9.8383 11.9313 -3.6903 -2.1269 26.7491
#
#
#
# Elastic Compliance Matrix: (Units=1/GPa)
#
#
# Indices 1 2 3 4 5 6 
#
# 1 0.007111 -0.003358 -0.001589 0.000780 -0.003837 -0.003072
# 2 -0.003358 0.020339 0.001249 0.017412 -0.001754 -0.003500
# 3 -0.001589 0.001249 0.018274 0.020213 -0.009534 -0.005503
# 4 0.000780 0.017412 0.020213 0.079219 -0.024105 -0.006936
# 5 -0.003837 -0.001754 -0.009534 -0.024105 0.033664 0.006849
# 6 -0.003072 -0.003500 -0.005503 -0.006936 0.006849 0.042796
#
#
# Mechanical properties :
#
#
# Convention : Reuss Voigt Hill
#
# Bulk Modulus (GPa) = 26.09066 69.56491 47.82778
# Shear Modulus (GPa) = 22.56568 35.91055 29.23811
#
# Velocity S-wave (km/s) = 3.23784 4.08453 3.68558
# Velocity P-wave (km/s) = 5.10876 7.38669 6.35069
#
# Compressibility (1/GPa) = 0.03832789
#
# Stress axis : x y z
#
# Youngs Moduli (GPa) = 140.62738 49.16587 54.72242
#
# Poissons Ratio (x) = 0.16510 0.08697
# Poissons Ratio (y) = 0.47224 -0.06836
# Poissons Ratio (z) = 0.22350 -0.06142
#
# Static dielectric constant tensor:
#      x y z
#    x 5.285960 0.078540 0.342940 
#    y 0.078540 3.613110 -0.382450 
#    z 0.342940 -0.382450 3.860410 
# 
# 
# High freq. dielectric constant tensor:
#      x y z
#    x 1.882320 0.014870 0.009930 
#    y 0.014870 1.802440 -0.027330 
#    z 0.009930 -0.027330 1.843470 
# 
# From -- ./inp_files/329098.got.cif
#   From: 2010.06.25/outbox.cif.g09.slc.cpg/sg2_165_cif.got.tgz:329098.got - 2010.06.27 13:26:56.
