data_PCOD8038398
_publ_section_title
;
Structure prediction by ZEFSAII (Michael W. Deem and Ramdas Pophale) SiO2 
 PCOD8038398
Probable space group: P -1
;
_chemical_formula_sum "Si O2"
_cell_formula_units_Z 14
_cell_length_a 10.073732
_cell_length_b 9.423492
_cell_length_c 9.979236
_cell_angle_alpha 119.312493
_cell_angle_beta 58.795383
_cell_angle_gamma 102.206089
_cell_volume 705.391772
_symmetry_space_group_name_H-M "P -1"
_symmetry_group_IT_number 2
_symmetry_cell_setting 'triclinic'
loop_
_space_group_symop_operation_xyz
x,y,z
-x,-y,-z
loop_
_atom_site_type_symbol
_atom_site_label
_atom_site_fract_x
_atom_site_fract_y
_atom_site_fract_z
Si Si1 0.360101 0.619578 0.578298
Si Si2 0.316493 0.836556 0.946777
Si Si3 0.084929 0.619016 0.109955
Si Si4 0.649633 0.599188 0.992861
Si Si5 0.452468 0.192408 0.611466
Si Si6 0.785635 0.692565 0.445387
Si Si7 0.662079 0.806259 0.839865
O O1 0.500000 0.500000 0.500000
O O2 0.333414 0.774378 0.758588
O O3 0.398785 0.698991 0.450534
O O4 0.218627 0.500449 0.602289
O O5 0.475763 0.796110 0.925224
O O6 0.169190 0.757994 0.051985
O O7 0.284236 0.028874 0.046699
O O8 0.961927 0.712734 0.316565
O O9 0.213612 0.517102 0.077011
O O10 0.000000 0.500000 0.000000
O O11 0.610820 0.750340 0.184426
O O12 0.500000 0.500000 0.000000
O O13 0.715887 0.664493 0.848645
O O14 0.326931 0.238790 0.582630
O O15 0.500000 0.000000 0.500000
O O16 0.744307 0.793716 0.647104
#
# Coordination Sequence:
#
# PCOD8038398 Si02
#       7
#     2   2   2   2   2   2   2
#     4  10  17  35  62  90 118 171 218 250 302 391
#     4  11  21  39  66  93 130 171 210 263 327 384
#     4  12  23  43  68  96 129 174 214 265 324 384
#     4  12  24  41  66  98 128 166 222 266 311 381
#     4  11  22  37  63  99 128 166 218 267 310 385
#     4  11  23  41  67  91 130 173 217 255 327 389
#     4  11  24  40  63  97 131 168 213 267 327 378
#
# _framework density 19.847125999999999
#
# number of rings (size 3 to 8) (size 9 to 14) (size 15 to 20)
#    0.000    0.857    7.143    2.571    2.000    1.143 
#    0.000    2.143    0.000    0.000    0.000    0.000 
#    0.000    0.000    0.000    0.000    0.000    0.000 
#
# Total GULP energy -173537.101200 kJ/mol
# GULP energy per Si atom -12395.507229 kJ/mol
# Density = 1.980195 g / cm^3
# Si number density = 19.847126 Si / 1000 Ang^3
#
#
#
# Elastic Constant Matrix: (Units=GPa)
#
#
# Indices 1 2 3 4 5 6 
#
# 1 82.7784 35.1207 31.6177 -4.1480 -13.0098 -0.8685
# 2 35.1207 99.1029 30.9782 -2.4404 -9.9504 1.6038
# 3 31.6177 30.9782 124.9080 2.5597 -6.3409 7.1158
# 4 -4.1480 -2.4404 2.5597 40.3515 6.2434 -0.3403
# 5 -13.0098 -9.9504 -6.3409 6.2434 29.1969 -7.6235
# 6 -0.8685 1.6038 7.1158 -0.3403 -7.6235 28.9924
#
#
#
# Elastic Compliance Matrix: (Units=1/GPa)
#
#
# Indices 1 2 3 4 5 6 
#
# 1 0.015917 -0.004203 -0.002881 0.000717 0.005640 0.002908
# 2 -0.004203 0.012376 -0.001919 0.000139 0.001943 0.000173
# 3 -0.002881 -0.001919 0.009350 -0.000976 -0.000317 -0.002370
# 4 0.000717 0.000139 -0.000976 0.025785 -0.005598 -0.000916
# 5 0.005640 0.001943 -0.000317 -0.005598 0.041417 0.010964
# 6 0.002908 0.000173 -0.002370 -0.000916 0.010964 0.038023
#
#
# Mechanical properties :
#
#
# Convention : Reuss Voigt Hill
#
# Bulk Modulus (GPa) = 50.92655 55.80248 53.36452
# Shear Modulus (GPa) = 29.86505 33.64634 31.75570
#
# Velocity S-wave (km/s) = 3.88332 4.12184 4.00436
# Velocity P-wave (km/s) = 6.76920 7.12951 6.95169
#
# Compressibility (1/GPa) = 0.01963612
#
# Stress axis : x y z
#
# Youngs Moduli (GPa) = 62.82607 80.80243 106.95221
#
# Poissons Ratio (x) = 0.33965 0.30808
# Poissons Ratio (y) = 0.26408 0.20528
# Poissons Ratio (z) = 0.18097 0.15509
#
# Static dielectric constant tensor:
#      x y z
#    x 3.446400 0.216870 -0.033520 
#    y 0.216870 3.779220 -0.075650 
#    z -0.033520 -0.075650 3.836390 
# 
# 
# High freq. dielectric constant tensor:
#      x y z
#    x 1.742620 0.009380 0.000300 
#    y 0.009380 1.783970 -0.005290 
#    z 0.000300 -0.005290 1.788860 
# 
# From -- ./inp_files/159555.got.cif
#   From: 2010.06.25/outbox.cif.g09.slc.cpg/sg2_80_cif.got.tgz:159555.got - 2010.06.27 13:26:56.
