data_PCOD8038190
_publ_section_title
;
Structure prediction by ZEFSAII (Michael W. Deem and Ramdas Pophale) SiO2 
 PCOD8038190
Probable space group: P -1
;
_chemical_formula_sum "Si O2"
_cell_formula_units_Z 16
_cell_length_a 18.000000
_cell_length_b 15.000000
_cell_length_c 24.000000
_cell_angle_alpha 160.000000
_cell_angle_beta 20.000000
_cell_angle_gamma 150.000000
_cell_volume 749.971719
_symmetry_space_group_name_H-M "P -1"
_symmetry_group_IT_number 2
_symmetry_cell_setting 'triclinic'
loop_
_space_group_symop_operation_xyz
x,y,z
-x,-y,-z
loop_
_atom_site_type_symbol
_atom_site_label
_atom_site_fract_x
_atom_site_fract_y
_atom_site_fract_z
Si Si1 0.037443 0.632373 0.955461
Si Si2 0.500307 0.668987 0.516083
Si Si3 0.180839 0.704192 0.170356
Si Si4 0.782493 0.925520 0.974199
Si Si5 0.404186 0.118272 0.539312
Si Si6 0.647349 0.457810 0.720447
Si Si7 0.835174 0.709169 0.507555
Si Si8 0.820551 0.373307 0.431701
O O1 0.263743 0.508786 0.751977
O O2 0.997232 0.413068 0.810174
O O3 0.820906 0.676774 0.173370
O O4 0.067818 0.919654 0.079791
O O5 0.516174 0.873370 0.575223
O O6 0.320162 0.470832 0.520154
O O7 0.423762 0.860321 0.734540
O O8 0.077744 0.699739 0.303067
O O9 0.247606 0.978369 0.259065
O O10 0.403648 0.508359 0.897834
O O11 0.691485 0.681972 0.865083
O O12 0.944027 0.818267 0.849198
O O13 0.611829 0.212885 0.480919
O O14 0.345122 0.830130 0.426272
O O15 0.811227 0.477911 0.564125
O O16 0.833181 0.606582 0.513679
#
# Coordination Sequence:
#
# PCOD8038190 Si02
#       8
#     2   2   2   2   2   2   2   2
#     4  12  23  46  68  96 138 175 221 269 333 395
#     4  11  26  44  68 101 135 175 218 276 331 388
#     4  11  24  43  70  98 131 176 222 272 328 396
#     4  12  26  42  69  99 136 176 218 275 332 390
#     4  11  25  45  69  99 133 176 224 269 330 392
#     4  12  25  44  67  99 136 177 219 272 330 394
#     4  10  25  44  68 100 131 173 223 273 331 390
#     4  11  24  46  67  98 133 177 220 273 330 391
#
# _framework density 21.334137999999999
#
# number of rings (size 3 to 8) (size 9 to 14) (size 15 to 20)
#    0.000    0.750    3.750    3.000    5.250    3.000 
#    2.250    0.000    0.000    0.000    0.000    0.000 
#    0.000    0.000    0.000    0.000    0.000    0.000 
#
# Total GULP energy -198217.479385 kJ/mol
# GULP energy per Si atom -12388.592462 kJ/mol
# Density = 2.128558 g / cm^3
# Si number density = 21.334138 Si / 1000 Ang^3
#
#
#
# Elastic Constant Matrix: (Units=GPa)
#
#
# Indices 1 2 3 4 5 6 
#
# 1 80.7924 54.8347 23.6491 10.6509 -0.5133 -6.0553
# 2 54.8347 173.9925 41.6568 18.5114 6.4423 -15.8056
# 3 23.6491 41.6568 96.6833 4.9934 -11.8813 1.5095
# 4 10.6509 18.5114 4.9934 39.2175 4.8866 0.5301
# 5 -0.5133 6.4423 -11.8813 4.8866 37.1295 -0.7244
# 6 -6.0553 -15.8056 1.5095 0.5301 -0.7244 40.4227
#
#
#
# Elastic Compliance Matrix: (Units=1/GPa)
#
#
# Indices 1 2 3 4 5 6 
#
# 1 0.016269 -0.004387 -0.001905 -0.002202 0.000682 0.000834
# 2 -0.004387 0.008326 -0.002693 -0.002180 -0.002028 0.002691
# 3 -0.001905 -0.002693 0.012564 -0.000345 0.004473 -0.001723
# 4 -0.002202 -0.002180 -0.000345 0.027618 -0.003429 -0.001593
# 5 0.000682 -0.002028 0.004473 -0.003429 0.029171 -0.000290
# 6 0.000834 0.002691 -0.001723 -0.001593 -0.000290 0.025996
#
#
# Mechanical properties :
#
#
# Convention : Reuss Voigt Hill
#
# Bulk Modulus (GPa) = 52.11042 65.74991 58.93016
# Shear Modulus (GPa) = 34.64765 38.77577 36.71171
#
# Velocity S-wave (km/s) = 4.03432 4.26789 4.15275
# Velocity P-wave (km/s) = 6.79557 7.42782 7.11872
#
# Compressibility (1/GPa) = 0.01919002
#
# Stress axis : x y z
#
# Youngs Moduli (GPa) = 61.46538 120.10580 79.59414
#
# Poissons Ratio (x) = 0.52685 0.15163
# Poissons Ratio (y) = 0.26962 0.21435
# Poissons Ratio (z) = 0.11709 0.32344
#
# Static dielectric constant tensor:
#      x y z
#    x 3.841580 -0.107950 -0.064500 
#    y -0.107950 4.212040 -0.066080 
#    z -0.064500 -0.066080 3.963570 
# 
# 
# High freq. dielectric constant tensor:
#      x y z
#    x 1.830860 -0.003400 -0.005630 
#    y -0.003400 1.875550 -0.006630 
#    z -0.005630 -0.006630 1.855860 
# 
# From -- ./inp_files/189177.got.cif
#   From: 2010.06.25/outbox.ucp.g09.slc.cvg/sg2_95_cif.got.tgz:189177.got - 2010.06.28 11:54:26.
