data_PCOD8038176
_publ_section_title
;
Structure prediction by ZEFSAII (Michael W. Deem and Ramdas Pophale) SiO2 
 PCOD8038176
Probable space group: P -1
;
_chemical_formula_sum "Si O2"
_cell_formula_units_Z 14
_cell_length_a 12.675651
_cell_length_b 18.272607
_cell_length_c 15.752368
_cell_angle_alpha 150.988551
_cell_angle_beta 27.518726
_cell_angle_gamma 155.192638
_cell_volume 660.274710
_symmetry_space_group_name_H-M "P -1"
_symmetry_group_IT_number 2
_symmetry_cell_setting 'triclinic'
loop_
_space_group_symop_operation_xyz
x,y,z
-x,-y,-z
loop_
_atom_site_type_symbol
_atom_site_label
_atom_site_fract_x
_atom_site_fract_y
_atom_site_fract_z
Si Si1 0.424868 0.305431 0.145938
Si Si2 0.758962 0.154301 0.735455
Si Si3 0.402268 0.881111 0.863958
Si Si4 0.504805 0.932391 0.522451
Si Si5 0.052935 0.119927 0.889679
Si Si6 0.925908 0.797326 0.858777
Si Si7 0.408837 0.379612 0.525063
O O1 0.348513 0.339706 0.141772
O O2 0.494400 0.483570 0.326621
O O3 0.162141 0.105497 0.168734
O O4 0.706341 0.311772 0.949048
O O5 0.073719 0.224347 0.603228
O O6 0.566592 0.986543 0.767643
O O7 0.674387 0.094916 0.637229
O O8 0.421870 0.710431 0.686838
O O9 0.080427 0.812524 0.012229
O O10 0.500000 0.000000 0.000000
O O11 0.656581 0.829325 0.305650
O O12 0.182681 0.789391 0.637798
O O13 0.500000 0.000000 0.500000
O O14 0.132201 0.247756 0.046257
O O15 0.000000 0.000000 0.000000
O O16 0.500000 0.500000 0.500000
#
# Coordination Sequence:
#
# PCOD8038176 Si02
#       7
#     2   2   2   2   2   2   2
#     4  10  19  36  57  89 125 156 200 265 307 361
#     4  11  22  40  63  93 124 168 217 252 314 385
#     4  11  23  43  63  86 129 169 216 262 307 381
#     4  12  18  31  67  96 118 162 212 259 300 365
#     4  10  20  37  60  91 124 163 215 253 304 373
#     4  10  17  34  57  91 127 154 213 252 304 368
#     4  12  25  39  61  93 126 165 211 266 327 371
#
# _framework density 21.203295000000001
#
# number of rings (size 3 to 8) (size 9 to 14) (size 15 to 20)
#    0.000    1.143    7.143    4.286    0.000    0.000 
#    0.000    0.714    0.000    0.857    0.000    0.000 
#    0.000    0.000    0.000    0.000    0.000    0.000 
#
# Total GULP energy -173518.775614 kJ/mol
# GULP energy per Si atom -12394.198258 kJ/mol
# Density = 2.115504 g / cm^3
# Si number density = 21.203295 Si / 1000 Ang^3
#
#
#
# Elastic Constant Matrix: (Units=GPa)
#
#
# Indices 1 2 3 4 5 6 
#
# 1 160.5314 23.6163 81.4182 18.7924 0.3315 15.0210
# 2 23.6163 28.2406 28.5249 1.4279 -5.5505 3.1722
# 3 81.4182 28.5249 179.6054 -2.7149 -19.4355 -1.7239
# 4 18.7924 1.4279 -2.7149 35.4735 10.9629 1.2338
# 5 0.3315 -5.5505 -19.4355 10.9629 56.3713 -2.7418
# 6 15.0210 3.1722 -1.7239 1.2338 -2.7418 22.7695
#
#
#
# Elastic Compliance Matrix: (Units=1/GPa)
#
#
# Indices 1 2 3 4 5 6 
#
# 1 0.010087 -0.003357 -0.004308 -0.004937 -0.001226 -0.006393
# 2 -0.003357 0.044629 -0.005341 -0.001086 0.002587 -0.004037
# 3 -0.004308 -0.005341 0.008691 0.002311 0.002260 0.004391
# 4 -0.004937 -0.001086 0.002311 0.032713 -0.005588 0.001138
# 5 -0.001226 0.002587 0.002260 -0.005588 0.020029 0.003334
# 6 -0.006393 -0.004037 0.004391 0.001138 0.003334 0.049370
#
#
# Mechanical properties :
#
#
# Convention : Reuss Voigt Hill
#
# Bulk Modulus (GPa) = 26.74228 70.61069 48.67649
# Shear Modulus (GPa) = 24.51012 38.57738 31.54375
#
# Velocity S-wave (km/s) = 3.40363 4.27008 3.86123
# Velocity P-wave (km/s) = 5.29962 7.59509 6.54872
#
# Compressibility (1/GPa) = 0.03739396
#
# Stress axis : x y z
#
# Youngs Moduli (GPa) = 99.14027 22.40675 115.06692
#
# Poissons Ratio (x) = 0.07522 0.49571
# Poissons Ratio (y) = 0.33281 0.61462
# Poissons Ratio (z) = 0.42709 0.11968
#
# Static dielectric constant tensor:
#      x y z
#    x 4.345180 0.237640 0.021520 
#    y 0.237640 3.245890 -0.570840 
#    z 0.021520 -0.570840 1.713720 
# 
# 
# High freq. dielectric constant tensor:
#      x y z
#    x 1.859210 0.020400 0.002180 
#    y 0.020400 1.768780 -0.018300 
#    z 0.002180 -0.018300 1.851960 
# 
# From -- ./inp_files/188274.got.cif
#   From: 2010.06.25/outbox.cif.g09.slc.cpg/sg2_95_cif.got.tgz:188274.got - 2010.06.27 13:26:56.
