data_PCOD8038093
_publ_section_title
;
Structure prediction by ZEFSAII (Michael W. Deem and Ramdas Pophale) SiO2 
 PCOD8038093
Probable space group: P -1
;
_chemical_formula_sum "Si O2"
_cell_formula_units_Z 14
_cell_length_a 9.772868
_cell_length_b 14.180522
_cell_length_c 9.270957
_cell_angle_alpha 44.751523
_cell_angle_beta 94.781080
_cell_angle_gamma 68.318750
_cell_volume 713.610493
_symmetry_space_group_name_H-M "P -1"
_symmetry_group_IT_number 2
_symmetry_cell_setting 'triclinic'
loop_
_space_group_symop_operation_xyz
x,y,z
-x,-y,-z
loop_
_atom_site_type_symbol
_atom_site_label
_atom_site_fract_x
_atom_site_fract_y
_atom_site_fract_z
Si Si1 0.799978 0.600645 0.420535
Si Si2 0.756608 0.339494 0.784354
Si Si3 0.347428 0.005668 0.543596
Si Si4 0.091121 0.839310 0.283504
Si Si5 0.069573 0.026902 0.331919
Si Si6 0.235344 0.120406 0.708701
Si Si7 0.525398 0.248980 0.939921
O O1 0.767458 0.493210 0.641569
O O2 0.722599 0.775291 0.305837
O O3 0.678738 0.651416 0.214170
O O4 0.000000 0.500000 0.500000
O O5 0.764911 0.314240 0.638387
O O6 0.579323 0.372073 0.783746
O O7 0.911606 0.182558 0.059983
O O8 0.209644 0.056386 0.350972
O O9 0.254411 0.143696 0.514637
O O10 0.500000 0.000000 0.500000
O O11 0.428909 0.818552 0.817799
O O12 0.961271 0.800275 0.362226
O O13 0.163227 0.864120 0.410111
O O14 0.000000 0.000000 0.000000
O O15 0.000000 0.000000 0.500000
O O16 0.362074 0.917803 0.975041
#
# Coordination Sequence:
#
# PCOD8038093 Si02
#       7
#     2   2   2   2   2   2   2
#     4  12  25  37  61  93 131 160 194 260 327 349
#     4  11  22  38  64  93 123 162 203 256 311 360
#     4  10  22  36  64  91 119 158 215 256 294 353
#     4  10  17  33  63  92 114 155 210 249 290 366
#     4  11  18  37  64  88 117 162 209 247 299 367
#     4  10  20  39  60  92 119 159 210 252 296 367
#     4  10  22  41  62  87 125 159 218 248 290 373
#
# _framework density 19.618545000000001
#
# number of rings (size 3 to 8) (size 9 to 14) (size 15 to 20)
#    0.857    0.571    7.143    0.857    2.000    1.143 
#    0.000    0.714    3.143    1.714    0.000    0.000 
#    0.000    0.000    0.000    0.000    0.000    0.000 
#
# Total GULP energy -173435.352366 kJ/mol
# GULP energy per Si atom -12388.239455 kJ/mol
# Density = 1.957389 g / cm^3
# Si number density = 19.618545 Si / 1000 Ang^3
#
#
#
# Elastic Constant Matrix: (Units=GPa)
#
#
# Indices 1 2 3 4 5 6 
#
# 1 156.4499 36.2644 29.5852 9.5477 1.4713 2.8859
# 2 36.2644 46.9443 27.2653 18.3660 -3.5355 6.6408
# 3 29.5852 27.2653 57.7980 9.9555 6.1348 2.9119
# 4 9.5477 18.3660 9.9555 31.4743 4.7644 -4.4977
# 5 1.4713 -3.5355 6.1348 4.7644 44.3479 2.8953
# 6 2.8859 6.6408 2.9119 -4.4977 2.8953 29.5228
#
#
#
# Elastic Compliance Matrix: (Units=1/GPa)
#
#
# Indices 1 2 3 4 5 6 
#
# 1 0.008003 -0.006417 -0.001391 0.002062 -0.000885 0.001199
# 2 -0.006417 0.046959 -0.015086 -0.023978 0.009470 -0.013029
# 3 -0.001391 -0.015086 0.025172 0.002290 -0.005008 0.001887
# 4 0.002062 -0.023978 0.002290 0.047523 -0.008252 0.013016
# 5 -0.000885 0.009470 -0.005008 -0.008252 0.025258 -0.005284
# 6 0.001199 -0.013029 0.001887 0.013016 -0.005284 0.039001
#
#
# Mechanical properties :
#
#
# Convention : Reuss Voigt Hill
#
# Bulk Modulus (GPa) = 29.11585 49.71356 39.41471
# Shear Modulus (GPa) = 20.06820 32.27418 26.17119
#
# Velocity S-wave (km/s) = 3.20178 4.06037 3.65636
# Velocity P-wave (km/s) = 5.34245 6.88311 6.16113
#
# Compressibility (1/GPa) = 0.03434555
#
# Stress axis : x y z
#
# Youngs Moduli (GPa) = 124.95795 21.29540 39.72681
#
# Poissons Ratio (x) = 0.13666 0.05525
# Poissons Ratio (y) = 0.80191 0.59930
# Poissons Ratio (z) = 0.17379 0.32125
#
# Static dielectric constant tensor:
#      x y z
#    x 3.680130 0.126180 0.002400 
#    y 0.126180 3.737300 0.073440 
#    z 0.002400 0.073440 3.502840 
# 
# 
# High freq. dielectric constant tensor:
#      x y z
#    x 1.779360 0.006150 -0.002410 
#    y 0.006150 1.743160 0.006760 
#    z -0.002410 0.006760 1.744800 
# 
# From -- ./inp_files/199649.got.cif
#   From: 2010.06.25/outbox.cif.g09.slc.cpg/sg2_100_cif.got.tgz:199649.got - 2010.06.27 13:26:56.
