data_PCOD8038341
_publ_section_title
;
Structure prediction by ZEFSAII (Michael W. Deem and Ramdas Pophale) SiO2 
 PCOD8038341
Probable space group: P -1
;
_chemical_formula_sum "Si O2"
_cell_formula_units_Z 16
_cell_length_a 14.278632
_cell_length_b 9.129150
_cell_length_c 15.045742
_cell_angle_alpha 60.278737
_cell_angle_beta 40.949868
_cell_angle_gamma 39.000969
_cell_volume 788.929256
_symmetry_space_group_name_H-M "P -1"
_symmetry_group_IT_number 2
_symmetry_cell_setting 'triclinic'
loop_
_space_group_symop_operation_xyz
x,y,z
-x,-y,-z
loop_
_atom_site_type_symbol
_atom_site_label
_atom_site_fract_x
_atom_site_fract_y
_atom_site_fract_z
Si Si1 0.735803 0.331551 0.902136
Si Si2 0.674220 0.197752 0.289961
Si Si3 0.953470 0.213258 0.147184
Si Si4 0.261348 0.493937 0.456679
Si Si5 0.033194 0.739421 0.080578
Si Si6 0.166204 0.438426 0.725339
Si Si7 0.611471 0.984267 0.538677
Si Si8 0.988828 0.310021 0.580049
O O1 0.773927 0.372376 0.962536
O O2 0.838606 0.379744 0.746485
O O3 0.500000 0.500000 0.000000
O O4 0.839911 0.060958 0.901017
O O5 0.759064 0.252449 0.288926
O O6 0.464369 0.441373 0.324866
O O7 0.618231 0.061513 0.412351
O O8 0.852850 0.027010 0.140467
O O9 0.949031 0.372186 0.169563
O O10 0.922752 0.307156 0.040959
O O11 0.176418 0.554995 0.598845
O O12 0.091817 0.711068 0.446697
O O13 0.330778 0.257714 0.436960
O O14 0.961200 0.614963 0.199620
O O15 0.387822 0.197191 0.675024
O O16 0.780903 0.940084 0.489969
O O17 0.000000 0.500000 0.500000
#
# Coordination Sequence:
#
# PCOD8038341 Si02
#       8
#     2   2   2   2   2   2   2   2
#     4  11  24  42  63  89 125 157 200 255 301 356
#     4  10  17  35  57  83 111 146 202 246 286 339
#     4  11  25  36  58  90 121 155 200 244 305 351
#     4  10  19  32  62  85 115 155 196 242 296 349
#     4  11  20  40  62  83 118 158 205 241 289 369
#     4  11  21  39  60  88 122 154 197 252 297 354
#     4  10  17  35  61  87 114 152 194 252 293 347
#     4  10  20  35  59  94 116 150 208 246 292 357
#
# _framework density 20.280652
#
# number of rings (size 3 to 8) (size 9 to 14) (size 15 to 20)
#    0.000    1.500    5.000    3.375    3.500    2.000 
#    0.000    2.500    0.000    0.000    0.000    0.000 
#    0.000    0.000    0.000    0.000    0.000    0.000 
#
# Total GULP energy -198272.319221 kJ/mol
# GULP energy per Si atom -12392.019951 kJ/mol
# Density = 2.023449 g / cm^3
# Si number density = 20.280652 Si / 1000 Ang^3
#
#
#
# Elastic Constant Matrix: (Units=GPa)
#
#
# Indices 1 2 3 4 5 6 
#
# 1 145.6145 44.2416 40.2728 25.2287 -8.1164 -31.0211
# 2 44.2416 48.2905 26.7757 13.6417 -0.4910 -10.3414
# 3 40.2728 26.7757 81.2088 3.2338 -1.7571 -12.9946
# 4 25.2287 13.6417 3.2338 24.2224 -5.0727 -0.9311
# 5 -8.1164 -0.4910 -1.7571 -5.0727 42.1231 4.4967
# 6 -31.0211 -10.3414 -12.9946 -0.9311 4.4967 35.5709
#
#
#
# Elastic Compliance Matrix: (Units=1/GPa)
#
#
# Indices 1 2 3 4 5 6 
#
# 1 0.012741 -0.005792 -0.002729 -0.009270 0.000287 0.008151
# 2 -0.005792 0.034288 -0.007642 -0.012762 -0.002801 0.002146
# 3 -0.002729 -0.007642 0.016216 0.005146 0.000533 0.001390
# 4 -0.009270 -0.012762 0.005146 0.058404 0.006293 -0.009181
# 5 0.000287 -0.002801 0.000533 0.006293 0.024901 -0.003352
# 6 0.008151 0.002146 0.001390 -0.009181 -0.003352 0.036536
#
#
# Mechanical properties :
#
#
# Convention : Reuss Voigt Hill
#
# Bulk Modulus (GPa) = 32.34311 55.29933 43.82122
# Shear Modulus (GPa) = 22.15164 31.30486 26.72825
#
# Velocity S-wave (km/s) = 3.30851 3.93311 3.63425
# Velocity P-wave (km/s) = 5.52968 6.92474 6.26616
#
# Compressibility (1/GPa) = 0.03091848
#
# Stress axis : x y z
#
# Youngs Moduli (GPa) = 78.48956 29.16507 61.66810
#
# Poissons Ratio (x) = 0.16892 0.16828
# Poissons Ratio (y) = 0.45461 0.47126
# Poissons Ratio (z) = 0.21419 0.22288
#
# Static dielectric constant tensor:
#      x y z
#    x 4.310210 -0.456050 -0.292920 
#    y -0.456050 3.525640 -0.123740 
#    z -0.292920 -0.123740 3.656050 
# 
# 
# High freq. dielectric constant tensor:
#      x y z
#    x 1.805490 -0.018360 -0.016580 
#    y -0.018360 1.750730 -0.016350 
#    z -0.016580 -0.016350 1.789360 
# 
# From -- ./inp_files/263177.got.cif
#   From: 2010.06.25/outbox.cif.g09.slc.cpg/sg2_132_cif.got.tgz:263177.got - 2010.06.27 13:26:56.
