data_PCOD8038704
_publ_section_title
;
Structure prediction by ZEFSAII (Michael W. Deem and Ramdas Pophale) SiO2 
 PCOD8038704
Probable space group: P -1
;
_chemical_formula_sum "Si O2"
_cell_formula_units_Z 16
_cell_length_a 9.110218
_cell_length_b 12.289297
_cell_length_c 8.122802
_cell_angle_alpha 69.146682
_cell_angle_beta 89.338614
_cell_angle_gamma 73.998173
_cell_volume 813.109750
_symmetry_space_group_name_H-M "P -1"
_symmetry_group_IT_number 2
_symmetry_cell_setting 'triclinic'
loop_
_space_group_symop_operation_xyz
x,y,z
-x,-y,-z
loop_
_atom_site_type_symbol
_atom_site_label
_atom_site_fract_x
_atom_site_fract_y
_atom_site_fract_z
Si Si1 0.812348 0.201389 0.113140
Si Si2 0.107567 0.136330 0.946875
Si Si3 0.955305 0.370364 0.226822
Si Si4 0.412445 0.976436 0.205287
Si Si5 0.780920 0.055287 0.503218
Si Si6 0.022358 0.157960 0.568010
Si Si7 0.184862 0.359043 0.957883
Si Si8 0.489030 0.808383 0.009421
O O1 0.852631 0.314878 0.134745
O O2 0.762299 0.120521 0.294248
O O3 0.660028 0.239672 0.981847
O O4 0.953183 0.121096 0.042988
O O5 0.108034 0.122152 0.758142
O O6 0.109478 0.274165 0.898646
O O7 0.253714 0.039709 0.075595
O O8 0.858627 0.507915 0.195355
O O9 0.988387 0.298939 0.438859
O O10 0.116570 0.367929 0.139574
O O11 0.379411 0.942309 0.410184
O O12 0.513403 0.070994 0.163616
O O13 0.501457 0.852509 0.174629
O O14 0.865439 0.120609 0.596973
O O15 0.878531 0.914960 0.548024
O O16 0.368305 0.304360 0.984235
#
# Coordination Sequence:
#
# PCOD8038704 Si02
#       8
#     2   2   2   2   2   2   2   2
#     4  10  20  33  53  78 101 133 170 205 249 300
#     4  10  19  33  54  77 101 133 171 204 247 302
#     4   9  19  36  56  75  98 131 171 211 249 293
#     4  10  20  34  50  74 107 137 164 202 251 300
#     4  10  19  31  49  76 107 132 163 206 249 297
#     4  10  18  29  52  80 101 128 169 212 245 289
#     4   9  19  37  55  73 101 133 167 210 253 295
#     4  10  20  33  51  75 104 135 165 202 253 301
#
# _framework density 19.67754
#
# number of rings (size 3 to 8) (size 9 to 14) (size 15 to 20)
#    0.000    2.250    0.000    5.250    0.000    3.000 
#    0.000    3.750    0.000    6.750    0.000    0.000 
#    0.000    0.000    0.000    0.000    0.000    0.000 
#
# Total GULP energy -198317.934115 kJ/mol
# GULP energy per Si atom -12394.870882 kJ/mol
# Density = 1.963275 g / cm^3
# Si number density = 19.677540 Si / 1000 Ang^3
#
#
#
# Elastic Constant Matrix: (Units=GPa)
#
#
# Indices 1 2 3 4 5 6 
#
# 1 81.5892 15.9890 9.9882 4.2386 -7.8959 -8.9714
# 2 15.9890 83.0560 23.2450 -10.3578 -4.9359 -15.2374
# 3 9.9882 23.2450 77.7126 0.1773 -14.4109 3.5024
# 4 4.2386 -10.3578 0.1773 23.8845 -2.0973 -3.4719
# 5 -7.8959 -4.9359 -14.4109 -2.0973 30.8088 3.9808
# 6 -8.9714 -15.2374 3.5024 -3.4719 3.9808 20.4536
#
#
#
# Elastic Compliance Matrix: (Units=1/GPa)
#
#
# Indices 1 2 3 4 5 6 
#
# 1 0.013482 -0.001765 -0.001002 -0.002396 0.002028 0.003969
# 2 -0.001765 0.018300 -0.006339 0.010472 -0.001851 0.016082
# 3 -0.001002 -0.006339 0.016774 -0.003495 0.007643 -0.010115
# 4 -0.002396 0.010472 -0.003495 0.049188 0.000768 0.015549
# 5 0.002028 -0.001851 0.007643 0.000768 0.037466 -0.008959
# 6 0.003969 0.016082 -0.010115 0.015549 -0.008959 0.068728
#
#
# Mechanical properties :
#
#
# Convention : Reuss Voigt Hill
#
# Bulk Modulus (GPa) = 32.95542 37.86690 35.41116
# Shear Modulus (GPa) = 21.52704 27.90507 24.71606
#
# Velocity S-wave (km/s) = 3.31114 3.76988 3.54793
# Velocity P-wave (km/s) = 5.60378 6.18343 5.90072
#
# Compressibility (1/GPa) = 0.03034402
#
# Stress axis : x y z
#
# Youngs Moduli (GPa) = 74.17167 54.64390 59.61652
#
# Poissons Ratio (x) = 0.09645 0.05975
# Poissons Ratio (y) = 0.13092 0.37790
# Poissons Ratio (z) = 0.07434 0.34638
#
# Static dielectric constant tensor:
#      x y z
#    x 3.602240 0.029270 -0.260350 
#    y 0.029270 3.532930 0.075480 
#    z -0.260350 0.075480 3.358830 
# 
# 
# High freq. dielectric constant tensor:
#      x y z
#    x 1.763480 0.005740 -0.019780 
#    y 0.005740 1.753650 0.010210 
#    z -0.019780 0.010210 1.750030 
# 
# From -- ./inp_files/185860.got.cif
#   From: 2010.06.25/outbox.cif.g09.slc.cpg/sg2_93_cif.got.tgz:185860.got - 2010.06.27 13:26:56.
