data_PCOD8038897
_publ_section_title
;
Structure prediction by ZEFSAII (Michael W. Deem and Ramdas Pophale) SiO2 
 PCOD8038897
Probable space group: P -1
;
_chemical_formula_sum "Si O2"
_cell_formula_units_Z 16
_cell_length_a 15.308208
_cell_length_b 15.526710
_cell_length_c 9.906060
_cell_angle_alpha 46.250761
_cell_angle_beta 139.750899
_cell_angle_gamma 143.708462
_cell_volume 882.331801
_symmetry_space_group_name_H-M "P -1"
_symmetry_group_IT_number 2
_symmetry_cell_setting 'triclinic'
loop_
_space_group_symop_operation_xyz
x,y,z
-x,-y,-z
loop_
_atom_site_type_symbol
_atom_site_label
_atom_site_fract_x
_atom_site_fract_y
_atom_site_fract_z
Si Si1 0.589370 0.135380 0.858315
Si Si2 0.618879 0.712680 0.809115
Si Si3 0.434442 0.303482 0.531511
Si Si4 0.892386 0.438631 0.573397
Si Si5 0.462305 0.868124 0.505044
Si Si6 0.260832 0.356428 0.474482
Si Si7 0.259800 0.397351 0.724002
Si Si8 0.971251 0.370450 0.016507
O O1 0.539377 0.238485 0.742479
O O2 0.526447 0.081912 0.689905
O O3 0.789481 0.222228 0.001878
O O4 0.500000 0.000000 0.000000
O O5 0.674468 0.754125 0.673463
O O6 0.597837 0.832382 0.722874
O O7 0.442748 0.551347 0.774142
O O8 0.755241 0.708143 0.059405
O O9 0.303545 0.257253 0.550337
O O10 0.572308 0.478031 0.504477
O O11 0.718046 0.280878 0.507517
O O12 0.872198 0.565275 0.456891
O O13 0.000000 0.500000 0.500000
O O14 0.985328 0.416158 0.826832
O O15 0.500000 0.000000 0.500000
O O16 0.215747 0.305130 0.632630
O O17 0.108902 0.342012 0.235206
O O18 0.000000 0.500000 0.000000
#
# Coordination Sequence:
#
# PCOD8038897 Si02
#       8
#     2   2   2   2   2   2   2   2
#     4  10  21  37  56  79 108 143 182 218 264 323
#     4   8  16  30  50  71 104 137 167 214 261 303
#     4   9  18  32  51  79 107 137 175 214 264 322
#     4  10  21  33  52  82 108 135 176 216 264 319
#     4   9  19  37  54  75 106 139 176 220 259 309
#     4  10  18  31  53  80 109 135 170 220 272 316
#     4   9  16  30  47  76 107 132 166 215 262 311
#     4  11  19  36  55  80 115 140 170 227 275 304
#
# _framework density 18.133766999999999
#
# number of rings (size 3 to 8) (size 9 to 14) (size 15 to 20)
#    0.000    2.500    2.500    1.500    1.750    2.000 
#    2.250    0.625    0.000    0.750    0.000    0.000 
#    0.000    0.000    0.000    0.000    0.000    0.000 
#
# Total GULP energy -198299.999641 kJ/mol
# GULP energy per Si atom -12393.749978 kJ/mol
# Density = 1.809249 g / cm^3
# Si number density = 18.133767 Si / 1000 Ang^3
#
#
#
# Elastic Constant Matrix: (Units=GPa)
#
#
# Indices 1 2 3 4 5 6 
#
# 1 132.1494 31.6584 47.1523 1.1427 -12.6415 -15.2935
# 2 31.6584 44.0860 17.2360 -2.2593 -12.6905 -12.9920
# 3 47.1523 17.2360 102.3232 4.2749 -6.7272 -3.0559
# 4 1.1427 -2.2593 4.2749 18.0376 4.3453 -3.3603
# 5 -12.6415 -12.6905 -6.7272 4.3453 28.8945 -7.5485
# 6 -15.2935 -12.9920 -3.0559 -3.3603 -7.5485 32.0532
#
#
#
# Elastic Compliance Matrix: (Units=1/GPa)
#
#
# Indices 1 2 3 4 5 6 
#
# 1 0.010676 -0.004251 -0.003892 -0.000304 0.002897 0.003650
# 2 -0.004251 0.037354 -0.002834 0.004601 0.017768 0.017509
# 3 -0.003892 -0.002834 0.012102 -0.003344 -0.000215 -0.002253
# 4 -0.000304 0.004601 -0.003344 0.059477 -0.006223 0.006171
# 5 0.002897 0.017768 -0.000215 -0.006223 0.049690 0.019613
# 6 0.003650 0.017509 -0.002253 0.006171 0.019613 0.045088
#
#
# Mechanical properties :
#
#
# Convention : Reuss Voigt Hill
#
# Bulk Modulus (GPa) = 26.19279 52.29465 39.24372
# Shear Modulus (GPa) = 20.07491 27.96452 24.01971
#
# Velocity S-wave (km/s) = 3.33084 3.93125 3.64343
# Velocity P-wave (km/s) = 5.41001 7.03613 6.27596
#
# Compressibility (1/GPa) = 0.03817845
#
# Stress axis : x y z
#
# Youngs Moduli (GPa) = 93.66447 26.77070 82.63133
#
# Poissons Ratio (x) = 0.11381 0.32156
# Poissons Ratio (y) = 0.39819 0.23420
# Poissons Ratio (z) = 0.36450 0.07588
#
# Static dielectric constant tensor:
#      x y z
#    x 3.582740 -0.107490 -0.074700 
#    y -0.107490 2.925270 0.005210 
#    z -0.074700 0.005210 3.701480 
# 
# 
# High freq. dielectric constant tensor:
#      x y z
#    x 1.708800 -0.016780 -0.004570 
#    y -0.016780 1.659540 -0.001660 
#    z -0.004570 -0.001660 1.709500 
# 
# From -- ./inp_files/239308.got.cif
#   From: 2010.06.25/outbox.cif.g09.slc.cpg/sg2_120_cif.got.tgz:239308.got - 2010.06.27 13:26:56.
