data_PCOD8038327
_publ_section_title
;
Structure prediction by ZEFSAII (Michael W. Deem and Ramdas Pophale) SiO2 
 PCOD8038327
Probable space group: P -1
;
_chemical_formula_sum "Si O2"
_cell_formula_units_Z 16
_cell_length_a 12.249275
_cell_length_b 17.417033
_cell_length_c 11.412953
_cell_angle_alpha 148.411622
_cell_angle_beta 102.519123
_cell_angle_gamma 99.145085
_cell_volume 922.179613
_symmetry_space_group_name_H-M "P -1"
_symmetry_group_IT_number 2
_symmetry_cell_setting 'triclinic'
loop_
_space_group_symop_operation_xyz
x,y,z
-x,-y,-z
loop_
_atom_site_type_symbol
_atom_site_label
_atom_site_fract_x
_atom_site_fract_y
_atom_site_fract_z
Si Si1 0.999312 0.289271 0.666951
Si Si2 0.226053 0.745083 0.802041
Si Si3 0.364137 0.274575 0.149736
Si Si4 0.959863 0.940919 0.279767
Si Si5 0.286208 0.950273 0.851489
Si Si6 0.965181 0.312732 0.112309
Si Si7 0.455026 0.059238 0.812600
Si Si8 0.822028 0.296657 0.830186
O O1 0.923998 0.269794 0.747482
O O2 0.029458 0.141362 0.485917
O O3 0.885569 0.233401 0.464397
O O4 0.149925 0.513311 0.964448
O O5 0.115691 0.744172 0.855016
O O6 0.134389 0.528835 0.441794
O O7 0.301967 0.915590 0.943393
O O8 0.367486 0.810839 0.995976
O O9 0.500000 0.500000 0.500000
O O10 0.220663 0.230384 0.003232
O O11 0.318382 0.152971 0.103531
O O12 0.420147 0.201861 0.974940
O O13 0.000000 0.000000 0.500000
O O14 0.032449 0.856033 0.138262
O O15 0.399268 0.961170 0.803727
O O16 0.866632 0.318228 0.003848
O O17 0.356640 0.888342 0.469346
#
# Coordination Sequence:
#
# PCOD8038327 Si02
#       8
#     2   2   2   2   2   2   2   2
#     4   9  17  32  57  77 111 128 187 224 270 312
#     4  11  21  37  50  85 113 145 184 214 271 331
#     4   9  18  33  51  79 109 136 173 225 281 313
#     4  11  19  35  54  84 105 139 181 230 266 313
#     4   8  17  33  55  76 106 138 177 228 261 318
#     4  11  23  33  59  77 116 148 178 222 269 326
#     4   9  19  32  58  78 103 138 184 230 264 310
#     4  10  17  35  54  82 100 145 178 230 263 313
#
# _framework density 17.350200000000001
#
# number of rings (size 3 to 8) (size 9 to 14) (size 15 to 20)
#    0.750    1.500    3.750    1.125    0.000    0.500 
#    2.250    2.500    2.750    0.750    0.000    0.000 
#    0.000    0.000    0.000    0.000    0.000    0.000 
#
# Total GULP energy -198267.350678 kJ/mol
# GULP energy per Si atom -12391.709417 kJ/mol
# Density = 1.731071 g / cm^3
# Si number density = 17.350200 Si / 1000 Ang^3
#
#
#
# Elastic Constant Matrix: (Units=GPa)
#
#
# Indices 1 2 3 4 5 6 
#
# 1 64.8945 24.8935 36.2615 3.0489 -0.1602 -7.1749
# 2 24.8935 52.9224 34.1822 1.2751 0.1239 -7.3932
# 3 36.2615 34.1822 136.8721 9.0011 9.9834 -6.8972
# 4 3.0489 1.2751 9.0011 23.1235 -4.9914 -1.7564
# 5 -0.1602 0.1239 9.9834 -4.9914 31.4750 -0.6181
# 6 -7.1749 -7.3932 -6.8972 -1.7564 -0.6181 13.9117
#
#
#
# Elastic Compliance Matrix: (Units=1/GPa)
#
#
# Indices 1 2 3 4 5 6 
#
# 1 0.020562 -0.006588 -0.003615 -0.000245 0.001343 0.005340
# 2 -0.006588 0.026124 -0.004633 0.002284 0.001864 0.008559
# 3 -0.003615 -0.004633 0.009955 -0.003965 -0.003788 -0.000060
# 4 -0.000245 0.002284 -0.003965 0.047011 0.008810 0.005448
# 5 0.001343 0.001864 -0.003788 0.008810 0.034417 0.002447
# 6 0.005340 0.008559 -0.000060 0.005448 0.002447 0.079951
#
#
# Mechanical properties :
#
#
# Convention : Reuss Voigt Hill
#
# Bulk Modulus (GPa) = 37.08202 49.48481 43.28342
# Shear Modulus (GPa) = 19.47927 24.32549 21.90238
#
# Velocity S-wave (km/s) = 3.35432 3.74843 3.55684
# Velocity P-wave (km/s) = 6.03499 6.87876 6.47064
#
# Compressibility (1/GPa) = 0.02696725
#
# Stress axis : x y z
#
# Youngs Moduli (GPa) = 48.63331 38.27949 100.45266
#
# Poissons Ratio (x) = 0.25220 0.36313
# Poissons Ratio (y) = 0.32041 0.46544
# Poissons Ratio (z) = 0.17580 0.17737
#
# Static dielectric constant tensor:
#      x y z
#    x 2.929050 -0.130920 0.022200 
#    y -0.130920 3.019810 0.028670 
#    z 0.022200 0.028670 3.319190 
# 
# 
# High freq. dielectric constant tensor:
#      x y z
#    x 1.636160 -0.014120 0.008180 
#    y -0.014120 1.653990 0.001180 
#    z 0.008180 0.001180 1.680560 
# 
# From -- ./inp_files/345284.got.cif
#   From: 2010.06.25/outbox.cif.g09.slc.cpg/sg2_173_cif.got.tgz:345284.got - 2010.06.27 13:26:56.
