data_PCOD8038112
_publ_section_title
;
Structure prediction by ZEFSAII (Michael W. Deem and Ramdas Pophale) SiO2 
 PCOD8038112
Probable space group: P -1
;
_chemical_formula_sum "Si O2"
_cell_formula_units_Z 16
_cell_length_a 11.607323
_cell_length_b 27.006682
_cell_length_c 9.060571
_cell_angle_alpha 135.731735
_cell_angle_beta 140.352301
_cell_angle_gamma 29.792943
_cell_volume 890.136222
_symmetry_space_group_name_H-M "P -1"
_symmetry_group_IT_number 2
_symmetry_cell_setting 'triclinic'
loop_
_space_group_symop_operation_xyz
x,y,z
-x,-y,-z
loop_
_atom_site_type_symbol
_atom_site_label
_atom_site_fract_x
_atom_site_fract_y
_atom_site_fract_z
Si Si1 0.955683 0.103040 0.465059
Si Si2 0.262459 0.622530 0.152824
Si Si3 0.087274 0.198344 0.608206
Si Si4 0.258054 0.469705 0.725742
Si Si5 0.456569 0.933061 0.758179
Si Si6 0.259447 0.735435 0.169439
Si Si7 0.395137 0.918680 0.985529
Si Si8 0.868208 0.855961 0.792244
O O1 0.769613 0.191348 0.589586
O O2 0.801726 0.089138 0.184754
O O3 0.079058 0.124103 0.518600
O O4 0.181353 0.999627 0.553573
O O5 0.572570 0.551776 0.296958
O O6 0.133968 0.700779 0.053316
O O7 0.147560 0.686026 0.326004
O O8 0.194873 0.558183 0.945071
O O9 0.061493 0.199026 0.409749
O O10 0.358856 0.157992 0.831042
O O11 0.438041 0.365399 0.775313
O O12 0.000000 0.500000 0.500000
O O13 0.473641 0.881318 0.812174
O O14 0.678427 0.855232 0.691428
O O15 0.500000 0.000000 0.000000
O O16 0.128130 0.790894 0.003926
O O17 0.261637 0.031617 0.120137
#
# Coordination Sequence:
#
# PCOD8038112 Si02
#       8
#     2   2   2   2   2   2   2   2
#     4  11  20  35  55  80 106 150 190 233 262 308
#     4   8  19  36  57  83 101 133 182 220 279 320
#     4  11  22  37  54  77 119 152 180 218 267 338
#     4   9  18  35  64  83 100 126 178 237 276 321
#     4  10  17  34  53  75 108 142 190 231 258 303
#     4   9  18  35  54  84 106 133 185 226 269 318
#     4  11  22  34  57  78 112 152 196 222 264 304
#     4  11  21  36  52  80 119 153 180 220 269 318
#
# _framework density 17.974777
#
# number of rings (size 3 to 8) (size 9 to 14) (size 15 to 20)
#    0.750    1.250    5.000    1.500    1.750    0.500 
#    0.000    0.625    0.000    0.750    0.000    0.000 
#    0.000    0.000    0.000    0.000    0.000    0.000 
#
# Total GULP energy -198255.305727 kJ/mol
# GULP energy per Si atom -12390.956608 kJ/mol
# Density = 1.793387 g / cm^3
# Si number density = 17.974777 Si / 1000 Ang^3
#
#
#
# Elastic Constant Matrix: (Units=GPa)
#
#
# Indices 1 2 3 4 5 6 
#
# 1 50.4668 21.2872 48.8998 4.7147 -7.9541 -15.8848
# 2 21.2872 75.6585 32.9918 1.5955 -4.5037 -20.0713
# 3 48.8998 32.9918 95.2925 -0.7970 8.1878 -17.0065
# 4 4.7147 1.5955 -0.7970 22.6694 -5.2573 -1.6518
# 5 -7.9541 -4.5037 8.1878 -5.2573 40.3853 2.1164
# 6 -15.8848 -20.0713 -17.0065 -1.6518 2.1164 18.0474
#
#
#
# Elastic Compliance Matrix: (Units=1/GPa)
#
#
# Indices 1 2 3 4 5 6 
#
# 1 0.054033 0.003673 -0.025800 -0.007330 0.014017 0.025017
# 2 0.003673 0.020080 -0.005532 -0.000218 0.003009 0.019980
# 3 -0.025800 -0.005532 0.026088 0.004084 -0.010315 -0.002693
# 4 -0.007330 -0.000218 0.004084 0.046735 0.003736 0.000994
# 5 0.014017 0.003009 -0.010315 0.003736 0.030291 0.002754
# 6 0.025017 0.019980 -0.002693 0.000994 0.002754 0.096879
#
#
# Mechanical properties :
#
#
# Convention : Reuss Voigt Hill
#
# Bulk Modulus (GPa) = 22.27946 47.53060 34.90503
# Shear Modulus (GPa) = 14.51872 24.10301 19.31087
#
# Velocity S-wave (km/s) = 2.84514 3.66585 3.28126
# Velocity P-wave (km/s) = 4.81818 6.66471 5.81520
#
# Compressibility (1/GPa) = 0.04488439
#
# Stress axis : x y z
#
# Youngs Moduli (GPa) = 18.50737 49.80092 38.33145
#
# Poissons Ratio (x) = -0.18294 0.98895
# Poissons Ratio (y) = -0.06799 0.21204
# Poissons Ratio (z) = 0.47749 0.27548
#
# Static dielectric constant tensor:
#      x y z
#    x 3.419320 -0.115820 0.070810 
#    y -0.115820 3.340240 0.011870 
#    z 0.070810 0.011870 3.118910 
# 
# 
# High freq. dielectric constant tensor:
#      x y z
#    x 1.673230 -0.011640 0.011190 
#    y -0.011640 1.685750 0.000960 
#    z 0.011190 0.000960 1.680390 
# 
# From -- ./inp_files/285586.got.cif
#   From: 2010.06.25/outbox.cif.g09.slc.cpg/sg2_143_cif.got.tgz:285586.got - 2010.06.27 13:26:56.
