data_PCOD8038610
_publ_section_title
;
Structure prediction by ZEFSAII (Michael W. Deem and Ramdas Pophale) SiO2 
 PCOD8038610
Probable space group: P -1
;
_chemical_formula_sum "Si O2"
_cell_formula_units_Z 16
_cell_length_a 18.357542
_cell_length_b 9.109579
_cell_length_c 9.083725
_cell_angle_alpha 52.650053
_cell_angle_beta 135.556087
_cell_angle_gamma 134.406780
_cell_volume 742.249825
_symmetry_space_group_name_H-M "P -1"
_symmetry_group_IT_number 2
_symmetry_cell_setting 'triclinic'
loop_
_space_group_symop_operation_xyz
x,y,z
-x,-y,-z
loop_
_atom_site_type_symbol
_atom_site_label
_atom_site_fract_x
_atom_site_fract_y
_atom_site_fract_z
Si Si1 0.485468 0.291955 0.687317
Si Si2 0.464885 0.769507 0.643389
Si Si3 0.680815 0.122498 0.451718
Si Si4 0.875285 0.989334 0.351238
Si Si5 0.875668 0.341000 0.349817
Si Si6 0.695941 0.642651 0.492521
Si Si7 0.740041 0.562168 0.925262
Si Si8 0.277248 0.111143 0.090690
O O1 0.500000 0.500000 0.500000
O O2 0.389137 0.247287 0.704396
O O3 0.614677 0.346820 0.899812
O O4 0.433976 0.095135 0.625197
O O5 0.377307 0.726313 0.684514
O O6 0.384359 0.603810 0.504915
O O7 0.586858 0.760165 0.854881
O O8 0.500000 0.000000 0.500000
O O9 0.780074 0.223241 0.410688
O O10 0.738447 0.073708 0.707761
O O11 0.798129 0.759766 0.450907
O O12 0.887548 0.174368 0.363840
O O13 0.815137 0.002257 0.104828
O O14 0.000000 0.000000 0.500000
O O15 0.000000 0.500000 0.500000
O O16 0.839449 0.490329 0.114637
O O17 0.751154 0.672390 0.717056
O O18 0.757111 0.727496 0.976797
#
# Coordination Sequence:
#
# PCOD8038610 Si02
#       8
#     2   2   2   2   2   2   2   2
#     4  10  17  39  70 100 129 169 210 256 324 412
#     4  10  22  37  69 108 138 166 210 269 328 397
#     4  11  23  43  69  98 139 173 211 266 332 394
#     4  12  29  47  66  94 130 174 231 277 317 384
#     4  12  29  48  65  94 129 176 232 275 316 387
#     4  11  22  44  70  97 138 175 212 261 335 396
#     4  11  22  41  73  97 133 174 212 265 334 396
#     4  11  22  43  69 100 134 172 212 267 335 392
#
# _framework density 21.556083999999998
#
# number of rings (size 3 to 8) (size 9 to 14) (size 15 to 20)
#    0.000    1.000    5.000    3.000    8.750    3.000 
#    0.000    3.750    0.000    0.000    0.000    0.000 
#    0.000    0.000    0.000    0.000    0.000    0.000 
#
# Total GULP energy -198334.248535 kJ/mol
# GULP energy per Si atom -12395.890533 kJ/mol
# Density = 2.150702 g / cm^3
# Si number density = 21.556084 Si / 1000 Ang^3
#
#
#
# Elastic Constant Matrix: (Units=GPa)
#
#
# Indices 1 2 3 4 5 6 
#
# 1 121.3112 26.0109 38.0091 7.2279 12.2387 -20.8737
# 2 26.0109 90.2208 35.2336 21.4725 0.9450 -18.8233
# 3 38.0091 35.2336 81.2207 20.2495 11.4298 -8.4476
# 4 7.2279 21.4725 20.2495 32.9102 -3.4336 -1.0775
# 5 12.2387 0.9450 11.4298 -3.4336 37.6506 0.7015
# 6 -20.8737 -18.8233 -8.4476 -1.0775 0.7015 40.8229
#
#
#
# Elastic Compliance Matrix: (Units=1/GPa)
#
#
# Indices 1 2 3 4 5 6 
#
# 1 0.010588 -0.000675 -0.004021 0.000497 -0.002239 0.004322
# 2 -0.000675 0.015907 -0.004151 -0.007452 0.000290 0.005929
# 3 -0.004021 -0.004151 0.018810 -0.008518 -0.005072 -0.000215
# 4 0.000497 -0.007452 -0.008518 0.040919 0.006417 -0.003975
# 5 -0.002239 0.000290 -0.005072 0.006417 0.029450 -0.002397
# 6 0.004322 0.005929 -0.000215 -0.003975 -0.002397 0.029331
#
#
# Mechanical properties :
#
#
# Convention : Reuss Voigt Hill
#
# Bulk Modulus (GPa) = 36.21902 54.58445 45.40173
# Shear Modulus (GPa) = 29.08609 35.17668 32.13139
#
# Velocity S-wave (km/s) = 3.67730 4.04402 3.86501
# Velocity P-wave (km/s) = 5.90497 6.86895 6.40512
#
# Compressibility (1/GPa) = 0.02760981
#
# Stress axis : x y z
#
# Youngs Moduli (GPa) = 94.44701 62.86504 53.16426
#
# Poissons Ratio (x) = 0.04245 0.21379
# Poissons Ratio (y) = 0.06378 0.22067
# Poissons Ratio (z) = 0.37980 0.26094
#
# Static dielectric constant tensor:
#      x y z
#    x 4.663240 0.089880 0.242530 
#    y 0.089880 4.316040 0.203570 
#    z 0.242530 0.203570 3.800280 
# 
# 
# High freq. dielectric constant tensor:
#      x y z
#    x 1.864890 -0.015810 0.003140 
#    y -0.015810 1.843520 0.007930 
#    z 0.003140 0.007930 1.829720 
# 
# From -- ./inp_files/214527.got.cif
#   From: 2010.06.25/outbox.cif.g09.slc.cpg/sg2_108_cif.got.tgz:214527.got - 2010.06.27 13:26:56.
