data_PCOD8038530
_publ_section_title
;
Structure prediction by ZEFSAII (Michael W. Deem and Ramdas Pophale) SiO2 
 PCOD8038530
Probable space group: P -1
;
_chemical_formula_sum "Si O2"
_cell_formula_units_Z 16
_cell_length_a 10.865110
_cell_length_b 9.268300
_cell_length_c 11.180263
_cell_angle_alpha 89.519279
_cell_angle_beta 51.476165
_cell_angle_gamma 103.142809
_cell_volume 840.955534
_symmetry_space_group_name_H-M "P -1"
_symmetry_group_IT_number 2
_symmetry_cell_setting 'triclinic'
loop_
_space_group_symop_operation_xyz
x,y,z
-x,-y,-z
loop_
_atom_site_type_symbol
_atom_site_label
_atom_site_fract_x
_atom_site_fract_y
_atom_site_fract_z
Si Si1 0.832051 0.443363 0.272700
Si Si2 0.401857 0.264495 0.373034
Si Si3 0.562681 0.402971 0.614467
Si Si4 0.710859 0.175281 0.174040
Si Si5 0.038354 0.162359 0.528375
Si Si6 0.886967 0.371301 0.489772
Si Si7 0.993284 0.209963 0.831507
Si Si8 0.296915 0.127533 0.696352
O O1 0.644881 0.427291 0.430942
O O2 0.820144 0.327864 0.172263
O O3 0.933905 0.399352 0.320919
O O4 0.922239 0.615992 0.183571
O O5 0.482962 0.445406 0.327449
O O6 0.537860 0.195552 0.232673
O O7 0.235209 0.239376 0.396825
O O8 0.355362 0.177268 0.526758
O O9 0.696850 0.368800 0.624402
O O10 0.401736 0.259063 0.720087
O O11 0.676726 0.032686 0.285627
O O12 0.811096 0.149449 0.997694
O O13 0.979602 0.182196 0.698075
O O14 0.924229 0.220770 0.507251
O O15 0.000000 0.000000 0.500000
O O16 0.000000 0.500000 0.500000
O O17 0.104083 0.114001 0.823819
#
# Coordination Sequence:
#
# PCOD8038530 Si02
#       8
#     2   2   2   2   2   2   2   2
#     4  10  20  36  63  87 115 153 190 245 284 347
#     4  11  20  37  59  87 114 152 204 239 284 336
#     4  10  19  34  64  86 112 150 198 251 271 339
#     4  12  25  35  58  92 124 150 188 243 303 347
#     4  11  23  37  66  85 113 154 199 245 277 346
#     4  10  17  37  60  90 109 143 206 241 277 324
#     4  11  23  42  57  85 124 157 185 239 302 351
#     4  11  21  37  58  85 118 154 198 238 288 339
#
# _framework density 19.025977000000001
#
# number of rings (size 3 to 8) (size 9 to 14) (size 15 to 20)
#    0.750    0.500    6.250    2.250    5.250    0.000 
#    0.000    0.625    0.000    1.500    0.000    0.000 
#    0.000    0.000    0.000    0.000    0.000    0.000 
#
# Total GULP energy -198266.389904 kJ/mol
# GULP energy per Si atom -12391.649369 kJ/mol
# Density = 1.898267 g / cm^3
# Si number density = 19.025977 Si / 1000 Ang^3
#
#
#
# Elastic Constant Matrix: (Units=GPa)
#
#
# Indices 1 2 3 4 5 6 
#
# 1 93.1122 16.0372 27.8324 8.8581 -15.8716 -22.1793
# 2 16.0372 108.4864 11.8238 3.3100 -6.0885 -14.0602
# 3 27.8324 11.8238 65.4197 12.0133 -22.6923 -6.6151
# 4 8.8581 3.3100 12.0133 18.1605 -5.3700 -0.2783
# 5 -15.8716 -6.0885 -22.6923 -5.3700 23.0655 7.8805
# 6 -22.1793 -14.0602 -6.6151 -0.2783 7.8805 42.2013
#
#
#
# Elastic Compliance Matrix: (Units=1/GPa)
#
#
# Indices 1 2 3 4 5 6 
#
# 1 0.014246 -0.000641 -0.003580 -0.003413 0.003238 0.006085
# 2 -0.000641 0.009810 -0.001107 -0.000716 -0.000052 0.002763
# 3 -0.003580 -0.001107 0.025811 -0.008849 0.021346 -0.002249
# 4 -0.003413 -0.000716 -0.008849 0.064142 0.005035 -0.003937
# 5 0.003238 -0.000052 0.021346 0.005035 0.070511 -0.008103
# 6 0.006085 0.002763 -0.002249 -0.003937 -0.008103 0.028949
#
#
# Mechanical properties :
#
#
# Convention : Reuss Voigt Hill
#
# Bulk Modulus (GPa) = 25.50328 42.04499 33.77414
# Shear Modulus (GPa) = 21.07956 30.77379 25.92667
#
# Velocity S-wave (km/s) = 3.33218 4.02613 3.69548
# Velocity P-wave (km/s) = 5.31395 6.61511 5.99991
#
# Compressibility (1/GPa) = 0.03921065
#
# Stress axis : x y z
#
# Youngs Moduli (GPa) = 70.19299 101.93431 38.74337
#
# Poissons Ratio (x) = 0.06537 0.13869
# Poissons Ratio (y) = 0.04501 0.04290
# Poissons Ratio (z) = 0.25127 0.11288
#
# Static dielectric constant tensor:
#      x y z
#    x 4.026520 -0.168260 -0.315500 
#    y -0.168260 3.535410 0.088430 
#    z -0.315500 0.088430 3.105440 
# 
# 
# High freq. dielectric constant tensor:
#      x y z
#    x 1.747940 -0.010410 -0.015880 
#    y -0.010410 1.751780 0.002130 
#    z -0.015880 0.002130 1.691770 
# 
# From -- ./inp_files/417315.got.cif
#   From: 2010.06.25/outbox.cif.g09.slc.cpg/sg2_209_cif.got.tgz:417315.got - 2010.06.27 13:26:56.
