data_PCOD8038875
_publ_section_title
;
Structure prediction by ZEFSAII (Michael W. Deem and Ramdas Pophale) SiO2 
 PCOD8038875
Probable space group: P -1
;
_chemical_formula_sum "Si O2"
_cell_formula_units_Z 16
_cell_length_a 14.694129
_cell_length_b 11.397534
_cell_length_c 13.712607
_cell_angle_alpha 150.108707
_cell_angle_beta 41.140610
_cell_angle_gamma 137.487121
_cell_volume 727.715449
_symmetry_space_group_name_H-M "P -1"
_symmetry_group_IT_number 2
_symmetry_cell_setting 'triclinic'
loop_
_space_group_symop_operation_xyz
x,y,z
-x,-y,-z
loop_
_atom_site_type_symbol
_atom_site_label
_atom_site_fract_x
_atom_site_fract_y
_atom_site_fract_z
Si Si1 0.455722 0.422200 0.637628
Si Si2 0.449115 0.901046 0.180335
Si Si3 0.260759 0.019704 0.905453
Si Si4 0.661959 0.485086 0.863503
Si Si5 0.166992 0.319200 0.706275
Si Si6 0.396969 0.759735 0.454198
Si Si7 0.322331 0.097009 0.261392
Si Si8 0.118414 0.822158 0.063341
O O1 0.293046 0.437165 0.766547
O O2 0.502107 0.405969 0.701820
O O3 0.566207 0.644092 0.656608
O O4 0.460579 0.170779 0.402854
O O5 0.325174 0.694550 0.187144
O O6 0.604970 0.860284 0.044746
O O7 0.406198 0.904258 0.102376
O O8 0.292399 0.811706 0.660355
O O9 0.129693 0.915836 0.009617
O O10 0.235066 0.239451 0.015401
O O11 0.702185 0.376094 0.650541
O O12 0.500000 0.500000 0.000000
O O13 0.207152 0.141431 0.465111
O O14 0.032795 0.156958 0.757598
O O15 0.123503 0.542577 0.850306
O O16 0.500000 0.000000 0.500000
O O17 0.246397 0.982328 0.141594
#
# Coordination Sequence:
#
# PCOD8038875 Si02
#       8
#     2   2   2   2   2   2   2   2
#     4  10  19  34  60  87 113 144 186 239 287 324
#     4   9  18  32  53  85 116 141 184 238 285 328
#     4  10  20  33  53  80 114 147 186 232 276 337
#     4  10  18  31  51  85 112 143 179 233 283 326
#     4  10  22  39  57  81 121 152 183 231 285 339
#     4  11  18  33  55  84 111 144 182 233 286 328
#     4  11  21  37  60  87 112 147 189 237 285 329
#     4  11  23  38  56  86 114 156 190 223 281 350
#
# _framework density 21.986616000000001
#
# number of rings (size 3 to 8) (size 9 to 14) (size 15 to 20)
#    0.000    1.750    3.750    4.875    0.000    4.000 
#    0.000    0.000    0.000    3.750    3.250    0.000 
#    0.000    0.000    0.000    0.000    0.000    0.000 
#
# Total GULP energy -198283.521425 kJ/mol
# GULP energy per Si atom -12392.720089 kJ/mol
# Density = 2.193657 g / cm^3
# Si number density = 21.986616 Si / 1000 Ang^3
#
#
#
# Elastic Constant Matrix: (Units=GPa)
#
#
# Indices 1 2 3 4 5 6 
#
# 1 44.4944 29.6677 0.6609 -0.1845 0.3846 -14.0411
# 2 29.6677 148.4534 14.5515 -1.6684 -10.5796 -26.0126
# 3 0.6609 14.5515 36.9829 -8.0006 12.5865 -2.5022
# 4 -0.1845 -1.6684 -8.0006 27.9474 -5.7222 -3.8563
# 5 0.3846 -10.5796 12.5865 -5.7222 25.0744 1.5380
# 6 -14.0411 -26.0126 -2.5022 -3.8563 1.5380 38.0405
#
#
#
# Elastic Compliance Matrix: (Units=1/GPa)
#
#
# Indices 1 2 3 4 5 6 
#
# 1 0.028174 -0.005005 0.003791 0.001055 -0.004668 0.007522
# 2 -0.005005 0.009485 -0.005476 0.000920 0.006786 0.004097
# 3 0.003791 -0.005476 0.037367 0.006575 -0.019722 0.001577
# 4 0.001055 0.000920 0.006575 0.039635 0.005796 0.005235
# 5 -0.004668 0.006786 -0.019722 0.005796 0.054037 0.000023
# 6 0.007522 0.004097 0.001577 0.005235 0.000023 0.032499
#
#
# Mechanical properties :
#
#
# Convention : Reuss Voigt Hill
#
# Bulk Modulus (GPa) = 16.22117 35.52121 25.87119
# Shear Modulus (GPa) = 21.26526 30.54917 25.90722
#
# Velocity S-wave (km/s) = 3.11334 3.73157 3.43639
# Velocity P-wave (km/s) = 4.50751 5.89551 5.24760
#
# Compressibility (1/GPa) = 0.06164782
#
# Stress axis : x y z
#
# Youngs Moduli (GPa) = 35.49383 105.43003 26.76132
#
# Poissons Ratio (x) = 0.52766 -0.10146
# Poissons Ratio (y) = 0.17764 0.14654
# Poissons Ratio (z) = -0.13457 0.57731
#
# Static dielectric constant tensor:
#      x y z
#    x 4.224450 -0.432460 0.049520 
#    y -0.432460 4.275150 0.268660 
#    z 0.049520 0.268660 4.303870 
# 
# 
# High freq. dielectric constant tensor:
#      x y z
#    x 1.822030 -0.034380 0.013070 
#    y -0.034380 1.868240 0.012710 
#    z 0.013070 0.012710 1.871720 
# 
# From -- ./inp_files/538090.got.cif
#   From: 2010.06.25/outbox.cif.g09.slc.cpg/sg2_270_cif.got.tgz:538090.got - 2010.06.27 13:26:56.
