data_PCOD8038660
_publ_section_title
;
Structure prediction by ZEFSAII (Michael W. Deem and Ramdas Pophale) SiO2 
 PCOD8038660
Probable space group: P -1
;
_chemical_formula_sum "Si O2"
_cell_formula_units_Z 16
_cell_length_a 12.208259
_cell_length_b 12.425952
_cell_length_c 18.311241
_cell_angle_alpha 152.497439
_cell_angle_beta 63.563489
_cell_angle_gamma 129.904089
_cell_volume 921.977953
_symmetry_space_group_name_H-M "P -1"
_symmetry_group_IT_number 2
_symmetry_cell_setting 'triclinic'
loop_
_space_group_symop_operation_xyz
x,y,z
-x,-y,-z
loop_
_atom_site_type_symbol
_atom_site_label
_atom_site_fract_x
_atom_site_fract_y
_atom_site_fract_z
Si Si1 0.385316 0.236050 0.636744
Si Si2 0.822174 0.193509 0.177930
Si Si3 0.835490 0.445600 0.710841
Si Si4 0.283931 0.317942 0.004360
Si Si5 0.468570 0.487968 0.383135
Si Si6 0.599026 0.483370 0.061562
Si Si7 0.547126 0.178931 0.281767
Si Si8 0.718748 0.684575 0.796216
O O1 0.389606 0.332424 0.608890
O O2 0.326230 0.356383 0.786679
O O3 0.562292 0.396231 0.702660
O O4 0.283326 0.894509 0.470357
O O5 0.721929 0.311637 0.291169
O O6 0.995598 0.468140 0.277609
O O7 0.812889 0.020095 0.148216
O O8 0.756201 0.974954 0.996775
O O9 0.791253 0.538888 0.852055
O O10 0.841534 0.627476 0.748000
O O11 0.455988 0.482288 0.081250
O O12 0.275765 0.341801 0.933962
O O13 0.481990 0.264117 0.287901
O O14 0.465848 0.706094 0.568078
O O15 0.306664 0.304004 0.276070
O O16 0.555131 0.164823 0.889320
#
# Coordination Sequence:
#
# PCOD8038660 Si02
#       8
#     2   2   2   2   2   2   2   2
#     4  10  19  32  50  82  96 137 171 214 247 289
#     4  10  20  34  51  76 109 142 162 200 260 316
#     4  11  19  32  52  76 113 138 162 200 260 314
#     4   9  17  30  48  75 101 137 164 204 252 298
#     4   9  20  32  58  74 100 127 179 223 249 288
#     4  10  18  28  52  74 103 125 173 215 247 290
#     4  10  18  36  51  80  99 132 171 219 259 292
#     4   9  18  33  52  77 100 135 172 207 246 296
#
# _framework density 17.353994
#
# number of rings (size 3 to 8) (size 9 to 14) (size 15 to 20)
#    0.750    1.500    3.750    2.625    0.000    4.000 
#    0.000    4.375    0.000    0.000    0.000    7.875 
#    0.000    0.000    0.000    0.000    0.000    0.000 
#
# Total GULP energy -198214.956456 kJ/mol
# GULP energy per Si atom -12388.434779 kJ/mol
# Density = 1.731450 g / cm^3
# Si number density = 17.353994 Si / 1000 Ang^3
#
#
#
# Elastic Constant Matrix: (Units=GPa)
#
#
# Indices 1 2 3 4 5 6 
#
# 1 64.5480 47.6401 44.2690 -12.2104 2.4083 -10.6203
# 2 47.6401 67.3990 37.6367 -27.4076 -0.0076 -16.2335
# 3 44.2690 37.6367 80.8503 -16.8585 -3.4802 -8.2204
# 4 -12.2104 -27.4076 -16.8585 20.6741 -1.8673 11.4394
# 5 2.4083 -0.0076 -3.4802 -1.8673 18.8055 -0.0683
# 6 -10.6203 -16.2335 -8.2204 11.4394 -0.0683 29.2873
#
#
#
# Elastic Compliance Matrix: (Units=1/GPa)
#
#
# Indices 1 2 3 4 5 6 
#
# 1 0.056828 -0.049058 -0.019232 -0.053531 -0.016140 0.008888
# 2 -0.049058 0.078826 0.008451 0.087055 0.016502 -0.005690
# 3 -0.019232 0.008451 0.023555 0.022280 0.009022 -0.004359
# 4 -0.053531 0.087055 0.022280 0.170162 0.027796 -0.031304
# 5 -0.016140 0.016502 0.009022 0.027796 0.059661 -0.004891
# 6 0.008888 -0.005690 -0.004359 -0.031304 -0.004891 0.045205
#
#
# Mechanical properties :
#
#
# Convention : Reuss Voigt Hill
#
# Bulk Modulus (GPa) = 25.29579 52.43208 38.86394
# Shear Modulus (GPa) = 8.81690 19.30348 14.06019
#
# Velocity S-wave (km/s) = 2.25647 3.33879 2.84949
# Velocity P-wave (km/s) = 4.62567 6.71880 5.76797
#
# Compressibility (1/GPa) = 0.03953226
#
# Stress axis : x y z
#
# Youngs Moduli (GPa) = 17.59697 12.68621 42.45293
#
# Poissons Ratio (x) = 0.62236 0.81644
# Poissons Ratio (y) = 0.86327 -0.35878
# Poissons Ratio (z) = 0.33842 -0.10721
#
# Static dielectric constant tensor:
#      x y z
#    x 2.980820 -0.100120 0.021130 
#    y -0.100120 3.320150 -0.211910 
#    z 0.021130 -0.211910 3.126960 
# 
# 
# High freq. dielectric constant tensor:
#      x y z
#    x 1.637210 -0.011160 -0.000260 
#    y -0.011160 1.663200 -0.013580 
#    z -0.000260 -0.013580 1.668500 
# 
# From -- ./inp_files/576999.got.cif
#   From: 2010.06.25/outbox.cif.g09.slc.cpg/sg2_289_cif.got.tgz:576999.got - 2010.06.27 13:26:56.
