data_PCOD8038900
_publ_section_title
;
Structure prediction by ZEFSAII (Michael W. Deem and Ramdas Pophale) SiO2 
 PCOD8038900
Probable space group: P -1
;
_chemical_formula_sum "Si O2"
_cell_formula_units_Z 16
_cell_length_a 12.119906
_cell_length_b 25.741863
_cell_length_c 19.739940
_cell_angle_alpha 17.257902
_cell_angle_beta 26.829852
_cell_angle_gamma 28.218983
_cell_volume 805.117674
_symmetry_space_group_name_H-M "P -1"
_symmetry_group_IT_number 2
_symmetry_cell_setting 'triclinic'
loop_
_space_group_symop_operation_xyz
x,y,z
-x,-y,-z
loop_
_atom_site_type_symbol
_atom_site_label
_atom_site_fract_x
_atom_site_fract_y
_atom_site_fract_z
Si Si1 0.180977 0.131702 0.074057
Si Si2 0.671060 0.855301 0.177272
Si Si3 0.323220 0.966313 0.548739
Si Si4 0.277449 0.522525 0.336290
Si Si5 0.852578 0.450288 0.915877
Si Si6 0.034830 0.155314 0.839332
Si Si7 0.578565 0.707461 0.843532
Si Si8 0.603577 0.709822 0.618749
O O1 0.945884 0.039430 0.327368
O O2 0.425677 0.012469 0.122033
O O3 0.211222 0.157263 0.945858
O O4 0.122328 0.320484 0.913918
O O5 0.585773 0.665946 0.471012
O O6 0.870408 0.905052 0.060917
O O7 0.374990 0.838499 0.745601
O O8 0.552935 0.892259 0.463902
O O9 0.319102 0.173914 0.304904
O O10 0.000000 0.500000 0.500000
O O11 0.229829 0.697841 0.194021
O O12 0.437211 0.563088 0.133712
O O13 0.829348 0.606606 0.790445
O O14 0.767007 0.538080 0.781046
O O15 0.666869 0.331122 0.195342
O O16 0.253184 0.253796 0.572155
O O17 0.000000 0.000000 0.000000
#
# Coordination Sequence:
#
# PCOD8038900 Si02
#       8
#     2   2   2   2   2   2   2   2
#     4  10  20  38  55  75 103 143 181 210 260 318
#     4  10  22  37  56  76 104 140 179 214 258 325
#     4   9  18  32  53  77 109 141 169 217 262 308
#     4  10  19  33  54  79 108 140 174 217 263 309
#     4   9  17  31  54  76 102 135 175 221 250 299
#     4  11  21  34  55  81 107 133 168 221 269 304
#     4  10  18  31  53  83 107 134 180 220 261 301
#     4   9  17  30  49  78 103 130 175 213 256 306
#
# _framework density 19.872871
#
# number of rings (size 3 to 8) (size 9 to 14) (size 15 to 20)
#    0.000    2.250    0.000    5.250    0.000    2.000 
#    0.000    7.500    0.000    3.750    0.000    0.000 
#    0.000    0.000    0.000    0.000    0.000    0.000 
#
# Total GULP energy -198213.284370 kJ/mol
# GULP energy per Si atom -12388.330273 kJ/mol
# Density = 1.982764 g / cm^3
# Si number density = 19.872871 Si / 1000 Ang^3
#
#
#
# Elastic Constant Matrix: (Units=GPa)
#
#
# Indices 1 2 3 4 5 6 
#
# 1 53.9256 32.0430 17.3627 -12.4446 2.7231 6.3297
# 2 32.0430 149.2595 29.6045 -20.2762 6.5368 6.2248
# 3 17.3627 29.6045 64.7330 -6.9476 10.2049 -0.6742
# 4 -12.4446 -20.2762 -6.9476 35.3930 9.8568 -2.4170
# 5 2.7231 6.5368 10.2049 9.8568 23.2109 -1.7896
# 6 6.3297 6.2248 -0.6742 -2.4170 -1.7896 23.1040
#
#
#
# Elastic Compliance Matrix: (Units=1/GPa)
#
#
# Indices 1 2 3 4 5 6 
#
# 1 0.023927 -0.003129 -0.003814 0.006451 -0.003406 -0.005413
# 2 -0.003129 0.008542 -0.002182 0.004088 -0.002916 -0.001306
# 3 -0.003814 -0.002182 0.019299 0.003803 -0.008891 0.001905
# 4 0.006451 0.004088 0.003803 0.039238 -0.020260 -0.000222
# 5 -0.003406 -0.002916 -0.008891 -0.020260 0.057107 0.003763
# 6 -0.005413 -0.001306 0.001905 -0.000222 0.003763 0.045441
#
#
# Mechanical properties :
#
#
# Convention : Reuss Voigt Hill
#
# Bulk Modulus (GPa) = 29.83545 47.32650 38.58098
# Shear Modulus (GPa) = 22.42385 28.93544 25.67965
#
# Velocity S-wave (km/s) = 3.36276 3.81993 3.59861
# Velocity P-wave (km/s) = 5.48847 6.58196 6.05993
#
# Compressibility (1/GPa) = 0.03351718
#
# Stress axis : x y z
#
# Youngs Moduli (GPa) = 41.79319 117.07143 51.81665
#
# Poissons Ratio (x) = 0.36632 0.19762
# Poissons Ratio (y) = 0.13077 0.11309
# Poissons Ratio (z) = 0.15939 0.25550
#
# Static dielectric constant tensor:
#      x y z
#    x 3.225220 0.389890 0.013760 
#    y 0.389890 4.167430 -0.298550 
#    z 0.013760 -0.298550 3.675800 
# 
# 
# High freq. dielectric constant tensor:
#      x y z
#    x 1.722910 0.035880 0.003130 
#    y 0.035880 1.798760 -0.007440 
#    z 0.003130 -0.007440 1.769350 
# 
# From -- ./inp_files/392509.got.cif
#   From: 2010.06.25/outbox.cif.g09.slc.cpg/sg2_197_cif.got.tgz:392509.got - 2010.06.27 13:26:56.
