data_PCOD8038726
_publ_section_title
;
Structure prediction by ZEFSAII (Michael W. Deem and Ramdas Pophale) SiO2 
 PCOD8038726
Probable space group: P -1
;
_chemical_formula_sum "Si O2"
_cell_formula_units_Z 14
_cell_length_a 13.896898
_cell_length_b 5.160772
_cell_length_c 15.750788
_cell_angle_alpha 105.164820
_cell_angle_beta 131.086273
_cell_angle_gamma 74.545631
_cell_volume 814.803616
_symmetry_space_group_name_H-M "P -1"
_symmetry_group_IT_number 2
_symmetry_cell_setting 'triclinic'
loop_
_space_group_symop_operation_xyz
x,y,z
-x,-y,-z
loop_
_atom_site_type_symbol
_atom_site_label
_atom_site_fract_x
_atom_site_fract_y
_atom_site_fract_z
Si Si1 0.440856 0.087512 0.278217
Si Si2 0.086734 0.640670 0.447907
Si Si3 0.493474 0.171054 0.880597
Si Si4 0.398162 0.665154 0.348985
Si Si5 0.654576 0.345033 0.498640
Si Si6 0.074238 0.819595 0.645228
Si Si7 0.647323 0.251238 0.140212
O O1 0.434585 0.956037 0.171335
O O2 0.370951 0.910266 0.288868
O O3 0.361968 0.389873 0.259760
O O4 0.590308 0.104659 0.393129
O O5 0.218038 0.593480 0.468443
O O6 0.118305 0.726898 0.568559
O O7 0.028410 0.359179 0.390966
O O8 0.987636 0.868801 0.364385
O O9 0.410106 0.454737 0.832364
O O10 0.397947 0.973936 0.844344
O O11 0.603828 0.215669 0.015495
O O12 0.550498 0.618403 0.459631
O O13 0.314725 0.733756 0.391895
O O14 0.198762 0.784034 0.774250
#
# Coordination Sequence:
#
# PCOD8038726 Si02
#       7
#     2   2   2   2   2   2   2
#     4  10  18  30  47  74  98 123 155 197 250 296
#     4  10  21  31  50  69  96 136 163 187 238 288
#     4  10  20  31  54  73  93 133 162 193 266 276
#     4   9  20  30  48  73 103 121 159 202 250 284
#     4   9  20  31  50  71 103 126 160 199 244 291
#     4  10  21  34  45  72  99 128 168 194 225 289
#     4  10  20  35  48  72 101 125 166 210 227 298
#
# _framework density 17.182053
#
# number of rings (size 3 to 8) (size 9 to 14) (size 15 to 20)
#    0.857    1.429    0.000    3.000    4.000    1.143 
#    0.000    0.000    0.000    0.000    0.000    6.000 
#    0.000    0.000    0.000    0.000    0.000    0.000 
#
# Total GULP energy -173576.765787 kJ/mol
# GULP energy per Si atom -12398.340413 kJ/mol
# Density = 1.714295 g / cm^3
# Si number density = 17.182053 Si / 1000 Ang^3
#
#
#
# Elastic Constant Matrix: (Units=GPa)
#
#
# Indices 1 2 3 4 5 6 
#
# 1 107.6704 21.2107 27.7629 4.4927 -5.2817 9.0607
# 2 21.2107 75.9658 27.8755 7.0910 0.7655 11.6840
# 3 27.7629 27.8755 49.9442 -0.0795 -3.4002 2.6106
# 4 4.4927 7.0910 -0.0795 15.9946 -6.8147 -1.0644
# 5 -5.2817 0.7655 -3.4002 -6.8147 21.5048 1.0461
# 6 9.0607 11.6840 2.6106 -1.0644 1.0461 19.2737
#
#
#
# Elastic Compliance Matrix: (Units=1/GPa)
#
#
# Indices 1 2 3 4 5 6 
#
# 1 0.011429 0.000054 -0.006062 -0.003120 0.001092 -0.004816
# 2 0.000054 0.020120 -0.011093 -0.012190 -0.005781 -0.011079
# 3 -0.006062 -0.011093 0.029740 0.009907 0.006468 0.005743
# 4 -0.003120 -0.012190 0.009907 0.080764 0.026315 0.010546
# 5 0.001092 -0.005781 0.006468 0.026315 0.056312 0.000512
# 6 -0.004816 -0.011079 0.005743 0.010546 0.000512 0.060641
#
#
# Mechanical properties :
#
#
# Convention : Reuss Voigt Hill
#
# Bulk Modulus (GPa) = 36.91999 43.03096 39.97547
# Shear Modulus (GPa) = 16.54327 21.80339 19.17333
#
# Velocity S-wave (km/s) = 3.10630 3.56612 3.34412
# Velocity P-wave (km/s) = 5.86512 6.48496 6.18282
#
# Compressibility (1/GPa) = 0.02708559
#
# Stress axis : x y z
#
# Youngs Moduli (GPa) = 87.49560 49.70292 33.62491
#
# Poissons Ratio (x) = -0.00270 0.20385
# Poissons Ratio (y) = -0.00476 0.37302
# Poissons Ratio (z) = 0.53043 0.55138
#
# Static dielectric constant tensor:
#      x y z
#    x 2.967260 0.135450 -0.166910 
#    y 0.135450 3.307900 0.047940 
#    z -0.166910 0.047940 3.002630 
# 
# 
# High freq. dielectric constant tensor:
#      x y z
#    x 1.648140 0.015740 -0.018230 
#    y 0.015740 1.676050 0.006500 
#    z -0.018230 0.006500 1.631290 
# 
# From -- ./inp_files/362317.got.cif
#   From: 2010.06.25/outbox.cif.g09.slc.cpg/sg2_182_cif.got.tgz:362317.got - 2010.06.27 13:26:56.
