data_PCOD8038512
_publ_section_title
;
Structure prediction by ZEFSAII (Michael W. Deem and Ramdas Pophale) SiO2 
 PCOD8038512
Probable space group: P -1
;
_chemical_formula_sum "Si O2"
_cell_formula_units_Z 16
_cell_length_a 14.860743
_cell_length_b 9.882939
_cell_length_c 10.233616
_cell_angle_alpha 84.715708
_cell_angle_beta 47.602304
_cell_angle_gamma 52.502957
_cell_volume 739.274180
_symmetry_space_group_name_H-M "P -1"
_symmetry_group_IT_number 2
_symmetry_cell_setting 'triclinic'
loop_
_space_group_symop_operation_xyz
x,y,z
-x,-y,-z
loop_
_atom_site_type_symbol
_atom_site_label
_atom_site_fract_x
_atom_site_fract_y
_atom_site_fract_z
Si Si1 0.273355 0.220431 0.450941
Si Si2 0.333354 0.237420 0.666799
Si Si3 0.784420 0.295324 0.911066
Si Si4 0.295554 0.165476 0.973413
Si Si5 0.819225 0.005766 0.477818
Si Si6 0.468575 0.402602 0.636312
Si Si7 0.288126 0.380733 0.183775
Si Si8 0.696523 0.105216 0.871420
O O1 0.221722 0.329925 0.631979
O O2 0.170375 0.163735 0.542492
O O3 0.202101 0.386874 0.398123
O O4 0.486364 0.016362 0.238568
O O5 0.214970 0.274228 0.900197
O O6 0.404528 0.328654 0.620083
O O7 0.500000 0.000000 0.500000
O O8 0.790213 0.404584 0.782090
O O9 0.674961 0.256133 0.968185
O O10 0.994718 0.082893 0.753539
O O11 0.687403 0.429965 0.123211
O O12 0.234889 0.330594 0.118934
O O13 0.218496 0.084268 0.103951
O O14 0.652605 0.215771 0.549745
O O15 0.816889 0.037084 0.632555
O O16 0.500000 0.500000 0.500000
O O17 0.505400 0.209033 0.996473
#
# Coordination Sequence:
#
# PCOD8038512 Si02
#       8
#     2   2   2   2   2   2   2   2
#     4  10  19  34  68  99 125 172 220 265 325 386
#     4  10  19  38  67  99 123 173 225 265 329 392
#     4  12  27  40  67 100 135 172 221 272 331 396
#     4  10  17  36  69  93 128 170 225 267 325 384
#     4  12  23  45  66  97 138 171 215 279 334 387
#     4  12  27  45  68  93 133 178 223 271 330 397
#     4  11  19  39  67  97 130 169 226 272 321 387
#     4  11  21  39  66  99 133 175 216 273 332 392
#
# _framework density 21.642851
#
# number of rings (size 3 to 8) (size 9 to 14) (size 15 to 20)
#    0.000    1.000    7.500    1.500    5.250    1.000 
#    0.000    0.625    0.000    0.000    0.000    0.000 
#    0.000    0.000    0.000    0.000    0.000    0.000 
#
# Total GULP energy -198399.592475 kJ/mol
# GULP energy per Si atom -12399.974530 kJ/mol
# Density = 2.159359 g / cm^3
# Si number density = 21.642851 Si / 1000 Ang^3
#
#
#
# Elastic Constant Matrix: (Units=GPa)
#
#
# Indices 1 2 3 4 5 6 
#
# 1 117.8849 45.0890 45.6554 -15.0279 41.8713 20.3952
# 2 45.0890 111.5783 43.5912 -35.2889 17.7707 17.8963
# 3 45.6554 43.5912 82.3689 -7.2461 15.3261 -9.9525
# 4 -15.0279 -35.2889 -7.2461 35.8876 -7.2124 6.1862
# 5 41.8713 17.7707 15.3261 -7.2124 28.4693 -3.7676
# 6 20.3952 17.8963 -9.9525 6.1862 -3.7676 39.5081
#
#
#
# Elastic Compliance Matrix: (Units=1/GPa)
#
#
# Indices 1 2 3 4 5 6 
#
# 1 0.050885 0.021399 -0.030176 0.031459 -0.071299 -0.055289
# 2 0.021399 0.034914 -0.025523 0.038371 -0.035454 -0.042681
# 3 -0.030176 -0.025523 0.038072 -0.030152 0.038146 0.045089
# 4 0.031459 0.038371 -0.030152 0.073882 -0.042795 -0.056866
# 5 -0.071299 -0.035454 0.038146 -0.042795 0.141686 0.082689
# 6 -0.055289 -0.042681 0.045089 -0.056866 0.082689 0.101334
#
#
# Mechanical properties :
#
#
# Convention : Reuss Voigt Hill
#
# Bulk Modulus (GPa) = 18.09265 64.50036 41.29650
# Shear Modulus (GPa) = 9.47333 32.60609 21.03971
#
# Velocity S-wave (km/s) = 2.09443 3.88564 3.12129
# Velocity P-wave (km/s) = 3.77182 7.07091 5.66676
#
# Compressibility (1/GPa) = 0.05527107
#
# Stress axis : x y z
#
# Youngs Moduli (GPa) = 19.65199 28.64171 26.26622
#
# Poissons Ratio (x) = -0.61291 0.79262
# Poissons Ratio (y) = -0.42054 0.67040
# Poissons Ratio (z) = 0.59302 0.73103
#
# Static dielectric constant tensor:
#      x y z
#    x 4.648840 -0.451710 0.645380 
#    y -0.451710 4.230270 -0.521110 
#    z 0.645380 -0.521110 4.028260 
# 
# 
# High freq. dielectric constant tensor:
#      x y z
#    x 1.849040 0.007390 0.017640 
#    y 0.007390 1.849140 -0.015220 
#    z 0.017640 -0.015220 1.839590 
# 
# From -- ./inp_files/445810.got.cif
#   From: 2010.06.25/outbox.cif.g09.slc.cpg/sg2_223_cif.got.tgz:445810.got - 2010.06.27 13:26:56.
