data_PCOD8038554
_publ_section_title
;
Structure prediction by ZEFSAII (Michael W. Deem and Ramdas Pophale) SiO2 
 PCOD8038554
Probable space group: P -1
;
_chemical_formula_sum "Si O2"
_cell_formula_units_Z 14
_cell_length_a 9.003294
_cell_length_b 8.477337
_cell_length_c 26.110531
_cell_angle_alpha 41.252058
_cell_angle_beta 139.950400
_cell_angle_gamma 110.589963
_cell_volume 718.284353
_symmetry_space_group_name_H-M "P -1"
_symmetry_group_IT_number 2
_symmetry_cell_setting 'triclinic'
loop_
_space_group_symop_operation_xyz
x,y,z
-x,-y,-z
loop_
_atom_site_type_symbol
_atom_site_label
_atom_site_fract_x
_atom_site_fract_y
_atom_site_fract_z
Si Si1 0.985876 0.742684 0.806652
Si Si2 0.647624 0.284944 0.636535
Si Si3 0.508229 0.601152 0.617358
Si Si4 0.471811 0.326967 0.868082
Si Si5 0.800422 0.330286 0.864213
Si Si6 0.757878 0.038733 0.114138
Si Si7 0.915284 0.792800 0.657178
O O1 0.248728 0.740231 0.899888
O O2 0.995624 0.454500 0.888616
O O3 0.979841 0.810532 0.729053
O O4 0.710549 0.983031 0.705426
O O5 0.500000 0.500000 0.500000
O O6 0.473925 0.404580 0.614220
O O7 0.941060 0.240585 0.738718
O O8 0.622390 0.428241 0.741810
O O9 0.711221 0.682638 0.625716
O O10 0.221540 0.892928 0.479768
O O11 0.590443 0.436670 0.829694
O O12 0.189442 0.589544 0.748686
O O13 0.443382 0.072046 0.899734
O O14 0.688172 0.193990 0.003355
O O15 0.000000 0.000000 0.000000
#
# Coordination Sequence:
#
# PCOD8038554 Si02
#       7
#     2   2   2   2   2   2   2
#     4   9  21  38  61  91 115 156 205 242 298 359
#     4  10  17  37  64  90 113 152 209 247 285 346
#     4  10  19  37  60  87 119 160 202 241 295 368
#     4  11  22  39  59  90 126 156 197 253 305 350
#     4  11  25  40  58  89 125 161 197 246 311 359
#     4   9  21  37  62  87 118 158 205 247 290 354
#     4  10  19  35  63  87 114 160 205 243 294 358
#
# _framework density 19.490887000000001
#
# number of rings (size 3 to 8) (size 9 to 14) (size 15 to 20)
#    0.857    1.143    2.857    0.857    6.000    1.714 
#    0.000    0.000    0.000    2.571    0.000    0.000 
#    0.000    0.000    0.000    0.000    0.000    0.000 
#
# Total GULP energy -173433.135645 kJ/mol
# GULP energy per Si atom -12388.081117 kJ/mol
# Density = 1.944653 g / cm^3
# Si number density = 19.490887 Si / 1000 Ang^3
#
#
#
# Elastic Constant Matrix: (Units=GPa)
#
#
# Indices 1 2 3 4 5 6 
#
# 1 66.6815 29.3802 43.1167 2.6332 -0.7994 -18.8106
# 2 29.3802 117.1660 46.0875 -0.7343 -6.5959 -13.2831
# 3 43.1167 46.0875 141.3478 0.8192 -6.3236 -8.2331
# 4 2.6332 -0.7343 0.8192 27.3515 -3.3736 2.2175
# 5 -0.7994 -6.5959 -6.3236 -3.3736 28.5157 -1.1902
# 6 -18.8106 -13.2831 -8.2331 2.2175 -1.1902 23.5903
#
#
#
# Elastic Compliance Matrix: (Units=1/GPa)
#
#
# Indices 1 2 3 4 5 6 
#
# 1 0.024518 -0.002021 -0.005864 -0.003692 -0.000821 0.016671
# 2 -0.002021 0.010552 -0.002533 0.000520 0.002030 0.003500
# 3 -0.005864 -0.002533 0.009586 0.000596 0.001331 -0.002746
# 4 -0.003692 0.000520 0.000596 0.037924 0.004394 -0.005786
# 5 -0.000821 0.002030 0.001331 0.004394 0.036429 0.002378
# 6 0.016671 0.003500 -0.002746 -0.005786 0.002378 0.057360
#
#
# Mechanical properties :
#
#
# Convention : Reuss Voigt Hill
#
# Bulk Modulus (GPa) = 41.98083 62.48490 52.23286
# Shear Modulus (GPa) = 24.37317 29.66557 27.01937
#
# Velocity S-wave (km/s) = 3.54006 3.90554 3.72729
# Velocity P-wave (km/s) = 6.18828 7.24333 6.73649
#
# Compressibility (1/GPa) = 0.02382040
#
# Stress axis : x y z
#
# Youngs Moduli (GPa) = 40.78679 94.76768 104.32373
#
# Poissons Ratio (x) = 0.19149 0.61179
# Poissons Ratio (y) = 0.08241 0.26421
# Poissons Ratio (z) = 0.23919 0.24000
#
# Static dielectric constant tensor:
#      x y z
#    x 3.210780 -0.161700 0.061980 
#    y -0.161700 3.795990 -0.015060 
#    z 0.061980 -0.015060 3.627190 
# 
# 
# High freq. dielectric constant tensor:
#      x y z
#    x 1.715220 -0.025980 0.005320 
#    y -0.025980 1.768460 0.000280 
#    z 0.005320 0.000280 1.771850 
# 
# From -- ./inp_files/469797.got.cif
#   From: 2010.06.25/outbox.cif.g09.slc.cpg/sg2_235_cif.got.tgz:469797.got - 2010.06.27 13:26:56.
