data_PCOD8038429
_publ_section_title
;
Structure prediction by ZEFSAII (Michael W. Deem and Ramdas Pophale) SiO2 
 PCOD8038429
Probable space group: P -1
;
_chemical_formula_sum "Si O2"
_cell_formula_units_Z 16
_cell_length_a 13.439853
_cell_length_b 12.869234
_cell_length_c 8.505030
_cell_angle_alpha 115.969148
_cell_angle_beta 56.870187
_cell_angle_gamma 71.626019
_cell_volume 749.090240
_symmetry_space_group_name_H-M "P -1"
_symmetry_group_IT_number 2
_symmetry_cell_setting 'triclinic'
loop_
_space_group_symop_operation_xyz
x,y,z
-x,-y,-z
loop_
_atom_site_type_symbol
_atom_site_label
_atom_site_fract_x
_atom_site_fract_y
_atom_site_fract_z
Si Si1 0.347167 0.675773 0.158725
Si Si2 0.074690 0.658902 0.787629
Si Si3 0.669450 0.050666 0.118893
Si Si4 0.956534 0.271101 0.506881
Si Si5 0.241788 0.977191 0.613533
Si Si6 0.459435 0.086693 0.754058
Si Si7 0.097428 0.442198 0.217509
Si Si8 0.528888 0.599293 0.631110
O O1 0.186867 0.707133 0.272980
O O2 0.258900 0.832895 0.453291
O O3 0.500000 0.500000 0.000000
O O4 0.426243 0.673789 0.932669
O O5 0.089494 0.676291 0.601803
O O6 0.266114 0.523215 0.606023
O O7 0.975209 0.606712 0.866983
O O8 0.959886 0.836047 0.099703
O O9 0.703276 0.048364 0.270585
O O10 0.539769 0.242935 0.302978
O O11 0.585648 0.981456 0.125107
O O12 0.849503 0.923465 0.778109
O O13 0.943719 0.399313 0.704442
O O14 0.370238 0.959709 0.375395
O O15 0.500000 0.000000 0.500000
O O16 0.300591 0.287009 0.986410
O O17 0.000000 0.500000 0.500000
O O18 0.500000 0.500000 0.500000
#
# Coordination Sequence:
#
# PCOD8038429 Si02
#       8
#     2   2   2   2   2   2   2   2
#     4  12  24  41  67  97 121 173 228 262 308 394
#     4  10  21  42  64  96 126 175 210 265 324 381
#     4  10  22  41  64  97 129 173 203 275 336 367
#     4  10  21  38  70  97 127 167 226 261 314 385
#     4  10  22  40  73  95 124 166 228 265 306 394
#     4  10  17  36  65  98 126 157 218 263 319 369
#     4  10  17  35  66  97 124 159 216 270 306 372
#     4  12  28  45  62  91 141 171 209 271 337 377
#
# _framework density 21.359242999999999
#
# number of rings (size 3 to 8) (size 9 to 14) (size 15 to 20)
#    0.000    1.500    6.250    1.500    3.500    2.500 
#    0.000    3.125    0.000    0.000    0.000    0.000 
#    0.000    0.000    0.000    0.000    0.000    0.000 
#
# Total GULP energy -198312.943107 kJ/mol
# GULP energy per Si atom -12394.558944 kJ/mol
# Density = 2.131063 g / cm^3
# Si number density = 21.359243 Si / 1000 Ang^3
#
#
#
# Elastic Constant Matrix: (Units=GPa)
#
#
# Indices 1 2 3 4 5 6 
#
# 1 62.1488 42.7315 36.5861 16.7500 -12.0363 24.0743
# 2 42.7315 86.2920 50.0119 24.0391 -16.1124 15.5391
# 3 36.5861 50.0119 146.4652 27.9861 -17.5467 11.5942
# 4 16.7500 24.0391 27.9861 41.6873 6.1533 0.1173
# 5 -12.0363 -16.1124 -17.5467 6.1533 45.7067 4.0367
# 6 24.0743 15.5391 11.5942 0.1173 4.0367 31.4693
#
#
#
# Elastic Compliance Matrix: (Units=1/GPa)
#
#
# Indices 1 2 3 4 5 6 
#
# 1 0.037000 -0.008271 -0.001190 -0.010707 0.010023 -0.025028
# 2 -0.008271 0.021196 -0.002670 -0.007934 0.005677 -0.003854
# 3 -0.001190 -0.002670 0.009464 -0.004798 0.003170 -0.001646
# 4 -0.010707 -0.007934 -0.004798 0.038103 -0.013959 0.015525
# 5 0.010023 0.005677 0.003170 -0.013959 0.030990 -0.015562
# 6 -0.025028 -0.003854 -0.001646 0.015525 -0.015562 0.055372
#
#
# Mechanical properties :
#
#
# Convention : Reuss Voigt Hill
#
# Bulk Modulus (GPa) = 23.04353 61.50720 42.27536
# Shear Modulus (GPa) = 21.65870 34.81110 28.23490
#
# Velocity S-wave (km/s) = 3.18782 4.04145 3.63975
# Velocity P-wave (km/s) = 4.93575 7.11595 6.12366
#
# Compressibility (1/GPa) = 0.04339614
#
# Stress axis : x y z
#
# Youngs Moduli (GPa) = 27.02697 47.17785 105.66813
#
# Poissons Ratio (x) = 0.39022 0.12577
# Poissons Ratio (y) = 0.22355 0.28217
# Poissons Ratio (z) = 0.03217 0.12598
#
# Static dielectric constant tensor:
#      x y z
#    x 1.367940 -1.953680 0.026870 
#    y -1.953680 1.545500 0.140110 
#    z 0.026870 0.140110 4.278500 
# 
# 
# High freq. dielectric constant tensor:
#      x y z
#    x 1.823210 0.033140 -0.008470 
#    y 0.033140 1.815020 0.012770 
#    z -0.008470 0.012770 1.863840 
# 
# From -- ./inp_files/307913.got.cif
#   From: 2010.06.25/outbox.cif.g09.slc.cpg/sg2_154_cif.got.tgz:307913.got - 2010.06.27 13:26:56.
