data_PCOD8038763
_publ_section_title
;
Structure prediction by ZEFSAII (Michael W. Deem and Ramdas Pophale) SiO2 
 PCOD8038763
Probable space group: P -1
;
_chemical_formula_sum "Si O2"
_cell_formula_units_Z 12
_cell_length_a 10.817257
_cell_length_b 11.024685
_cell_length_c 11.299023
_cell_angle_alpha 64.996891
_cell_angle_beta 153.674835
_cell_angle_gamma 112.989419
_cell_volume 541.331400
_symmetry_space_group_name_H-M "P -1"
_symmetry_group_IT_number 2
_symmetry_cell_setting 'triclinic'
loop_
_space_group_symop_operation_xyz
x,y,z
-x,-y,-z
loop_
_atom_site_type_symbol
_atom_site_label
_atom_site_fract_x
_atom_site_fract_y
_atom_site_fract_z
Si Si1 0.675803 0.362859 0.836972
Si Si2 0.307651 0.123460 0.313319
Si Si3 0.672107 0.100395 0.842245
Si Si4 0.459244 0.201546 0.165367
Si Si5 0.017338 0.637492 0.388815
Si Si6 0.874581 0.479246 0.718743
O O1 0.672435 0.199954 0.915094
O O2 0.841236 0.387539 0.844561
O O3 0.370434 0.418162 0.548702
O O4 0.841712 0.430765 0.060406
O O5 0.462024 0.180598 0.539674
O O6 0.330657 0.220295 0.179767
O O7 0.500000 0.000000 0.500000
O O8 0.985468 0.079588 0.072487
O O9 0.544887 0.952186 0.820792
O O10 0.773533 0.258148 0.409880
O O11 0.280609 0.293628 0.888133
O O12 0.110939 0.614520 0.344001
O O13 0.000000 0.500000 0.500000
#
# Coordination Sequence:
#
# PCOD8038763 Si02
#       6
#     2   2   2   2   2   2
#     4  10  20  35  59  86 116 148 179 229 290 356
#     4  10  18  30  51  85 122 148 172 220 294 358
#     4  11  20  33  56  89 121 147 181 230 301 356
#     4  11  21  36  57  83 114 147 192 244 287 336
#     4  12  25  41  60  80 112 158 204 244 277 326
#     4  10  21  37  56  83 115 151 191 226 278 342
#
# _framework density 22.167566000000001
#
# number of rings (size 3 to 8) (size 9 to 14) (size 15 to 20)
#    0.000    1.333    0.000    9.500    0.000    2.667 
#    0.000    0.000    0.000    6.000    0.000    0.000 
#    0.000    0.000    0.000    0.000    0.000    0.000 
#
# Total GULP energy -148756.423692 kJ/mol
# GULP energy per Si atom -12396.368641 kJ/mol
# Density = 2.211711 g / cm^3
# Si number density = 22.167566 Si / 1000 Ang^3
#
#
#
# Elastic Constant Matrix: (Units=GPa)
#
#
# Indices 1 2 3 4 5 6 
#
# 1 13.9881 5.0803 7.8202 1.0757 3.6101 -2.9371
# 2 5.0803 132.3692 56.0315 12.7402 -2.2367 -12.1280
# 3 7.8202 56.0315 144.2092 11.4375 -1.6191 4.4772
# 4 1.0757 12.7402 11.4375 38.3935 2.7260 -1.7770
# 5 3.6101 -2.2367 -1.6191 2.7260 13.6636 -2.8606
# 6 -2.9371 -12.1280 4.4772 -1.7770 -2.8606 28.1635
#
#
#
# Elastic Compliance Matrix: (Units=1/GPa)
#
#
# Indices 1 2 3 4 5 6 
#
# 1 0.081129 -0.001059 -0.004528 0.001226 -0.020993 0.006670
# 2 -0.001059 0.009876 -0.003732 -0.002115 0.002901 0.004897
# 3 -0.004528 -0.003732 0.008872 -0.001524 0.001216 -0.003462
# 4 0.001226 -0.002115 -0.001524 0.027638 -0.006246 0.000569
# 5 -0.020993 0.002901 0.001216 -0.006246 0.082023 0.006804
# 6 0.006670 0.004897 -0.003462 0.000569 0.006804 0.039589
#
#
# Mechanical properties :
#
#
# Convention : Reuss Voigt Hill
#
# Bulk Modulus (GPa) = 12.30912 47.60337 29.95624
# Shear Modulus (GPa) = 16.95813 30.81975 23.88894
#
# Velocity S-wave (km/s) = 2.76886 3.73273 3.28632
# Velocity P-wave (km/s) = 3.97328 6.33235 5.28609
#
# Compressibility (1/GPa) = 0.08124057
#
# Stress axis : x y z
#
# Youngs Moduli (GPa) = 12.32599 101.25430 112.71594
#
# Poissons Ratio (x) = 0.10719 0.51040
# Poissons Ratio (y) = 0.01305 0.42061
# Poissons Ratio (z) = 0.05581 0.37784
#
# Static dielectric constant tensor:
#      x y z
#    x 3.619280 -0.144100 -0.349290 
#    y -0.144100 4.110360 0.279520 
#    z -0.349290 0.279520 4.848990 
# 
# 
# High freq. dielectric constant tensor:
#      x y z
#    x 1.804470 -0.022510 0.006430 
#    y -0.022510 1.881830 0.009170 
#    z 0.006430 0.009170 1.902280 
# 
# From -- ./inp_files/65865.got.cif
#   From: 2010.06.25/outbox.cif.g09.slc.cpg/sg2_33_cif.got.tgz:65865.got - 2010.06.27 13:26:56.
