data_PCOD8038051
_publ_section_title
;
Structure prediction by ZEFSAII (Michael W. Deem and Ramdas Pophale) SiO2 
 PCOD8038051
Probable space group: P -1
;
_chemical_formula_sum "Si O2"
_cell_formula_units_Z 16
_cell_length_a 9.959983
_cell_length_b 11.351338
_cell_length_c 11.269701
_cell_angle_alpha 48.748479
_cell_angle_beta 114.628909
_cell_angle_gamma 98.117055
_cell_volume 853.984885
_symmetry_space_group_name_H-M "P -1"
_symmetry_group_IT_number 2
_symmetry_cell_setting 'triclinic'
loop_
_space_group_symop_operation_xyz
x,y,z
-x,-y,-z
loop_
_atom_site_type_symbol
_atom_site_label
_atom_site_fract_x
_atom_site_fract_y
_atom_site_fract_z
Si Si1 0.107008 0.724074 0.883502
Si Si2 0.690452 0.359281 0.451336
Si Si3 0.841142 0.454564 0.668844
Si Si4 0.214439 0.288231 0.116993
Si Si5 0.110929 0.901630 0.977276
Si Si6 0.224502 0.975883 0.194488
Si Si7 0.349275 0.441053 0.254672
Si Si8 0.125064 0.591943 0.735482
O O1 0.085029 0.733550 0.726842
O O2 0.955550 0.689276 0.911847
O O3 0.147143 0.880475 0.862561
O O4 0.248087 0.583993 0.050674
O O5 0.776212 0.451600 0.514907
O O6 0.676748 0.183523 0.608656
O O7 0.522120 0.458177 0.306351
O O8 0.777572 0.341676 0.371403
O O9 0.899450 0.275419 0.858888
O O10 0.708978 0.556069 0.633896
O O11 0.974874 0.552488 0.648259
O O12 0.325745 0.285605 0.273139
O O13 0.274380 0.127245 0.171406
O O14 0.222444 0.432135 0.934560
O O15 0.235828 0.969925 0.056589
O O16 0.951870 0.023450 0.847199
#
# Coordination Sequence:
#
# PCOD8038051 Si02
#       8
#     2   2   2   2   2   2   2   2
#     4   9  16  31  57  73  88 134 182 206 222 295
#     4  11  24  29  46  85 113 123 150 219 273 284
#     4  10  17  35  55  73  97 138 174 202 236 307
#     4  10  17  33  60  70  92 140 182 199 227 308
#     4   8  15  29  55  73  89 128 185 203 221 287
#     4   9  17  32  47  76 104 129 164 204 248 301
#     4  10  18  33  53  77  99 132 172 205 246 297
#     4  11  18  33  53  80  98 127 171 216 248 279
#
# _framework density 18.735693999999999
#
# number of rings (size 3 to 8) (size 9 to 14) (size 15 to 20)
#    0.000    2.250    5.000    1.500    0.000    2.500 
#    0.000    2.500    0.000    0.000    3.250    6.125 
#    0.000    0.000    0.000    0.000    0.000    0.000 
#
# Total GULP energy -198208.951203 kJ/mol
# GULP energy per Si atom -12388.059450 kJ/mol
# Density = 1.869305 g / cm^3
# Si number density = 18.735694 Si / 1000 Ang^3
#
#
#
# Elastic Constant Matrix: (Units=GPa)
#
#
# Indices 1 2 3 4 5 6 
#
# 1 59.0128 24.3706 19.9499 14.8140 8.8390 -4.4654
# 2 24.3706 138.1236 28.5058 27.2847 -4.2091 -26.7512
# 3 19.9499 28.5058 44.6471 22.4386 6.9566 -0.6382
# 4 14.8140 27.2847 22.4386 24.9806 -3.6416 -6.5489
# 5 8.8390 -4.2091 6.9566 -3.6416 20.2778 7.2629
# 6 -4.4654 -26.7512 -0.6382 -6.5489 7.2629 13.8915
#
#
#
# Elastic Compliance Matrix: (Units=1/GPa)
#
#
# Indices 1 2 3 4 5 6 
#
# 1 0.023647 0.000100 -0.002234 -0.011687 -0.015258 0.010159
# 2 0.000100 0.014823 -0.006248 -0.003736 -0.006147 0.029742
# 3 -0.002234 -0.006248 0.056001 -0.051343 -0.020229 -0.023806
# 4 -0.011687 -0.003736 -0.051343 0.107221 0.034268 0.019322
# 5 -0.015258 -0.006147 -0.020229 0.034268 0.084070 -0.045471
# 6 0.010159 0.029742 -0.023806 0.019322 -0.045471 0.164315
#
#
# Mechanical properties :
#
#
# Convention : Reuss Voigt Hill
#
# Bulk Modulus (GPa) = 12.86902 43.04845 27.95873
# Shear Modulus (GPa) = 10.14727 23.09379 16.62053
#
# Velocity S-wave (km/s) = 2.32976 3.51466 2.98166
# Velocity P-wave (km/s) = 3.75775 6.28467 5.17773
#
# Compressibility (1/GPa) = 0.07770597
#
# Stress axis : x y z
#
# Youngs Moduli (GPa) = 42.28808 67.46421 17.85693
#
# Poissons Ratio (x) = -0.00674 0.03990
# Poissons Ratio (y) = -0.00423 0.11157
# Poissons Ratio (z) = 0.09448 0.42152
#
# Static dielectric constant tensor:
#      x y z
#    x 2.973710 -0.334110 0.087080 
#    y -0.334110 4.229530 0.476310 
#    z 0.087080 0.476310 3.196230 
# 
# 
# High freq. dielectric constant tensor:
#      x y z
#    x 1.676440 -0.028460 0.016560 
#    y -0.028460 1.752700 0.034000 
#    z 0.016560 0.034000 1.702220 
# 
# From -- ./inp_files/252621.got.cif
#   From: 2010.06.25/outbox.cif.g09.slc.cpg/sg2_127_cif.got.tgz:252621.got - 2010.06.27 13:26:56.
