data_PCOD8038004
_publ_section_title
;
Structure prediction by ZEFSAII (Michael W. Deem and Ramdas Pophale) SiO2 
 PCOD8038004
Probable space group: P -1
;
_chemical_formula_sum "Si O2"
_cell_formula_units_Z 14
_cell_length_a 7.365300
_cell_length_b 13.474244
_cell_length_c 8.889953
_cell_angle_alpha 137.462660
_cell_angle_beta 91.163369
_cell_angle_gamma 101.686612
_cell_volume 564.621809
_symmetry_space_group_name_H-M "P -1"
_symmetry_group_IT_number 2
_symmetry_cell_setting 'triclinic'
loop_
_space_group_symop_operation_xyz
x,y,z
-x,-y,-z
loop_
_atom_site_type_symbol
_atom_site_label
_atom_site_fract_x
_atom_site_fract_y
_atom_site_fract_z
Si Si1 0.785632 0.399583 0.015074
Si Si2 0.309398 0.928656 0.824109
Si Si3 0.545172 0.088183 0.754092
Si Si4 0.660573 0.361656 0.641096
Si Si5 0.851599 0.691756 0.999567
Si Si6 0.092410 0.963246 0.132084
Si Si7 0.231982 0.270462 0.623167
O O1 0.591283 0.272443 0.933818
O O2 0.794458 0.390360 0.823898
O O3 0.961842 0.360043 0.041495
O O4 0.791404 0.569634 0.255550
O O5 0.270342 0.744835 0.593397
O O6 0.348500 0.023111 0.773608
O O7 0.130469 0.957059 0.943426
O O8 0.500000 0.000000 0.000000
O O9 0.725110 0.057450 0.802380
O O10 0.500000 0.000000 0.500000
O O11 0.443851 0.270974 0.583802
O O12 0.685369 0.533596 0.766194
O O13 0.796986 0.755063 0.226819
O O14 0.898394 0.826701 0.024863
O O15 0.078479 0.129385 0.373358
#
# Coordination Sequence:
#
# PCOD8038004 Si02
#       7
#     2   2   2   2   2   2   2
#     4  10  20  34  56  89 114 145 186 239 289 322
#     4  10  19  35  57  84 117 145 193 231 282 338
#     4  10  17  33  57  86 107 149 193 231 273 335
#     4  11  19  34  61  87 109 148 193 239 274 333
#     4  10  22  35  57  86 116 147 189 235 286 332
#     4  10  21  36  56  84 115 154 184 232 286 335
#     4  11  19  35  58  86 115 146 192 236 277 333
#
# _framework density 24.795359999999999
#
# number of rings (size 3 to 8) (size 9 to 14) (size 15 to 20)
#    0.000    1.714    4.286    3.857    0.000    0.571 
#    0.000    0.714    0.000    3.429    0.000    0.000 
#    0.000    0.000    0.000    0.000    0.000    0.000 
#
# Total GULP energy -173582.435969 kJ/mol
# GULP energy per Si atom -12398.745426 kJ/mol
# Density = 2.473892 g / cm^3
# Si number density = 24.795360 Si / 1000 Ang^3
#
#
#
# Elastic Constant Matrix: (Units=GPa)
#
#
# Indices 1 2 3 4 5 6 
#
# 1 45.4850 10.7356 18.8254 -2.9702 -23.2437 11.5660
# 2 10.7356 181.9824 92.1784 21.1429 -10.2543 53.2419
# 3 18.8254 92.1784 194.5700 24.6088 -25.7146 25.3968
# 4 -2.9702 21.1429 24.6088 48.2730 4.4748 2.0112
# 5 -23.2437 -10.2543 -25.7146 4.4748 39.4202 -2.1019
# 6 11.5660 53.2419 25.3968 2.0112 -2.1019 36.6828
#
#
#
# Elastic Compliance Matrix: (Units=1/GPa)
#
#
# Indices 1 2 3 4 5 6 
#
# 1 0.035943 0.003860 -0.000426 -0.000582 0.021165 -0.015395
# 2 0.003860 0.012223 -0.003278 -0.003022 0.002788 -0.016363
# 3 -0.000426 -0.003278 0.007657 -0.002885 0.004218 -0.000010
# 4 -0.000582 -0.003022 -0.002885 0.023772 -0.005446 0.004951
# 5 0.021165 0.002788 0.004218 -0.005446 0.041357 -0.010971
# 6 -0.015395 -0.016363 -0.000010 0.004951 -0.010971 0.054971
#
#
# Mechanical properties :
#
#
# Convention : Reuss Voigt Hill
#
# Bulk Modulus (GPa) = 17.81410 73.94624 45.88017
# Shear Modulus (GPa) = 25.73042 44.89507 35.31274
#
# Velocity S-wave (km/s) = 3.22485 4.25976 3.77791
# Velocity P-wave (km/s) = 4.58980 7.35401 6.12975
#
# Compressibility (1/GPa) = 0.05613532
#
# Stress axis : x y z
#
# Youngs Moduli (GPa) = 27.82196 81.81345 130.59621
#
# Poissons Ratio (x) = -0.31578 0.05561
# Poissons Ratio (y) = -0.10738 0.42805
# Poissons Ratio (z) = 0.01185 0.26816
#
# Static dielectric constant tensor:
#      x y z
#    x 3.973600 -0.319680 0.153610 
#    y -0.319680 4.259870 0.452960 
#    z 0.153610 0.452960 4.649700 
# 
# 
# High freq. dielectric constant tensor:
#      x y z
#    x 1.996340 0.013280 -0.003040 
#    y 0.013280 1.990050 0.023510 
#    z -0.003040 0.023510 1.984220 
# 
# From -- ./inp_files/171640.got.cif
#   From: 2010.06.25/outbox.cif.g09.slc.cpg/sg2_86_cif.got.tgz:171640.got - 2010.06.27 13:26:56.
