data_PCOD8038289
_publ_section_title
;
Structure prediction by ZEFSAII (Michael W. Deem and Ramdas Pophale) SiO2 
 PCOD8038289
Probable space group: P -1
;
_chemical_formula_sum "Si O2"
_cell_formula_units_Z 16
_cell_length_a 16.766316
_cell_length_b 9.250227
_cell_length_c 14.446730
_cell_angle_alpha 98.078749
_cell_angle_beta 146.067073
_cell_angle_gamma 58.980671
_cell_volume 857.511528
_symmetry_space_group_name_H-M "P -1"
_symmetry_group_IT_number 2
_symmetry_cell_setting 'triclinic'
loop_
_space_group_symop_operation_xyz
x,y,z
-x,-y,-z
loop_
_atom_site_type_symbol
_atom_site_label
_atom_site_fract_x
_atom_site_fract_y
_atom_site_fract_z
Si Si1 0.751550 0.499835 0.979676
Si Si2 0.362847 0.182662 0.667244
Si Si3 0.274214 0.124581 0.765927
Si Si4 0.176117 0.235177 0.878967
Si Si5 0.551347 0.386736 0.443891
Si Si6 0.175690 0.054103 0.388319
Si Si7 0.327021 0.801507 0.694359
Si Si8 0.238239 0.585856 0.508997
O O1 0.850270 0.588201 0.083326
O O2 0.934359 0.250718 0.152127
O O3 0.654644 0.536096 0.789561
O O4 0.574402 0.626462 0.899516
O O5 0.226355 0.241478 0.632791
O O6 0.299380 0.116525 0.518934
O O7 0.323909 0.371698 0.610600
O O8 0.604446 0.994778 0.905929
O O9 0.132154 0.279119 0.728792
O O10 0.266778 0.951676 0.734589
O O11 0.500000 0.000000 0.000000
O O12 0.993285 0.264227 0.740398
O O13 0.500000 0.500000 0.500000
O O14 0.625726 0.454123 0.448236
O O15 0.718560 0.134053 0.601170
O O16 0.199123 0.954692 0.498254
O O17 0.253858 0.686928 0.621255
#
# Coordination Sequence:
#
# PCOD8038289 Si02
#       8
#     2   2   2   2   2   2   2   2
#     4  10  17  34  63  78 107 153 186 217 277 343
#     4  10  18  35  56  85 114 151 188 227 267 323
#     4   9  17  33  56  78 115 161 196 215 259 327
#     4  11  19  34  58  83 114 152 191 232 263 318
#     4  10  23  43  60  82 112 139 178 238 290 347
#     4   9  17  34  61  81 104 149 188 211 281 348
#     4   9  19  36  49  82 120 152 184 232 268 317
#     4  10  22  34  57  84 113 140 187 237 291 313
#
# _framework density 18.658640999999999
#
# number of rings (size 3 to 8) (size 9 to 14) (size 15 to 20)
#    0.000    2.500    6.250    0.000    0.000    5.500 
#    0.000    3.750    0.000    0.000    0.000    0.000 
#    0.000    0.000    0.000    0.000    0.000    0.000 
#
# Total GULP energy -198214.040040 kJ/mol
# GULP energy per Si atom -12388.377502 kJ/mol
# Density = 1.861617 g / cm^3
# Si number density = 18.658641 Si / 1000 Ang^3
#
#
#
# Elastic Constant Matrix: (Units=GPa)
#
#
# Indices 1 2 3 4 5 6 
#
# 1 55.9503 49.9862 24.4419 11.0507 -3.1137 0.3968
# 2 49.9862 145.8506 49.5123 16.2922 -9.9113 7.8259
# 3 24.4419 49.5123 96.9055 -6.8252 8.7168 -5.1987
# 4 11.0507 16.2922 -6.8252 40.3571 6.2010 -3.4662
# 5 -3.1137 -9.9113 8.7168 6.2010 14.3934 7.1115
# 6 0.3968 7.8259 -5.1987 -3.4662 7.1115 33.4859
#
#
#
# Elastic Compliance Matrix: (Units=1/GPa)
#
#
# Indices 1 2 3 4 5 6 
#
# 1 0.027734 -0.005842 -0.005650 -0.008012 0.010258 -0.002848
# 2 -0.005842 0.016809 -0.011334 -0.012706 0.029133 -0.013121
# 3 -0.005650 -0.011334 0.023097 0.017348 -0.038533 0.016281
# 4 -0.008012 -0.012706 0.017348 0.044636 -0.050663 0.021138
# 5 0.010258 0.029133 -0.038533 -0.050663 0.162993 -0.052772
# 6 -0.002848 -0.013121 0.016281 0.021138 -0.052772 0.048886
#
#
# Mechanical properties :
#
#
# Convention : Reuss Voigt Hill
#
# Bulk Modulus (GPa) = 45.48076 60.73189 53.10633
# Shear Modulus (GPa) = 13.25774 29.29834 21.27804
#
# Velocity S-wave (km/s) = 2.66849 3.96691 3.38062
# Velocity P-wave (km/s) = 5.82431 7.32130 6.61528
#
# Compressibility (1/GPa) = 0.02198732
#
# Stress axis : x y z
#
# Youngs Moduli (GPa) = 36.05657 59.49061 43.29594
#
# Poissons Ratio (x) = 0.34756 0.24462
# Poissons Ratio (y) = 0.21065 0.49073
# Poissons Ratio (z) = 0.20372 0.67428
#
# Static dielectric constant tensor:
#      x y z
#    x 3.802870 -0.602690 0.242960 
#    y -0.602690 4.553790 0.106460 
#    z 0.242960 0.106460 3.553060 
# 
# 
# High freq. dielectric constant tensor:
#      x y z
#    x 1.667480 0.006700 0.013320 
#    y 0.006700 1.742170 0.008740 
#    z 0.013320 0.008740 1.730110 
# 
# From -- ./inp_files/214690.got.cif
#   From: 2010.06.25/outbox.cif.g09.slc.cpg/sg2_108_cif.got.tgz:214690.got - 2010.06.27 13:26:56.
