data_PCOD8038415
_publ_section_title
;
Structure prediction by ZEFSAII (Michael W. Deem and Ramdas Pophale) SiO2 
 PCOD8038415
Probable space group: P -1
;
_chemical_formula_sum "Si O2"
_cell_formula_units_Z 14
_cell_length_a 24.261916
_cell_length_b 9.623789
_cell_length_c 8.623941
_cell_angle_alpha 114.365744
_cell_angle_beta 140.009617
_cell_angle_gamma 36.016067
_cell_volume 636.421476
_symmetry_space_group_name_H-M "P -1"
_symmetry_group_IT_number 2
_symmetry_cell_setting 'triclinic'
loop_
_space_group_symop_operation_xyz
x,y,z
-x,-y,-z
loop_
_atom_site_type_symbol
_atom_site_label
_atom_site_fract_x
_atom_site_fract_y
_atom_site_fract_z
Si Si1 0.187541 0.705909 0.262172
Si Si2 0.604416 0.409555 0.822872
Si Si3 0.201052 0.323989 0.588635
Si Si4 0.328931 0.384086 0.095047
Si Si5 0.680962 0.779109 0.524650
Si Si6 0.299632 0.862602 0.541722
Si Si7 0.158426 0.156888 0.040504
O O1 0.252912 0.557468 0.168473
O O2 0.246783 0.495742 0.418747
O O3 0.254781 0.770999 0.483234
O O4 0.000000 0.000000 0.000000
O O5 0.500000 0.500000 0.500000
O O6 0.666732 0.485641 0.958617
O O7 0.491411 0.580238 0.808175
O O8 0.754613 0.072171 0.012149
O O9 0.326237 0.182141 0.657934
O O10 0.244793 0.087800 0.633507
O O11 0.214919 0.420470 0.804078
O O12 0.028016 0.584677 0.259700
O O13 0.506123 0.053309 0.348867
O O14 0.792639 0.739928 0.826934
O O15 0.209872 0.014177 0.252738
#
# Coordination Sequence:
#
# PCOD8038415 Si02
#       7
#     2   2   2   2   2   2   2
#     4  12  24  41  63  92 127 165 206 251 305 372
#     4  10  17  35  64  89 117 159 215 246 291 361
#     4  11  23  38  66  96 124 154 208 264 307 347
#     4  12  23  41  64  96 125 158 206 264 303 356
#     4  11  22  40  66  91 122 167 209 243 306 380
#     4  10  19  40  64  86 123 167 207 243 304 378
#     4  10  18  37  62  91 119 167 206 243 297 375
#
# _framework density 21.998000000000001
#
# number of rings (size 3 to 8) (size 9 to 14) (size 15 to 20)
#    0.000    1.143    7.143    4.286    0.000    0.571 
#    0.000    3.571    0.000    0.000    0.000    0.000 
#    0.000    0.000    0.000    0.000    0.000    0.000 
#
# Total GULP energy -173594.284687 kJ/mol
# GULP energy per Si atom -12399.591763 kJ/mol
# Density = 2.194793 g / cm^3
# Si number density = 21.998000 Si / 1000 Ang^3
#
#
#
# Elastic Constant Matrix: (Units=GPa)
#
#
# Indices 1 2 3 4 5 6 
#
# 1 63.2742 38.3465 14.5681 -6.1770 15.1270 21.1535
# 2 38.3465 147.7813 24.4451 -4.7386 13.8134 30.6600
# 3 14.5681 24.4451 50.5428 5.9853 19.9144 4.3391
# 4 -6.1770 -4.7386 5.9853 42.6055 -1.3380 13.6281
# 5 15.1270 13.8134 19.9144 -1.3380 18.0792 -2.9704
# 6 21.1535 30.6600 4.3391 13.6281 -2.9704 49.1632
#
#
#
# Elastic Compliance Matrix: (Units=1/GPa)
#
#
# Indices 1 2 3 4 5 6 
#
# 1 0.029020 -0.002096 0.005020 0.007266 -0.030212 -0.015462
# 2 -0.002096 0.009287 -0.002365 0.002762 -0.003462 -0.005656
# 3 0.005020 -0.002365 0.038794 -0.004643 -0.046393 -0.005625
# 4 0.007266 0.002762 -0.004643 0.029482 -0.002996 -0.012792
# 5 -0.030212 -0.003462 -0.046393 -0.002996 0.138794 0.028469
# 6 -0.015462 -0.005656 -0.005625 -0.012792 0.028469 0.036283
#
#
# Mechanical properties :
#
#
# Convention : Reuss Voigt Hill
#
# Bulk Modulus (GPa) = 12.78448 46.25752 29.52100
# Shear Modulus (GPa) = 16.30704 34.25214 25.27959
#
# Velocity S-wave (km/s) = 2.72563 3.95024 3.39363
# Velocity P-wave (km/s) = 3.96607 6.47144 5.36699
#
# Compressibility (1/GPa) = 0.07821982
#
# Stress axis : x y z
#
# Youngs Moduli (GPa) = 34.45925 107.67192 25.77698
#
# Poissons Ratio (x) = 0.22564 -0.12940
# Poissons Ratio (y) = 0.07221 0.06097
# Poissons Ratio (z) = -0.17298 0.25466
#
# Static dielectric constant tensor:
#      x y z
#    x 3.827650 0.012230 0.426120 
#    y 0.012230 4.822330 -0.177360 
#    z 0.426120 -0.177360 3.611860 
# 
# 
# High freq. dielectric constant tensor:
#      x y z
#    x 1.841570 0.005630 0.035800 
#    y 0.005630 1.895870 -0.009090 
#    z 0.035800 -0.009090 1.834290 
# 
# From -- ./inp_files/242789.got.cif
#   From: 2010.06.25/outbox.cif.g09.slc.cpg/sg2_122_cif.got.tgz:242789.got - 2010.06.27 13:26:56.
