data_PCOD8038100
_publ_section_title
;
Structure prediction by ZEFSAII (Michael W. Deem and Ramdas Pophale) SiO2 
 PCOD8038100
Probable space group: P -1
;
_chemical_formula_sum "Si O2"
_cell_formula_units_Z 14
_cell_length_a 12.284096
_cell_length_b 15.016451
_cell_length_c 12.129330
_cell_angle_alpha 142.293025
_cell_angle_beta 47.115150
_cell_angle_gamma 151.111583
_cell_volume 660.548013
_symmetry_space_group_name_H-M "P -1"
_symmetry_group_IT_number 2
_symmetry_cell_setting 'triclinic'
loop_
_space_group_symop_operation_xyz
x,y,z
-x,-y,-z
loop_
_atom_site_type_symbol
_atom_site_label
_atom_site_fract_x
_atom_site_fract_y
_atom_site_fract_z
Si Si1 0.968096 0.141329 0.704291
Si Si2 0.882789 0.065479 0.323049
Si Si3 0.844378 0.247503 0.327069
Si Si4 0.330223 0.513265 0.521279
Si Si5 0.417125 0.104709 0.437242
Si Si6 0.572472 0.391459 0.221367
Si Si7 0.122878 0.944584 0.059634
O O1 0.893135 0.083356 0.825304
O O2 0.197503 0.404713 0.802509
O O3 0.780037 0.079288 0.695565
O O4 0.000000 0.000000 0.500000
O O5 0.825173 0.103129 0.286541
O O6 0.063049 0.299871 0.489562
O O7 0.671873 0.902048 0.391053
O O8 0.973539 0.969682 0.143815
O O9 0.583902 0.094203 0.333788
O O10 0.000000 0.500000 0.500000
O O11 0.953749 0.257400 0.150344
O O12 0.427184 0.653806 0.481969
O O13 0.437946 0.437042 0.385853
O O14 0.373245 0.639334 0.726014
O O15 0.391005 0.159318 0.053962
#
# Coordination Sequence:
#
# PCOD8038100 Si02
#       7
#     2   2   2   2   2   2   2
#     4  12  19  38  71 107 133 162 216 277 334 391
#     4  11  22  44  70  93 128 179 227 260 315 399
#     4  12  28  48  63  90 140 183 219 272 329 383
#     4  10  17  33  66  97 129 167 206 263 332 379
#     4  12  22  40  69  97 131 174 212 270 334 387
#     4  10  18  34  62 104 132 157 211 274 321 390
#     4  11  24  43  70 100 129 172 224 273 323 393
#
# _framework density 21.194523
#
# number of rings (size 3 to 8) (size 9 to 14) (size 15 to 20)
#    0.000    0.857    7.143    1.714    0.000    0.571 
#    5.143    1.429    0.000    0.000    0.000    0.000 
#    0.000    0.000    0.000    0.000    0.000    0.000 
#
# Total GULP energy -173481.358883 kJ/mol
# GULP energy per Si atom -12391.525635 kJ/mol
# Density = 2.114628 g / cm^3
# Si number density = 21.194523 Si / 1000 Ang^3
#
#
#
# Elastic Constant Matrix: (Units=GPa)
#
#
# Indices 1 2 3 4 5 6 
#
# 1 133.1748 42.0035 50.3279 -10.4490 10.1373 18.1057
# 2 42.0035 123.5644 42.1625 -6.1939 -2.5004 -6.6647
# 3 50.3279 42.1625 125.8915 -6.9516 2.4514 -2.4880
# 4 -10.4490 -6.1939 -6.9516 20.6353 -3.4722 1.3577
# 5 10.1373 -2.5004 2.4514 -3.4722 17.7288 -14.4042
# 6 18.1057 -6.6647 -2.4880 1.3577 -14.4042 33.4342
#
#
#
# Elastic Compliance Matrix: (Units=1/GPa)
#
#
# Indices 1 2 3 4 5 6 
#
# 1 0.016013 -0.005567 -0.004341 0.001935 -0.026518 -0.021608
# 2 -0.005567 0.011537 -0.001597 0.001825 0.014693 0.011452
# 3 -0.004341 -0.001597 0.010285 0.001322 0.005113 0.004947
# 4 0.001935 0.001825 0.001322 0.052114 0.010738 0.001924
# 5 -0.026518 0.014693 0.005113 0.010738 0.136989 0.076252
# 6 -0.021608 0.011452 0.004947 0.001924 0.076252 0.077034
#
#
# Mechanical properties :
#
#
# Convention : Reuss Voigt Hill
#
# Bulk Modulus (GPa) = 67.45750 72.40206 69.92978
# Shear Modulus (GPa) = 15.06364 30.90212 22.98288
#
# Velocity S-wave (km/s) = 2.66885 3.82255 3.29656
# Velocity P-wave (km/s) = 6.43381 7.32922 6.89606
#
# Compressibility (1/GPa) = 0.01482415
#
# Stress axis : x y z
#
# Youngs Moduli (GPa) = 62.44774 86.67832 97.23011
#
# Poissons Ratio (x) = 0.48257 0.42207
# Poissons Ratio (y) = 0.34767 0.15530
# Poissons Ratio (z) = 0.27108 0.13844
#
# Static dielectric constant tensor:
#      x y z
#    x 4.236990 0.162500 0.165710 
#    y 0.162500 3.986930 0.201550 
#    z 0.165710 0.201550 4.390030 
# 
# 
# High freq. dielectric constant tensor:
#      x y z
#    x 1.844910 0.002000 0.013650 
#    y 0.002000 1.837640 -0.003830 
#    z 0.013650 -0.003830 1.795980 
# 
# From -- ./inp_files/181028.got.cif
#   From: 2010.06.25/outbox.cif.g09.slc.cpg/sg2_91_cif.got.tgz:181028.got - 2010.06.27 13:26:56.
