data_PCOD8038174
_publ_section_title
;
Structure prediction by ZEFSAII (Michael W. Deem and Ramdas Pophale) SiO2 
 PCOD8038174
Probable space group: P -1
;
_chemical_formula_sum "Si O2"
_cell_formula_units_Z 16
_cell_length_a 12.019321
_cell_length_b 20.688102
_cell_length_c 12.609764
_cell_angle_alpha 40.489471
_cell_angle_beta 121.805180
_cell_angle_gamma 153.799014
_cell_volume 755.481096
_symmetry_space_group_name_H-M "P -1"
_symmetry_group_IT_number 2
_symmetry_cell_setting 'triclinic'
loop_
_space_group_symop_operation_xyz
x,y,z
-x,-y,-z
loop_
_atom_site_type_symbol
_atom_site_label
_atom_site_fract_x
_atom_site_fract_y
_atom_site_fract_z
Si Si1 0.257882 0.722108 0.196216
Si Si2 0.772340 0.800489 0.348077
Si Si3 0.829906 0.278460 0.467103
Si Si4 0.556581 0.427400 0.321770
Si Si5 0.777022 0.152554 0.803119
Si Si6 0.279085 0.465372 0.343884
Si Si7 0.676723 0.386022 0.235883
Si Si8 0.420941 0.329615 0.984165
O O1 0.104753 0.509551 0.390855
O O2 0.303910 0.797853 0.241970
O O3 0.032804 0.642728 0.116645
O O4 0.569148 0.925632 0.034775
O O5 0.680482 0.765341 0.466226
O O6 0.511140 0.649965 0.323243
O O7 0.833411 0.724521 0.468391
O O8 0.068907 0.064162 0.137406
O O9 0.977380 0.326381 0.379127
O O10 0.682646 0.098601 0.698717
O O11 0.609947 0.220104 0.398251
O O12 0.501667 0.314275 0.337691
O O13 0.883252 0.648175 0.262770
O O14 0.514050 0.510942 0.154869
O O15 0.437977 0.600975 0.144788
O O16 0.588754 0.377898 0.094134
#
# Coordination Sequence:
#
# PCOD8038174 Si02
#       8
#     2   2   2   2   2   2   2   2
#     4   8  20  33  55  86 114 150 181 231 290 339
#     4  10  22  40  60  86 110 150 199 238 284 328
#     4  10  20  36  59  81 117 147 180 246 280 332
#     4  10  21  37  62  87 118 143 189 246 279 339
#     4  10  17  34  57  88 112 144 190 233 292 328
#     4  10  22  39  59  84 113 147 197 248 275 322
#     4   9  22  41  54  89 121 150 185 228 289 352
#     4  11  23  40  59  80 119 160 190 225 283 344
#
# _framework density 21.178557999999999
#
# number of rings (size 3 to 8) (size 9 to 14) (size 15 to 20)
#    0.750    1.500    1.250    1.125    1.750    2.000 
#    9.000    0.625    0.000    0.000    0.000    0.000 
#    0.000    0.000    0.000    0.000    0.000    0.000 
#
# Total GULP energy -198277.574588 kJ/mol
# GULP energy per Si atom -12392.348412 kJ/mol
# Density = 2.113035 g / cm^3
# Si number density = 21.178558 Si / 1000 Ang^3
#
#
#
# Elastic Constant Matrix: (Units=GPa)
#
#
# Indices 1 2 3 4 5 6 
#
# 1 122.7783 21.5134 39.7943 17.9116 -18.8889 8.7874
# 2 21.5134 37.7757 15.8490 21.7227 -3.6521 2.4942
# 3 39.7943 15.8490 85.8852 19.0430 -26.6891 2.7237
# 4 17.9116 21.7227 19.0430 37.1512 4.1349 5.5768
# 5 -18.8889 -3.6521 -26.6891 4.1349 26.6161 3.8742
# 6 8.7874 2.4942 2.7237 5.5768 3.8742 20.0371
#
#
#
# Elastic Compliance Matrix: (Units=1/GPa)
#
#
# Indices 1 2 3 4 5 6 
#
# 1 0.011008 -0.003021 -0.001650 -0.002740 0.006867 -0.004792
# 2 -0.003021 0.043243 0.002361 -0.026311 0.010101 0.000991
# 3 -0.001650 0.002361 0.023184 -0.014750 0.025201 -0.003489
# 4 -0.002740 -0.026311 -0.014750 0.054837 -0.028385 -0.003292
# 5 0.006867 0.010101 0.025201 -0.028385 0.075608 -0.014413
# 6 -0.004792 0.000991 -0.003489 -0.003292 -0.014413 0.056063
#
#
# Mechanical properties :
#
#
# Convention : Reuss Voigt Hill
#
# Bulk Modulus (GPa) = 13.73314 44.52805 29.13060
# Shear Modulus (GPa) = 17.07451 28.04638 22.56044
#
# Velocity S-wave (km/s) = 2.84248 3.64302 3.26736
# Velocity P-wave (km/s) = 4.15589 6.22625 5.29328
#
# Compressibility (1/GPa) = 0.07281656
#
# Stress axis : x y z
#
# Youngs Moduli (GPa) = 90.84381 23.12505 43.13252
#
# Poissons Ratio (x) = 0.06986 0.07115
# Poissons Ratio (y) = 0.27443 -0.10184
# Poissons Ratio (z) = 0.14985 -0.05460
#
# Static dielectric constant tensor:
#      x y z
#    x 3.918520 0.038790 -0.068460 
#    y 0.038790 3.384860 0.001480 
#    z -0.068460 0.001480 3.725030 
# 
# 
# High freq. dielectric constant tensor:
#      x y z
#    x 1.840250 0.006450 -0.008030 
#    y 0.006450 1.791010 0.008170 
#    z -0.008030 0.008170 1.829580 
# 
# From -- ./inp_files/438637.got.cif
#   From: 2010.06.25/outbox.cif.g09.slc.cpg/sg2_220_cif.got.tgz:438637.got - 2010.06.27 13:26:56.
