data_PCOD8038621
_publ_section_title
;
Structure prediction by ZEFSAII (Michael W. Deem and Ramdas Pophale) SiO2 
 PCOD8038621
Probable space group: P -1
;
_chemical_formula_sum "Si O2"
_cell_formula_units_Z 16
_cell_length_a 14.445295
_cell_length_b 5.206734
_cell_length_c 17.371232
_cell_angle_alpha 77.725098
_cell_angle_beta 117.424838
_cell_angle_gamma 69.654198
_cell_volume 972.196242
_symmetry_space_group_name_H-M "P -1"
_symmetry_group_IT_number 2
_symmetry_cell_setting 'triclinic'
loop_
_space_group_symop_operation_xyz
x,y,z
-x,-y,-z
loop_
_atom_site_type_symbol
_atom_site_label
_atom_site_fract_x
_atom_site_fract_y
_atom_site_fract_z
Si Si1 0.742559 0.550281 0.528389
Si Si2 0.593148 0.469781 0.929430
Si Si3 0.660016 0.118607 0.554824
Si Si4 0.274721 0.382715 0.755952
Si Si5 0.319695 0.764347 0.862606
Si Si6 0.081114 0.650066 0.530440
Si Si7 0.501962 0.293319 0.624213
Si Si8 0.548107 0.092240 0.822708
O O1 0.740139 0.277320 0.591828
O O2 0.855662 0.392052 0.524754
O O3 0.614314 0.752339 0.420678
O O4 0.750424 0.785647 0.574411
O O5 0.457410 0.610317 0.898318
O O6 0.620967 0.197110 0.899004
O O7 0.610515 0.726198 0.877135
O O8 0.685441 0.332874 0.045500
O O9 0.603196 0.078633 0.614004
O O10 0.548990 0.346477 0.439272
O O11 0.246285 0.657092 0.786622
O O12 0.181425 0.490932 0.644033
O O13 0.407357 0.253652 0.780045
O O14 0.260372 0.128802 0.812721
O O15 0.000000 0.500000 0.500000
O O16 0.000000 0.000000 0.500000
O O17 0.562766 0.194048 0.736954
#
# Coordination Sequence:
#
# PCOD8038621 Si02
#       8
#     2   2   2   2   2   2   2   2
#     4  10  19  34  46  63  92 126 159 197 232 272
#     4   9  18  27  39  68  86 121 149 195 217 269
#     4   9  19  29  49  66  91 121 172 183 228 278
#     4  10  18  32  46  62  83 130 155 194 228 275
#     4   9  17  29  46  58  88 116 164 182 227 276
#     4  12  24  35  49  70  95 125 169 210 239 261
#     4   9  19  28  48  69  93 126 163 188 222 288
#     4  10  18  26  45  63  97 119 156 182 228 270
#
# _framework density 16.457583
#
# number of rings (size 3 to 8) (size 9 to 14) (size 15 to 20)
#    0.750    1.500    1.250    2.625    1.750    4.000 
#    0.000    0.000    0.000    0.000    0.000    0.000 
#    0.000    0.000    0.000   78.750    0.000    0.000 
#
# Total GULP energy -198284.503387 kJ/mol
# GULP energy per Si atom -12392.781462 kJ/mol
# Density = 1.642012 g / cm^3
# Si number density = 16.457583 Si / 1000 Ang^3
#
#
#
# Elastic Constant Matrix: (Units=GPa)
#
#
# Indices 1 2 3 4 5 6 
#
# 1 73.3067 45.4680 21.2183 7.9230 -12.4408 0.8818
# 2 45.4680 120.0110 25.7106 14.2414 -6.5931 15.2181
# 3 21.2183 25.7106 60.3835 11.8988 -16.4207 7.1541
# 4 7.9230 14.2414 11.8988 20.8446 3.1303 2.3694
# 5 -12.4408 -6.5931 -16.4207 3.1303 26.2483 2.8879
# 6 0.8818 15.2181 7.1541 2.3694 2.8879 28.7602
#
#
#
# Elastic Compliance Matrix: (Units=1/GPa)
#
#
# Indices 1 2 3 4 5 6 
#
# 1 0.019805 -0.006730 -0.002127 -0.003026 0.006387 0.003091
# 2 -0.006730 0.012443 -0.001254 -0.004628 0.000333 -0.005718
# 3 -0.002127 -0.001254 0.026459 -0.015382 0.017765 -0.006370
# 4 -0.003026 -0.004628 -0.015382 0.063739 -0.020167 0.003142
# 5 0.006387 0.000333 0.017765 -0.020167 0.055686 -0.008721
# 6 0.003091 -0.005718 -0.006370 0.003142 -0.008721 0.039903
#
#
# Mechanical properties :
#
#
# Convention : Reuss Voigt Hill
#
# Bulk Modulus (GPa) = 25.98299 48.72166 37.35233
# Shear Modulus (GPa) = 19.91372 25.92423 22.91898
#
# Velocity S-wave (km/s) = 3.48228 3.97320 3.73582
# Velocity P-wave (km/s) = 5.65602 7.12160 6.43069
#
# Compressibility (1/GPa) = 0.03848671
#
# Stress axis : x y z
#
# Youngs Moduli (GPa) = 50.49305 80.36449 37.79479
#
# Poissons Ratio (x) = 0.54082 0.08038
# Poissons Ratio (y) = 0.33980 0.04738
# Poissons Ratio (z) = 0.10739 0.10074
#
# Static dielectric constant tensor:
#      x y z
#    x 2.880070 0.215740 -0.109810 
#    y 0.215740 3.181730 0.057290 
#    z -0.109810 0.057290 3.026740 
# 
# 
# High freq. dielectric constant tensor:
#      x y z
#    x 1.603320 0.027380 -0.021550 
#    y 0.027380 1.634540 0.017020 
#    z -0.021550 0.017020 1.609280 
# 
# From -- ./inp_files/525343.got.cif
#   From: 2010.06.25/outbox.cif.g09.slc.cpg/sg2_263_cif.got.tgz:525343.got - 2010.06.27 13:26:56.
