data_PCOD8038410
_publ_section_title
;
Structure prediction by ZEFSAII (Michael W. Deem and Ramdas Pophale) SiO2 
 PCOD8038410
Probable space group: P -1
;
_chemical_formula_sum "Si O2"
_cell_formula_units_Z 16
_cell_length_a 14.684392
_cell_length_b 9.028067
_cell_length_c 19.299827
_cell_angle_alpha 81.658806
_cell_angle_beta 21.132751
_cell_angle_gamma 94.509353
_cell_volume 730.343385
_symmetry_space_group_name_H-M "P -1"
_symmetry_group_IT_number 2
_symmetry_cell_setting 'triclinic'
loop_
_space_group_symop_operation_xyz
x,y,z
-x,-y,-z
loop_
_atom_site_type_symbol
_atom_site_label
_atom_site_fract_x
_atom_site_fract_y
_atom_site_fract_z
Si Si1 0.712540 0.781015 0.868477
Si Si2 0.329263 0.842222 0.411585
Si Si3 0.667044 0.415118 0.473377
Si Si4 0.420976 0.862709 0.183879
Si Si5 0.861553 0.815071 0.524713
Si Si6 0.365945 0.734419 0.995424
Si Si7 0.611665 0.253650 0.232280
Si Si8 0.318904 0.588701 0.690029
O O1 0.409502 0.651496 0.041421
O O2 0.956740 0.729853 0.702788
O O3 0.603890 0.789667 0.022289
O O4 0.887778 0.971755 0.688381
O O5 0.459073 0.752204 0.371612
O O6 0.384998 0.818814 0.293833
O O7 0.524283 0.060313 0.277449
O O8 0.491211 0.507001 0.606176
O O9 0.565873 0.324635 0.474028
O O10 0.040305 0.571853 0.202999
O O11 0.068927 0.746507 0.406868
O O12 0.630100 0.085159 0.005784
O O13 0.654585 0.801821 0.735450
O O14 0.632479 0.708269 0.628310
O O15 0.603213 0.249768 0.322444
O O16 0.952757 0.422312 0.953565
#
# Coordination Sequence:
#
# PCOD8038410 Si02
#       8
#     2   2   2   2   2   2   2   2
#     4  10  21  35  62  96 124 163 208 242 300 379
#     4  11  23  43  60  97 130 160 195 261 317 361
#     4  11  25  40  63  92 124 161 206 258 317 360
#     4  11  20  37  64  96 125 163 210 240 301 380
#     4  10  17  35  63  93 118 166 201 252 290 369
#     4  11  18  37  63  89 126 170 201 246 299 370
#     4  10  21  41  68  86 120 161 209 263 302 354
#     4  10  23  44  63  89 113 162 222 256 299 370
#
# _framework density 21.907503999999999
#
# number of rings (size 3 to 8) (size 9 to 14) (size 15 to 20)
#    0.000    1.500    5.000    2.250    5.250    1.500 
#    4.500    0.625    0.000    0.000    0.000    0.000 
#    0.000    0.000    0.000    0.000    0.000    0.000 
#
# Total GULP energy -198290.034327 kJ/mol
# GULP energy per Si atom -12393.127145 kJ/mol
# Density = 2.185764 g / cm^3
# Si number density = 21.907504 Si / 1000 Ang^3
#
#
#
# Elastic Constant Matrix: (Units=GPa)
#
#
# Indices 1 2 3 4 5 6 
#
# 1 327.6226 140.6101 215.0631 172.2638 119.6748 -10.0363
# 2 140.6101 78.2489 110.2961 93.9322 66.7355 -3.7165
# 3 215.0631 110.2961 230.3094 175.2298 117.6639 -1.1588
# 4 172.2638 93.9322 175.2298 188.7792 128.8497 -13.3678
# 5 119.6748 66.7355 117.6639 128.8497 118.0869 -4.1065
# 6 -10.0363 -3.7165 -1.1588 -13.3678 -4.1065 39.0952
#
#
#
# Elastic Compliance Matrix: (Units=1/GPa)
#
#
# Indices 1 2 3 4 5 6 
#
# 1 0.014383 -0.021905 -0.004604 0.002038 0.000244 0.002196
# 2 -0.021905 0.076470 -0.008156 -0.006912 -0.005400 -0.001527
# 3 -0.004604 -0.008156 0.022450 -0.015409 0.003504 -0.006193
# 4 0.002038 -0.006912 -0.015409 0.038859 -0.024854 0.010086
# 5 0.000244 -0.005400 0.003504 -0.024854 0.034720 -0.005198
# 6 0.002196 -0.001527 -0.006193 0.010086 -0.005198 0.028716
#
#
# Mechanical properties :
#
#
# Convention : Reuss Voigt Hill
#
# Bulk Modulus (GPa) = 22.74185 174.23550 98.48868
# Shear Modulus (GPa) = 16.68970 80.53971 48.61470
#
# Velocity S-wave (km/s) = 2.76311 6.06987 4.71583
# Velocity P-wave (km/s) = 4.53686 11.35031 8.64328
#
# Compressibility (1/GPa) = 0.04397179
#
# Stress axis : x y z
#
# Youngs Moduli (GPa) = 69.52850 13.07696 44.54402
#
# Poissons Ratio (x) = 0.28646 0.20507
# Poissons Ratio (y) = 1.52305 0.36331
# Poissons Ratio (z) = 0.32010 0.10666
#
# Static dielectric constant tensor:
#      x y z
#    x 4.311000 0.101450 -0.310330 
#    y 0.101450 3.535990 0.183870 
#    z -0.310330 0.183870 4.038560 
# 
# 
# High freq. dielectric constant tensor:
#      x y z
#    x 1.881030 0.016180 -0.009210 
#    y 0.016180 1.819640 0.011770 
#    z -0.009210 0.011770 1.861790 
# 
# From -- ./inp_files/597369.got.cif
#   From: 2010.06.25/outbox.cif.g09.slc.cpg/sg2_299_cif.got.tgz:597369.got - 2010.06.27 13:26:56.
