data_PCOD8038822
_publ_section_title
;
Structure prediction by ZEFSAII (Michael W. Deem and Ramdas Pophale) SiO2 
 PCOD8038822
Probable space group: P -1
;
_chemical_formula_sum "Si O2"
_cell_formula_units_Z 16
_cell_length_a 9.805460
_cell_length_b 19.121774
_cell_length_c 11.117814
_cell_angle_alpha 131.511037
_cell_angle_beta 41.791280
_cell_angle_gamma 99.278214
_cell_volume 774.950426
_symmetry_space_group_name_H-M "P -1"
_symmetry_group_IT_number 2
_symmetry_cell_setting 'triclinic'
loop_
_space_group_symop_operation_xyz
x,y,z
-x,-y,-z
loop_
_atom_site_type_symbol
_atom_site_label
_atom_site_fract_x
_atom_site_fract_y
_atom_site_fract_z
Si Si1 0.211123 0.142618 0.263731
Si Si2 0.864042 0.641244 0.752749
Si Si3 0.594805 0.173193 0.922311
Si Si4 0.979328 0.909578 0.277190
Si Si5 0.635515 0.874768 0.604246
Si Si6 0.130860 0.735439 0.581129
Si Si7 0.768451 0.968259 0.238136
Si Si8 0.538062 0.766177 0.347799
O O1 0.155491 0.184030 0.487347
O O2 0.919534 0.250996 0.514397
O O3 0.436871 0.144046 0.066668
O O4 0.338614 0.999521 0.994804
O O5 0.000000 0.500000 0.500000
O O6 0.099145 0.643660 0.559051
O O7 0.604731 0.716655 0.917490
O O8 0.775359 0.692436 0.006215
O O9 0.734475 0.196996 0.960854
O O10 0.856829 0.050793 0.540471
O O11 0.744459 0.907625 0.464500
O O12 0.011945 0.892548 0.091950
O O13 0.631817 0.774353 0.427400
O O14 0.423767 0.695617 0.364992
O O15 0.873550 0.876255 0.953140
O O16 0.500000 0.000000 0.500000
O O17 0.706349 0.092187 0.376641
#
# Coordination Sequence:
#
# PCOD8038822 Si02
#       8
#     2   2   2   2   2   2   2   2
#     4   9  19  32  49  84 131 155 184 236 299 379
#     4  11  24  45  65  84 119 164 216 263 293 355
#     4   9  19  34  54  85 113 156 196 242 308 351
#     4  10  18  30  57  84 123 153 186 245 307 369
#     4  10  19  31  50  88 127 157 187 234 306 373
#     4  11  23  37  61  92 120 160 203 252 312 368
#     4  12  18  35  57  91 132 156 190 246 316 370
#     4  12  23  36  62  92 123 161 206 253 310 364
#
# _framework density 20.64648
#
# number of rings (size 3 to 8) (size 9 to 14) (size 15 to 20)
#    0.000    1.500    5.000    1.125    3.500    1.500 
#    0.000    0.000    0.000    6.000    0.000    0.000 
#    0.000    0.000    0.000    0.000    0.000    0.000 
#
# Total GULP energy -198253.990935 kJ/mol
# GULP energy per Si atom -12390.874433 kJ/mol
# Density = 2.059949 g / cm^3
# Si number density = 20.646480 Si / 1000 Ang^3
#
#
#
# Elastic Constant Matrix: (Units=GPa)
#
#
# Indices 1 2 3 4 5 6 
#
# 1 139.2123 35.8372 24.4244 5.4061 14.8939 -10.9257
# 2 35.8372 73.5888 21.9277 16.4624 9.6026 2.3401
# 3 24.4244 21.9277 41.5946 15.9177 9.8500 -7.5355
# 4 5.4061 16.4624 15.9177 17.6210 0.2949 4.5670
# 5 14.8939 9.6026 9.8500 0.2949 23.6673 -8.5216
# 6 -10.9257 2.3401 -7.5355 4.5670 -8.5216 33.4431
#
#
#
# Elastic Compliance Matrix: (Units=1/GPa)
#
#
# Indices 1 2 3 4 5 6 
#
# 1 0.009076 -0.003924 -0.004314 0.004513 -0.001966 0.001150
# 2 -0.003924 0.020280 -0.001394 -0.015778 -0.005826 -0.002345
# 3 -0.004314 -0.001394 0.050155 -0.045876 -0.012298 0.013120
# 4 0.004513 -0.015778 -0.045876 0.116527 0.013960 -0.020114
# 5 -0.001966 -0.005826 -0.012298 0.013960 0.053982 0.008843
# 6 0.001150 -0.002345 0.013120 -0.020114 0.008843 0.038398
#
#
# Mechanical properties :
#
#
# Convention : Reuss Voigt Hill
#
# Bulk Modulus (GPa) = 16.59836 46.53048 31.56442
# Shear Modulus (GPa) = 15.25495 26.42671 20.84083
#
# Velocity S-wave (km/s) = 2.72116 3.58154 3.18057
# Velocity P-wave (km/s) = 4.23435 6.29991 5.36743
#
# Compressibility (1/GPa) = 0.06024691
#
# Stress axis : x y z
#
# Youngs Moduli (GPa) = 110.18528 49.30982 19.93834
#
# Poissons Ratio (x) = 0.19350 0.08601
# Poissons Ratio (y) = 0.43237 0.02779
# Poissons Ratio (z) = 0.47531 0.06873
#
# Static dielectric constant tensor:
#      x y z
#    x 4.228080 -0.102420 0.172010 
#    y -0.102420 3.713510 -0.193880 
#    z 0.172010 -0.193880 3.147620 
# 
# 
# High freq. dielectric constant tensor:
#      x y z
#    x 1.828270 -0.005470 0.011010 
#    y -0.005470 1.805910 -0.031540 
#    z 0.011010 -0.031540 1.732610 
# 
# From -- ./inp_files/225589.got.cif
#   From: 2010.06.25/outbox.cif.g09.slc.cpg/sg2_113_cif.got.tgz:225589.got - 2010.06.27 13:26:56.
