data_PCOD8038160
_publ_section_title
;
Structure prediction by ZEFSAII (Michael W. Deem and Ramdas Pophale) SiO2 
 PCOD8038160
Probable space group: P -1
;
_chemical_formula_sum "Si O2"
_cell_formula_units_Z 16
_cell_length_a 12.980997
_cell_length_b 12.337902
_cell_length_c 9.505971
_cell_angle_alpha 129.445509
_cell_angle_beta 72.481193
_cell_angle_gamma 137.823805
_cell_volume 745.828068
_symmetry_space_group_name_H-M "P -1"
_symmetry_group_IT_number 2
_symmetry_cell_setting 'triclinic'
loop_
_space_group_symop_operation_xyz
x,y,z
-x,-y,-z
loop_
_atom_site_type_symbol
_atom_site_label
_atom_site_fract_x
_atom_site_fract_y
_atom_site_fract_z
Si Si1 0.315984 0.810328 0.868496
Si Si2 0.313970 0.112345 0.145852
Si Si3 0.688764 0.401314 0.796940
Si Si4 0.181414 0.695173 0.536294
Si Si5 0.328882 0.103979 0.693698
Si Si6 0.671158 0.735658 0.432756
Si Si7 0.670529 0.665410 0.890995
Si Si8 0.319421 0.562795 0.843591
O O1 0.303531 0.768474 0.672333
O O2 0.234836 0.601146 0.813356
O O3 0.500000 0.000000 0.000000
O O4 0.227247 0.874854 0.990065
O O5 0.325931 0.185846 0.355434
O O6 0.222818 0.137333 0.101547
O O7 0.488830 0.257111 0.119821
O O8 0.788044 0.368171 0.665964
O O9 0.499368 0.191704 0.665232
O O10 0.759188 0.612671 0.870189
O O11 0.716099 0.431004 0.976591
O O12 0.000000 0.500000 0.500000
O O13 0.205468 0.881094 0.638820
O O14 0.244938 0.080449 0.565251
O O15 0.377942 0.285698 0.916828
O O16 0.486506 0.537903 0.297224
O O17 0.756988 0.665320 0.346813
#
# Coordination Sequence:
#
# PCOD8038160 Si02
#       8
#     2   2   2   2   2   2   2   2
#     4  10  22  37  61  91 124 161 211 259 305 364
#     4  10  19  30  53  93 134 152 190 258 326 355
#     4  11  21  36  66  95 120 166 218 263 308 368
#     4  12  28  45  61  90 133 174 208 256 323 382
#     4  11  19  38  64  89 127 158 219 262 305 369
#     4  10  19  29  56  95 129 153 194 265 326 351
#     4  10  17  34  56  93 130 154 203 272 313 355
#     4  10  18  33  54  93 127 151 199 265 310 361
#
# _framework density 21.452663999999999
#
# number of rings (size 3 to 8) (size 9 to 14) (size 15 to 20)
#    0.000    1.500    5.000    3.375   10.500    0.000 
#    0.000    1.250    0.000    0.750    0.000    0.000 
#    0.000    0.000    0.000    0.000    0.000    0.000 
#
# Total GULP energy -198274.289820 kJ/mol
# GULP energy per Si atom -12392.143114 kJ/mol
# Density = 2.140384 g / cm^3
# Si number density = 21.452664 Si / 1000 Ang^3
#
#
#
# Elastic Constant Matrix: (Units=GPa)
#
#
# Indices 1 2 3 4 5 6 
#
# 1 54.1919 50.1821 32.1913 -0.8925 -3.7431 -43.9133
# 2 50.1821 95.3515 38.2063 -4.6217 -3.9143 -42.8802
# 3 32.1913 38.2063 133.8436 -33.3760 -13.4133 -17.7988
# 4 -0.8925 -4.6217 -33.3760 33.1330 -13.1027 3.7764
# 5 -3.7431 -3.9143 -13.4133 -13.1027 25.3192 -1.8935
# 6 -43.9133 -42.8802 -17.7988 3.7764 -1.8935 55.8922
#
#
#
# Elastic Compliance Matrix: (Units=1/GPa)
#
#
# Indices 1 2 3 4 5 6 
#
# 1 0.078286 -0.016208 -0.014457 -0.022658 -0.006894 0.045767
# 2 -0.016208 0.020914 -0.001261 0.001302 0.001057 0.002857
# 3 -0.014457 -0.001261 0.020027 0.029530 0.023023 -0.007164
# 4 -0.022658 0.001302 0.029530 0.082201 0.054204 -0.011117
# 5 -0.006894 0.001057 0.023023 0.054204 0.079018 0.001741
# 6 0.045767 0.002857 -0.007164 -0.011117 0.001741 0.054571
#
#
# Mechanical properties :
#
#
# Convention : Reuss Voigt Hill
#
# Bulk Modulus (GPa) = 18.05855 58.28290 38.17073
# Shear Modulus (GPa) = 11.98099 33.72269 22.85184
#
# Velocity S-wave (km/s) = 2.36579 3.96909 3.26731
# Velocity P-wave (km/s) = 3.98733 6.94493 5.66263
#
# Compressibility (1/GPa) = 0.05537542
#
# Stress axis : x y z
#
# Youngs Moduli (GPa) = 12.77363 47.81437 49.93276
#
# Poissons Ratio (x) = 0.77495 0.72189
# Poissons Ratio (y) = 0.20703 0.06298
# Poissons Ratio (z) = 0.18467 0.06030
#
# Static dielectric constant tensor:
#      x y z
#    x 4.234820 -1.249820 -0.241760 
#    y -1.249820 4.318090 0.014870 
#    z -0.241760 0.014870 3.924450 
# 
# 
# High freq. dielectric constant tensor:
#      x y z
#    x 1.810730 -0.068330 -0.014140 
#    y -0.068330 1.820480 -0.011220 
#    z -0.014140 -0.011220 1.849700 
# 
# From -- ./inp_files/263444.got.cif
#   From: 2010.06.25/outbox.cif.g09.slc.cpg/sg2_132_cif.got.tgz:263444.got - 2010.06.27 13:26:56.
