data_PCOD8038281
_publ_section_title
;
Structure prediction by ZEFSAII (Michael W. Deem and Ramdas Pophale) SiO2 
 PCOD8038281
Probable space group: P -1
;
_chemical_formula_sum "Si O2"
_cell_formula_units_Z 16
_cell_length_a 9.601220
_cell_length_b 13.020844
_cell_length_c 6.811007
_cell_angle_alpha 79.668457
_cell_angle_beta 119.331683
_cell_angle_gamma 75.563271
_cell_volume 671.489880
_symmetry_space_group_name_H-M "P -1"
_symmetry_group_IT_number 2
_symmetry_cell_setting 'triclinic'
loop_
_space_group_symop_operation_xyz
x,y,z
-x,-y,-z
loop_
_atom_site_type_symbol
_atom_site_label
_atom_site_fract_x
_atom_site_fract_y
_atom_site_fract_z
Si Si1 0.870785 0.912647 0.147011
Si Si2 0.780019 0.093049 0.725686
Si Si3 0.888116 0.432891 0.523203
Si Si4 0.497450 0.300477 0.325726
Si Si5 0.110944 0.124175 0.390580
Si Si6 0.507348 0.525172 0.229212
Si Si7 0.154509 0.272262 0.052239
Si Si8 0.763552 0.286015 0.194845
O O1 0.809960 0.908603 0.327566
O O2 0.780551 0.842319 0.991616
O O3 0.080531 0.855284 0.268457
O O4 0.812116 0.042210 0.985673
O O5 0.587635 0.192491 0.567524
O O6 0.798736 0.987703 0.635401
O O7 0.694940 0.526749 0.410810
O O8 0.868206 0.346910 0.374756
O O9 0.000000 0.500000 0.500000
O O10 0.978739 0.365426 0.806574
O O11 0.492854 0.418948 0.376449
O O12 0.617174 0.265083 0.227102
O O13 0.301166 0.322578 0.131881
O O14 0.901381 0.165284 0.253436
O O15 0.132430 0.234458 0.272447
O O16 0.500000 0.500000 0.000000
O O17 0.337753 0.642238 0.094773
#
# Coordination Sequence:
#
# PCOD8038281 Si02
#       8
#     2   2   2   2   2   2   2   2
#     4  10  20  39  60  85 117 155 207 240 292 356
#     4  10  21  37  66  86 114 165 199 243 298 356
#     4  10  17  34  62  88 115 158 205 238 291 358
#     4  10  19  37  58  88 120 159 198 240 300 356
#     4  11  22  38  62  91 120 152 204 248 295 354
#     4   8  17  33  59  88 114 157 196 237 295 356
#     4  11  22  36  62  87 122 159 196 247 299 349
#     4  10  19  37  64  85 122 158 196 245 298 356
#
# _framework density 23.82761
#
# number of rings (size 3 to 8) (size 9 to 14) (size 15 to 20)
#    0.000    2.250    2.500    3.375    0.000    2.000 
#    0.000    5.625    5.500    0.000    0.000    0.000 
#    0.000    0.000    0.000    0.000    0.000    0.000 
#
# Total GULP energy -198228.411659 kJ/mol
# GULP energy per Si atom -12389.275729 kJ/mol
# Density = 2.377338 g / cm^3
# Si number density = 23.827610 Si / 1000 Ang^3
#
#
#
# Elastic Constant Matrix: (Units=GPa)
#
#
# Indices 1 2 3 4 5 6 
#
# 1 84.3252 18.5438 47.3631 10.5547 -6.6405 26.5286
# 2 18.5438 44.6917 23.1127 -1.1243 -0.1947 18.3198
# 3 47.3631 23.1127 154.8383 -12.2859 -1.6415 6.8116
# 4 10.5547 -1.1243 -12.2859 26.3787 5.4136 9.6789
# 5 -6.6405 -0.1947 -1.6415 5.4136 51.5650 -1.1186
# 6 26.5286 18.3198 6.8116 9.6789 -1.1186 37.3894
#
#
#
# Elastic Compliance Matrix: (Units=1/GPa)
#
#
# Indices 1 2 3 4 5 6 
#
# 1 0.019987 -0.001022 -0.006072 -0.007616 0.002948 -0.010515
# 2 -0.001022 0.030923 -0.003144 0.006169 -0.001098 -0.015483
# 3 -0.006072 -0.003144 0.009116 0.005781 -0.001053 0.002660
# 4 -0.007616 0.006169 0.005781 0.049468 -0.006220 -0.011664
# 5 0.002948 -0.001098 -0.001053 -0.006220 0.020407 0.000859
# 6 -0.010515 -0.015483 0.002660 -0.011664 0.000859 0.044353
#
#
# Mechanical properties :
#
#
# Convention : Reuss Voigt Hill
#
# Bulk Modulus (GPa) = 25.28448 51.32160 38.30304
# Shear Modulus (GPa) = 24.04854 36.05566 30.05210
#
# Velocity S-wave (km/s) = 3.18035 3.89419 3.55523
# Velocity P-wave (km/s) = 4.91128 6.46569 5.74133
#
# Compressibility (1/GPa) = 0.03954996
#
# Stress axis : x y z
#
# Youngs Moduli (GPa) = 50.03184 32.33853 109.70301
#
# Poissons Ratio (x) = 0.03304 0.66609
# Poissons Ratio (y) = 0.05112 0.34495
# Poissons Ratio (z) = 0.30378 0.10168
#
# Static dielectric constant tensor:
#      x y z
#    x 4.090930 0.068730 -0.024250 
#    y 0.068730 4.198550 -0.566480 
#    z -0.024250 -0.566480 5.196740 
# 
# 
# High freq. dielectric constant tensor:
#      x y z
#    x 1.917160 0.008800 -0.008710 
#    y 0.008800 1.924650 -0.021880 
#    z -0.008710 -0.021880 1.966310 
# 
# From -- ./inp_files/206069.got.cif
#   From: 2010.06.25/outbox.cif.g09.slc.cpg/sg2_104_cif.got.tgz:206069.got - 2010.06.27 13:26:56.
