data_PCOD8038682
_publ_section_title
;
Structure prediction by ZEFSAII (Michael W. Deem and Ramdas Pophale) SiO2 
 PCOD8038682
Probable space group: P -1
;
_chemical_formula_sum "Si O2"
_cell_formula_units_Z 16
_cell_length_a 21.519268
_cell_length_b 22.640667
_cell_length_c 14.181224
_cell_angle_alpha 20.033923
_cell_angle_beta 149.801129
_cell_angle_gamma 159.303268
_cell_volume 830.445744
_symmetry_space_group_name_H-M "P -1"
_symmetry_group_IT_number 2
_symmetry_cell_setting 'triclinic'
loop_
_space_group_symop_operation_xyz
x,y,z
-x,-y,-z
loop_
_atom_site_type_symbol
_atom_site_label
_atom_site_fract_x
_atom_site_fract_y
_atom_site_fract_z
Si Si1 0.418907 0.168378 0.335201
Si Si2 0.204663 0.547610 0.138799
Si Si3 0.295368 0.638262 0.332423
Si Si4 0.424950 0.355019 0.260328
Si Si5 0.081139 0.830630 0.916324
Si Si6 0.931834 0.356752 0.340043
Si Si7 0.075062 0.005102 0.449512
Si Si8 0.568177 0.993126 0.885101
O O1 0.379966 0.232049 0.284520
O O2 0.543265 0.128286 0.578219
O O3 0.228926 0.919663 0.417643
O O4 0.515158 0.386182 0.058952
O O5 0.250079 0.651765 0.147451
O O6 0.108478 0.612012 0.865243
O O7 0.086048 0.257792 0.416855
O O8 0.389737 0.700117 0.096646
O O9 0.413990 0.585693 0.567933
O O10 0.391513 0.894967 0.124332
O O11 0.110232 0.420527 0.472268
O O12 0.249966 0.169246 0.371056
O O13 0.984828 0.855891 0.827877
O O14 0.120149 0.972201 0.659236
O O15 0.271077 0.961857 0.010105
O O16 0.956809 0.541832 0.166643
#
# Coordination Sequence:
#
# PCOD8038682 Si02
#       8
#     2   2   2   2   2   2   2   2
#     4   9  19  35  53  73  99 130 165 204 245 290
#     4  10  18  29  49  77 102 126 160 203 250 296
#     4  10  18  29  49  77 102 126 160 203 250 296
#     4  10  20  34  51  73 103 133 161 200 248 293
#     4   9  19  35  53  73  99 130 165 204 245 290
#     4   9  18  32  51  73  99 129 162 203 246 288
#     4  10  20  34  51  73 103 133 161 200 248 293
#     4   9  18  32  51  73  99 129 162 203 246 288
#
# _framework density 19.266762
#
# number of rings (size 3 to 8) (size 9 to 14) (size 15 to 20)
#    0.000    2.500    0.000    2.250    0.000    8.000 
#    0.000    6.250    0.000    0.000    0.000    0.000 
#    0.000    0.000    0.000    0.000    0.000    0.000 
#
# Total GULP energy -198388.905321 kJ/mol
# GULP energy per Si atom -12399.306583 kJ/mol
# Density = 1.922291 g / cm^3
# Si number density = 19.266762 Si / 1000 Ang^3
#
#
#
# Elastic Constant Matrix: (Units=GPa)
#
#
# Indices 1 2 3 4 5 6 
#
# 1 35.4392 30.3418 22.6400 5.1634 7.6748 9.6332
# 2 30.3418 141.5236 57.5749 -8.1722 13.7035 18.5450
# 3 22.6400 57.5749 84.5658 -15.8860 13.7800 12.5062
# 4 5.1634 -8.1722 -15.8860 30.0294 5.8758 5.5493
# 5 7.6748 13.7035 13.7800 5.8758 17.0072 7.9288
# 6 9.6332 18.5450 12.5062 5.5493 7.9288 20.1825
#
#
#
# Elastic Compliance Matrix: (Units=1/GPa)
#
#
# Indices 1 2 3 4 5 6 
#
# 1 0.041949 -0.005184 -0.009017 -0.012182 -0.000356 -0.006182
# 2 -0.005184 0.011002 -0.004670 0.002587 -0.001339 -0.004927
# 3 -0.009017 -0.004670 0.023661 0.016586 -0.014832 -0.004801
# 4 -0.012182 0.002587 0.016586 0.051468 -0.022062 -0.012325
# 5 -0.000356 -0.001339 -0.014832 -0.022062 0.088036 -0.017929
# 6 -0.006182 -0.004927 -0.004801 -0.012325 -0.017929 0.070432
#
#
# Mechanical properties :
#
#
# Convention : Reuss Voigt Hill
#
# Bulk Modulus (GPa) = 25.72706 53.62689 39.67697
# Shear Modulus (GPa) = 14.82598 23.50860 19.16729
#
# Velocity S-wave (km/s) = 2.77701 3.49687 3.15753
# Velocity P-wave (km/s) = 4.86462 6.64819 5.82507
#
# Compressibility (1/GPa) = 0.03886958
#
# Stress axis : x y z
#
# Youngs Moduli (GPa) = 23.83866 90.89497 42.26386
#
# Poissons Ratio (x) = 0.47120 0.38110
# Poissons Ratio (y) = 0.12358 0.19736
# Poissons Ratio (z) = 0.21496 0.42444
#
# Static dielectric constant tensor:
#      x y z
#    x 3.151920 0.025520 0.160370 
#    y 0.025520 3.858840 -0.023950 
#    z 0.160370 -0.023950 3.480460 
# 
# 
# High freq. dielectric constant tensor:
#      x y z
#    x 1.709890 0.006660 0.010970 
#    y 0.006660 1.770590 -0.004180 
#    z 0.010970 -0.004180 1.732970 
# 
# From -- ./inp_files/266427.got.cif
#   From: 2010.06.25/outbox.cif.g09.slc.cpg/sg2_134_cif.got.tgz:266427.got - 2010.06.27 13:26:56.
