data_PCOD8038117
_publ_section_title
;
Structure prediction by ZEFSAII (Michael W. Deem and Ramdas Pophale) SiO2 
 PCOD8038117
Probable space group: P -1
;
_chemical_formula_sum "Si O2"
_cell_formula_units_Z 14
_cell_length_a 9.527088
_cell_length_b 11.830118
_cell_length_c 15.328227
_cell_angle_alpha 125.240461
_cell_angle_beta 30.977581
_cell_angle_gamma 123.166621
_cell_volume 720.583226
_symmetry_space_group_name_H-M "P -1"
_symmetry_group_IT_number 2
_symmetry_cell_setting 'triclinic'
loop_
_space_group_symop_operation_xyz
x,y,z
-x,-y,-z
loop_
_atom_site_type_symbol
_atom_site_label
_atom_site_fract_x
_atom_site_fract_y
_atom_site_fract_z
Si Si1 0.235143 0.809691 0.052977
Si Si2 0.678868 0.615407 0.691399
Si Si3 0.482385 0.998159 0.866095
Si Si4 0.630727 0.106508 0.663161
Si Si5 0.805847 0.760625 0.524551
Si Si6 0.284772 0.699251 0.448667
Si Si7 0.324989 0.189538 0.567988
O O1 0.915458 0.764309 0.222093
O O2 0.375670 0.880763 0.094945
O O3 0.398515 0.677524 0.890898
O O4 0.234110 0.912638 0.014954
O O5 0.731180 0.623054 0.562405
O O6 0.643297 0.456991 0.671166
O O7 0.954407 0.702568 0.625650
O O8 0.697744 0.890372 0.687416
O O9 0.401135 0.057254 0.839347
O O10 0.553604 0.213296 0.677771
O O11 0.870377 0.189153 0.631432
O O12 0.716639 0.974296 0.505444
O O13 0.674809 0.724511 0.483917
O O14 0.389270 0.766596 0.514903
#
# Coordination Sequence:
#
# PCOD8038117 Si02
#       7
#     2   2   2   2   2   2   2
#     4  10  18  31  58  82  99 132 180 223 249 301
#     4   9  21  39  54  71 105 151 174 200 264 316
#     4   9  16  29  53  80 105 129 174 210 260 304
#     4  10  17  34  53  80 107 141 163 210 266 327
#     4   9  16  32  58  77 103 135 177 212 252 317
#     4  10  22  36  54  73 111 144 173 205 258 326
#     4  11  19  32  59  86  99 127 182 228 254 288
#
# _framework density 19.428705999999998
#
# number of rings (size 3 to 8) (size 9 to 14) (size 15 to 20)
#    0.000    2.286    2.857    1.286    2.000    1.143 
#    0.000    1.429    6.286    0.000    0.000    0.000 
#    0.000    0.000    0.000    0.000    0.000    0.000 
#
# Total GULP energy -173445.451540 kJ/mol
# GULP energy per Si atom -12388.960824 kJ/mol
# Density = 1.938449 g / cm^3
# Si number density = 19.428706 Si / 1000 Ang^3
#
#
#
# Elastic Constant Matrix: (Units=GPa)
#
#
# Indices 1 2 3 4 5 6 
#
# 1 139.4470 47.2059 32.0050 -10.5298 14.5031 -17.7531
# 2 47.2059 67.2426 33.5513 -1.1588 4.7018 -24.8126
# 3 32.0050 33.5513 70.4318 -8.7475 16.1198 -12.9504
# 4 -10.5298 -1.1588 -8.7475 9.6465 -1.6397 2.1127
# 5 14.5031 4.7018 16.1198 -1.6397 20.2161 -3.2830
# 6 -17.7531 -24.8126 -12.9504 2.1127 -3.2830 26.1810
#
#
#
# Elastic Compliance Matrix: (Units=1/GPa)
#
#
# Indices 1 2 3 4 5 6 
#
# 1 0.011040 -0.008505 0.001740 0.011811 -0.006615 -0.001496
# 2 -0.008505 0.035444 -0.013694 -0.020854 0.011001 0.024113
# 3 0.001740 -0.013694 0.026117 0.021566 -0.017599 -0.002826
# 4 0.011811 -0.020854 0.021566 0.134499 -0.012096 -0.013459
# 5 -0.006615 0.011001 -0.017599 -0.012096 0.065753 0.006457
# 6 -0.001496 0.024113 -0.002826 -0.013459 0.006457 0.060532
#
#
# Mechanical properties :
#
#
# Convention : Reuss Voigt Hill
#
# Bulk Modulus (GPa) = 31.56079 55.84955 43.70517
# Shear Modulus (GPa) = 12.99163 22.16600 17.57881
#
# Velocity S-wave (km/s) = 2.58869 3.38137 3.01123
# Velocity P-wave (km/s) = 5.02143 6.63726 5.88506
#
# Compressibility (1/GPa) = 0.03168489
#
# Stress axis : x y z
#
# Youngs Moduli (GPa) = 90.57830 28.21369 38.28900
#
# Poissons Ratio (x) = 0.23995 -0.06664
# Poissons Ratio (y) = 0.77034 0.52432
# Poissons Ratio (z) = -0.15764 0.38635
#
# Static dielectric constant tensor:
#      x y z
#    x 3.688860 -0.368800 0.194100 
#    y -0.368800 3.472690 -0.186440 
#    z 0.194100 -0.186440 3.403410 
# 
# 
# High freq. dielectric constant tensor:
#      x y z
#    x 1.755820 -0.019580 0.018340 
#    y -0.019580 1.744350 -0.009720 
#    z 0.018340 -0.009720 1.727430 
# 
# From -- ./inp_files/168580.got.cif
#   From: 2010.06.25/outbox.cif.g09.slc.cpg/sg2_85_cif.got.tgz:168580.got - 2010.06.27 13:26:56.
