data_PCOD8038935
_publ_section_title
;
Structure prediction by ZEFSAII (Michael W. Deem and Ramdas Pophale) SiO2 
 PCOD8038935
Probable space group: P -1
;
_chemical_formula_sum "Si O2"
_cell_formula_units_Z 16
_cell_length_a 8.651023
_cell_length_b 11.429088
_cell_length_c 13.599516
_cell_angle_alpha 127.916378
_cell_angle_beta 126.399111
_cell_angle_gamma 79.957669
_cell_volume 814.597031
_symmetry_space_group_name_H-M "P -1"
_symmetry_group_IT_number 2
_symmetry_cell_setting 'triclinic'
loop_
_space_group_symop_operation_xyz
x,y,z
-x,-y,-z
loop_
_atom_site_type_symbol
_atom_site_label
_atom_site_fract_x
_atom_site_fract_y
_atom_site_fract_z
Si Si1 0.561421 0.369364 0.057139
Si Si2 0.139100 0.890294 0.155533
Si Si3 0.706016 0.772260 0.850876
Si Si4 0.226835 0.667963 0.225963
Si Si5 0.813763 0.547588 0.080362
Si Si6 0.708342 0.103502 0.000860
Si Si7 0.862215 0.780631 0.697974
Si Si8 0.567800 0.548111 0.339783
O O1 0.739601 0.412730 0.064552
O O2 0.619211 0.512816 0.229581
O O3 0.339841 0.348638 0.917176
O O4 0.550124 0.200635 0.010802
O O5 0.242553 0.820393 0.245704
O O6 0.258737 0.900475 0.105098
O O7 0.149612 0.063921 0.281375
O O8 0.907187 0.786403 0.997815
O O9 0.742286 0.757614 0.742378
O O10 0.535880 0.618965 0.738054
O O11 0.633539 0.926403 0.920858
O O12 0.433503 0.668826 0.359136
O O13 0.049820 0.646120 0.230782
O O14 0.192514 0.519338 0.065857
O O15 0.907097 0.202305 0.183905
O O16 0.773275 0.631881 0.517832
#
# Coordination Sequence:
#
# PCOD8038935 Si02
#       8
#     2   2   2   2   2   2   2   2
#     4  10  19  31  51  78 110 134 166 209 267 311
#     4   9  16  33  56  79  96 131 183 217 253 287
#     4   9  18  34  53  76 100 134 183 218 242 291
#     4  10  18  31  56  77 101 131 175 221 254 292
#     4   9  18  31  50  82 104 129 171 221 252 299
#     4   9  18  33  56  74 103 140 169 214 255 299
#     4   9  20  34  52  76 108 139 171 212 249 309
#     4  11  22  32  50  83 110 135 167 209 265 310
#
# _framework density 19.641614000000001
#
# number of rings (size 3 to 8) (size 9 to 14) (size 15 to 20)
#    0.000    2.500    1.250    4.125    1.750    1.500 
#    0.000    0.000    0.000    0.750    0.000    0.000 
#    0.000    0.000    0.000    0.000    0.000    0.000 
#
# Total GULP energy -198275.394101 kJ/mol
# GULP energy per Si atom -12392.212131 kJ/mol
# Density = 1.959691 g / cm^3
# Si number density = 19.641614 Si / 1000 Ang^3
#
#
#
# Elastic Constant Matrix: (Units=GPa)
#
#
# Indices 1 2 3 4 5 6 
#
# 1 53.1628 27.2407 10.0235 1.5367 6.2473 -2.7498
# 2 27.2407 127.4793 20.8158 7.3884 6.9536 -10.5905
# 3 10.0235 20.8158 69.1718 10.8075 0.1419 -1.6192
# 4 1.5367 7.3884 10.8075 18.8915 1.8584 0.4584
# 5 6.2473 6.9536 0.1419 1.8584 14.1531 4.8850
# 6 -2.7498 -10.5905 -1.6192 0.4584 4.8850 28.7198
#
#
#
# Elastic Compliance Matrix: (Units=1/GPa)
#
#
# Indices 1 2 3 4 5 6 
#
# 1 0.022311 -0.003841 -0.002295 0.001825 -0.008894 0.002074
# 2 -0.003841 0.009636 -0.001926 -0.002047 -0.004062 0.003800
# 3 -0.002295 -0.001926 0.016750 -0.008938 0.003093 -0.000369
# 4 0.001825 -0.002047 -0.008938 0.059430 -0.007238 -0.000801
# 5 -0.008894 -0.004062 0.003093 -0.007238 0.083086 -0.016192
# 6 0.002074 0.003800 -0.000369 -0.000801 -0.016192 0.039165
#
#
# Mechanical properties :
#
#
# Convention : Reuss Voigt Hill
#
# Bulk Modulus (GPa) = 30.70139 40.66377 35.68258
# Shear Modulus (GPa) = 19.42801 25.13513 22.28157
#
# Velocity S-wave (km/s) = 3.14845 3.58115 3.37175
# Velocity P-wave (km/s) = 5.37417 6.15202 5.77620
#
# Compressibility (1/GPa) = 0.03257182
#
# Stress axis : x y z
#
# Youngs Moduli (GPa) = 44.82149 103.78149 59.69980
#
# Poissons Ratio (x) = 0.39863 0.13704
# Poissons Ratio (y) = 0.17216 0.11498
# Poissons Ratio (z) = 0.10289 0.19988
#
# Static dielectric constant tensor:
#      x y z
#    x 3.548560 -0.135270 0.082950 
#    y -0.135270 3.750020 -0.023640 
#    z 0.082950 -0.023640 3.207320 
# 
# 
# High freq. dielectric constant tensor:
#      x y z
#    x 1.753060 -0.004340 0.003400 
#    y -0.004340 1.783990 -0.000530 
#    z 0.003400 -0.000530 1.716850 
# 
# From -- ./inp_files/223480.got.cif
#   From: 2010.06.25/outbox.cif.g09.slc.cpg/sg2_112_cif.got.tgz:223480.got - 2010.06.27 13:26:56.
