data_PCOD8038226
_publ_section_title
;
Structure prediction by ZEFSAII (Michael W. Deem and Ramdas Pophale) SiO2 
 PCOD8038226
Probable space group: P -1
;
_chemical_formula_sum "Si O2"
_cell_formula_units_Z 14
_cell_length_a 19.690392
_cell_length_b 10.444382
_cell_length_c 9.238270
_cell_angle_alpha 52.997877
_cell_angle_beta 31.020753
_cell_angle_gamma 43.056749
_cell_volume 666.855752
_symmetry_space_group_name_H-M "P -1"
_symmetry_group_IT_number 2
_symmetry_cell_setting 'triclinic'
loop_
_space_group_symop_operation_xyz
x,y,z
-x,-y,-z
loop_
_atom_site_type_symbol
_atom_site_label
_atom_site_fract_x
_atom_site_fract_y
_atom_site_fract_z
Si Si1 0.305097 0.185621 0.863165
Si Si2 0.357028 0.917782 0.702661
Si Si3 0.199358 0.590272 0.668058
Si Si4 0.521312 0.492756 0.135639
Si Si5 0.192666 0.510553 0.408430
Si Si6 0.937872 0.707744 0.529416
Si Si7 0.111566 0.189212 0.760507
O O1 0.486260 0.092665 0.624445
O O2 0.225918 0.390546 0.799774
O O3 0.278660 0.057730 0.886290
O O4 0.224437 0.199982 0.153295
O O5 0.387022 0.717967 0.828779
O O6 0.243443 0.993651 0.720677
O O7 0.346461 0.605819 0.441543
O O8 0.177000 0.607865 0.524782
O O9 0.048752 0.754247 0.908389
O O10 0.500000 0.500000 0.000000
O O11 0.630961 0.575854 0.915766
O O12 0.156891 0.345896 0.596461
O O13 0.071984 0.683594 0.408819
O O14 0.908162 0.838955 0.354823
O O15 0.000000 0.500000 0.500000
#
# Coordination Sequence:
#
# PCOD8038226 Si02
#       7
#     2   2   2   2   2   2   2
#     4  10  18  34  56  88 111 144 188 238 276 327
#     4  10  21  34  60  86 114 142 190 240 281 324
#     4  10  17  34  60  82 110 146 190 227 278 334
#     4   9  21  37  57  83 118 144 183 238 292 332
#     4  10  18  34  58  82 112 146 191 231 273 332
#     4  10  20  33  56  85 116 148 192 227 273 334
#     4  11  20  34  61  85 108 151 195 229 270 332
#
# _framework density 20.994045
#
# number of rings (size 3 to 8) (size 9 to 14) (size 15 to 20)
#    0.000    2.000    4.286    1.286    2.000    0.571 
#    0.000    7.857    0.000    0.000    0.000    0.000 
#    0.000    0.000    0.000    0.000    0.000    0.000 
#
# Total GULP energy -173522.700096 kJ/mol
# GULP energy per Si atom -12394.478578 kJ/mol
# Density = 2.094626 g / cm^3
# Si number density = 20.994045 Si / 1000 Ang^3
#
#
#
# Elastic Constant Matrix: (Units=GPa)
#
#
# Indices 1 2 3 4 5 6 
#
# 1 95.4039 39.1882 69.3347 6.8264 13.1997 -43.0384
# 2 39.1882 52.7204 28.1799 6.1136 2.7724 -39.2409
# 3 69.3347 28.1799 129.3018 9.3105 -8.9800 -17.0979
# 4 6.8264 6.1136 9.3105 24.8312 -1.8832 0.6618
# 5 13.1997 2.7724 -8.9800 -1.8832 36.4900 -2.8872
# 6 -43.0384 -39.2409 -17.0979 0.6618 -2.8872 39.9835
#
#
#
# Elastic Compliance Matrix: (Units=1/GPa)
#
#
# Indices 1 2 3 4 5 6 
#
# 1 0.070474 0.055174 -0.035173 -0.025114 -0.030683 0.113167
# 2 0.055174 0.128843 -0.034121 -0.040659 -0.026793 0.169987
# 3 -0.035173 -0.034121 0.026697 0.010978 0.017798 -0.058827
# 4 -0.025114 -0.040659 0.010978 0.055702 0.012826 -0.062238
# 5 -0.030683 -0.026793 0.017798 0.012826 0.041711 -0.048912
# 6 0.113167 0.169987 -0.058827 -0.062238 -0.048912 0.285997
#
#
# Mechanical properties :
#
#
# Convention : Reuss Voigt Hill
#
# Bulk Modulus (GPa) = 5.05624 61.20354 33.12989
# Shear Modulus (GPa) = 7.10644 29.64248 18.37446
#
# Velocity S-wave (km/s) = 1.84183 3.76166 2.96163
# Velocity P-wave (km/s) = 2.63377 6.93419 5.24498
#
# Compressibility (1/GPa) = 0.19777528
#
# Stress axis : x y z
#
# Youngs Moduli (GPa) = 14.18965 7.76140 37.45715
#
# Poissons Ratio (x) = -0.42823 1.31746
# Poissons Ratio (y) = -0.78290 1.27807
# Poissons Ratio (z) = 0.49909 0.26483
#
# Static dielectric constant tensor:
#      x y z
#    x 4.126130 -0.473460 -0.155250 
#    y -0.473460 3.500580 0.043840 
#    z -0.155250 0.043840 4.303320 
# 
# 
# High freq. dielectric constant tensor:
#      x y z
#    x 1.814760 -0.035930 -0.007560 
#    y -0.035930 1.791290 0.003800 
#    z -0.007560 0.003800 1.833950 
# 
# From -- ./inp_files/157184.got.cif
#   From: 2010.06.25/outbox.cif.g09.slc.cpg/sg2_79_cif.got.tgz:157184.got - 2010.06.27 13:26:56.
