data_PCOD8038404
_publ_section_title
;
Structure prediction by ZEFSAII (Michael W. Deem and Ramdas Pophale) SiO2 
 PCOD8038404
Probable space group: P -1
;
_chemical_formula_sum "Si O2"
_cell_formula_units_Z 16
_cell_length_a 9.077557
_cell_length_b 8.192785
_cell_length_c 10.819822
_cell_angle_alpha 69.450731
_cell_angle_beta 105.598103
_cell_angle_gamma 114.431825
_cell_volume 678.743273
_symmetry_space_group_name_H-M "P -1"
_symmetry_group_IT_number 2
_symmetry_cell_setting 'triclinic'
loop_
_space_group_symop_operation_xyz
x,y,z
-x,-y,-z
loop_
_atom_site_type_symbol
_atom_site_label
_atom_site_fract_x
_atom_site_fract_y
_atom_site_fract_z
Si Si1 0.245762 0.627447 0.455218
Si Si2 0.950151 0.750601 0.367467
Si Si3 0.141793 0.737576 0.027763
Si Si4 0.734792 0.909009 0.873719
Si Si5 0.021883 0.137571 0.243213
Si Si6 0.695505 0.497144 0.751967
Si Si7 0.197355 0.385658 0.884012
Si Si8 0.550417 0.320078 0.276917
O O1 0.136934 0.411166 0.511910
O O2 0.337320 0.629839 0.345056
O O3 0.372638 0.722305 0.567754
O O4 0.132619 0.751456 0.381038
O O5 0.847747 0.717991 0.228534
O O6 0.954850 0.954245 0.365502
O O7 0.246613 0.601427 0.093624
O O8 0.964955 0.619260 0.078186
O O9 0.246197 0.920041 0.078838
O O10 0.118511 0.794653 0.866035
O O11 0.905604 0.946903 0.832373
O O12 0.582582 0.871467 0.754381
O O13 0.698711 0.715400 0.990921
O O14 0.160583 0.305403 0.297668
O O15 0.531928 0.527095 0.748754
O O16 0.311709 0.597370 0.819596
#
# Coordination Sequence:
#
# PCOD8038404 Si02
#       8
#     2   2   2   2   2   2   2   2
#     4  10  21  37  59  81 119 154 194 234 281 340
#     4  10  18  36  63  88 105 147 205 244 271 329
#     4  11  19  36  65  86 115 147 199 237 285 336
#     4  10  18  34  60  88 111 151 189 239 283 342
#     4  10  19  34  58  91 113 145 193 246 286 334
#     4  11  22  37  55  86 121 156 184 234 299 341
#     4  10  17  35  63  84 110 147 194 244 279 328
#     4  10  23  36  56  85 123 153 187 230 296 342
#
# _framework density 23.572977000000002
#
# number of rings (size 3 to 8) (size 9 to 14) (size 15 to 20)
#    0.000    1.750    3.750    1.875    0.000    0.500 
#    0.000    7.500    5.500    0.000    0.000    0.000 
#    0.000    0.000    0.000    0.000    0.000    0.000 
#
# Total GULP energy -198345.684534 kJ/mol
# GULP energy per Si atom -12396.605283 kJ/mol
# Density = 2.351932 g / cm^3
# Si number density = 23.572977 Si / 1000 Ang^3
#
#
#
# Elastic Constant Matrix: (Units=GPa)
#
#
# Indices 1 2 3 4 5 6 
#
# 1 58.0388 5.4458 15.2735 5.4639 12.4011 3.1127
# 2 5.4458 53.5565 10.6384 -0.6161 18.3200 7.6704
# 3 15.2735 10.6384 69.4927 -3.0466 15.4540 0.1997
# 4 5.4639 -0.6161 -3.0466 30.8932 1.1070 7.7927
# 5 12.4011 18.3200 15.4540 1.1070 25.3561 1.0730
# 6 3.1127 7.6704 0.1997 7.7927 1.0730 25.5668
#
#
#
# Elastic Compliance Matrix: (Units=1/GPa)
#
#
# Indices 1 2 3 4 5 6 
#
# 1 0.020152 0.001901 -0.002773 -0.003040 -0.009336 -0.001684
# 2 0.001901 0.026486 0.000112 0.002999 -0.019916 -0.008257
# 3 -0.002773 0.000112 0.017161 0.002574 -0.009287 -0.000225
# 4 -0.003040 0.002999 0.002574 0.036230 -0.003346 -0.011452
# 5 -0.009336 -0.019916 -0.009287 -0.003346 0.063966 0.005520
# 6 -0.001684 -0.008257 -0.000225 -0.011452 0.005520 0.045056
#
#
# Mechanical properties :
#
#
# Convention : Reuss Voigt Hill
#
# Bulk Modulus (GPa) = 16.05643 27.08924 21.57283
# Shear Modulus (GPa) = 21.61407 26.34526 23.97967
#
# Velocity S-wave (km/s) = 3.03132 3.34669 3.19290
# Velocity P-wave (km/s) = 4.36784 5.14299 4.77118
#
# Compressibility (1/GPa) = 0.06228034
#
# Stress axis : x y z
#
# Youngs Moduli (GPa) = 49.62173 37.75570 58.27162
#
# Poissons Ratio (x) = -0.07179 0.16156
# Poissons Ratio (y) = -0.09435 -0.00651
# Poissons Ratio (z) = 0.13758 -0.00422
#
# Static dielectric constant tensor:
#      x y z
#    x 3.893410 0.099740 0.143230 
#    y 0.099740 4.175650 -0.148390 
#    z 0.143230 -0.148390 4.397590 
# 
# 
# High freq. dielectric constant tensor:
#      x y z
#    x 1.892270 0.002480 0.017730 
#    y 0.002480 1.932090 0.000270 
#    z 0.017730 0.000270 1.940630 
# 
# From -- ./inp_files/285027.got.cif
#   From: 2010.06.25/outbox.cif.g09.slc.cpg/sg2_143_cif.got.tgz:285027.got - 2010.06.27 13:26:56.
