data_PCOD8038044
_publ_section_title
;
Structure prediction by ZEFSAII (Michael W. Deem and Ramdas Pophale) SiO2 
 PCOD8038044
Probable space group: P -1
;
_chemical_formula_sum "Si O2"
_cell_formula_units_Z 14
_cell_length_a 9.000000
_cell_length_b 9.000000
_cell_length_c 24.000000
_cell_angle_alpha 40.000000
_cell_angle_beta 30.000000
_cell_angle_gamma 50.000000
_cell_volume 623.501542
_symmetry_space_group_name_H-M "P -1"
_symmetry_group_IT_number 2
_symmetry_cell_setting 'triclinic'
loop_
_space_group_symop_operation_xyz
x,y,z
-x,-y,-z
loop_
_atom_site_type_symbol
_atom_site_label
_atom_site_fract_x
_atom_site_fract_y
_atom_site_fract_z
Si Si1 0.252177 0.064860 0.020723
Si Si2 0.890658 0.341703 0.897535
Si Si3 0.417716 0.253617 0.165695
Si Si4 0.578553 0.280388 0.695017
Si Si5 0.401972 0.888401 0.737422
Si Si6 0.376617 0.508212 0.269149
Si Si7 0.271814 0.630167 0.500467
O O1 0.935663 0.048459 0.160626
O O2 0.249641 0.880275 0.025528
O O3 0.367953 0.313986 0.889241
O O4 0.500000 0.000000 0.000000
O O5 0.851809 0.583789 0.807839
O O6 0.228263 0.297758 0.812335
O O7 0.716742 0.350510 0.009546
O O8 0.499157 0.277361 0.197050
O O9 0.330953 0.984845 0.257254
O O10 0.738908 0.414074 0.655674
O O11 0.676580 0.413222 0.569076
O O12 0.448666 0.729037 0.713912
O O13 0.643443 0.101655 0.591622
O O14 0.068650 0.456118 0.348650
O O15 0.500000 0.500000 0.500000
#
# Coordination Sequence:
#
# PCOD8038044 Si02
#       7
#     2   2   2   2   2   2   2
#     4  12  23  39  68 103 139 171 228 281 330 396
#     4  11  21  40  67 102 134 181 215 279 337 403
#     4  10  21  38  69  98 132 178 222 263 345 401
#     4  11  23  45  69  96 138 176 228 277 338 393
#     4  11  24  44  68  96 136 180 221 273 348 399
#     4  12  25  42  69 101 137 174 226 283 332 397
#     4  11  25  47  70  91 134 185 227 275 343 402
#
# _framework density 22.453834000000001
#
# number of rings (size 3 to 8) (size 9 to 14) (size 15 to 20)
#    0.000    0.857    4.286    4.286    2.000    2.286 
#    2.571    0.714    0.000    0.000    0.000    0.000 
#    0.000    0.000    0.000    0.000    0.000    0.000 
#
# Total GULP energy -173509.797925 kJ/mol
# GULP energy per Si atom -12393.556995 kJ/mol
# Density = 2.240273 g / cm^3
# Si number density = 22.453834 Si / 1000 Ang^3
#
#
#
# Elastic Constant Matrix: (Units=GPa)
#
#
# Indices 1 2 3 4 5 6 
#
# 1 50.4067 34.0621 27.9932 -18.0940 -21.5757 -12.7099
# 2 34.0621 121.9662 37.8740 -12.5471 -15.4941 -1.6211
# 3 27.9932 37.8740 85.9442 -8.2873 -20.6227 -0.6823
# 4 -18.0940 -12.5471 -8.2873 24.3920 -5.2190 2.0869
# 5 -21.5757 -15.4941 -20.6227 -5.2190 28.5643 -2.7480
# 6 -12.7099 -1.6211 -0.6823 2.0869 -2.7480 27.9036
#
#
#
# Elastic Compliance Matrix: (Units=1/GPa)
#
#
# Indices 1 2 3 4 5 6 
#
# 1 0.154028 -0.010766 0.002652 0.134127 0.144020 0.073750
# 2 -0.010766 0.010962 -0.003125 -0.004227 -0.005655 -0.004584
# 3 0.002652 -0.003125 0.016341 0.008703 0.013902 0.002144
# 4 0.134127 -0.004227 0.008703 0.166238 0.141696 0.062582
# 5 0.144020 -0.005655 0.013902 0.141696 0.183684 0.073104
# 6 0.073750 -0.004584 0.002144 0.062582 0.073104 0.071735
#
#
# Mechanical properties :
#
#
# Convention : Reuss Voigt Hill
#
# Bulk Modulus (GPa) = 6.29511 50.90843 28.60177
# Shear Modulus (GPa) = 7.37010 26.73116 17.05063
#
# Velocity S-wave (km/s) = 1.81369 3.45410 2.75865
# Velocity P-wave (km/s) = 2.68246 6.21526 4.78670
#
# Compressibility (1/GPa) = 0.15885353
#
# Stress axis : x y z
#
# Youngs Moduli (GPa) = 6.49233 91.22569 61.19611
#
# Poissons Ratio (x) = 0.98211 -0.16231
# Poissons Ratio (y) = 0.06989 0.19125
# Poissons Ratio (z) = -0.01722 0.28509
#
# Static dielectric constant tensor:
#      x y z
#    x 4.077510 0.043040 0.192950 
#    y 0.043040 4.101340 -0.068160 
#    z 0.192950 -0.068160 4.711560 
# 
# 
# High freq. dielectric constant tensor:
#      x y z
#    x 1.870780 0.004120 -0.003890 
#    y 0.004120 1.892880 0.002010 
#    z -0.003890 0.002010 1.889110 
# 
# From -- ./inp_files/225926.got.cif
#   From: 2010.06.25/outbox.ucp.g09.slc.cvg/sg2_113_cif.got.tgz:225926.got - 2010.06.28 11:54:26.
