data_PCOD8038752
_publ_section_title
;
Structure prediction by ZEFSAII (Michael W. Deem and Ramdas Pophale) SiO2 
 PCOD8038752
Probable space group: P -1
;
_chemical_formula_sum "Si O2"
_cell_formula_units_Z 16
_cell_length_a 9.131591
_cell_length_b 11.015954
_cell_length_c 19.727983
_cell_angle_alpha 148.417323
_cell_angle_beta 60.424666
_cell_angle_gamma 116.854586
_cell_volume 901.789280
_symmetry_space_group_name_H-M "P -1"
_symmetry_group_IT_number 2
_symmetry_cell_setting 'triclinic'
loop_
_space_group_symop_operation_xyz
x,y,z
-x,-y,-z
loop_
_atom_site_type_symbol
_atom_site_label
_atom_site_fract_x
_atom_site_fract_y
_atom_site_fract_z
Si Si1 0.684467 0.231974 0.597984
Si Si2 0.995619 0.488913 0.296426
Si Si3 0.167325 0.408368 0.487915
Si Si4 0.228609 0.604414 0.820481
Si Si5 0.932284 0.104787 0.313632
Si Si6 0.841045 0.930177 0.871140
Si Si7 0.683658 0.800659 0.308444
Si Si8 0.400780 0.403491 0.313936
O O1 0.513348 0.262906 0.694938
O O2 0.674458 0.366109 0.591583
O O3 0.845196 0.321455 0.647869
O O4 0.696324 0.961656 0.449344
O O5 0.841480 0.571471 0.418787
O O6 0.929551 0.470736 0.226579
O O7 0.061992 0.243392 0.186204
O O8 0.103784 0.650132 0.593014
O O9 0.345673 0.380799 0.395402
O O10 0.044425 0.179636 0.389474
O O11 0.227805 0.433786 0.804337
O O12 0.398553 0.588665 0.730437
O O13 0.216777 0.864844 0.971866
O O14 0.035401 0.970278 0.169637
O O15 0.773954 0.929247 0.285211
O O16 0.675423 0.808400 0.815412
#
# Coordination Sequence:
#
# PCOD8038752 Si02
#       8
#     2   2   2   2   2   2   2   2
#     4   9  17  31  50  74  93 127 158 197 242 280
#     4  10  19  33  51  69 101 128 158 196 239 291
#     4   9  15  29  52  74  91 120 164 198 244 268
#     4  11  22  30  45  77 104 130 151 190 247 291
#     4   9  15  30  54  72  89 122 166 207 223 275
#     4   9  19  34  53  68  93 133 167 195 226 278
#     4  10  18  30  51  73  99 120 162 200 235 285
#     4   9  17  32  54  72  93 120 168 209 226 270
#
# _framework density 17.742502999999999
#
# number of rings (size 3 to 8) (size 9 to 14) (size 15 to 20)
#    0.000    2.500    2.500    2.250    0.000    1.500 
#    0.000    0.000    0.000    0.750    0.000    0.000 
#    0.000    0.000    0.000    0.000    0.000    0.000 
#
# Total GULP energy -198263.477176 kJ/mol
# GULP energy per Si atom -12391.467323 kJ/mol
# Density = 1.770212 g / cm^3
# Si number density = 17.742503 Si / 1000 Ang^3
#
#
#
# Elastic Constant Matrix: (Units=GPa)
#
#
# Indices 1 2 3 4 5 6 
#
# 1 66.5654 19.4211 21.4983 2.9752 4.0860 13.6343
# 2 19.4211 75.6707 6.0083 0.9490 2.3790 23.7880
# 3 21.4983 6.0083 68.3681 1.2484 0.5425 4.8779
# 4 2.9752 0.9490 1.2484 11.1816 3.3713 3.4975
# 5 4.0860 2.3790 0.5425 3.3713 15.9667 -0.1015
# 6 13.6343 23.7880 4.8779 3.4975 -0.1015 18.5092
#
#
#
# Elastic Compliance Matrix: (Units=1/GPa)
#
#
# Indices 1 2 3 4 5 6 
#
# 1 0.019733 -0.000511 -0.005230 0.000873 -0.005061 -0.012694
# 2 -0.000511 0.023266 0.000227 0.009653 -0.005582 -0.031440
# 3 -0.005230 0.000227 0.016299 -0.000506 0.000854 -0.000634
# 4 0.000873 0.009653 -0.000506 0.106104 -0.024258 -0.033098
# 5 -0.005061 -0.005582 0.000854 -0.024258 0.069949 0.015644
# 6 -0.012694 -0.031440 -0.000634 -0.033098 0.015644 0.110292
#
#
# Mechanical properties :
#
#
# Convention : Reuss Voigt Hill
#
# Bulk Modulus (GPa) = 20.71656 33.82885 27.27270
# Shear Modulus (GPa) = 13.41344 20.04327 16.72835
#
# Velocity S-wave (km/s) = 2.75254 3.36471 3.07390
# Velocity P-wave (km/s) = 4.66943 5.84833 5.29181
#
# Compressibility (1/GPa) = 0.04827057
#
# Stress axis : x y z
#
# Youngs Moduli (GPa) = 50.67764 42.98084 61.35309
#
# Poissons Ratio (x) = 0.02194 0.32089
# Poissons Ratio (y) = 0.02587 -0.01393
# Poissons Ratio (z) = 0.26505 -0.00976
#
# Static dielectric constant tensor:
#      x y z
#    x 2.984740 0.252990 -0.048200 
#    y 0.252990 3.302910 -0.052240 
#    z -0.048200 -0.052240 3.206490 
# 
# 
# High freq. dielectric constant tensor:
#      x y z
#    x 1.653930 0.025480 -0.004540 
#    y 0.025480 1.681830 0.000230 
#    z -0.004540 0.000230 1.676810 
# 
# From -- ./inp_files/251930.got.cif
#   From: 2010.06.25/outbox.cif.g09.slc.cpg/sg2_126_cif.got.tgz:251930.got - 2010.06.27 13:26:56.
