data_PCOD8038755
_publ_section_title
;
Structure prediction by ZEFSAII (Michael W. Deem and Ramdas Pophale) SiO2 
 PCOD8038755
Probable space group: P -1
;
_chemical_formula_sum "Si O2"
_cell_formula_units_Z 16
_cell_length_a 12.081029
_cell_length_b 9.195376
_cell_length_c 18.615621
_cell_angle_alpha 64.318707
_cell_angle_beta 153.247700
_cell_angle_gamma 116.475879
_cell_volume 830.052624
_symmetry_space_group_name_H-M "P -1"
_symmetry_group_IT_number 2
_symmetry_cell_setting 'triclinic'
loop_
_space_group_symop_operation_xyz
x,y,z
-x,-y,-z
loop_
_atom_site_type_symbol
_atom_site_label
_atom_site_fract_x
_atom_site_fract_y
_atom_site_fract_z
Si Si1 0.896672 0.792247 0.213769
Si Si2 0.655234 0.373890 0.529544
Si Si3 0.202733 0.292020 0.384947
Si Si4 0.290945 0.433678 0.615466
Si Si5 0.723702 0.471575 0.257554
Si Si6 0.257783 0.100435 0.601801
Si Si7 0.768612 0.052438 0.177406
Si Si8 0.500268 0.138369 0.136620
O O1 0.726317 0.624309 0.173103
O O2 0.165156 0.761992 0.348212
O O3 0.925609 0.906610 0.277777
O O4 0.761870 0.881361 0.053112
O O5 0.413476 0.288288 0.448343
O O6 0.799873 0.525697 0.626306
O O7 0.571022 0.440229 0.390061
O O8 0.245068 0.164404 0.499572
O O9 0.933775 0.221878 0.208951
O O10 0.389078 0.490201 0.738793
O O11 0.346469 0.251711 0.673859
O O12 0.997293 0.428791 0.436511
O O13 0.550025 0.323138 0.152488
O O14 0.480783 0.986302 0.759349
O O15 0.000000 0.000000 0.500000
O O16 0.723692 0.086540 0.227673
O O17 0.500000 0.000000 0.000000
#
# Coordination Sequence:
#
# PCOD8038755 Si02
#       8
#     2   2   2   2   2   2   2   2
#     4  10  21  33  51  79 115 145 182 229 282 330
#     4   9  20  39  57  80 111 149 191 226 269 338
#     4  10  20  36  61  82 108 150 188 226 275 335
#     4   9  18  31  51  80 106 137 185 237 277 321
#     4  10  18  30  51  77 108 144 181 237 276 321
#     4  11  18  31  55  80 111 138 184 234 281 328
#     4  10  20  33  53  83 113 140 178 230 285 327
#     4  11  20  33  50  80 111 146 182 229 285 328
#
# _framework density 19.275887000000001
#
# number of rings (size 3 to 8) (size 9 to 14) (size 15 to 20)
#    0.000    2.000    2.500    2.625    0.000    2.500 
#    0.000    0.625    0.000    1.500    0.000   16.625 
#    0.000    0.000    0.000    0.000    0.000    0.000 
#
# Total GULP energy -198255.394272 kJ/mol
# GULP energy per Si atom -12390.962142 kJ/mol
# Density = 1.923201 g / cm^3
# Si number density = 19.275887 Si / 1000 Ang^3
#
#
#
# Elastic Constant Matrix: (Units=GPa)
#
#
# Indices 1 2 3 4 5 6 
#
# 1 110.0925 32.8570 25.1382 8.3927 6.0047 -0.1664
# 2 32.8570 78.7172 26.6972 7.2503 7.0130 -4.3722
# 3 25.1382 26.6972 63.1821 -0.4979 -0.0729 4.6136
# 4 8.3927 7.2503 -0.4979 31.8823 -1.8811 -2.2743
# 5 6.0047 7.0130 -0.0729 -1.8811 23.8036 -1.3130
# 6 -0.1664 -4.3722 4.6136 -2.2743 -1.3130 35.5560
#
#
#
# Elastic Compliance Matrix: (Units=1/GPa)
#
#
# Indices 1 2 3 4 5 6 
#
# 1 0.011019 -0.003174 -0.003052 -0.002359 -0.002050 -0.000169
# 2 -0.003174 0.016912 -0.006095 -0.003182 -0.004315 0.002493
# 3 -0.003052 -0.006095 0.019865 0.002436 0.002649 -0.003088
# 4 -0.002359 -0.003182 0.002436 0.033110 0.004243 0.001556
# 5 -0.002050 -0.004315 0.002649 0.004243 0.044198 0.001020
# 6 -0.000169 0.002493 -0.003088 0.001556 0.001020 0.028968
#
#
# Mechanical properties :
#
#
# Convention : Reuss Voigt Hill
#
# Bulk Modulus (GPa) = 43.18941 46.81960 45.00451
# Shear Modulus (GPa) = 26.81975 29.40168 28.11072
#
# Velocity S-wave (km/s) = 3.73414 3.90976 3.82296
# Velocity P-wave (km/s) = 6.40674 6.68757 6.54866
#
# Compressibility (1/GPa) = 0.02315382
#
# Stress axis : x y z
#
# Youngs Moduli (GPa) = 90.75512 59.13087 50.34082
#
# Poissons Ratio (x) = 0.18767 0.15362
# Poissons Ratio (y) = 0.28804 0.30684
# Poissons Ratio (z) = 0.27694 0.36042
#
# Static dielectric constant tensor:
#      x y z
#    x 3.740560 -0.241090 -0.172820 
#    y -0.241090 3.789100 -0.099360 
#    z -0.172820 -0.099360 3.243990 
# 
# 
# High freq. dielectric constant tensor:
#      x y z
#    x 1.738230 -0.022240 -0.015580 
#    y -0.022240 1.755250 -0.009080 
#    z -0.015580 -0.009080 1.722530 
# 
# From -- ./inp_files/254915.got.cif
#   From: 2010.06.25/outbox.cif.g09.slc.cpg/sg2_128_cif.got.tgz:254915.got - 2010.06.27 13:26:56.
