data_PCOD8038036
_publ_section_title
;
Structure prediction by ZEFSAII (Michael W. Deem and Ramdas Pophale) SiO2 
 PCOD8038036
Probable space group: P -1
;
_chemical_formula_sum "Si O2"
_cell_formula_units_Z 16
_cell_length_a 11.372610
_cell_length_b 12.131174
_cell_length_c 7.489092
_cell_angle_alpha 124.618385
_cell_angle_beta 84.360164
_cell_angle_gamma 67.836989
_cell_volume 718.186992
_symmetry_space_group_name_H-M "P -1"
_symmetry_group_IT_number 2
_symmetry_cell_setting 'triclinic'
loop_
_space_group_symop_operation_xyz
x,y,z
-x,-y,-z
loop_
_atom_site_type_symbol
_atom_site_label
_atom_site_fract_x
_atom_site_fract_y
_atom_site_fract_z
Si Si1 0.594803 0.461831 0.619477
Si Si2 0.848687 0.947654 0.555934
Si Si3 0.130622 0.600414 0.642500
Si Si4 0.300769 0.873555 0.753702
Si Si5 0.387433 0.097325 0.958695
Si Si6 0.574142 0.210600 0.941949
Si Si7 0.861723 0.694112 0.559696
Si Si8 0.007694 0.078461 0.847917
O O1 0.500000 0.500000 0.500000
O O2 0.726594 0.471062 0.552027
O O3 0.641932 0.286411 0.518360
O O4 0.501953 0.600259 0.904508
O O5 0.819125 0.816070 0.514744
O O6 0.925578 0.888827 0.303312
O O7 0.937680 0.981001 0.713953
O O8 0.700232 0.110977 0.694001
O O9 0.138751 0.462819 0.641746
O O10 0.013535 0.648265 0.556275
O O11 0.104623 0.749638 0.899605
O O12 0.355968 0.838965 0.916482
O O13 0.130946 0.970602 0.871993
O O14 0.354254 0.978697 0.748240
O O15 0.453467 0.171680 0.891817
O O16 0.242981 0.230427 0.189570
O O17 0.500000 0.000000 0.000000
#
# Coordination Sequence:
#
# PCOD8038036 Si02
#       8
#     2   2   2   2   2   2   2   2
#     4  10  20  31  55  89 108 136 182 237 282 319
#     4  11  23  38  58  78 113 158 184 227 274 339
#     4  11  22  35  59  87 113 140 187 239 277 331
#     4  10  19  34  58  80 111 143 184 235 270 327
#     4  10  17  33  59  83 110 139 180 233 281 329
#     4  10  19  36  58  82 111 142 185 232 284 324
#     4  11  21  36  60  87 109 145 187 235 285 319
#     4  11  23  39  54  81 116 151 193 219 276 337
#
# _framework density 22.278320000000001
#
# number of rings (size 3 to 8) (size 9 to 14) (size 15 to 20)
#    0.000    1.500    5.000    2.250    0.000    2.000 
#    0.000    1.250    0.000    3.000    0.000    0.000 
#    0.000    0.000    0.000    0.000    0.000    0.000 
#
# Total GULP energy -198304.489507 kJ/mol
# GULP energy per Si atom -12394.030594 kJ/mol
# Density = 2.222761 g / cm^3
# Si number density = 22.278320 Si / 1000 Ang^3
#
#
#
# Elastic Constant Matrix: (Units=GPa)
#
#
# Indices 1 2 3 4 5 6 
#
# 1 90.5119 6.1058 3.8903 16.1946 -12.8241 -6.2977
# 2 6.1058 58.6214 30.5480 27.9184 5.1170 11.9660
# 3 3.8903 30.5480 67.3213 27.9717 -6.6246 2.7555
# 4 16.1946 27.9184 27.9717 38.1161 2.6868 2.2115
# 5 -12.8241 5.1170 -6.6246 2.6868 34.5451 12.7925
# 6 -6.2977 11.9660 2.7555 2.2115 12.7925 29.4904
#
#
#
# Elastic Compliance Matrix: (Units=1/GPa)
#
#
# Indices 1 2 3 4 5 6 
#
# 1 0.013351 0.000555 0.003266 -0.008924 0.006061 0.000361
# 2 0.000555 0.030775 -0.006345 -0.017495 -0.000398 -0.010291
# 3 0.003266 -0.006345 0.024946 -0.015567 0.008776 -0.001698
# 4 -0.008924 -0.017495 -0.015567 0.054598 -0.010601 0.007152
# 5 0.006061 -0.000398 0.008776 -0.010601 0.039595 -0.015745
# 6 0.000361 -0.010291 -0.001698 0.007152 -0.015745 0.044615
#
#
# Mechanical properties :
#
#
# Convention : Reuss Voigt Hill
#
# Bulk Modulus (GPa) = 15.61947 33.06033 24.33990
# Shear Modulus (GPa) = 21.34305 32.15768 26.75036
#
# Velocity S-wave (km/s) = 3.09855 3.80340 3.46892
# Velocity P-wave (km/s) = 4.45282 5.84463 5.19554
#
# Compressibility (1/GPa) = 0.06402267
#
# Stress axis : x y z
#
# Youngs Moduli (GPa) = 74.90080 32.49389 40.08714
#
# Poissons Ratio (x) = -0.01802 -0.13094
# Poissons Ratio (y) = -0.04154 0.25437
# Poissons Ratio (z) = -0.24465 0.20619
#
# Static dielectric constant tensor:
#      x y z
#    x 4.552190 0.319280 0.056200 
#    y 0.319280 3.989360 0.746720 
#    z 0.056200 0.746720 4.148280 
# 
# 
# High freq. dielectric constant tensor:
#      x y z
#    x 1.900800 0.010990 -0.009680 
#    y 0.010990 1.849980 0.044660 
#    z -0.009680 0.044660 1.858560 
# 
# From -- ./inp_files/268895.got.cif
#   From: 2010.06.25/outbox.cif.g09.slc.cpg/sg2_135_cif.got.tgz:268895.got - 2010.06.27 13:26:56.
