data_PCOD8038919
_publ_section_title
;
Structure prediction by ZEFSAII (Michael W. Deem and Ramdas Pophale) SiO2 
 PCOD8038919
Probable space group: P -1
;
_chemical_formula_sum "Si O2"
_cell_formula_units_Z 16
_cell_length_a 11.604569
_cell_length_b 12.916138
_cell_length_c 22.685468
_cell_angle_alpha 151.204699
_cell_angle_beta 150.327057
_cell_angle_gamma 37.952658
_cell_volume 805.556585
_symmetry_space_group_name_H-M "P -1"
_symmetry_group_IT_number 2
_symmetry_cell_setting 'triclinic'
loop_
_space_group_symop_operation_xyz
x,y,z
-x,-y,-z
loop_
_atom_site_type_symbol
_atom_site_label
_atom_site_fract_x
_atom_site_fract_y
_atom_site_fract_z
Si Si1 0.758314 0.759553 0.513442
Si Si2 0.472736 0.165807 0.792739
Si Si3 0.519273 0.113754 0.655365
Si Si4 0.791888 0.877479 0.867011
Si Si5 0.133546 0.509776 0.875916
Si Si6 0.075483 0.613161 0.030772
Si Si7 0.698508 0.291448 0.254522
Si Si8 0.675182 0.955922 0.983220
O O1 0.686379 0.883778 0.482736
O O2 0.621323 0.546854 0.347175
O O3 0.034681 0.725660 0.616100
O O4 0.687086 0.892561 0.607515
O O5 0.408724 0.109798 0.669421
O O6 0.237777 0.284542 0.779043
O O7 0.570226 0.937573 0.754402
O O8 0.676913 0.320790 0.960216
O O9 0.665733 0.317181 0.812408
O O10 0.716197 0.991836 0.951517
O O11 0.891668 0.621640 0.792193
O O12 0.000000 0.000000 0.000000
O O13 0.075000 0.467456 0.897911
O O14 0.000000 0.500000 0.000000
O O15 0.893742 0.825456 0.048076
O O16 0.554319 0.169371 0.176962
O O17 0.643708 0.192978 0.117134
#
# Coordination Sequence:
#
# PCOD8038919 Si02
#       8
#     2   2   2   2   2   2   2   2
#     4  10  21  37  55  81 113 155 187 225 285 349
#     4   9  17  32  51  76 106 144 186 230 273 327
#     4  10  20  36  55  79 111 149 193 229 275 344
#     4   9  18  31  53  82 113 144 177 237 288 329
#     4   8  17  30  47  80 112 138 182 227 281 336
#     4  10  18  31  54  86 118 145 175 238 294 330
#     4  10  21  36  57  84 112 148 185 231 289 341
#     4  10  20  35  56  88 117 137 186 243 284 334
#
# _framework density 19.862044000000001
#
# number of rings (size 3 to 8) (size 9 to 14) (size 15 to 20)
#    0.000    2.500    1.250    1.500    0.000    6.000 
#    2.250    0.000    0.000    1.500    0.000    0.000 
#    0.000    0.000    0.000    0.000    0.000    0.000 
#
# Total GULP energy -198251.925932 kJ/mol
# GULP energy per Si atom -12390.745371 kJ/mol
# Density = 1.981684 g / cm^3
# Si number density = 19.862044 Si / 1000 Ang^3
#
#
#
# Elastic Constant Matrix: (Units=GPa)
#
#
# Indices 1 2 3 4 5 6 
#
# 1 150.7374 47.4096 36.8338 4.9591 -28.1034 7.8208
# 2 47.4096 90.7577 23.8724 0.2462 -20.7522 -1.7154
# 3 36.8338 23.8724 57.7735 0.0261 -5.9393 2.6358
# 4 4.9591 0.2462 0.0261 12.2238 -0.6101 -4.5872
# 5 -28.1034 -20.7522 -5.9393 -0.6101 31.2312 0.5830
# 6 7.8208 -1.7154 2.6358 -4.5872 0.5830 30.3925
#
#
#
# Elastic Compliance Matrix: (Units=1/GPa)
#
#
# Indices 1 2 3 4 5 6 
#
# 1 0.010108 -0.002666 -0.004533 -0.004927 0.006426 -0.003225
# 2 -0.002666 0.015037 -0.003903 0.001890 0.006849 0.002027
# 3 -0.004533 -0.003903 0.021581 0.001501 -0.002526 -0.000651
# 4 -0.004927 0.001890 0.001501 0.089225 -0.001424 0.014738
# 5 0.006426 0.006849 -0.002526 -0.001424 0.041883 -0.002066
# 6 -0.003225 0.002027 -0.000651 0.014738 -0.002066 0.036168
#
#
# Mechanical properties :
#
#
# Convention : Reuss Voigt Hill
#
# Bulk Modulus (GPa) = 40.77906 57.27781 49.02844
# Shear Modulus (GPa) = 20.46012 27.51302 23.98657
#
# Velocity S-wave (km/s) = 3.21302 3.72587 3.47891
# Velocity P-wave (km/s) = 5.86006 6.88549 6.39337
#
# Compressibility (1/GPa) = 0.02452239
#
# Stress axis : x y z
#
# Youngs Moduli (GPa) = 98.93567 66.50286 46.33774
#
# Poissons Ratio (x) = 0.17730 0.21003
# Poissons Ratio (y) = 0.26377 0.18085
# Poissons Ratio (z) = 0.44843 0.25955
#
# Static dielectric constant tensor:
#      x y z
#    x 3.759710 -0.185340 -0.160870 
#    y -0.185340 3.984760 -0.036630 
#    z -0.160870 -0.036630 3.280460 
# 
# 
# High freq. dielectric constant tensor:
#      x y z
#    x 1.777630 -0.011030 -0.014650 
#    y -0.011030 1.779680 -0.009690 
#    z -0.014650 -0.009690 1.732730 
# 
# From -- ./inp_files/180362.got.cif
#   From: 2010.06.25/outbox.cif.g09.slc.cpg/sg2_91_cif.got.tgz:180362.got - 2010.06.27 13:26:56.
