data_PCOD8038615
_publ_section_title
;
Structure prediction by ZEFSAII (Michael W. Deem and Ramdas Pophale) SiO2 
 PCOD8038615
Probable space group: P -1
;
_chemical_formula_sum "Si O2"
_cell_formula_units_Z 14
_cell_length_a 9.151019
_cell_length_b 13.950965
_cell_length_c 8.877430
_cell_angle_alpha 93.613296
_cell_angle_beta 119.965030
_cell_angle_gamma 43.521912
_cell_volume 584.984804
_symmetry_space_group_name_H-M "P -1"
_symmetry_group_IT_number 2
_symmetry_cell_setting 'triclinic'
loop_
_space_group_symop_operation_xyz
x,y,z
-x,-y,-z
loop_
_atom_site_type_symbol
_atom_site_label
_atom_site_fract_x
_atom_site_fract_y
_atom_site_fract_z
Si Si1 0.960805 0.209942 0.646781
Si Si2 0.208888 0.827823 0.717173
Si Si3 0.081734 0.589903 0.177361
Si Si4 0.309834 0.499607 0.956684
Si Si5 0.170531 0.909622 0.231761
Si Si6 0.511263 0.114813 0.211936
Si Si7 0.739327 0.692609 0.620669
O O1 0.796901 0.256113 0.414552
O O2 0.834939 0.369964 0.648923
O O3 0.900257 0.163174 0.747038
O O4 0.299557 0.061880 0.765506
O O5 0.247417 0.912049 0.662032
O O6 0.482902 0.686177 0.949578
O O7 0.936071 0.958052 0.696770
O O8 0.207607 0.427946 0.263722
O O9 0.184888 0.576976 0.065697
O O10 0.740733 0.746510 0.018674
O O11 0.046059 0.593887 0.716090
O O12 0.500000 0.500000 0.000000
O O13 0.513177 0.770454 0.379761
O O14 0.000000 0.000000 0.000000
O O15 0.392252 0.164323 0.325299
#
# Coordination Sequence:
#
# PCOD8038615 Si02
#       7
#     2   2   2   2   2   2   2
#     4  11  22  38  69 106 133 171 234 285 331 397
#     4  11  20  43  68  94 134 181 226 275 340 406
#     4  11  22  38  71 105 132 172 240 281 327 403
#     4  11  24  41  67  99 141 180 222 284 349 400
#     4  11  24  41  69  97 140 183 224 276 349 412
#     4  10  17  40  66  98 127 176 229 277 327 399
#     4  11  20  45  71  96 132 186 230 278 335 406
#
# _framework density 23.932247
#
# number of rings (size 3 to 8) (size 9 to 14) (size 15 to 20)
#    0.000    1.143    5.714    2.143    2.000    2.286 
#    0.000    5.714    0.000    0.000    0.000    0.000 
#    0.000    0.000    0.000    0.000    0.000    0.000 
#
# Total GULP energy -173441.492295 kJ/mol
# GULP energy per Si atom -12388.678021 kJ/mol
# Density = 2.387778 g / cm^3
# Si number density = 23.932247 Si / 1000 Ang^3
#
#
#
# Elastic Constant Matrix: (Units=GPa)
#
#
# Indices 1 2 3 4 5 6 
#
# 1 94.7577 20.7301 34.1103 -1.5178 15.6422 -12.4875
# 2 20.7301 76.6533 11.7110 -1.5175 11.6665 -2.4202
# 3 34.1103 11.7110 137.7814 -22.2690 17.9022 -15.8306
# 4 -1.5178 -1.5175 -22.2690 41.5563 -4.3673 14.8023
# 5 15.6422 11.6665 17.9022 -4.3673 28.1966 -6.5307
# 6 -12.4875 -2.4202 -15.8306 14.8023 -6.5307 18.9092
#
#
#
# Elastic Compliance Matrix: (Units=1/GPa)
#
#
# Indices 1 2 3 4 5 6 
#
# 1 0.013683 -0.002590 -0.002388 -0.004434 -0.003622 0.008926
# 2 -0.002590 0.014448 -0.000096 0.000621 -0.004873 -0.002111
# 3 -0.002388 -0.000096 0.009129 0.003752 -0.003401 0.001942
# 4 -0.004434 0.000621 0.003752 0.035847 -0.001151 -0.028166
# 5 -0.003622 -0.004873 -0.003401 -0.001151 0.043828 0.010175
# 6 0.008926 -0.002111 0.001942 -0.028166 0.010175 0.085697
#
#
# Mechanical properties :
#
#
# Convention : Reuss Voigt Hill
#
# Bulk Modulus (GPa) = 36.88412 49.14392 43.01402
# Shear Modulus (GPa) = 22.54115 33.90849 28.22482
#
# Velocity S-wave (km/s) = 3.07233 3.76820 3.43791
# Velocity P-wave (km/s) = 5.29442 6.28582 5.81130
#
# Compressibility (1/GPa) = 0.02711194
#
# Stress axis : x y z
#
# Youngs Moduli (GPa) = 73.08566 69.21288 109.54696
#
# Poissons Ratio (x) = 0.17927 0.26157
# Poissons Ratio (y) = 0.18930 0.01049
# Poissons Ratio (z) = 0.17451 0.00663
#
# Static dielectric constant tensor:
#      x y z
#    x 3.995420 -0.131730 0.346010 
#    y -0.131730 4.544380 -0.365840 
#    z 0.346010 -0.365840 4.446030 
# 
# 
# High freq. dielectric constant tensor:
#      x y z
#    x 1.904060 -0.011900 0.027200 
#    y -0.011900 1.955760 -0.025790 
#    z 0.027200 -0.025790 1.957210 
# 
# From -- ./inp_files/207964.got.cif
#   From: 2010.06.25/outbox.cif.g09.slc.cpg/sg2_104_cif.got.tgz:207964.got - 2010.06.27 13:26:56.
