data_PCOD8038458
_publ_section_title
;
Structure prediction by ZEFSAII (Michael W. Deem and Ramdas Pophale) SiO2 
 PCOD8038458
Probable space group: P -1
;
_chemical_formula_sum "Si O2"
_cell_formula_units_Z 14
_cell_length_a 9.084761
_cell_length_b 9.267521
_cell_length_c 23.536240
_cell_angle_alpha 45.494648
_cell_angle_beta 151.463577
_cell_angle_gamma 122.733296
_cell_volume 658.529460
_symmetry_space_group_name_H-M "P -1"
_symmetry_group_IT_number 2
_symmetry_cell_setting 'triclinic'
loop_
_space_group_symop_operation_xyz
x,y,z
-x,-y,-z
loop_
_atom_site_type_symbol
_atom_site_label
_atom_site_fract_x
_atom_site_fract_y
_atom_site_fract_z
Si Si1 0.212049 0.036714 0.435700
Si Si2 0.317518 0.966640 0.314344
Si Si3 0.671741 0.877625 0.241666
Si Si4 0.075963 0.507603 0.759243
Si Si5 0.621255 0.245227 0.719100
Si Si6 0.106075 0.577201 0.399243
Si Si7 0.381571 0.852405 0.954315
O O1 0.376247 0.969706 0.571193
O O2 0.998912 0.271858 0.295952
O O3 0.500000 0.000000 0.500000
O O4 0.974872 0.891860 0.379346
O O5 0.369047 0.940013 0.271748
O O6 0.296169 0.749857 0.396865
O O7 0.992429 0.134580 0.168949
O O8 0.390540 0.845657 0.196455
O O9 0.777547 0.681987 0.289216
O O10 0.549874 0.076963 0.105732
O O11 0.925698 0.341136 0.788341
O O12 0.950438 0.548053 0.641274
O O13 0.445722 0.390015 0.914082
O O14 0.310897 0.424521 0.555497
O O15 0.500000 0.000000 0.000000
#
# Coordination Sequence:
#
# PCOD8038458 Si02
#       7
#     2   2   2   2   2   2   2
#     4  12  21  40  61  91 116 155 203 247 284 354
#     4  10  19  36  62  83 118 153 200 236 293 344
#     4  11  24  34  59  92 126 144 196 253 301 334
#     4  11  21  37  67  82 117 160 203 232 292 356
#     4  11  19  35  60  94 114 151 199 254 290 337
#     4  10  17  36  59  87 108 157 204 236 280 353
#     4  11  20  39  61  89 113 164 200 238 279 365
#
# _framework density 21.25949
#
# number of rings (size 3 to 8) (size 9 to 14) (size 15 to 20)
#    0.000    1.143   10.000    1.286    0.000    1.714 
#    0.000    0.000    0.000    0.857    0.000    0.000 
#    0.000    0.000    0.000    0.000    0.000    0.000 
#
# Total GULP energy -173565.785246 kJ/mol
# GULP energy per Si atom -12397.556089 kJ/mol
# Density = 2.121110 g / cm^3
# Si number density = 21.259490 Si / 1000 Ang^3
#
#
#
# Elastic Constant Matrix: (Units=GPa)
#
#
# Indices 1 2 3 4 5 6 
#
# 1 113.9006 16.0363 3.3147 -1.2165 -1.8850 -13.9044
# 2 16.0363 45.8932 14.6334 -1.7231 11.4100 -15.9528
# 3 3.3147 14.6334 100.9579 -13.8109 11.8415 -7.2648
# 4 -1.2165 -1.7231 -13.8109 32.2731 -12.3191 10.5971
# 5 -1.8850 11.4100 11.8415 -12.3191 23.6021 -5.4127
# 6 -13.9044 -15.9528 -7.2648 10.5971 -5.4127 20.1983
#
#
#
# Elastic Compliance Matrix: (Units=1/GPa)
#
#
# Indices 1 2 3 4 5 6 
#
# 1 0.009875 -0.001940 -0.000016 -0.000776 0.002801 0.006417
# 2 -0.001940 0.038667 -0.003383 -0.017100 -0.018753 0.031934
# 3 -0.000016 -0.003383 0.011115 0.004279 -0.002048 -0.001479
# 4 -0.000776 -0.017100 0.004279 0.052672 0.025940 -0.033185
# 5 0.002801 -0.018753 -0.002048 0.025940 0.063908 -0.010103
# 6 0.006417 0.031934 -0.001479 -0.033185 -0.010103 0.093320
#
#
# Mechanical properties :
#
#
# Convention : Reuss Voigt Hill
#
# Bulk Modulus (GPa) = 20.41690 36.52447 28.47069
# Shear Modulus (GPa) = 16.85991 30.33253 23.59622
#
# Velocity S-wave (km/s) = 2.81918 3.78137 3.33515
# Velocity P-wave (km/s) = 4.49683 6.02350 5.31527
#
# Compressibility (1/GPa) = 0.04897903
#
# Stress axis : x y z
#
# Youngs Moduli (GPa) = 101.26889 25.86187 89.96716
#
# Poissons Ratio (x) = 0.05018 0.00143
# Poissons Ratio (y) = 0.19649 0.30434
# Poissons Ratio (z) = 0.00161 0.08748
#
# Static dielectric constant tensor:
#      x y z
#    x 3.899870 -0.419650 0.057800 
#    y -0.419650 3.575050 0.102150 
#    z 0.057800 0.102150 3.956420 
# 
# 
# High freq. dielectric constant tensor:
#      x y z
#    x 1.827800 -0.036660 0.008330 
#    y -0.036660 1.789250 -0.002480 
#    z 0.008330 -0.002480 1.838370 
# 
# From -- ./inp_files/189135.got.cif
#   From: 2010.06.25/outbox.cif.g09.slc.cpg/sg2_95_cif.got.tgz:189135.got - 2010.06.27 13:26:56.
