data_PCOD8038631
_publ_section_title
;
Structure prediction by ZEFSAII (Michael W. Deem and Ramdas Pophale) SiO2 
 PCOD8038631
Probable space group: P -1
;
_chemical_formula_sum "Si O2"
_cell_formula_units_Z 16
_cell_length_a 9.406309
_cell_length_b 13.861439
_cell_length_c 19.886020
_cell_angle_alpha 23.874316
_cell_angle_beta 86.645560
_cell_angle_gamma 102.803395
_cell_volume 767.235578
_symmetry_space_group_name_H-M "P -1"
_symmetry_group_IT_number 2
_symmetry_cell_setting 'triclinic'
loop_
_space_group_symop_operation_xyz
x,y,z
-x,-y,-z
loop_
_atom_site_type_symbol
_atom_site_label
_atom_site_fract_x
_atom_site_fract_y
_atom_site_fract_z
Si Si1 0.767050 0.785133 0.329025
Si Si2 0.603092 0.440586 0.773346
Si Si3 0.426723 0.651112 0.717422
Si Si4 0.969414 0.636743 0.578323
Si Si5 0.436873 0.462974 0.635599
Si Si6 0.148560 0.369617 0.787022
Si Si7 0.719026 0.202594 0.737563
Si Si8 0.168227 0.098367 0.165025
O O1 0.633485 0.771889 0.395609
O O2 0.720207 0.829009 0.227256
O O3 0.693647 0.426152 0.559658
O O4 0.989702 0.059075 0.168762
O O5 0.596164 0.688357 0.653832
O O6 0.827556 0.627059 0.636731
O O7 0.491584 0.326324 0.777123
O O8 0.493934 0.126790 0.023481
O O9 0.226741 0.398308 0.840998
O O10 0.500000 0.000000 0.500000
O O11 0.364894 0.474371 0.905300
O O12 0.853309 0.376140 0.688458
O O13 0.067571 0.544405 0.679114
O O14 0.131822 0.996095 0.310142
O O15 0.337670 0.578075 0.600192
O O16 0.000000 0.000000 0.000000
O O17 0.823911 0.139326 0.724781
#
# Coordination Sequence:
#
# PCOD8038631 Si02
#       8
#     2   2   2   2   2   2   2   2
#     4  10  18  27  49  78 121 146 182 227 284 333
#     4  10  20  34  54  79 110 152 194 230 280 338
#     4  10  23  43  61  80 114 154 192 236 292 345
#     4  11  19  33  54  83 115 146 193 236 281 333
#     4  10  18  30  45  79 116 149 179 224 277 330
#     4  11  22  35  60  88 119 147 191 233 285 334
#     4  10  18  28  50  80 118 151 181 225 287 339
#     4  10  19  34  54  80 110 154 193 231 283 342
#
# _framework density 20.854089999999999
#
# number of rings (size 3 to 8) (size 9 to 14) (size 15 to 20)
#    0.000    1.750    2.500    6.375    1.750    0.000 
#    0.000    1.875    0.000    0.000    0.000    0.000 
#    0.000    0.000    0.000    0.000    0.000    0.000 
#
# Total GULP energy -198282.336174 kJ/mol
# GULP energy per Si atom -12392.646011 kJ/mol
# Density = 2.080663 g / cm^3
# Si number density = 20.854090 Si / 1000 Ang^3
#
#
#
# Elastic Constant Matrix: (Units=GPa)
#
#
# Indices 1 2 3 4 5 6 
#
# 1 119.5743 21.8727 23.5621 14.8726 1.5602 -29.8021
# 2 21.8727 33.3352 25.5115 5.3375 -6.0417 -15.5108
# 3 23.5621 25.5115 91.7149 3.2650 -1.9372 -21.1588
# 4 14.8726 5.3375 3.2650 32.1137 -7.3087 -3.0672
# 5 1.5602 -6.0417 -1.9372 -7.3087 19.7521 5.6010
# 6 -29.8021 -15.5108 -21.1588 -3.0672 5.6010 28.6230
#
#
#
# Elastic Compliance Matrix: (Units=1/GPa)
#
#
# Indices 1 2 3 4 5 6 
#
# 1 0.012968 -0.003425 0.000681 -0.006069 -0.007953 0.013055
# 2 -0.003425 0.047337 -0.008915 -0.001966 0.009332 0.013458
# 3 0.000681 -0.008915 0.014888 -0.000452 -0.003628 0.007545
# 4 -0.006069 -0.001966 -0.000452 0.037209 0.015521 -0.006768
# 5 -0.007953 0.009332 -0.003628 0.015521 0.064266 -0.016817
# 6 0.013055 0.013458 0.007545 -0.006768 -0.016817 0.063966
#
#
# Mechanical properties :
#
#
# Convention : Reuss Voigt Hill
#
# Bulk Modulus (GPa) = 19.27731 42.94634 31.11183
# Shear Modulus (GPa) = 17.77815 27.67631 22.72723
#
# Velocity S-wave (km/s) = 2.92293 3.64695 3.30483
# Velocity P-wave (km/s) = 4.54481 6.19452 5.43265
#
# Compressibility (1/GPa) = 0.05187445
#
# Stress axis : x y z
#
# Youngs Moduli (GPa) = 77.11461 21.12520 67.16607
#
# Poissons Ratio (x) = 0.07236 -0.04575
# Poissons Ratio (y) = 0.26413 0.59881
# Poissons Ratio (z) = -0.05253 0.18834
#
# Static dielectric constant tensor:
#      x y z
#    x 4.021300 -0.285640 -0.030240 
#    y -0.285640 3.506510 0.570590 
#    z -0.030240 0.570590 3.727030 
# 
# 
# High freq. dielectric constant tensor:
#      x y z
#    x 1.830440 -0.027130 -0.000570 
#    y -0.027130 1.769720 0.052240 
#    z -0.000570 0.052240 1.797430 
# 
# From -- ./inp_files/259122.got.cif
#   From: 2010.06.25/outbox.cif.g09.slc.cpg/sg2_130_cif.got.tgz:259122.got - 2010.06.27 13:26:56.
