data_PCOD8038795
_publ_section_title
;
Structure prediction by ZEFSAII (Michael W. Deem and Ramdas Pophale) SiO2 
 PCOD8038795
Probable space group: P -1
;
_chemical_formula_sum "Si O2"
_cell_formula_units_Z 14
_cell_length_a 23.928335
_cell_length_b 14.699064
_cell_length_c 11.789509
_cell_angle_alpha 149.274632
_cell_angle_beta 32.805465
_cell_angle_gamma 161.515800
_cell_volume 663.493607
_symmetry_space_group_name_H-M "P -1"
_symmetry_group_IT_number 2
_symmetry_cell_setting 'triclinic'
loop_
_space_group_symop_operation_xyz
x,y,z
-x,-y,-z
loop_
_atom_site_type_symbol
_atom_site_label
_atom_site_fract_x
_atom_site_fract_y
_atom_site_fract_z
Si Si1 0.483675 0.662071 0.138492
Si Si2 0.244005 0.198189 0.853048
Si Si3 0.832504 0.635239 0.016074
Si Si4 0.196815 0.745471 0.469906
Si Si5 0.084306 0.303295 0.818610
Si Si6 0.184481 0.391117 0.495922
Si Si7 0.855522 0.324314 0.253597
O O1 0.380884 0.654396 0.388759
O O2 0.680000 0.011289 0.150331
O O3 0.500000 0.500000 0.000000
O O4 0.379073 0.496072 0.021146
O O5 0.240593 0.284354 0.827161
O O6 0.308077 0.081936 0.610587
O O7 0.047167 0.927224 0.952900
O O8 0.790491 0.570689 0.152709
O O9 0.732113 0.329535 0.796847
O O10 0.198426 0.709380 0.561847
O O11 0.000000 0.500000 0.500000
O O12 0.204465 0.458140 0.667377
O O13 0.916283 0.935388 0.703066
O O14 0.013020 0.403165 0.062654
O O15 0.077109 0.400724 0.628115
#
# Coordination Sequence:
#
# PCOD8038795 Si02
#       7
#     2   2   2   2   2   2   2
#     4  12  20  40  61  85 122 148 194 243 286 339
#     4  10  19  33  54  86 112 147 188 241 282 330
#     4  10  19  33  56  82 116 145 192 237 284 333
#     4  10  18  30  54  85 112 140 187 239 279 324
#     4  11  22  40  57  87 122 150 191 239 289 347
#     4  11  24  37  58  88 118 157 188 234 298 342
#     4  12  22  38  62  90 116 151 194 242 286 343
#
# _framework density 21.100429999999999
#
# number of rings (size 3 to 8) (size 9 to 14) (size 15 to 20)
#    0.000    1.143    7.143    1.714    4.000    0.000 
#    0.000    0.000    0.000    4.286    0.000    0.000 
#    0.000    0.000    0.000    0.000    0.000    0.000 
#
# Total GULP energy -173603.557223 kJ/mol
# GULP energy per Si atom -12400.254087 kJ/mol
# Density = 2.105240 g / cm^3
# Si number density = 21.100430 Si / 1000 Ang^3
#
#
#
# Elastic Constant Matrix: (Units=GPa)
#
#
# Indices 1 2 3 4 5 6 
#
# 1 160.6234 10.2857 54.4475 7.0905 12.5665 -13.3917
# 2 10.2857 28.6892 2.3605 3.8476 7.3933 5.5270
# 3 54.4475 2.3605 83.6475 9.0323 15.3020 -14.5143
# 4 7.0905 3.8476 9.0323 17.4769 0.1453 0.3174
# 5 12.5665 7.3933 15.3020 0.1453 38.7088 11.2887
# 6 -13.3917 5.5270 -14.5143 0.3174 11.2887 27.1484
#
#
#
# Elastic Compliance Matrix: (Units=1/GPa)
#
#
# Indices 1 2 3 4 5 6 
#
# 1 0.008292 -0.002763 -0.004610 -0.000412 -0.001115 0.002657
# 2 -0.002763 0.039408 0.001449 -0.008145 -0.005336 -0.006297
# 3 -0.004610 0.001449 0.019905 -0.008876 -0.010242 0.012435
# 4 -0.000412 -0.008145 -0.008876 0.063834 0.006983 -0.006941
# 5 -0.001115 -0.005336 -0.010242 0.006983 0.037215 -0.020495
# 6 0.002657 -0.006297 0.012435 -0.006941 -0.020495 0.054679
#
#
# Mechanical properties :
#
#
# Convention : Reuss Voigt Hill
#
# Bulk Modulus (GPa) = 17.93473 45.23861 31.58667
# Shear Modulus (GPa) = 19.70320 30.39124 25.04722
#
# Velocity S-wave (km/s) = 3.05910 3.79926 3.44909
# Velocity P-wave (km/s) = 4.58210 6.38217 5.55552
#
# Compressibility (1/GPa) = 0.05575773
#
# Stress axis : x y z
#
# Youngs Moduli (GPa) = 120.59337 25.37543 50.23977
#
# Poissons Ratio (x) = 0.07011 0.23161
# Poissons Ratio (y) = 0.33317 -0.07281
# Poissons Ratio (z) = 0.55595 -0.03678
#
# Static dielectric constant tensor:
#      x y z
#    x 4.280300 0.432050 -0.029190 
#    y 0.432050 4.527280 0.593930 
#    z -0.029190 0.593930 4.247170 
# 
# 
# High freq. dielectric constant tensor:
#      x y z
#    x 1.846150 -0.000770 -0.006280 
#    y -0.000770 1.772820 0.033630 
#    z -0.006280 0.033630 1.826960 
# 
# From -- ./inp_files/237471.got.cif
#   From: 2010.06.25/outbox.cif.g09.slc.cpg/sg2_119_cif.got.tgz:237471.got - 2010.06.27 13:26:56.
