data_PCOD8038722
_publ_section_title
;
Structure prediction by ZEFSAII (Michael W. Deem and Ramdas Pophale) SiO2 
 PCOD8038722
Probable space group: P -1
;
_chemical_formula_sum "Si O2"
_cell_formula_units_Z 16
_cell_length_a 16.395738
_cell_length_b 9.433192
_cell_length_c 32.370050
_cell_angle_alpha 34.797494
_cell_angle_beta 161.292593
_cell_angle_gamma 144.456693
_cell_volume 898.585288
_symmetry_space_group_name_H-M "P -1"
_symmetry_group_IT_number 2
_symmetry_cell_setting 'triclinic'
loop_
_space_group_symop_operation_xyz
x,y,z
-x,-y,-z
loop_
_atom_site_type_symbol
_atom_site_label
_atom_site_fract_x
_atom_site_fract_y
_atom_site_fract_z
Si Si1 0.632729 0.797842 0.353908
Si Si2 0.299862 0.548862 0.681260
Si Si3 0.110699 0.157458 0.617992
Si Si4 0.203922 0.623683 0.791040
Si Si5 0.809635 0.746920 0.056147
Si Si6 0.107994 0.629683 0.653543
Si Si7 0.038561 0.715943 0.090268
Si Si8 0.901401 0.674796 0.944716
O O1 0.678446 0.755885 0.337479
O O2 0.334423 0.697161 0.245560
O O3 0.804810 0.643032 0.500910
O O4 0.711879 0.093552 0.331341
O O5 0.233708 0.286271 0.687858
O O6 0.200101 0.470937 0.698465
O O7 0.600731 0.668800 0.794912
O O8 0.157013 0.759228 0.542374
O O9 0.050594 0.854251 0.667310
O O10 0.096094 0.405322 0.824175
O O11 0.153596 0.506279 0.748919
O O12 0.505405 0.738430 0.915157
O O13 0.873741 0.609058 0.077390
O O14 0.949206 0.037478 0.057239
O O15 0.943037 0.573005 0.035660
O O16 0.000000 0.000000 0.000000
O O17 0.000000 0.500000 0.000000
#
# Coordination Sequence:
#
# PCOD8038722 Si02
#       8
#     2   2   2   2   2   2   2   2
#     4   9  16  28  46  70  94 123 163 196 238 278
#     4  10  18  30  51  78  97 121 166 200 238 281
#     4   9  18  32  51  72 100 130 155 199 240 281
#     4  10  19  35  49  68  99 133 164 192 237 289
#     4  10  21  33  50  71  98 131 162 194 239 294
#     4   9  16  28  49  69  92 125 161 202 230 274
#     4  10  18  30  47  69  96 124 157 199 240 281
#     4  11  20  32  52  76  99 122 156 206 247 278
#
# _framework density 17.805765999999998
#
# number of rings (size 3 to 8) (size 9 to 14) (size 15 to 20)
#    0.000    2.250    0.000    7.500    0.000    0.000 
#    0.000    3.750    0.000    4.500    0.000    7.000 
#    0.000    0.000    0.000    0.000    0.000    0.000 
#
# Total GULP energy -198362.102158 kJ/mol
# GULP energy per Si atom -12397.631385 kJ/mol
# Density = 1.776524 g / cm^3
# Si number density = 17.805766 Si / 1000 Ang^3
#
#
#
# Elastic Constant Matrix: (Units=GPa)
#
#
# Indices 1 2 3 4 5 6 
#
# 1 129.1572 46.6788 33.9536 -1.6774 -20.5630 -12.6320
# 2 46.6788 52.1344 25.5669 2.3674 -7.5257 -7.0020
# 3 33.9536 25.5669 86.0674 8.3994 -1.3168 2.8002
# 4 -1.6774 2.3674 8.3994 22.0195 3.0197 -4.2168
# 5 -20.5630 -7.5257 -1.3168 3.0197 34.8180 -0.1459
# 6 -12.6320 -7.0020 2.8002 -4.2168 -0.1459 30.6634
#
#
#
# Elastic Compliance Matrix: (Units=1/GPa)
#
#
# Indices 1 2 3 4 5 6 
#
# 1 0.013075 -0.009168 -0.002782 0.003069 0.005386 0.003995
# 2 -0.009168 0.030796 -0.005494 -0.001390 0.001169 0.003571
# 3 -0.002782 -0.005494 0.015057 -0.006006 -0.001759 -0.004610
# 4 0.003069 -0.001390 -0.006006 0.050107 -0.003026 0.008372
# 5 0.005386 0.001169 -0.001759 -0.003026 0.032360 0.002384
# 6 0.003995 0.003571 -0.004610 0.008372 0.002384 0.036657
#
#
# Mechanical properties :
#
#
# Convention : Reuss Voigt Hill
#
# Bulk Modulus (GPa) = 41.59606 53.30641 47.45123
# Shear Modulus (GPa) = 22.62916 28.24417 25.43667
#
# Velocity S-wave (km/s) = 3.56882 3.98708 3.78373
# Velocity P-wave (km/s) = 6.35560 7.15531 6.76728
#
# Compressibility (1/GPa) = 0.02404074
#
# Stress axis : x y z
#
# Youngs Moduli (GPa) = 76.48006 32.47191 66.41225
#
# Poissons Ratio (x) = 0.29771 0.18475
# Poissons Ratio (y) = 0.70119 0.36486
# Poissons Ratio (z) = 0.21275 0.17840
#
# Static dielectric constant tensor:
#      x y z
#    x 3.805660 -0.278890 -0.088030 
#    y -0.278890 2.916980 0.033730 
#    z -0.088030 0.033730 3.471730 
# 
# 
# High freq. dielectric constant tensor:
#      x y z
#    x 1.700950 -0.025980 -0.001270 
#    y -0.025980 1.636690 0.009620 
#    z -0.001270 0.009620 1.702600 
# 
# From -- ./inp_files/268894.got.cif
#   From: 2010.06.25/outbox.cif.g09.slc.cpg/sg2_135_cif.got.tgz:268894.got - 2010.06.27 13:26:56.
