data_PCOD8038994
_publ_section_title
;
Structure prediction by ZEFSAII (Michael W. Deem and Ramdas Pophale) SiO2 
 PCOD8038994
Probable space group: P -1
;
_chemical_formula_sum "Si O2"
_cell_formula_units_Z 16
_cell_length_a 14.366030
_cell_length_b 11.513685
_cell_length_c 21.353378
_cell_angle_alpha 49.434210
_cell_angle_beta 150.983118
_cell_angle_gamma 149.772126
_cell_volume 778.290307
_symmetry_space_group_name_H-M "P -1"
_symmetry_group_IT_number 2
_symmetry_cell_setting 'triclinic'
loop_
_space_group_symop_operation_xyz
x,y,z
-x,-y,-z
loop_
_atom_site_type_symbol
_atom_site_label
_atom_site_fract_x
_atom_site_fract_y
_atom_site_fract_z
Si Si1 0.105521 0.887284 0.744500
Si Si2 0.756261 0.313217 0.266482
Si Si3 0.674723 0.129867 0.921262
Si Si4 0.799722 0.117317 0.669394
Si Si5 0.772246 0.509370 0.791313
Si Si6 0.843775 0.990717 0.616112
Si Si7 0.740298 0.600388 0.505998
Si Si8 0.676074 0.209189 0.392863
O O1 0.933001 0.652770 0.769440
O O2 0.130641 0.071017 0.727627
O O3 0.907359 0.778795 0.602121
O O4 0.461532 0.056217 0.879453
O O5 0.582625 0.199794 0.271153
O O6 0.929186 0.584968 0.258878
O O7 0.006222 0.332185 0.409623
O O8 0.493599 0.120128 0.125071
O O9 0.729429 0.299726 0.843364
O O10 0.009205 0.290341 0.092430
O O11 0.500000 0.000000 0.500000
O O12 0.935948 0.082289 0.711403
O O13 0.640359 0.943844 0.699162
O O14 0.422792 0.367185 0.641599
O O15 0.531512 0.688643 0.530732
O O16 0.763260 0.087375 0.494092
O O17 0.000000 0.500000 0.500000
#
# Coordination Sequence:
#
# PCOD8038994 Si02
#       8
#     2   2   2   2   2   2   2   2
#     4  10  22  36  58  86 110 147 184 233 281 328
#     4  11  21  33  55  88 110 143 186 230 274 330
#     4  10  24  37  56  82 115 151 189 221 274 345
#     4  10  18  35  49  82 120 137 178 230 283 330
#     4  10  21  40  54  78 118 154 182 225 278 332
#     4  10  18  32  51  81 116 138 177 225 283 328
#     4  10  20  35  57  85 116 141 183 236 279 324
#     4  11  19  30  53  81 113 149 174 226 292 318
#
# _framework density 20.557881999999999
#
# number of rings (size 3 to 8) (size 9 to 14) (size 15 to 20)
#    0.000    1.750    5.000    1.875    5.250    1.000 
#    0.000    0.000    0.000    3.000    0.000    7.875 
#    0.000    0.000    0.000    0.000    0.000    0.000 
#
# Total GULP energy -198319.712117 kJ/mol
# GULP energy per Si atom -12394.982007 kJ/mol
# Density = 2.051109 g / cm^3
# Si number density = 20.557882 Si / 1000 Ang^3
#
#
#
# Elastic Constant Matrix: (Units=GPa)
#
#
# Indices 1 2 3 4 5 6 
#
# 1 124.6172 33.6273 16.7521 4.9273 -8.9596 -1.8325
# 2 33.6273 88.9069 14.2307 10.6208 -8.6657 -3.9490
# 3 16.7521 14.2307 71.5010 8.3287 -10.2526 -2.9197
# 4 4.9273 10.6208 8.3287 24.4623 -5.0918 -7.5484
# 5 -8.9596 -8.6657 -10.2526 -5.0918 10.8434 2.0471
# 6 -1.8325 -3.9490 -2.9197 -7.5484 2.0471 36.3285
#
#
#
# Elastic Compliance Matrix: (Units=1/GPa)
#
#
# Indices 1 2 3 4 5 6 
#
# 1 0.009270 -0.002979 -0.000993 0.000725 0.004690 -0.000050
# 2 -0.002979 0.013516 -0.000705 -0.003758 0.005881 0.000150
# 3 -0.000993 -0.000705 0.016517 -0.002399 0.013114 -0.000037
# 4 0.000725 -0.003758 -0.002399 0.049392 0.016869 0.008748
# 5 0.004690 0.005881 0.013114 0.016869 0.121383 -0.001405
# 6 -0.000050 0.000150 -0.000037 0.008748 -0.001405 0.029434
#
#
# Mechanical properties :
#
#
# Convention : Reuss Voigt Hill
#
# Bulk Modulus (GPa) = 33.39001 46.02727 39.70864
# Shear Modulus (GPa) = 19.31629 29.02115 24.16872
#
# Velocity S-wave (km/s) = 3.06862 3.76131 3.43248
# Velocity P-wave (km/s) = 5.36959 6.42658 5.92172
#
# Compressibility (1/GPa) = 0.02994908
#
# Stress axis : x y z
#
# Youngs Moduli (GPa) = 107.87875 73.98625 60.54312
#
# Poissons Ratio (x) = 0.22039 0.06012
# Poissons Ratio (y) = 0.32136 0.04269
# Poissons Ratio (z) = 0.10712 0.05216
#
# Static dielectric constant tensor:
#      x y z
#    x 4.131010 -0.511080 0.368960 
#    y -0.511080 2.767480 0.626350 
#    z 0.368960 0.626350 3.227440 
# 
# 
# High freq. dielectric constant tensor:
#      x y z
#    x 1.804950 0.005440 -0.010980 
#    y 0.005440 1.809670 0.010590 
#    z -0.010980 0.010590 1.766250 
# 
# From -- ./inp_files/454531.got.cif
#   From: 2010.06.25/outbox.cif.g09.slc.cpg/sg2_228_cif.got.tgz:454531.got - 2010.06.27 13:26:56.
