data_PCOD8038270
_publ_section_title
;
Structure prediction by ZEFSAII (Michael W. Deem and Ramdas Pophale) SiO2 
 PCOD8038270
Probable space group: P -1
;
_chemical_formula_sum "Si O2"
_cell_formula_units_Z 16
_cell_length_a 12.000000
_cell_length_b 9.000000
_cell_length_c 27.000000
_cell_angle_alpha 150.000000
_cell_angle_beta 150.000000
_cell_angle_gamma 40.000000
_cell_volume 727.497153
_symmetry_space_group_name_H-M "P -1"
_symmetry_group_IT_number 2
_symmetry_cell_setting 'triclinic'
loop_
_space_group_symop_operation_xyz
x,y,z
-x,-y,-z
loop_
_atom_site_type_symbol
_atom_site_label
_atom_site_fract_x
_atom_site_fract_y
_atom_site_fract_z
Si Si1 0.488594 0.572264 0.768859
Si Si2 0.665774 0.730642 0.469603
Si Si3 0.767161 0.687585 0.243658
Si Si4 0.113148 0.041069 0.736979
Si Si5 0.193600 0.284656 0.318584
Si Si6 0.435581 0.350398 0.072819
Si Si7 0.593636 0.279500 0.397393
Si Si8 0.055207 0.694230 0.150968
O O1 0.378301 0.327187 0.621969
O O2 0.354174 0.890190 0.801276
O O3 0.467631 0.490933 0.795289
O O4 0.751619 0.574749 0.855219
O O5 0.594995 0.452411 0.395098
O O6 0.927161 0.796485 0.589840
O O7 0.500000 0.000000 0.500000
O O8 0.538500 0.509506 0.110029
O O9 0.954477 0.436557 0.257737
O O10 0.834885 0.783465 0.242359
O O11 0.735762 0.969576 0.350490
O O12 0.016324 0.257381 0.805329
O O13 0.347856 0.225476 0.311173
O O14 0.293370 0.521949 0.461716
O O15 0.157203 0.982032 0.247506
O O16 0.167647 0.405579 0.989996
O O17 0.500000 0.000000 0.000000
#
# Coordination Sequence:
#
# PCOD8038270 Si02
#       8
#     2   2   2   2   2   2   2   2
#     4  12  25  45  75 101 140 191 232 289 353 421
#     4  12  23  44  72 108 152 184 225 284 362 436
#     4  12  26  42  70 102 143 181 234 299 348 413
#     4  12  25  43  72 108 142 186 227 287 360 425
#     4  11  23  43  70 101 143 184 228 295 345 425
#     4  12  26  50  74  99 138 191 251 292 344 414
#     4  11  24  41  65 110 142 178 234 279 361 425
#     4  12  25  49  74 101 138 194 242 286 352 418
#
# _framework density 21.993213000000001
#
# number of rings (size 3 to 8) (size 9 to 14) (size 15 to 20)
#    0.000    0.250    6.250    2.625    0.000    3.500 
#    0.000    0.625    0.000    0.000    0.000    0.000 
#    0.000    0.000    0.000    0.000    0.000    0.000 
#
# Total GULP energy -198263.826614 kJ/mol
# GULP energy per Si atom -12391.489163 kJ/mol
# Density = 2.194316 g / cm^3
# Si number density = 21.993213 Si / 1000 Ang^3
#
#
#
# Elastic Constant Matrix: (Units=GPa)
#
#
# Indices 1 2 3 4 5 6 
#
# 1 191.9858 52.0434 49.6111 4.4102 17.2563 1.8001
# 2 52.0434 93.6267 14.7111 -15.5808 16.9847 -21.8168
# 3 49.6111 14.7111 72.8258 -10.1542 12.5481 10.2804
# 4 4.4102 -15.5808 -10.1542 34.1880 -0.5585 9.1634
# 5 17.2563 16.9847 12.5481 -0.5585 52.8820 -1.2176
# 6 1.8001 -21.8168 10.2804 9.1634 -1.2176 43.5714
#
#
#
# Elastic Compliance Matrix: (Units=1/GPa)
#
#
# Indices 1 2 3 4 5 6 
#
# 1 0.007780 -0.004364 -0.004963 -0.004354 -0.000015 -0.000420
# 2 -0.004364 0.016387 0.000171 0.006160 -0.003654 0.006947
# 3 -0.004963 0.000171 0.019622 0.008140 -0.003147 -0.006139
# 4 -0.004354 0.006160 0.008140 0.036727 -0.002250 -0.006443
# 5 -0.000015 -0.003654 -0.003147 -0.002250 0.020811 -0.000032
# 6 -0.000420 0.006947 -0.006139 -0.006443 -0.000032 0.029249
#
#
# Mechanical properties :
#
#
# Convention : Reuss Voigt Hill
#
# Bulk Modulus (GPa) = 39.25513 65.68550 52.47032
# Shear Modulus (GPa) = 31.77002 42.26647 37.01825
#
# Velocity S-wave (km/s) = 3.80483 4.38859 4.10709
# Velocity P-wave (km/s) = 6.09834 7.45726 6.81177
#
# Compressibility (1/GPa) = 0.02547438
#
# Stress axis : x y z
#
# Youngs Moduli (GPa) = 128.53924 61.02454 50.96360
#
# Poissons Ratio (x) = 0.26634 0.25295
# Poissons Ratio (y) = 0.56100 -0.00871
# Poissons Ratio (z) = 0.63799 -0.01043
#
# Static dielectric constant tensor:
#      x y z
#    x 4.691320 -0.185510 0.052160 
#    y -0.185510 4.207620 -0.124620 
#    z 0.052160 -0.124620 4.050860 
# 
# 
# High freq. dielectric constant tensor:
#      x y z
#    x 1.909850 -0.019290 0.002670 
#    y -0.019290 1.874460 -0.003600 
#    z 0.002670 -0.003600 1.855750 
# 
# From -- ./inp_files/618244.got.cif
#   From: 2010.06.25/outbox.ucp.g09.slc.cvg/sg2_310_cif.got.tgz:618244.got - 2010.06.28 11:54:26.
