data_PCOD8038739
_publ_section_title
;
Structure prediction by ZEFSAII (Michael W. Deem and Ramdas Pophale) SiO2 
 PCOD8038739
Probable space group: P -1
;
_chemical_formula_sum "Si O2"
_cell_formula_units_Z 14
_cell_length_a 11.045625
_cell_length_b 7.659188
_cell_length_c 12.350120
_cell_angle_alpha 115.644096
_cell_angle_beta 130.523373
_cell_angle_gamma 49.152779
_cell_volume 600.733870
_symmetry_space_group_name_H-M "P -1"
_symmetry_group_IT_number 2
_symmetry_cell_setting 'triclinic'
loop_
_space_group_symop_operation_xyz
x,y,z
-x,-y,-z
loop_
_atom_site_type_symbol
_atom_site_label
_atom_site_fract_x
_atom_site_fract_y
_atom_site_fract_z
Si Si1 0.662125 0.572423 0.707085
Si Si2 0.232212 0.300129 0.400059
Si Si3 0.915057 0.329978 0.432574
Si Si4 0.553792 0.602931 0.156892
Si Si5 0.243573 0.878242 0.563375
Si Si6 0.480038 0.967091 0.855525
Si Si7 0.366485 0.804365 0.315598
O O1 0.804683 0.563329 0.697856
O O2 0.724045 0.311427 0.698490
O O3 0.442502 0.712333 0.570695
O O4 0.658740 0.718943 0.849192
O O5 0.076716 0.455506 0.448311
O O6 0.431121 0.241746 0.546783
O O7 0.219450 0.080428 0.307225
O O8 0.766958 0.409551 0.269699
O O9 0.115593 0.090933 0.462237
O O10 0.842606 0.265490 0.483508
O O11 0.540888 0.830203 0.173563
O O12 0.399601 0.684060 0.184852
O O13 0.500000 0.500000 0.000000
O O14 0.287329 0.972718 0.724074
O O15 0.500000 0.000000 0.000000
#
# Coordination Sequence:
#
# PCOD8038739 Si02
#       7
#     2   2   2   2   2   2   2
#     4  10  18  32  53  81 107 139 186 221 265 320
#     4  10  18  31  52  78 112 140 178 226 269 320
#     4  10  20  35  52  82 114 143 176 221 282 324
#     4  11  19  33  53  80 110 143 185 229 268 319
#     4   9  19  34  53  79 113 140 181 220 276 323
#     4  10  19  33  53  81 106 141 187 227 266 318
#     4  10  18  30  49  80 106 137 180 227 266 310
#
# _framework density 23.304827
#
# number of rings (size 3 to 8) (size 9 to 14) (size 15 to 20)
#    0.857    1.143    4.286    2.143    0.000    0.571 
#    0.000    0.000    0.000    0.857    0.000    6.000 
#    0.000    0.000    0.000    0.000    0.000    0.000 
#
# Total GULP energy -173445.493803 kJ/mol
# GULP energy per Si atom -12388.963843 kJ/mol
# Density = 2.325178 g / cm^3
# Si number density = 23.304827 Si / 1000 Ang^3
#
#
#
# Elastic Constant Matrix: (Units=GPa)
#
#
# Indices 1 2 3 4 5 6 
#
# 1 38.0147 25.7115 13.9317 1.0038 -19.1539 -1.3634
# 2 25.7115 148.3881 51.0467 7.4998 -11.0718 24.7257
# 3 13.9317 51.0467 122.6605 16.1774 -18.1216 -4.4151
# 4 1.0038 7.4998 16.1774 40.3704 -4.1156 -6.8246
# 5 -19.1539 -11.0718 -18.1216 -4.1156 30.5786 -0.5776
# 6 -1.3634 24.7257 -4.4151 -6.8246 -0.5776 29.1316
#
#
#
# Elastic Compliance Matrix: (Units=1/GPa)
#
#
# Indices 1 2 3 4 5 6 
#
# 1 0.045577 -0.008807 0.002412 0.004297 0.027586 0.011527
# 2 -0.008807 0.011554 -0.004572 -0.002524 -0.004601 -0.011594
# 3 0.002412 -0.004572 0.011187 -0.002154 0.006295 0.005309
# 4 0.004297 -0.002524 -0.002154 0.027908 0.004421 0.008643
# 5 0.027586 -0.004601 0.006295 0.004421 0.052797 0.008233
# 6 0.011527 -0.011594 0.005309 0.008643 0.008233 0.047700
#
#
# Mechanical properties :
#
#
# Convention : Reuss Voigt Hill
#
# Bulk Modulus (GPa) = 21.55912 54.49366 38.02639
# Shear Modulus (GPa) = 21.35674 34.57433 27.96553
#
# Velocity S-wave (km/s) = 3.03051 3.85589 3.46784
# Velocity P-wave (km/s) = 4.63857 6.57705 5.69095
#
# Compressibility (1/GPa) = 0.04638408
#
# Stress axis : x y z
#
# Youngs Moduli (GPa) = 21.94078 86.54865 89.39184
#
# Poissons Ratio (x) = 0.76220 -0.21561
# Poissons Ratio (y) = 0.19322 0.40873
# Poissons Ratio (z) = -0.05292 0.39573
#
# Static dielectric constant tensor:
#      x y z
#    x 4.125750 0.133450 -0.145530 
#    y 0.133450 4.856770 0.209030 
#    z -0.145530 0.209030 3.385530 
# 
# 
# High freq. dielectric constant tensor:
#      x y z
#    x 1.911010 0.025370 -0.043660 
#    y 0.025370 1.951020 0.023440 
#    z -0.043660 0.023440 1.880310 
# 
# From -- ./inp_files/444921.got.cif
#   From: 2010.06.25/outbox.cif.g09.slc.cpg/sg2_223_cif.got.tgz:444921.got - 2010.06.27 13:26:56.
