data_PCOD8038814
_publ_section_title
;
Structure prediction by ZEFSAII (Michael W. Deem and Ramdas Pophale) SiO2 
 PCOD8038814
Probable space group: P -1
;
_chemical_formula_sum "Si O2"
_cell_formula_units_Z 12
_cell_length_a 8.821912
_cell_length_b 9.692370
_cell_length_c 11.547314
_cell_angle_alpha 109.043811
_cell_angle_beta 38.945886
_cell_angle_gamma 110.360951
_cell_volume 579.256405
_symmetry_space_group_name_H-M "P -1"
_symmetry_group_IT_number 2
_symmetry_cell_setting 'triclinic'
loop_
_space_group_symop_operation_xyz
x,y,z
-x,-y,-z
loop_
_atom_site_type_symbol
_atom_site_label
_atom_site_fract_x
_atom_site_fract_y
_atom_site_fract_z
Si Si1 0.135896 0.224872 0.445458
Si Si2 0.520173 0.829762 0.966706
Si Si3 0.178724 0.588500 0.214304
Si Si4 0.219728 0.063582 0.803227
Si Si5 0.327790 0.321119 0.956785
Si Si6 0.747700 0.986999 0.492092
O O1 0.367022 0.243432 0.229646
O O2 0.064066 0.384818 0.565454
O O3 0.897199 0.132646 0.501481
O O4 0.207479 0.154094 0.501877
O O5 0.691531 0.812003 0.971872
O O6 0.255768 0.730321 0.120772
O O7 0.500000 0.000000 0.000000
O O8 0.132888 0.432291 0.130089
O O9 0.400548 0.581558 0.172596
O O10 0.461311 0.993945 0.669396
O O11 0.150752 0.031957 0.702258
O O12 0.273621 0.241439 0.843378
O O13 0.000000 0.000000 0.000000
#
# Coordination Sequence:
#
# PCOD8038814 Si02
#       6
#     2   2   2   2   2   2
#     4  11  19  35  58  85 115 143 191 242 280 331
#     4  10  18  30  56  87 111 141 187 236 280 326
#     4   9  20  36  56  85 116 147 187 238 284 329
#     4  11  21  38  57  81 117 155 188 230 283 346
#     4   9  19  39  54  83 117 150 189 232 282 340
#     4  10  22  33  55  87 114 146 188 240 287 325
#
# _framework density 20.716214999999998
#
# number of rings (size 3 to 8) (size 9 to 14) (size 15 to 20)
#    1.000    1.000    1.667    4.000    0.000    2.000 
#    0.000    1.667    0.000    2.000    0.000    0.000 
#    0.000    0.000    0.000    0.000    0.000    0.000 
#
# Total GULP energy -148679.583518 kJ/mol
# GULP energy per Si atom -12389.965293 kJ/mol
# Density = 2.066906 g / cm^3
# Si number density = 20.716215 Si / 1000 Ang^3
#
#
#
# Elastic Constant Matrix: (Units=GPa)
#
#
# Indices 1 2 3 4 5 6 
#
# 1 80.6165 15.9883 34.8348 6.3185 16.4310 -3.3486
# 2 15.9883 64.0948 28.8164 25.2846 3.6524 -10.5419
# 3 34.8348 28.8164 164.8116 24.1179 9.4303 -4.7228
# 4 6.3185 25.2846 24.1179 47.3897 -2.0713 -2.3339
# 5 16.4310 3.6524 9.4303 -2.0713 19.0436 -0.0157
# 6 -3.3486 -10.5419 -4.7228 -2.3339 -0.0157 20.2476
#
#
#
# Elastic Compliance Matrix: (Units=1/GPa)
#
#
# Indices 1 2 3 4 5 6 
#
# 1 0.016473 -0.001982 -0.002306 -0.000468 -0.012741 0.001091
# 2 -0.001982 0.022861 -0.001537 -0.010795 -0.003079 0.009969
# 3 -0.002306 -0.001537 0.007311 -0.002654 -0.001624 0.000217
# 4 -0.000468 -0.010795 -0.002654 0.028425 0.006878 -0.003035
# 5 -0.012741 -0.003079 -0.001624 0.006878 0.065644 -0.003246
# 6 0.001091 0.009969 0.000217 -0.003035 -0.003246 0.054458
#
#
# Mechanical properties :
#
#
# Convention : Reuss Voigt Hill
#
# Bulk Modulus (GPa) = 28.57598 52.08911 40.33255
# Shear Modulus (GPa) = 22.88466 32.66174 27.77320
#
# Velocity S-wave (km/s) = 3.32727 3.97498 3.66546
# Velocity P-wave (km/s) = 5.34649 6.80191 6.11764
#
# Compressibility (1/GPa) = 0.03499443
#
# Stress axis : x y z
#
# Youngs Moduli (GPa) = 60.70577 43.74327 136.77675
#
# Poissons Ratio (x) = 0.08671 0.31546
# Poissons Ratio (y) = 0.12033 0.21017
# Poissons Ratio (z) = 0.14001 0.06722
#
# Static dielectric constant tensor:
#      x y z
#    x 3.580950 -0.048390 0.107970 
#    y -0.048390 3.523390 0.240310 
#    z 0.107970 0.240310 3.970310 
# 
# 
# High freq. dielectric constant tensor:
#      x y z
#    x 1.778380 -0.007820 0.004920 
#    y -0.007820 1.780830 0.019290 
#    z 0.004920 0.019290 1.832500 
# 
# From -- ./inp_files/390865.got.cif
#   From: 2010.06.25/outbox.cif.g09.slc.cpg/sg2_196_cif.got.tgz:390865.got - 2010.06.27 13:26:56.
