data_PCOD8038878
_publ_section_title
;
Structure prediction by ZEFSAII (Michael W. Deem and Ramdas Pophale) SiO2 
 PCOD8038878
Probable space group: P -1
;
_chemical_formula_sum "Si O2"
_cell_formula_units_Z 16
_cell_length_a 12.202776
_cell_length_b 9.175236
_cell_length_c 17.581881
_cell_angle_alpha 113.894145
_cell_angle_beta 29.020082
_cell_angle_gamma 102.156503
_cell_volume 826.084630
_symmetry_space_group_name_H-M "P -1"
_symmetry_group_IT_number 2
_symmetry_cell_setting 'triclinic'
loop_
_space_group_symop_operation_xyz
x,y,z
-x,-y,-z
loop_
_atom_site_type_symbol
_atom_site_label
_atom_site_fract_x
_atom_site_fract_y
_atom_site_fract_z
Si Si1 0.887468 0.202281 0.369571
Si Si2 0.256772 0.743055 0.212176
Si Si3 0.861218 0.167850 0.860363
Si Si4 0.613899 0.636788 0.737347
Si Si5 0.204959 0.387179 0.133337
Si Si6 0.079730 0.714612 0.464646
Si Si7 0.610866 0.556376 0.267799
Si Si8 0.951065 0.503355 0.914439
O O1 0.926129 0.187429 0.433231
O O2 0.604442 0.278235 0.540251
O O3 0.024785 0.324115 0.279361
O O4 0.991625 0.013931 0.231805
O O5 0.124123 0.851712 0.244125
O O6 0.214368 0.563389 0.195623
O O7 0.146542 0.817690 0.376502
O O8 0.528966 0.741434 0.047312
O O9 0.972417 0.307158 0.852337
O O10 0.583984 0.223527 0.064697
O O11 0.722866 0.471958 0.689422
O O12 0.500311 0.588587 0.719359
O O13 0.817416 0.710262 0.603792
O O14 0.120366 0.397274 0.099479
O O15 0.790332 0.490997 0.215524
O O16 0.753104 0.596091 0.117208
#
# Coordination Sequence:
#
# PCOD8038878 Si02
#       8
#     2   2   2   2   2   2   2   2
#     4  11  22  33  50  79 110 135 164 208 261 306
#     4  10  18  32  52  74 103 137 174 208 245 301
#     4  10  21  34  50  77 109 137 164 206 262 306
#     4   9  17  32  52  75 102 135 172 208 252 302
#     4  10  19  32  53  78 102 133 173 213 250 298
#     4  10  18  31  52  74 102 139 174 208 247 299
#     4   9  18  35  58  76  97 133 178 213 247 300
#     4   9  19  37  59  75  95 135 179 213 248 297
#
# _framework density 19.368475
#
# number of rings (size 3 to 8) (size 9 to 14) (size 15 to 20)
#    0.000    2.250    0.000    6.750    0.000    3.500 
#    0.000    1.250    0.000    6.750    0.000    0.000 
#    0.000    0.000    0.000    0.000    0.000    0.000 
#
# Total GULP energy -198350.449270 kJ/mol
# GULP energy per Si atom -12396.903079 kJ/mol
# Density = 1.932439 g / cm^3
# Si number density = 19.368475 Si / 1000 Ang^3
#
#
#
# Elastic Constant Matrix: (Units=GPa)
#
#
# Indices 1 2 3 4 5 6 
#
# 1 95.0780 8.1009 26.3652 -13.8404 -9.8725 4.9651
# 2 8.1009 39.8256 36.8961 5.0559 -9.6429 -5.3980
# 3 26.3652 36.8961 108.4754 -4.6522 -10.5544 -2.9457
# 4 -13.8404 5.0559 -4.6522 25.3617 2.7429 -4.6582
# 5 -9.8725 -9.6429 -10.5544 2.7429 31.3214 -10.5360
# 6 4.9651 -5.3980 -2.9457 -4.6582 -10.5360 14.3059
#
#
#
# Elastic Compliance Matrix: (Units=1/GPa)
#
#
# Indices 1 2 3 4 5 6 
#
# 1 0.012390 -0.001039 -0.002300 0.006000 0.001601 -0.002033
# 2 -0.001039 0.047664 -0.013750 -0.009797 0.019564 0.026733
# 3 -0.002300 -0.013750 0.014564 0.004134 -0.000569 -0.000464
# 4 0.006000 -0.009797 0.004134 0.047328 -0.000466 0.010140
# 5 0.001601 0.019564 -0.000569 -0.000466 0.053851 0.046218
# 6 -0.002033 0.026733 -0.000464 0.010140 0.046218 0.117939
#
#
# Mechanical properties :
#
#
# Convention : Reuss Voigt Hill
#
# Bulk Modulus (GPa) = 24.72858 42.90037 33.81448
# Shear Modulus (GPa) = 14.64588 25.66559 20.15574
#
# Velocity S-wave (km/s) = 2.75284 3.64417 3.22940
# Velocity P-wave (km/s) = 4.78532 6.31699 5.60373
#
# Compressibility (1/GPa) = 0.04043904
#
# Stress axis : x y z
#
# Youngs Moduli (GPa) = 80.71129 20.98038 68.66257
#
# Poissons Ratio (x) = 0.02180 0.15793
# Poissons Ratio (y) = 0.08385 0.94412
# Poissons Ratio (z) = 0.18565 0.28848
#
# Static dielectric constant tensor:
#      x y z
#    x 3.562690 0.060190 -0.013650 
#    y 0.060190 3.145310 -0.108470 
#    z -0.013650 -0.108470 3.642610 
# 
# 
# High freq. dielectric constant tensor:
#      x y z
#    x 1.748650 0.005170 0.001420 
#    y 0.005170 1.714730 -0.009860 
#    z 0.001420 -0.009860 1.764780 
# 
# From -- ./inp_files/180073.got.cif
#   From: 2010.06.25/outbox.cif.g09.slc.cpg/sg2_91_cif.got.tgz:180073.got - 2010.06.27 13:26:56.
