data_PCOD8038833
_publ_section_title
;
Structure prediction by ZEFSAII (Michael W. Deem and Ramdas Pophale) SiO2 
 PCOD8038833
Probable space group: P -1
;
_chemical_formula_sum "Si O2"
_cell_formula_units_Z 16
_cell_length_a 26.443708
_cell_length_b 15.874140
_cell_length_c 6.267638
_cell_angle_alpha 49.107415
_cell_angle_beta 58.765351
_cell_angle_gamma 26.216509
_cell_volume 859.780466
_symmetry_space_group_name_H-M "P -1"
_symmetry_group_IT_number 2
_symmetry_cell_setting 'triclinic'
loop_
_space_group_symop_operation_xyz
x,y,z
-x,-y,-z
loop_
_atom_site_type_symbol
_atom_site_label
_atom_site_fract_x
_atom_site_fract_y
_atom_site_fract_z
Si Si1 0.574201 0.631482 0.292439
Si Si2 0.161483 0.298970 0.871112
Si Si3 0.726933 0.207479 0.500573
Si Si4 0.084592 0.215007 0.440761
Si Si5 0.420725 0.684961 0.689987
Si Si6 0.215384 0.045050 0.827884
Si Si7 0.466393 0.136669 0.659701
Si Si8 0.606398 0.943178 0.283957
O O1 0.696648 0.385218 0.334757
O O2 0.492633 0.656482 0.445947
O O3 0.594173 0.656939 0.439102
O O4 0.512434 0.815843 0.959804
O O5 0.163681 0.236731 0.739613
O O6 0.281362 0.171285 0.850803
O O7 0.053371 0.561134 0.676587
O O8 0.145383 0.231731 0.199304
O O9 0.630236 0.321647 0.354809
O O10 0.856071 0.985968 0.479392
O O11 0.726696 0.136303 0.835711
O O12 0.109142 0.164113 0.724660
O O13 0.315412 0.919341 0.651925
O O14 0.500000 0.500000 0.000000
O O15 0.379766 0.208472 0.572174
O O16 0.582324 0.985934 0.520927
O O17 0.500000 0.000000 0.000000
#
# Coordination Sequence:
#
# PCOD8038833 Si02
#       8
#     2   2   2   2   2   2   2   2
#     4  11  20  31  52  76 108 141 168 212 267 319
#     4  10  19  33  54  75 104 142 181 219 260 304
#     4  10  21  31  46  74 109 141 172 205 255 320
#     4   9  20  34  48  77 109 142 181 212 251 317
#     4  11  21  29  46  78 113 140 172 205 254 328
#     4  10  18  31  46  71 107 141 174 210 254 313
#     4   9  21  37  51  78 103 133 181 220 270 317
#     4  10  20  35  56  77 105 136 176 226 265 310
#
# _framework density 18.609400999999998
#
# number of rings (size 3 to 8) (size 9 to 14) (size 15 to 20)
#    0.000    2.000    1.250    3.750    3.500    1.000 
#    0.000    0.000    0.000    0.750    0.000    8.750 
#    0.000    0.000    0.000    0.000    0.000    0.000 
#
# Total GULP energy -198266.709508 kJ/mol
# GULP energy per Si atom -12391.669344 kJ/mol
# Density = 1.856705 g / cm^3
# Si number density = 18.609401 Si / 1000 Ang^3
#
#
#
# Elastic Constant Matrix: (Units=GPa)
#
#
# Indices 1 2 3 4 5 6 
#
# 1 76.0129 54.7270 20.4468 -4.8293 4.4579 27.3562
# 2 54.7270 119.3089 28.2005 -15.9389 3.1877 24.5141
# 3 20.4468 28.2005 66.0941 0.2604 16.3390 -0.3048
# 4 -4.8293 -15.9389 0.2604 26.9475 1.1592 -1.8482
# 5 4.4579 3.1877 16.3390 1.1592 26.3626 3.3022
# 6 27.3562 24.5141 -0.3048 -1.8482 3.3022 34.1604
#
#
#
# Elastic Compliance Matrix: (Units=1/GPa)
#
#
# Indices 1 2 3 4 5 6 
#
# 1 0.025111 -0.007382 -0.005116 -0.000926 0.001747 -0.015077
# 2 -0.007382 0.014664 -0.004672 0.006972 0.002632 -0.004530
# 3 -0.005116 -0.004672 0.022020 -0.002724 -0.013197 0.008775
# 4 -0.000926 0.006972 -0.002724 0.040978 -0.000548 -0.002016
# 5 0.001747 0.002632 -0.013197 -0.000548 0.046516 -0.007931
# 6 -0.015077 -0.004530 0.008775 -0.002016 -0.007931 0.045335
#
#
# Mechanical properties :
#
#
# Convention : Reuss Voigt Hill
#
# Bulk Modulus (GPa) = 36.42393 52.01829 44.22111
# Shear Modulus (GPa) = 20.99823 28.03020 24.51421
#
# Velocity S-wave (km/s) = 3.36276 3.88524 3.63340
# Velocity P-wave (km/s) = 5.89007 6.93831 6.43557
#
# Compressibility (1/GPa) = 0.02745448
#
# Stress axis : x y z
#
# Youngs Moduli (GPa) = 39.82265 68.19502 45.41390
#
# Poissons Ratio (x) = 0.50340 0.23236
# Poissons Ratio (y) = 0.29396 0.21217
# Poissons Ratio (z) = 0.20375 0.31860
#
# Static dielectric constant tensor:
#      x y z
#    x 3.548220 0.438150 0.100950 
#    y 0.438150 3.708440 -0.073210 
#    z 0.100950 -0.073210 3.588260 
# 
# 
# High freq. dielectric constant tensor:
#      x y z
#    x 1.692140 0.031360 0.023910 
#    y 0.031360 1.720090 0.004640 
#    z 0.023910 0.004640 1.719280 
# 
# From -- ./inp_files/70569.got.cif
#   From: 2010.06.25/outbox.cif.g09.slc.cpg/sg2_36_cif.got.tgz:70569.got - 2010.06.27 13:26:56.
