data_PCOD8038298
_publ_section_title
;
Structure prediction by ZEFSAII (Michael W. Deem and Ramdas Pophale) SiO2 
 PCOD8038298
Probable space group: P -1
;
_chemical_formula_sum "Si O2"
_cell_formula_units_Z 16
_cell_length_a 9.022768
_cell_length_b 13.714432
_cell_length_c 21.324819
_cell_angle_alpha 25.925491
_cell_angle_beta 42.556620
_cell_angle_gamma 44.499545
_cell_volume 768.664009
_symmetry_space_group_name_H-M "P -1"
_symmetry_group_IT_number 2
_symmetry_cell_setting 'triclinic'
loop_
_space_group_symop_operation_xyz
x,y,z
-x,-y,-z
loop_
_atom_site_type_symbol
_atom_site_label
_atom_site_fract_x
_atom_site_fract_y
_atom_site_fract_z
Si Si1 0.529427 0.475173 0.322853
Si Si2 0.327779 0.730498 0.431363
Si Si3 0.454502 0.364277 0.153479
Si Si4 0.592712 0.386235 0.853116
Si Si5 0.074932 0.198681 0.822976
Si Si6 0.513041 0.879591 0.177186
Si Si7 0.360253 0.117882 0.661710
Si Si8 0.029415 0.739866 0.625219
O O1 0.501618 0.463769 0.263651
O O2 0.479107 0.739396 0.206580
O O3 0.355201 0.331906 0.492467
O O4 0.783148 0.381900 0.315348
O O5 0.500000 0.500000 0.500000
O O6 0.296333 0.866829 0.296332
O O7 0.421070 0.893933 0.357259
O O8 0.098255 0.689961 0.558612
O O9 0.523236 0.496979 0.116082
O O10 0.193990 0.357098 0.238736
O O11 0.610217 0.117405 0.249278
O O12 0.500000 0.500000 0.000000
O O13 0.856550 0.389086 0.774854
O O14 0.536933 0.134463 0.007441
O O15 0.278477 0.258520 0.766743
O O16 0.148905 0.140105 0.761569
O O17 0.000000 0.000000 0.000000
O O18 0.000000 0.000000 0.500000
#
# Coordination Sequence:
#
# PCOD8038298 Si02
#       8
#     2   2   2   2   2   2   2   2
#     4  11  22  40  62  92 130 163 214 267 317 382
#     4  10  17  34  64  95 116 150 217 266 295 359
#     4  12  24  43  65  93 129 166 218 264 316 383
#     4  11  25  37  63  94 128 170 204 264 334 372
#     4   9  19  37  61  91 116 161 218 259 312 371
#     4  10  19  38  63  89 125 158 215 264 306 376
#     4  10  21  37  58  90 127 163 208 269 309 369
#     4  11  22  41  69  94 120 175 218 258 313 380
#
# _framework density 20.815338000000001
#
# number of rings (size 3 to 8) (size 9 to 14) (size 15 to 20)
#    0.000    1.500    5.000    3.375    1.750    2.000 
#    0.000    0.625    0.000    0.000    0.000    0.000 
#    0.000    0.000    0.000    0.000    0.000    0.000 
#
# Total GULP energy -198229.641198 kJ/mol
# GULP energy per Si atom -12389.352575 kJ/mol
# Density = 2.076796 g / cm^3
# Si number density = 20.815338 Si / 1000 Ang^3
#
#
#
# Elastic Constant Matrix: (Units=GPa)
#
#
# Indices 1 2 3 4 5 6 
#
# 1 61.9056 30.5491 30.3134 8.7797 13.5964 21.3339
# 2 30.5491 131.0418 58.1650 7.5636 0.3269 23.9708
# 3 30.3134 58.1650 137.3691 12.4065 -2.0340 15.6874
# 4 8.7797 7.5636 12.4065 49.7765 4.9485 -4.1991
# 5 13.5964 0.3269 -2.0340 4.9485 25.5619 6.2358
# 6 21.3339 23.9708 15.6874 -4.1991 6.2358 32.2434
#
#
#
# Elastic Compliance Matrix: (Units=1/GPa)
#
#
# Indices 1 2 3 4 5 6 
#
# 1 0.025778 -0.002082 -0.003230 -0.003453 -0.010247 -0.012405
# 2 -0.002082 0.010643 -0.003281 -0.001125 0.002276 -0.005525
# 3 -0.003230 -0.003281 0.009695 -0.001738 0.003104 -0.000967
# 4 -0.003453 -0.001125 -0.001738 0.022407 -0.004518 0.007758
# 5 -0.010247 0.002276 0.003104 -0.004518 0.047159 -0.006131
# 6 -0.012405 -0.005525 -0.000967 0.007758 -0.006131 0.045996
#
#
# Mechanical properties :
#
#
# Convention : Reuss Voigt Hill
#
# Bulk Modulus (GPa) = 34.56597 63.15240 48.85918
# Shear Modulus (GPa) = 26.52438 35.60229 31.06333
#
# Velocity S-wave (km/s) = 3.57357 4.14017 3.86726
# Velocity P-wave (km/s) = 5.80252 7.29794 6.59277
#
# Compressibility (1/GPa) = 0.02893019
#
# Stress axis : x y z
#
# Youngs Moduli (GPa) = 38.79296 93.96263 103.14561
#
# Poissons Ratio (x) = 0.19560 0.33319
# Poissons Ratio (y) = 0.08075 0.33839
# Poissons Ratio (z) = 0.12531 0.30826
#
# Static dielectric constant tensor:
#      x y z
#    x 3.919000 -0.051470 -0.331850 
#    y -0.051470 4.282400 0.241340 
#    z -0.331850 0.241340 4.172030 
# 
# 
# High freq. dielectric constant tensor:
#      x y z
#    x 1.764590 0.018080 -0.010830 
#    y 0.018080 1.823120 0.009250 
#    z -0.010830 0.009250 1.836960 
# 
# From -- ./inp_files/588826.got.cif
#   From: 2010.06.25/outbox.cif.g09.slc.cpg/sg2_295_cif.got.tgz:588826.got - 2010.06.27 13:26:56.
