data_PCOD8038490
_publ_section_title
;
Structure prediction by ZEFSAII (Michael W. Deem and Ramdas Pophale) SiO2 
 PCOD8038490
Probable space group: P -1
;
_chemical_formula_sum "Si O2"
_cell_formula_units_Z 16
_cell_length_a 23.671158
_cell_length_b 13.454998
_cell_length_c 9.424482
_cell_angle_alpha 139.508327
_cell_angle_beta 45.720982
_cell_angle_gamma 157.327356
_cell_volume 751.228956
_symmetry_space_group_name_H-M "P -1"
_symmetry_group_IT_number 2
_symmetry_cell_setting 'triclinic'
loop_
_space_group_symop_operation_xyz
x,y,z
-x,-y,-z
loop_
_atom_site_type_symbol
_atom_site_label
_atom_site_fract_x
_atom_site_fract_y
_atom_site_fract_z
Si Si1 0.248841 0.774375 0.598093
Si Si2 0.504574 0.127860 0.334169
Si Si3 0.244772 0.376582 0.758923
Si Si4 0.565746 0.515039 0.270529
Si Si5 0.760598 0.291292 0.852873
Si Si6 0.826525 0.125004 0.368557
Si Si7 0.995454 0.832104 0.745525
Si Si8 0.350238 0.941905 0.914613
O O1 0.161719 0.787240 0.717145
O O2 0.163252 0.481989 0.374338
O O3 0.409262 0.050065 0.541734
O O4 0.259938 0.785416 0.758327
O O5 0.659033 0.464999 0.384668
O O6 0.408861 0.970591 0.186790
O O7 0.541077 0.022663 0.219807
O O8 0.345460 0.487078 0.832843
O O9 0.105976 0.031457 0.630936
O O10 0.176940 0.434314 0.975140
O O11 0.500000 0.500000 0.500000
O O12 0.664264 0.792865 0.311334
O O13 0.440466 0.248122 0.094877
O O14 0.851043 0.314630 0.631434
O O15 0.765978 0.248026 0.959545
O O16 0.948438 0.201118 0.275089
O O17 0.000000 0.000000 0.000000
#
# Coordination Sequence:
#
# PCOD8038490 Si02
#       8
#     2   2   2   2   2   2   2   2
#     4  11  24  39  58  94 128 160 191 254 314 344
#     4  10  18  37  62  91 117 163 202 239 291 367
#     4  10  19  35  64  89 113 157 215 247 278 352
#     4  11  18  33  60  93 118 155 209 250 288 352
#     4  10  17  36  64  92 114 162 209 244 289 363
#     4  10  22  37  62  85 119 164 209 238 294 372
#     4  11  24  41  65  88 120 158 208 248 296 366
#     4  11  20  34  61  94 129 152 197 256 306 347
#
# _framework density 21.298434
#
# number of rings (size 3 to 8) (size 9 to 14) (size 15 to 20)
#    0.000    1.500    3.750    3.750    1.750    0.500 
#    0.000    3.125    2.750    0.000    0.000    0.000 
#    0.000    0.000    0.000    0.000    0.000    0.000 
#
# Total GULP energy -198219.354335 kJ/mol
# GULP energy per Si atom -12388.709646 kJ/mol
# Density = 2.124996 g / cm^3
# Si number density = 21.298434 Si / 1000 Ang^3
#
#
#
# Elastic Constant Matrix: (Units=GPa)
#
#
# Indices 1 2 3 4 5 6 
#
# 1 123.3468 35.7864 67.5768 -5.3917 5.9829 -16.1835
# 2 35.7864 91.1094 29.0917 13.9521 1.2627 -20.4195
# 3 67.5768 29.0917 87.2353 6.3103 10.2920 -4.5856
# 4 -5.3917 13.9521 6.3103 27.7888 -2.4387 -6.1629
# 5 5.9829 1.2627 10.2920 -2.4387 38.2965 -5.4108
# 6 -16.1835 -20.4195 -4.5856 -6.1629 -5.4108 31.0668
#
#
#
# Elastic Compliance Matrix: (Units=1/GPa)
#
#
# Indices 1 2 3 4 5 6 
#
# 1 0.017382 -0.002306 -0.013283 0.009539 0.002659 0.007934
# 2 -0.002306 0.015275 -0.002647 -0.005734 0.001267 0.007531
# 3 -0.013283 -0.002647 0.023550 -0.008876 -0.005857 -0.007964
# 4 0.009539 -0.005734 -0.008876 0.045381 0.005362 0.009827
# 5 0.002659 0.001267 -0.005857 0.005362 0.028616 0.007401
# 6 0.007934 0.007531 -0.007964 0.009827 0.007401 0.043335
#
#
# Mechanical properties :
#
#
# Convention : Reuss Voigt Hill
#
# Bulk Modulus (GPa) = 50.66702 62.95570 56.81136
# Shear Modulus (GPa) = 23.08521 30.71286 26.89903
#
# Velocity S-wave (km/s) = 3.29582 3.80152 3.55767
# Velocity P-wave (km/s) = 6.19064 6.99226 6.60363
#
# Compressibility (1/GPa) = 0.01973670
#
# Stress axis : x y z
#
# Youngs Moduli (GPa) = 57.52941 65.46641 42.46290
#
# Poissons Ratio (x) = 0.15094 0.56403
# Poissons Ratio (y) = 0.13264 0.11238
# Poissons Ratio (z) = 0.76416 0.17327
#
# Static dielectric constant tensor:
#      x y z
#    x 3.922940 -0.259970 -0.314020 
#    y -0.259970 4.241540 0.111430 
#    z -0.314020 0.111430 3.522760 
# 
# 
# High freq. dielectric constant tensor:
#      x y z
#    x 1.828370 -0.020930 -0.034020 
#    y -0.020930 1.855140 -0.000470 
#    z -0.034020 -0.000470 1.792010 
# 
# From -- ./inp_files/346357.got.cif
#   From: 2010.06.25/outbox.cif.g09.slc.cpg/sg2_174_cif.got.tgz:346357.got - 2010.06.27 13:26:56.
