data_PCOD8038764
_publ_section_title
;
Structure prediction by ZEFSAII (Michael W. Deem and Ramdas Pophale) SiO2 
 PCOD8038764
Probable space group: P -1
;
_chemical_formula_sum "Si O2"
_cell_formula_units_Z 16
_cell_length_a 13.934078
_cell_length_b 6.616774
_cell_length_c 11.996123
_cell_angle_alpha 70.783497
_cell_angle_beta 90.541888
_cell_angle_gamma 67.972895
_cell_volume 956.942545
_symmetry_space_group_name_H-M "P -1"
_symmetry_group_IT_number 2
_symmetry_cell_setting 'triclinic'
loop_
_space_group_symop_operation_xyz
x,y,z
-x,-y,-z
loop_
_atom_site_type_symbol
_atom_site_label
_atom_site_fract_x
_atom_site_fract_y
_atom_site_fract_z
Si Si1 0.816222 0.970072 0.823878
Si Si2 0.023581 0.796078 0.228010
Si Si3 0.527925 0.215664 0.460492
Si Si4 0.085828 0.366302 0.934629
Si Si5 0.902393 0.723395 0.640546
Si Si6 0.098141 0.760663 0.715415
Si Si7 0.637925 0.315655 0.634735
Si Si8 0.253759 0.840279 0.550499
O O1 0.886506 0.117042 0.820204
O O2 0.695707 0.146098 0.768285
O O3 0.860719 0.789702 0.754616
O O4 0.817155 0.826731 0.962242
O O5 0.078327 0.544542 0.335819
O O6 0.961354 0.766027 0.125851
O O7 0.939964 0.987430 0.271903
O O8 0.548291 0.252369 0.584964
O O9 0.425302 0.422125 0.369857
O O10 0.500000 0.000000 0.500000
O O11 0.633764 0.175912 0.398581
O O12 0.124025 0.548223 0.841516
O O13 0.000000 0.500000 0.000000
O O14 0.822478 0.887638 0.518672
O O15 0.011255 0.757075 0.626904
O O16 0.204585 0.716479 0.658143
O O17 0.727279 0.291226 0.546322
#
# Coordination Sequence:
#
# PCOD8038764 Si02
#       8
#     2   2   2   2   2   2   2   2
#     4  10  18  30  52  73  98 130 170 208 238 284
#     4  10  19  29  47  73 102 136 166 198 241 282
#     4   9  18  35  53  76  97 121 166 209 252 298
#     4  11  19  33  48  69 103 137 172 203 232 283
#     4   9  18  31  46  74 101 134 165 192 244 296
#     4  10  20  32  45  72 107 138 162 196 239 295
#     4   8  19  34  52  76  96 123 162 207 260 284
#     4   9  18  34  50  71 106 129 160 202 250 301
#
# _framework density 16.719918
#
# number of rings (size 3 to 8) (size 9 to 14) (size 15 to 20)
#    0.750    1.750    3.750    0.750    1.750    0.500 
#    4.500    0.000    0.000    0.750    0.000    1.750 
#    0.000    0.000    0.000    0.000    0.000    0.000 
#
# Total GULP energy -198243.088317 kJ/mol
# GULP energy per Si atom -12390.193020 kJ/mol
# Density = 1.668186 g / cm^3
# Si number density = 16.719918 Si / 1000 Ang^3
#
#
#
# Elastic Constant Matrix: (Units=GPa)
#
#
# Indices 1 2 3 4 5 6 
#
# 1 77.8781 43.7767 43.8808 -22.7602 -3.2281 -15.8290
# 2 43.7767 101.7382 39.9859 -24.0279 0.3949 2.2145
# 3 43.8808 39.9859 90.8418 -29.6434 1.2376 -10.8041
# 4 -22.7602 -24.0279 -29.6434 25.1257 -2.4399 6.3047
# 5 -3.2281 0.3949 1.2376 -2.4399 25.0685 -6.0353
# 6 -15.8290 2.2145 -10.8041 6.3047 -6.0353 21.0957
#
#
#
# Elastic Compliance Matrix: (Units=1/GPa)
#
#
# Indices 1 2 3 4 5 6 
#
# 1 0.026304 -0.008380 -0.004877 0.006203 0.008892 0.018809
# 2 -0.008380 0.016529 -0.001747 0.008980 -0.003407 -0.012576
# 3 -0.004877 -0.001747 0.019871 0.016958 0.000496 0.001774
# 4 0.006203 0.008980 0.016958 0.076791 0.005105 -0.009093
# 5 0.008892 -0.003407 0.000496 0.005105 0.046125 0.018954
# 6 0.018809 -0.012576 0.001774 -0.009093 0.018954 0.071885
#
#
# Mechanical properties :
#
#
# Convention : Reuss Voigt Hill
#
# Bulk Modulus (GPa) = 30.58486 58.41609 44.50048
# Shear Modulus (GPa) = 16.75533 23.77896 20.26715
#
# Velocity S-wave (km/s) = 3.16906 3.77529 3.48538
# Velocity P-wave (km/s) = 5.63230 7.34967 6.54753
#
# Compressibility (1/GPa) = 0.03269592
#
# Stress axis : x y z
#
# Youngs Moduli (GPa) = 38.01740 60.49834 50.32452
#
# Poissons Ratio (x) = 0.50699 0.24544
# Poissons Ratio (y) = 0.31860 0.08790
# Poissons Ratio (z) = 0.18542 0.10567
#
# Static dielectric constant tensor:
#      x y z
#    x 2.754810 0.113390 0.057580 
#    y 0.113390 3.078830 -0.114930 
#    z 0.057580 -0.114930 3.036910 
# 
# 
# High freq. dielectric constant tensor:
#      x y z
#    x 1.619490 0.002580 0.014720 
#    y 0.002580 1.647160 -0.019290 
#    z 0.014720 -0.019290 1.621150 
# 
# From -- ./inp_files/440312.got.cif
#   From: 2010.06.25/outbox.cif.g09.slc.cpg/sg2_221_cif.got.tgz:440312.got - 2010.06.27 13:26:56.
