data_PCOD8038949
_publ_section_title
;
Structure prediction by ZEFSAII (Michael W. Deem and Ramdas Pophale) SiO2 
 PCOD8038949
Probable space group: P -1
;
_chemical_formula_sum "Si O2"
_cell_formula_units_Z 14
_cell_length_a 9.383002
_cell_length_b 12.184674
_cell_length_c 8.951430
_cell_angle_alpha 122.632499
_cell_angle_beta 116.010919
_cell_angle_gamma 63.193761
_cell_volume 742.805127
_symmetry_space_group_name_H-M "P -1"
_symmetry_group_IT_number 2
_symmetry_cell_setting 'triclinic'
loop_
_space_group_symop_operation_xyz
x,y,z
-x,-y,-z
loop_
_atom_site_type_symbol
_atom_site_label
_atom_site_fract_x
_atom_site_fract_y
_atom_site_fract_z
Si Si1 0.577012 0.314254 0.445804
Si Si2 0.079646 0.842740 0.444773
Si Si3 0.007499 0.638856 0.028308
Si Si4 0.482887 0.553851 0.780733
Si Si5 0.972991 0.662635 0.475556
Si Si6 0.802053 0.634073 0.665289
Si Si7 0.715723 0.540811 0.138156
O O1 0.720756 0.186077 0.479789
O O2 0.604680 0.444384 0.644781
O O3 0.601992 0.325011 0.284772
O O4 0.394958 0.304855 0.397447
O O5 0.014188 0.760009 0.228001
O O6 0.023395 0.794376 0.541316
O O7 0.000000 0.000000 0.500000
O O8 0.172497 0.604662 0.976491
O O9 0.000000 0.500000 0.000000
O O10 0.846047 0.686464 0.884193
O O11 0.355325 0.484683 0.751719
O O12 0.578449 0.605696 0.996614
O O13 0.901755 0.693616 0.631557
O O14 0.827139 0.642091 0.286610
O O15 0.134318 0.530883 0.441349
#
# Coordination Sequence:
#
# PCOD8038949 Si02
#       7
#     2   2   2   2   2   2   2
#     4  11  21  35  56  88 120 155 195 244 302 341
#     4  12  26  42  58  83 126 166 199 238 298 359
#     4  11  20  36  61  88 116 154 198 243 289 353
#     4  10  19  29  58  96 123 140 188 264 298 338
#     4  10  20  36  60  90 121 154 190 248 303 349
#     4  10  20  35  65  93 114 143 204 255 295 342
#     4  10  18  31  56  96 121 143 188 248 307 340
#
# _framework density 18.847472
#
# number of rings (size 3 to 8) (size 9 to 14) (size 15 to 20)
#    0.000    1.429    5.714    2.571    4.000    0.000 
#    0.000    2.143    0.000    0.000    0.000    0.000 
#    0.000    0.000    0.000    0.000    0.000    0.000 
#
# Total GULP energy -173499.686854 kJ/mol
# GULP energy per Si atom -12392.834775 kJ/mol
# Density = 1.880457 g / cm^3
# Si number density = 18.847472 Si / 1000 Ang^3
#
#
#
# Elastic Constant Matrix: (Units=GPa)
#
#
# Indices 1 2 3 4 5 6 
#
# 1 109.8402 56.2028 37.5858 -8.5763 -0.1156 -5.9033
# 2 56.2028 116.3901 49.0644 -2.8714 2.5550 -7.6064
# 3 37.5858 49.0644 98.9727 -15.8483 -2.9563 -2.9397
# 4 -8.5763 -2.8714 -15.8483 23.8100 1.9706 3.8595
# 5 -0.1156 2.5550 -2.9563 1.9706 30.2144 -13.4177
# 6 -5.9033 -7.6064 -2.9397 3.8595 -13.4177 27.4080
#
#
#
# Elastic Compliance Matrix: (Units=1/GPa)
#
#
# Indices 1 2 3 4 5 6 
#
# 1 0.012643 -0.005256 -0.001740 0.002547 0.000608 0.001017
# 2 -0.005256 0.013408 -0.005251 -0.004145 -0.000305 0.002460
# 3 -0.001740 -0.005251 0.014748 0.008657 0.000847 -0.001054
# 4 0.002547 -0.004145 0.008657 0.050327 -0.006487 -0.009936
# 5 0.000608 -0.000305 0.000847 -0.006487 0.043570 0.022380
# 6 0.001017 0.002460 -0.001054 -0.009936 0.022380 0.049630
#
#
# Mechanical properties :
#
#
# Convention : Reuss Voigt Hill
#
# Bulk Modulus (GPa) = 61.32452 67.87879 64.60165
# Shear Modulus (GPa) = 23.33686 28.44313 25.89000
#
# Velocity S-wave (km/s) = 3.52262 3.88896 3.71031
# Velocity P-wave (km/s) = 7.01092 7.50055 7.25987
#
# Compressibility (1/GPa) = 0.01630669
#
# Stress axis : x y z
#
# Youngs Moduli (GPa) = 79.09643 74.57983 67.80712
#
# Poissons Ratio (x) = 0.39197 0.11795
# Poissons Ratio (y) = 0.41571 0.35605
# Poissons Ratio (z) = 0.13759 0.39161
#
# Static dielectric constant tensor:
#      x y z
#    x 3.722040 -0.062770 -0.151680 
#    y -0.062770 3.026940 -0.449790 
#    z -0.151680 -0.449790 3.747720 
# 
# 
# High freq. dielectric constant tensor:
#      x y z
#    x 1.753080 -0.007830 -0.003990 
#    y -0.007830 1.664240 -0.054140 
#    z -0.003990 -0.054140 1.735400 
# 
# From -- ./inp_files/190242.got.cif
#   From: 2010.06.25/outbox.cif.g09.slc.cpg/sg2_96_cif.got.tgz:190242.got - 2010.06.27 13:26:56.
