data_PCOD8038115
_publ_section_title
;
Structure prediction by ZEFSAII (Michael W. Deem and Ramdas Pophale) SiO2 
 PCOD8038115
Probable space group: P -1
;
_chemical_formula_sum "Si O2"
_cell_formula_units_Z 16
_cell_length_a 11.635536
_cell_length_b 9.001581
_cell_length_c 10.512209
_cell_angle_alpha 134.355808
_cell_angle_beta 66.361201
_cell_angle_gamma 86.389544
_cell_volume 614.207953
_symmetry_space_group_name_H-M "P -1"
_symmetry_group_IT_number 2
_symmetry_cell_setting 'triclinic'
loop_
_space_group_symop_operation_xyz
x,y,z
-x,-y,-z
loop_
_atom_site_type_symbol
_atom_site_label
_atom_site_fract_x
_atom_site_fract_y
_atom_site_fract_z
Si Si1 0.444514 0.318624 0.419498
Si Si2 0.279390 0.591543 0.010703
Si Si3 0.864325 0.992378 0.499120
Si Si4 0.116501 0.470346 0.667539
Si Si5 0.560049 0.205870 0.035524
Si Si6 0.650050 0.808814 0.072588
Si Si7 0.987645 0.102642 0.863202
Si Si8 0.143132 0.225872 0.258301
O O1 0.500000 0.500000 0.500000
O O2 0.273666 0.446764 0.602378
O O3 0.469611 0.206198 0.198404
O O4 0.558142 0.094095 0.324578
O O5 0.304620 0.342406 0.907971
O O6 0.132310 0.695949 0.057967
O O7 0.275204 0.771745 0.233604
O O8 0.409013 0.568474 0.846151
O O9 0.881028 0.737142 0.373912
O O10 0.862064 0.023701 0.364389
O O11 0.000000 0.000000 0.500000
O O12 0.065820 0.463215 0.536567
O O13 0.999938 0.745277 0.933837
O O14 0.467651 0.234652 0.970346
O O15 0.722396 0.957821 0.817372
O O16 0.794157 0.729129 0.873255
O O17 0.952386 0.899189 0.802527
#
# Coordination Sequence:
#
# PCOD8038115 Si02
#       8
#     2   2   2   2   2   2   2   2
#     4  11  21  34  57  84 116 151 191 224 270 344
#     4  10  20  35  54  82 116 145 184 238 284 329
#     4  10  19  37  60  83 108 146 194 239 278 332
#     4  12  18  35  63  85 107 147 193 235 273 327
#     4  10  17  34  53  79 108 150 189 217 275 349
#     4  11  19  33  55  82 115 149 183 230 286 331
#     4  10  22  37  60  82 110 145 199 234 276 336
#     4  10  18  35  57  82 109 148 193 227 272 340
#
# _framework density 26.049807000000001
#
# number of rings (size 3 to 8) (size 9 to 14) (size 15 to 20)
#    0.000    1.500    6.250    3.750    0.000    0.000 
#    0.000    4.375    0.000    0.750    0.000    0.000 
#    0.000    0.000    0.000    0.000    0.000    0.000 
#
# Total GULP energy -198337.891588 kJ/mol
# GULP energy per Si atom -12396.118224 kJ/mol
# Density = 2.599052 g / cm^3
# Si number density = 26.049807 Si / 1000 Ang^3
#
#
#
# Elastic Constant Matrix: (Units=GPa)
#
#
# Indices 1 2 3 4 5 6 
#
# 1 60.7104 30.4111 7.7306 6.5325 13.7925 14.9671
# 2 30.4111 160.9920 18.5569 14.4692 1.5152 10.0011
# 3 7.7306 18.5569 103.6731 7.3828 13.5455 1.3653
# 4 6.5325 14.4692 7.3828 45.8409 12.2707 -1.4304
# 5 13.7925 1.5152 13.5455 12.2707 25.5587 3.8043
# 6 14.9671 10.0011 1.3653 -1.4304 3.8043 44.1144
#
#
#
# Elastic Compliance Matrix: (Units=1/GPa)
#
#
# Indices 1 2 3 4 5 6 
#
# 1 0.022310 -0.003901 0.000574 0.000917 -0.011710 -0.005663
# 2 -0.003901 0.007339 -0.001315 -0.002561 0.003701 -0.000702
# 3 0.000574 -0.001315 0.010602 0.000245 -0.006013 0.000302
# 4 0.000917 -0.002561 0.000245 0.026093 -0.013336 0.002258
# 5 -0.011710 0.003701 -0.006013 -0.013336 0.055092 -0.001863
# 6 -0.005663 -0.000702 0.000302 0.002258 -0.001863 0.024973
#
#
# Mechanical properties :
#
#
# Convention : Reuss Voigt Hill
#
# Bulk Modulus (GPa) = 32.29113 48.75253 40.52183
# Shear Modulus (GPa) = 30.11738 41.01460 35.56599
#
# Velocity S-wave (km/s) = 3.40390 3.97226 3.69901
# Velocity P-wave (km/s) = 5.27935 6.30827 5.81661
#
# Compressibility (1/GPa) = 0.03096825
#
# Stress axis : x y z
#
# Youngs Moduli (GPa) = 44.82210 136.26060 94.31747
#
# Poissons Ratio (x) = 0.53155 -0.05412
# Poissons Ratio (y) = 0.17485 0.12399
# Poissons Ratio (z) = -0.02572 0.17913
#
# Static dielectric constant tensor:
#      x y z
#    x 4.311970 0.041040 0.044140 
#    y 0.041040 5.044270 -0.583060 
#    z 0.044140 -0.583060 5.788160 
# 
# 
# High freq. dielectric constant tensor:
#      x y z
#    x 2.031670 0.016220 0.002040 
#    y 0.016220 2.061780 -0.000130 
#    z 0.002040 -0.000130 2.042110 
# 
# From -- ./inp_files/346437.got.cif
#   From: 2010.06.25/outbox.cif.g09.slc.cpg/sg2_174_cif.got.tgz:346437.got - 2010.06.27 13:26:56.
