data_PCOD8038579
_publ_section_title
;
Structure prediction by ZEFSAII (Michael W. Deem and Ramdas Pophale) SiO2 
 PCOD8038579
Probable space group: P -1
;
_chemical_formula_sum "Si O2"
_cell_formula_units_Z 14
_cell_length_a 23.030790
_cell_length_b 11.214688
_cell_length_c 14.161445
_cell_angle_alpha 149.078100
_cell_angle_beta 24.083289
_cell_angle_gamma 149.298572
_cell_volume 713.909866
_symmetry_space_group_name_H-M "P -1"
_symmetry_group_IT_number 2
_symmetry_cell_setting 'triclinic'
loop_
_space_group_symop_operation_xyz
x,y,z
-x,-y,-z
loop_
_atom_site_type_symbol
_atom_site_label
_atom_site_fract_x
_atom_site_fract_y
_atom_site_fract_z
Si Si1 0.693026 0.700306 0.466281
Si Si2 0.636348 0.430548 0.072951
Si Si3 0.024724 0.749306 0.042174
Si Si4 0.853821 0.987618 0.150032
Si Si5 0.651361 0.213618 0.093278
Si Si6 0.321226 0.873498 0.352035
Si Si7 0.929204 0.189710 0.777213
O O1 0.547893 0.644057 0.713732
O O2 0.644855 0.475035 0.311493
O O3 0.728355 0.948987 0.523045
O O4 0.847371 0.715247 0.301154
O O5 0.722937 0.716051 0.165402
O O6 0.668171 0.243070 0.974636
O O7 0.703017 0.382815 0.841304
O O8 0.037685 0.483884 0.814687
O O9 0.101874 0.939500 0.973632
O O10 0.114672 0.866348 0.084751
O O11 0.784728 0.177391 0.431776
O O12 0.000000 0.000000 0.000000
O O13 0.497022 0.994371 0.203562
O O14 0.783955 0.145932 0.897783
O O15 0.000000 0.000000 0.500000
#
# Coordination Sequence:
#
# PCOD8038579 Si02
#       7
#     2   2   2   2   2   2   2
#     4  10  17  38  61  85 123 151 194 242 288 352
#     4  11  22  34  63  94 118 151 189 243 304 348
#     4  10  23  40  61  88 117 153 198 241 294 343
#     4  12  22  40  58  89 129 151 181 244 307 359
#     4  10  18  37  61  88 117 156 199 239 287 344
#     4  11  21  34  59  93 121 153 191 238 299 352
#     4  10  23  39  63  85 112 158 205 244 277 338
#
# _framework density 19.610319
#
# number of rings (size 3 to 8) (size 9 to 14) (size 15 to 20)
#    0.000    1.429    4.286    3.429    4.000    1.714 
#    0.000    0.714    0.000    1.714    0.000    0.000 
#    0.000    0.000    0.000    0.000    0.000    0.000 
#
# Total GULP energy -173531.379798 kJ/mol
# GULP energy per Si atom -12395.098557 kJ/mol
# Density = 1.956569 g / cm^3
# Si number density = 19.610319 Si / 1000 Ang^3
#
#
#
# Elastic Constant Matrix: (Units=GPa)
#
#
# Indices 1 2 3 4 5 6 
#
# 1 78.4333 23.1058 59.3146 -8.8634 5.3314 -12.4679
# 2 23.1058 46.1910 35.3965 -7.1821 2.1679 -4.0592
# 3 59.3146 35.3965 130.9098 2.6065 8.7325 5.1958
# 4 -8.8634 -7.1821 2.6065 30.7375 -1.8838 6.6865
# 5 5.3314 2.1679 8.7325 -1.8838 30.7521 2.7910
# 6 -12.4679 -4.0592 5.1958 6.6865 2.7910 24.6856
#
#
#
# Elastic Compliance Matrix: (Units=1/GPa)
#
#
# Indices 1 2 3 4 5 6 
#
# 1 0.024412 -0.001749 -0.011082 0.004549 -0.001896 0.013357
# 2 -0.001749 0.029559 -0.007502 0.006230 0.000384 0.003825
# 3 -0.011082 -0.007502 0.015212 -0.004433 -0.001353 -0.008679
# 4 0.004549 0.006230 -0.004433 0.037189 0.002867 -0.006142
# 5 -0.001896 0.000384 -0.001353 0.002867 0.033853 -0.005213
# 6 0.013357 0.003825 -0.008679 -0.006142 -0.005213 0.051965
#
#
# Mechanical properties :
#
#
# Convention : Reuss Voigt Hill
#
# Bulk Modulus (GPa) = 35.06652 54.57422 44.82037
# Shear Modulus (GPa) = 20.63045 26.41618 23.52332
#
# Velocity S-wave (km/s) = 3.24701 3.67421 3.46719
# Velocity P-wave (km/s) = 5.65490 6.77418 6.23969
#
# Compressibility (1/GPa) = 0.02851723
#
# Stress axis : x y z
#
# Youngs Moduli (GPa) = 40.96361 33.83014 65.73966
#
# Poissons Ratio (x) = 0.05917 0.72855
# Poissons Ratio (y) = 0.07164 0.49315
# Poissons Ratio (z) = 0.45397 0.25378
#
# Static dielectric constant tensor:
#      x y z
#    x 3.601430 0.128200 0.082180 
#    y 0.128200 3.408630 0.014450 
#    z 0.082180 0.014450 3.760550 
# 
# 
# High freq. dielectric constant tensor:
#      x y z
#    x 1.756190 0.020330 0.006520 
#    y 0.020330 1.743150 0.008500 
#    z 0.006520 0.008500 1.771310 
# 
# From -- ./inp_files/253317.got.cif
#   From: 2010.06.25/outbox.cif.g09.slc.cpg/sg2_127_cif.got.tgz:253317.got - 2010.06.27 13:26:56.
