data_PCOD8038010
_publ_section_title
;
Structure prediction by ZEFSAII (Michael W. Deem and Ramdas Pophale) SiO2 
 PCOD8038010
Probable space group: P -1
;
_chemical_formula_sum "Si O2"
_cell_formula_units_Z 16
_cell_length_a 13.084474
_cell_length_b 17.330619
_cell_length_c 8.860266
_cell_angle_alpha 74.618067
_cell_angle_beta 120.628810
_cell_angle_gamma 147.814141
_cell_volume 858.448112
_symmetry_space_group_name_H-M "P -1"
_symmetry_group_IT_number 2
_symmetry_cell_setting 'triclinic'
loop_
_space_group_symop_operation_xyz
x,y,z
-x,-y,-z
loop_
_atom_site_type_symbol
_atom_site_label
_atom_site_fract_x
_atom_site_fract_y
_atom_site_fract_z
Si Si1 0.027781 0.087058 0.796914
Si Si2 0.090990 0.224640 0.496358
Si Si3 0.319266 0.213751 0.508845
Si Si4 0.212334 0.475988 0.466382
Si Si5 0.350328 0.086372 0.810556
Si Si6 0.783633 0.419767 0.314108
Si Si7 0.288789 0.092360 0.088898
Si Si8 0.142086 0.614108 0.909006
O O1 0.126178 0.213643 0.699213
O O2 0.864460 0.931070 0.666192
O O3 0.882092 0.044267 0.844703
O O4 0.235593 0.156396 0.990617
O O5 0.227187 0.247307 0.470095
O O6 0.194989 0.372058 0.482753
O O7 0.816173 0.066369 0.334847
O O8 0.563488 0.361131 0.533892
O O9 0.338158 0.170453 0.695695
O O10 0.226912 0.501612 0.645355
O O11 0.989744 0.390963 0.272615
O O12 0.258978 0.028408 0.942956
O O13 0.615496 0.210271 0.938456
O O14 0.549887 0.236083 0.271613
O O15 0.809282 0.433920 0.143068
O O16 0.000000 0.500000 0.500000
O O17 0.000000 0.500000 0.000000
#
# Coordination Sequence:
#
# PCOD8038010 Si02
#       8
#     2   2   2   2   2   2   2   2
#     4  10  19  32  58  77 108 145 191 217 266 324
#     4  11  22  35  52  85 119 145 174 225 283 330
#     4  11  18  36  55  81 111 153 183 215 267 340
#     4  11  22  37  54  81 118 147 175 225 286 321
#     4  10  19  35  61  80 108 140 194 226 261 324
#     4   9  20  35  56  79 105 142 186 223 264 325
#     4  10  17  33  58  80  99 140 194 229 252 309
#     4  10  20  37  63  83 100 142 196 232 261 319
#
# _framework density 18.638283999999999
#
# number of rings (size 3 to 8) (size 9 to 14) (size 15 to 20)
#    0.000    1.750    5.000    1.125    0.000    0.500 
#    0.000    1.875    0.000    7.500    0.000    0.000 
#    0.000    0.000    0.000    0.000    0.000    0.000 
#
# Total GULP energy -198310.523990 kJ/mol
# GULP energy per Si atom -12394.407749 kJ/mol
# Density = 1.859586 g / cm^3
# Si number density = 18.638284 Si / 1000 Ang^3
#
#
#
# Elastic Constant Matrix: (Units=GPa)
#
#
# Indices 1 2 3 4 5 6 
#
# 1 68.7461 23.8391 13.8784 -3.2093 -11.4816 11.2158
# 2 23.8391 51.2110 12.0322 -1.5213 -4.6077 -1.7447
# 3 13.8784 12.0322 64.7002 3.4997 1.7411 6.7208
# 4 -3.2093 -1.5213 3.4997 24.3635 11.9885 1.6113
# 5 -11.4816 -4.6077 1.7411 11.9885 32.4559 1.2093
# 6 11.2158 -1.7447 6.7208 1.6113 1.2093 34.5000
#
#
#
# Elastic Compliance Matrix: (Units=1/GPa)
#
#
# Indices 1 2 3 4 5 6 
#
# 1 0.020087 -0.008502 -0.002184 -0.000255 0.006362 -0.006746
# 2 -0.008502 0.024441 -0.003230 0.000413 0.000312 0.004599
# 3 -0.002184 -0.003230 0.016945 -0.002133 -0.001255 -0.002611
# 4 -0.000255 0.000413 -0.002133 0.050547 -0.018544 -0.001191
# 5 0.006362 0.000312 -0.001255 -0.018544 0.040110 -0.002348
# 6 -0.006746 0.004599 -0.002611 -0.001191 -0.002348 0.032058
#
#
# Mechanical properties :
#
#
# Convention : Reuss Voigt Hill
#
# Bulk Modulus (GPa) = 29.72637 31.57296 30.64967
# Shear Modulus (GPa) = 22.39800 27.25771 24.82785
#
# Velocity S-wave (km/s) = 3.47034 3.82836 3.65374
# Velocity P-wave (km/s) = 5.66052 6.04304 5.85490
#
# Compressibility (1/GPa) = 0.03364016
#
# Stress axis : x y z
#
# Youngs Moduli (GPa) = 49.78424 40.91516 59.01294
#
# Poissons Ratio (x) = 0.34787 0.12889
# Poissons Ratio (y) = 0.42328 0.19060
# Poissons Ratio (z) = 0.10874 0.13215
#
# Static dielectric constant tensor:
#      x y z
#    x 3.613680 0.337420 -0.128180 
#    y 0.337420 3.093710 0.133980 
#    z -0.128180 0.133980 3.792980 
# 
# 
# High freq. dielectric constant tensor:
#      x y z
#    x 1.723740 0.037480 -0.005000 
#    y 0.037480 1.685420 0.013490 
#    z -0.005000 0.013490 1.737970 
# 
# From -- ./inp_files/171551.got.cif
#   From: 2010.06.25/outbox.cif.g09.slc.cpg/sg2_86_cif.got.tgz:171551.got - 2010.06.27 13:26:56.
