data_PCOD8038613
_publ_section_title
;
Structure prediction by ZEFSAII (Michael W. Deem and Ramdas Pophale) SiO2 
 PCOD8038613
Probable space group: P -1
;
_chemical_formula_sum "Si O2"
_cell_formula_units_Z 16
_cell_length_a 12.224331
_cell_length_b 13.193975
_cell_length_c 9.279067
_cell_angle_alpha 61.534139
_cell_angle_beta 35.010615
_cell_angle_gamma 73.841396
_cell_volume 735.955402
_symmetry_space_group_name_H-M "P -1"
_symmetry_group_IT_number 2
_symmetry_cell_setting 'triclinic'
loop_
_space_group_symop_operation_xyz
x,y,z
-x,-y,-z
loop_
_atom_site_type_symbol
_atom_site_label
_atom_site_fract_x
_atom_site_fract_y
_atom_site_fract_z
Si Si1 0.925994 0.662459 0.882913
Si Si2 0.309621 0.086516 0.769632
Si Si3 0.301349 0.828912 0.884313
Si Si4 0.641023 0.438873 0.299351
Si Si5 0.944783 0.731833 0.136399
Si Si6 0.598103 0.528649 0.722940
Si Si7 0.563017 0.780501 0.185872
Si Si8 0.306315 0.716957 0.260907
O O1 0.096275 0.720334 0.550663
O O2 0.859615 0.520637 0.019550
O O3 0.989584 0.682117 0.966820
O O4 0.746712 0.722643 0.999693
O O5 0.487482 0.139703 0.436473
O O6 0.132714 0.148700 0.881505
O O7 0.373428 0.105948 0.855928
O O8 0.232556 0.947241 0.924669
O O9 0.315702 0.750828 0.061552
O O10 0.144687 0.754868 0.993991
O O11 0.500000 0.500000 0.500000
O O12 0.562686 0.425814 0.229419
O O13 0.619525 0.308480 0.476979
O O14 0.789402 0.633848 0.457364
O O15 0.654085 0.413492 0.671646
O O16 0.500000 0.500000 0.000000
O O17 0.475198 0.808723 0.107084
#
# Coordination Sequence:
#
# PCOD8038613 Si02
#       8
#     2   2   2   2   2   2   2   2
#     4  10  21  38  63  90 121 161 209 243 297 371
#     4  10  22  46  68  83 119 170 211 255 302 362
#     4  11  26  40  61  97 124 158 209 255 314 363
#     4  10  17  40  61  87 119 165 208 233 296 376
#     4  11  22  44  65  89 123 169 208 246 303 374
#     4  12  24  39  63  95 130 164 198 248 316 365
#     4  10  20  41  66  85 118 168 210 247 301 360
#     4  12  25  38  60  99 128 153 199 263 305 363
#
# _framework density 21.740448000000001
#
# number of rings (size 3 to 8) (size 9 to 14) (size 15 to 20)
#    0.000    1.250    6.250    1.875    1.750    5.000 
#    0.000    2.500    0.000    0.000    0.000    0.000 
#    0.000    0.000    0.000    0.000    0.000    0.000 
#
# Total GULP energy -198410.359754 kJ/mol
# GULP energy per Si atom -12400.647485 kJ/mol
# Density = 2.169097 g / cm^3
# Si number density = 21.740448 Si / 1000 Ang^3
#
#
#
# Elastic Constant Matrix: (Units=GPa)
#
#
# Indices 1 2 3 4 5 6 
#
# 1 145.9814 4.8693 32.1380 -3.7931 -5.3382 14.0880
# 2 4.8693 37.3191 4.8437 -0.6733 -5.8030 0.0405
# 3 32.1380 4.8437 61.3419 4.8559 -6.3496 6.5710
# 4 -3.7931 -0.6733 4.8559 28.6677 2.9474 -1.5634
# 5 -5.3382 -5.8030 -6.3496 2.9474 24.1420 -3.2732
# 6 14.0880 0.0405 6.5710 -1.5634 -3.2732 27.9584
#
#
#
# Elastic Compliance Matrix: (Units=1/GPa)
#
#
# Indices 1 2 3 4 5 6 
#
# 1 0.008080 -0.000503 -0.003990 0.001566 0.000012 -0.003044
# 2 -0.000503 0.028048 -0.001450 0.000252 0.006397 0.001317
# 3 -0.003990 -0.001450 0.019536 -0.004423 0.004130 -0.002343
# 4 0.001566 0.000252 -0.004423 0.036449 -0.004975 0.001706
# 5 0.000012 0.006397 0.004130 -0.004975 0.045201 0.004028
# 6 -0.003044 0.001317 -0.002343 0.001706 0.004028 0.038417
#
#
# Mechanical properties :
#
#
# Convention : Reuss Voigt Hill
#
# Bulk Modulus (GPa) = 22.84297 36.48272 29.66284
# Shear Modulus (GPa) = 24.72675 29.67306 27.19991
#
# Velocity S-wave (km/s) = 3.37614 3.69843 3.54095
# Velocity P-wave (km/s) = 5.07225 5.92076 5.51285
#
# Compressibility (1/GPa) = 0.04377715
#
# Stress axis : x y z
#
# Youngs Moduli (GPa) = 123.75711 35.65373 51.18829
#
# Poissons Ratio (x) = 0.01793 0.20426
# Poissons Ratio (y) = 0.06224 0.07422
# Poissons Ratio (z) = 0.49383 0.05170
#
# Static dielectric constant tensor:
#      x y z
#    x 2.785530 -0.038380 0.239070 
#    y -0.038380 4.064490 0.026480 
#    z 0.239070 0.026480 3.663700 
# 
# 
# High freq. dielectric constant tensor:
#      x y z
#    x 1.863530 0.010910 -0.007020 
#    y 0.010910 1.854550 0.013330 
#    z -0.007020 0.013330 1.840120 
# 
# From -- ./inp_files/272063.got.cif
#   From: 2010.06.25/outbox.cif.g09.slc.cpg/sg2_137_cif.got.tgz:272063.got - 2010.06.27 13:26:56.
