data_PCOD8038507
_publ_section_title
;
Structure prediction by ZEFSAII (Michael W. Deem and Ramdas Pophale) SiO2 
 PCOD8038507
Probable space group: P -1
;
_chemical_formula_sum "Si O2"
_cell_formula_units_Z 12
_cell_length_a 9.077351
_cell_length_b 8.958172
_cell_length_c 11.451757
_cell_angle_alpha 123.766769
_cell_angle_beta 115.172966
_cell_angle_gamma 43.592957
_cell_volume 533.361573
_symmetry_space_group_name_H-M "P -1"
_symmetry_group_IT_number 2
_symmetry_cell_setting 'triclinic'
loop_
_space_group_symop_operation_xyz
x,y,z
-x,-y,-z
loop_
_atom_site_type_symbol
_atom_site_label
_atom_site_fract_x
_atom_site_fract_y
_atom_site_fract_z
Si Si1 0.063633 0.674790 0.034649
Si Si2 0.497553 0.012156 0.643379
Si Si3 0.614856 0.586705 0.629573
Si Si4 0.676221 0.219777 0.928341
Si Si5 0.502703 0.207140 0.081354
Si Si6 0.946033 0.671524 0.235874
O O1 0.102872 0.843905 0.065765
O O2 0.287852 0.429512 0.045364
O O3 0.908593 0.794120 0.148642
O O4 0.979336 0.590387 0.873947
O O5 0.609241 0.116353 0.767217
O O6 0.259147 0.170640 0.683278
O O7 0.500000 0.000000 0.500000
O O8 0.625143 0.747620 0.615757
O O9 0.500000 0.500000 0.500000
O O10 0.468705 0.728539 0.754685
O O11 0.859521 0.366694 0.650244
O O12 0.500000 0.500000 0.000000
O O13 0.701930 0.114067 0.021137
O O14 0.500000 0.000000 0.000000
#
# Coordination Sequence:
#
# PCOD8038507 Si02
#       6
#     2   2   2   2   2   2
#     4   9  19  36  70  97 125 169 219 276 322 381
#     4  12  26  43  68  96 138 176 215 272 335 392
#     4  11  26  42  65  98 132 178 218 267 330 392
#     4  10  19  38  68  98 123 173 221 264 328 384
#     4  10  17  36  67  94 128 166 218 267 321 385
#     4  10  21  43  69  94 134 171 226 266 328 390
#
# _framework density 22.498809000000001
#
# number of rings (size 3 to 8) (size 9 to 14) (size 15 to 20)
#    0.000    1.667    5.000    0.000    7.000    1.333 
#    0.000    0.833    0.000    0.000    0.000    0.000 
#    0.000    0.000    0.000    0.000    0.000    0.000 
#
# Total GULP energy -148752.920177 kJ/mol
# GULP energy per Si atom -12396.076681 kJ/mol
# Density = 2.244760 g / cm^3
# Si number density = 22.498809 Si / 1000 Ang^3
#
#
#
# Elastic Constant Matrix: (Units=GPa)
#
#
# Indices 1 2 3 4 5 6 
#
# 1 181.4554 22.2833 67.2639 -2.8829 -12.8064 24.7747
# 2 22.2833 19.5846 15.1481 3.6300 -6.1081 19.6290
# 3 67.2639 15.1481 155.5050 -7.5419 1.0372 20.0703
# 4 -2.8829 3.6300 -7.5419 29.5290 7.0168 -2.5823
# 5 -12.8064 -6.1081 1.0372 7.0168 58.0636 -0.4960
# 6 24.7747 19.6290 20.0703 -2.5823 -0.4960 51.1015
#
#
#
# Elastic Compliance Matrix: (Units=1/GPa)
#
#
# Indices 1 2 3 4 5 6 
#
# 1 0.007279 -0.005891 -0.002524 0.000540 0.000964 -0.000238
# 2 -0.005891 0.105641 -0.004044 -0.020704 0.012072 -0.037064
# 3 -0.002524 -0.004044 0.008090 0.002636 -0.001448 -0.000281
# 4 0.000540 -0.020704 0.002636 0.039505 -0.006807 0.008586
# 5 0.000964 0.012072 -0.001448 -0.006807 0.019513 -0.004690
# 6 -0.000238 -0.037064 -0.000281 0.008586 -0.004690 0.034420
#
#
# Mechanical properties :
#
#
# Convention : Reuss Voigt Hill
#
# Bulk Modulus (GPa) = 10.40657 62.88173 36.64415
# Shear Modulus (GPa) = 18.42321 44.52880 31.47600
#
# Velocity S-wave (km/s) = 2.86466 4.45360 3.74439
# Velocity P-wave (km/s) = 3.94679 7.37941 5.91747
#
# Compressibility (1/GPa) = 0.09609318
#
# Stress axis : x y z
#
# Youngs Moduli (GPa) = 137.37703 9.46602 123.60518
#
# Poissons Ratio (x) = 0.05576 0.31202
# Poissons Ratio (y) = 0.80923 0.49983
# Poissons Ratio (z) = 0.34678 0.03828
#
# Static dielectric constant tensor:
#      x y z
#    x 4.996880 0.297350 -0.098030 
#    y 0.297350 4.215230 -0.041140 
#    z -0.098030 -0.041140 3.993550 
# 
# 
# High freq. dielectric constant tensor:
#      x y z
#    x 1.909660 0.005030 0.001130 
#    y 0.005030 1.887800 -0.006050 
#    z 0.001130 -0.006050 1.874360 
# 
# From -- ./inp_files/380721.got.cif
#   From: 2010.06.25/outbox.cif.g09.slc.cpg/sg2_191_cif.got.tgz:380721.got - 2010.06.27 13:26:56.
