data_PCOD8038158
_publ_section_title
;
Structure prediction by ZEFSAII (Michael W. Deem and Ramdas Pophale) SiO2 
 PCOD8038158
Probable space group: P -1
;
_chemical_formula_sum "Si O2"
_cell_formula_units_Z 16
_cell_length_a 9.000000
_cell_length_b 18.000000
_cell_length_c 21.000000
_cell_angle_alpha 20.000000
_cell_angle_beta 40.000000
_cell_angle_gamma 40.000000
_cell_volume 731.217405
_symmetry_space_group_name_H-M "P -1"
_symmetry_group_IT_number 2
_symmetry_cell_setting 'triclinic'
loop_
_space_group_symop_operation_xyz
x,y,z
-x,-y,-z
loop_
_atom_site_type_symbol
_atom_site_label
_atom_site_fract_x
_atom_site_fract_y
_atom_site_fract_z
Si Si1 0.508573 0.094514 0.490938
Si Si2 0.031453 0.355315 0.668777
Si Si3 0.698110 0.052867 0.035992
Si Si4 0.936793 0.781237 0.053218
Si Si5 0.540312 0.302498 0.094952
Si Si6 0.177235 0.609076 0.891280
Si Si7 0.988695 0.347936 0.451968
Si Si8 0.180732 0.091483 0.144424
O O1 0.723780 0.221001 0.323343
O O2 0.259735 0.257067 0.454947
O O3 0.500000 0.000000 0.500000
O O4 0.566998 0.896922 0.681182
O O5 0.125230 0.510444 0.564050
O O6 0.000000 0.500000 0.500000
O O7 0.220492 0.118514 0.793702
O O8 0.786804 0.284124 0.828115
O O9 0.417670 0.118579 0.079538
O O10 0.821184 0.927401 0.033178
O O11 0.772331 0.865089 0.979632
O O12 0.197834 0.809094 0.925061
O O13 0.956119 0.517440 0.267102
O O14 0.500000 0.500000 0.000000
O O15 0.390996 0.406044 0.000284
O O16 0.050320 0.737691 0.891524
O O17 0.000000 0.500000 0.000000
O O18 0.849664 0.158409 0.633466
#
# Coordination Sequence:
#
# PCOD8038158 Si02
#       8
#     2   2   2   2   2   2   2   2
#     4  12  21  41  69  96 122 167 225 267 314 397
#     4  10  23  43  65  90 129 174 215 252 324 393
#     4  10  25  41  63  97 133 166 208 268 324 378
#     4  11  21  39  69  96 124 168 220 263 315 389
#     4  12  21  41  72  94 124 176 222 263 320 390
#     4  12  28  42  64  99 137 168 216 280 334 374
#     4  11  22  38  68  95 119 168 217 264 315 380
#     4  12  24  42  63  97 131 165 215 271 323 381
#
# _framework density 21.881316999999999
#
# number of rings (size 3 to 8) (size 9 to 14) (size 15 to 20)
#    0.000    0.750    6.250    1.125    1.750    4.500 
#    0.000    0.000    0.000    0.000    0.000    0.000 
#    0.000    0.000    0.000    0.000    0.000    0.000 
#
# Total GULP energy -198314.994091 kJ/mol
# GULP energy per Si atom -12394.687131 kJ/mol
# Density = 2.183151 g / cm^3
# Si number density = 21.881317 Si / 1000 Ang^3
#
#
#
# Elastic Constant Matrix: (Units=GPa)
#
#
# Indices 1 2 3 4 5 6 
#
# 1 55.6888 -10.2255 40.2038 7.9079 0.2671 -16.6176
# 2 -10.2255 43.3819 5.6580 3.2475 5.8288 -13.8836
# 3 40.2038 5.6580 155.4200 5.1112 16.3174 -6.7470
# 4 7.9079 3.2475 5.1112 24.5265 1.5256 -3.9743
# 5 0.2671 5.8288 16.3174 1.5256 39.2632 4.9339
# 6 -16.6176 -13.8836 -6.7470 -3.9743 4.9339 30.8554
#
#
#
# Elastic Compliance Matrix: (Units=1/GPa)
#
#
# Indices 1 2 3 4 5 6 
#
# 1 0.036230 0.018706 -0.008430 -0.008133 -0.002399 0.025422
# 2 0.018706 0.037907 -0.004129 -0.005420 -0.007181 0.026678
# 3 -0.008430 -0.004129 0.008830 0.000944 -0.002541 -0.003939
# 4 -0.008133 -0.005420 0.000944 0.043860 -0.001138 -0.000781
# 5 -0.002399 -0.007181 -0.002541 -0.001138 0.028889 -0.009845
# 6 0.025422 0.026678 -0.003939 -0.000781 -0.009845 0.058717
#
#
# Mechanical properties :
#
#
# Convention : Reuss Voigt Hill
#
# Bulk Modulus (GPa) = 10.49736 36.19591 23.34663
# Shear Modulus (GPa) = 21.37746 33.51932 27.44839
#
# Velocity S-wave (km/s) = 3.12905 3.91816 3.54562
# Velocity P-wave (km/s) = 4.22639 6.08663 5.23973
#
# Compressibility (1/GPa) = 0.09526208
#
# Stress axis : x y z
#
# Youngs Moduli (GPa) = 27.60149 26.38020 113.25205
#
# Poissons Ratio (x) = -0.49347 0.95471
# Poissons Ratio (y) = -0.51632 0.46756
# Poissons Ratio (z) = 0.23268 0.10891
#
# Static dielectric constant tensor:
#      x y z
#    x 3.507550 -0.054420 -0.061510 
#    y -0.054420 4.578840 0.406940 
#    z -0.061510 0.406940 4.504760 
# 
# 
# High freq. dielectric constant tensor:
#      x y z
#    x 1.832550 -0.003090 0.006690 
#    y -0.003090 1.857750 -0.008650 
#    z 0.006690 -0.008650 1.873130 
# 
# From -- ./inp_files/187956.got.cif
#   From: 2010.06.25/outbox.ucp.g09.slc.cvg/sg2_94_cif.got.tgz:187956.got - 2010.06.28 11:54:26.
