data_PCOD8038617
_publ_section_title
;
Structure prediction by ZEFSAII (Michael W. Deem and Ramdas Pophale) SiO2 
 PCOD8038617
Probable space group: P -1
;
_chemical_formula_sum "Si O2"
_cell_formula_units_Z 16
_cell_length_a 7.930932
_cell_length_b 11.885134
_cell_length_c 16.733152
_cell_angle_alpha 141.572368
_cell_angle_beta 83.206658
_cell_angle_gamma 71.821306
_cell_volume 734.995830
_symmetry_space_group_name_H-M "P -1"
_symmetry_group_IT_number 2
_symmetry_cell_setting 'triclinic'
loop_
_space_group_symop_operation_xyz
x,y,z
-x,-y,-z
loop_
_atom_site_type_symbol
_atom_site_label
_atom_site_fract_x
_atom_site_fract_y
_atom_site_fract_z
Si Si1 0.818567 0.016445 0.471014
Si Si2 0.889284 0.203695 0.264202
Si Si3 0.651581 0.918965 0.572531
Si Si4 0.763021 0.795000 0.853170
Si Si5 0.842587 0.667711 0.172552
Si Si6 0.591046 0.551857 0.348725
Si Si7 0.955401 0.379625 0.501788
Si Si8 0.952109 0.280833 0.064329
O O1 0.663932 0.026141 0.550337
O O2 0.931504 0.785328 0.279456
O O3 0.669221 0.259586 0.559930
O O4 0.000000 0.000000 0.500000
O O5 0.646918 0.423143 0.359604
O O6 0.106823 0.149560 0.180043
O O7 0.859406 0.276621 0.400043
O O8 0.920069 0.966789 0.127974
O O9 0.696009 0.680083 0.415374
O O10 0.822909 0.853410 0.596388
O O11 0.401596 0.118872 0.731905
O O12 0.790238 0.577044 0.688954
O O13 0.873055 0.727464 0.896647
O O14 0.500000 0.000000 0.000000
O O15 0.827256 0.504889 0.138190
O O16 0.000000 0.500000 0.000000
O O17 0.750680 0.330095 0.154779
O O18 0.000000 0.500000 0.500000
#
# Coordination Sequence:
#
# PCOD8038617 Si02
#       8
#     2   2   2   2   2   2   2   2
#     4  11  23  42  68  93 120 164 221 264 308 379
#     4  10  22  38  66  91 127 169 204 250 322 381
#     4  11  19  42  71  85 124 171 209 254 317 384
#     4  10  20  37  63  94 125 159 213 261 305 366
#     4  11  24  42  66  92 124 168 211 266 323 373
#     4  10  17  40  68  89 117 171 210 246 316 382
#     4  10  19  38  62  92 120 160 207 248 311 368
#     4  11  20  43  60  90 128 168 210 250 319 382
#
# _framework density 21.768833000000001
#
# number of rings (size 3 to 8) (size 9 to 14) (size 15 to 20)
#    0.000    1.500    6.250    2.250    0.000    3.000 
#   11.250    1.875    0.000    0.000    0.000    0.000 
#    0.000    0.000    0.000    0.000    0.000    0.000 
#
# Total GULP energy -198268.031961 kJ/mol
# GULP energy per Si atom -12391.751998 kJ/mol
# Density = 2.171929 g / cm^3
# Si number density = 21.768833 Si / 1000 Ang^3
#
#
#
# Elastic Constant Matrix: (Units=GPa)
#
#
# Indices 1 2 3 4 5 6 
#
# 1 53.4924 28.1283 52.0803 1.2798 1.2598 -30.6280
# 2 28.1283 108.9073 63.6172 5.7292 11.0773 -39.6650
# 3 52.0803 63.6172 179.8540 -5.9086 16.2354 -30.7811
# 4 1.2798 5.7292 -5.9086 38.5188 -2.8027 1.7780
# 5 1.2598 11.0773 16.2354 -2.8027 33.2314 -1.9171
# 6 -30.6280 -39.6650 -30.7811 1.7780 -1.9171 33.1423
#
#
#
# Elastic Compliance Matrix: (Units=1/GPa)
#
#
# Indices 1 2 3 4 5 6 
#
# 1 0.056192 0.013671 -0.011587 -0.008240 0.001629 0.058065
# 2 0.013671 0.022080 -0.005882 -0.006460 -0.003603 0.033734
# 3 -0.011587 -0.005882 0.009800 0.002984 -0.002653 -0.008960
# 4 -0.008240 -0.006460 0.002984 0.028487 0.002606 -0.013952
# 5 0.001629 -0.003603 -0.002653 0.002606 0.032544 -0.003529
# 6 0.058065 0.033734 -0.008960 -0.013952 -0.003529 0.116430
#
#
# Mechanical properties :
#
#
# Convention : Reuss Voigt Hill
#
# Bulk Modulus (GPa) = 12.42616 69.98948 41.20782
# Shear Modulus (GPa) = 16.66918 34.20704 25.43811
#
# Velocity S-wave (km/s) = 2.77020 3.96836 3.42212
# Velocity P-wave (km/s) = 3.99407 7.29508 5.88094
#
# Compressibility (1/GPa) = 0.08047538
#
# Stress axis : x y z
#
# Youngs Moduli (GPa) = 17.79611 45.28992 102.03924
#
# Poissons Ratio (x) = -0.61917 1.18237
# Poissons Ratio (y) = -0.24330 0.60022
# Poissons Ratio (z) = 0.20621 0.26641
#
# Static dielectric constant tensor:
#      x y z
#    x 3.583530 -0.445580 0.202390 
#    y -0.445580 3.090490 -0.173990 
#    z 0.202390 -0.173990 4.231970 
# 
# 
# High freq. dielectric constant tensor:
#      x y z
#    x 1.823500 -0.014270 0.006880 
#    y -0.014270 1.863900 0.004430 
#    z 0.006880 0.004430 1.863100 
# 
# From -- ./inp_files/561425.got.cif
#   From: 2010.06.25/outbox.cif.g09.slc.cpg/sg2_281_cif.got.tgz:561425.got - 2010.06.27 13:26:56.
