data_PCOD8038584
_publ_section_title
;
Structure prediction by ZEFSAII (Michael W. Deem and Ramdas Pophale) SiO2 
 PCOD8038584
Probable space group: P -1
;
_chemical_formula_sum "Si O2"
_cell_formula_units_Z 14
_cell_length_a 13.527561
_cell_length_b 8.707062
_cell_length_c 8.535937
_cell_angle_alpha 53.311485
_cell_angle_beta 53.129009
_cell_angle_gamma 68.056319
_cell_volume 644.795183
_symmetry_space_group_name_H-M "P -1"
_symmetry_group_IT_number 2
_symmetry_cell_setting 'triclinic'
loop_
_space_group_symop_operation_xyz
x,y,z
-x,-y,-z
loop_
_atom_site_type_symbol
_atom_site_label
_atom_site_fract_x
_atom_site_fract_y
_atom_site_fract_z
Si Si1 0.312224 0.351923 0.058860
Si Si2 0.510795 0.961540 0.829063
Si Si3 0.849906 0.265953 0.396692
Si Si4 0.037766 0.361067 0.411499
Si Si5 0.993633 0.962628 0.845926
Si Si6 0.394196 0.635472 0.586293
Si Si7 0.251727 0.035145 0.078289
O O1 0.402354 0.228555 0.167017
O O2 0.179722 0.403999 0.222812
O O3 0.298526 0.232878 0.984126
O O4 0.370639 0.555567 0.832978
O O5 0.568802 0.142022 0.574041
O O6 0.366720 0.930984 0.938063
O O7 0.500000 0.000000 0.000000
O O8 0.728539 0.388940 0.389112
O O9 0.804069 0.087801 0.651835
O O10 0.947936 0.390711 0.327214
O O11 0.914770 0.202172 0.209449
O O12 0.000000 0.500000 0.500000
O O13 0.029051 0.145193 0.602794
O O14 0.852158 0.911390 0.981454
O O15 0.000000 0.000000 0.000000
O O16 0.500000 0.500000 0.500000
#
# Coordination Sequence:
#
# PCOD8038584 Si02
#       7
#     2   2   2   2   2   2   2
#     4  11  20  37  63  91 126 162 208 256 313 371
#     4  10  18  35  60  93 123 161 206 255 314 370
#     4  11  21  40  65  88 125 170 208 252 322 375
#     4  11  24  42  61  92 130 165 205 266 317 365
#     4  11  23  39  65  93 123 165 215 254 315 382
#     4  12  21  32  63 100 118 161 219 253 303 384
#     4  10  17  38  64  88 121 167 204 249 314 374
#
# _framework density 21.712322
#
# number of rings (size 3 to 8) (size 9 to 14) (size 15 to 20)
#    0.000    1.143    8.571    0.857    2.000    1.714 
#    0.000    0.000    3.143    4.286    3.714    0.000 
#    0.000    0.000    0.000    0.000    0.000    0.000 
#
# Total GULP energy -173491.436361 kJ/mol
# GULP energy per Si atom -12392.245454 kJ/mol
# Density = 2.166290 g / cm^3
# Si number density = 21.712322 Si / 1000 Ang^3
#
#
#
# Elastic Constant Matrix: (Units=GPa)
#
#
# Indices 1 2 3 4 5 6 
#
# 1 117.6458 62.9756 39.4096 27.8302 -10.6660 -37.1186
# 2 62.9756 101.0109 46.2555 20.4413 -1.4464 -23.1273
# 3 39.4096 46.2555 114.3451 -1.8247 -18.2959 -19.3910
# 4 27.8302 20.4413 -1.8247 39.1507 -8.6813 -2.1173
# 5 -10.6660 -1.4464 -18.2959 -8.6813 32.3125 9.2314
# 6 -37.1186 -23.1273 -19.3910 -2.1173 9.2314 41.4971
#
#
#
# Elastic Compliance Matrix: (Units=1/GPa)
#
#
# Indices 1 2 3 4 5 6 
#
# 1 0.018256 -0.005531 -0.002455 -0.009934 -0.001701 0.011972
# 2 -0.005531 0.018491 -0.006282 -0.007508 -0.007640 0.003739
# 3 -0.002455 -0.006282 0.013508 0.007569 0.008868 -0.000972
# 4 -0.009934 -0.007508 0.007569 0.039476 0.014336 -0.010708
# 5 -0.001701 -0.007640 0.008868 0.014336 0.041834 -0.010210
# 6 0.011972 0.003739 -0.000972 -0.010708 -0.010210 0.038162
#
#
# Mechanical properties :
#
#
# Convention : Reuss Voigt Hill
#
# Bulk Modulus (GPa) = 46.04272 70.03146 58.03709
# Shear Modulus (GPa) = 24.33076 34.88279 29.60678
#
# Velocity S-wave (km/s) = 3.35116 4.01258 3.69669
# Velocity P-wave (km/s) = 6.01877 7.33430 6.70886
#
# Compressibility (1/GPa) = 0.02171896
#
# Stress axis : x y z
#
# Youngs Moduli (GPa) = 54.77668 54.08128 74.03148
#
# Poissons Ratio (x) = 0.29910 0.18176
# Poissons Ratio (y) = 0.30294 0.46506
# Poissons Ratio (z) = 0.13449 0.33974
#
# Static dielectric constant tensor:
#      x y z
#    x 4.530100 -0.687610 -0.370880 
#    y -0.687610 3.941040 0.169200 
#    z -0.370880 0.169200 4.531970 
# 
# 
# High freq. dielectric constant tensor:
#      x y z
#    x 1.847470 -0.040830 -0.023070 
#    y -0.040830 1.832600 -0.005100 
#    z -0.023070 -0.005100 1.856220 
# 
# From -- ./inp_files/203536.got.cif
#   From: 2010.06.25/outbox.cif.g09.slc.cpg/sg2_102_cif.got.tgz:203536.got - 2010.06.27 13:26:56.
