data_PCOD8038445
_publ_section_title
;
Structure prediction by ZEFSAII (Michael W. Deem and Ramdas Pophale) SiO2 
 PCOD8038445
Probable space group: P -1
;
_chemical_formula_sum "Si O2"
_cell_formula_units_Z 14
_cell_length_a 9.434831
_cell_length_b 9.751243
_cell_length_c 22.514801
_cell_angle_alpha 40.648161
_cell_angle_beta 39.681914
_cell_angle_gamma 68.670427
_cell_volume 730.963696
_symmetry_space_group_name_H-M "P -1"
_symmetry_group_IT_number 2
_symmetry_cell_setting 'triclinic'
loop_
_space_group_symop_operation_xyz
x,y,z
-x,-y,-z
loop_
_atom_site_type_symbol
_atom_site_label
_atom_site_fract_x
_atom_site_fract_y
_atom_site_fract_z
Si Si1 0.003566 0.511709 0.784509
Si Si2 0.914130 0.291969 0.182523
Si Si3 0.544185 0.716690 0.496601
Si Si4 0.189359 0.494092 0.576962
Si Si5 0.299065 0.419760 0.909251
Si Si6 0.901861 0.721117 0.635515
Si Si7 0.241686 0.931844 0.069159
O O1 0.000242 0.697036 0.676273
O O2 0.793554 0.225760 0.927561
O O3 0.929454 0.556526 0.858801
O O4 0.305986 0.580842 0.665033
O O5 0.746740 0.403119 0.175483
O O6 0.725585 0.007641 0.356244
O O7 0.123624 0.326985 0.055200
O O8 0.438827 0.687276 0.472781
O O9 0.710524 0.578561 0.490544
O O10 0.016648 0.619279 0.580937
O O11 0.012436 0.237561 0.753496
O O12 0.593372 0.564666 0.788182
O O13 0.242897 0.177921 0.970045
O O14 0.000000 0.000000 0.500000
O O15 0.500000 0.000000 0.000000
#
# Coordination Sequence:
#
# PCOD8038445 Si02
#       7
#     2   2   2   2   2   2   2
#     4  10  22  36  58  85 112 150 187 232 282 321
#     4  11  23  35  55  88 116 145 186 238 280 323
#     4   9  17  33  55  80 111 143 183 228 271 334
#     4   9  17  30  57  84 101 149 189 218 273 333
#     4  11  21  36  59  81 112 152 186 228 282 335
#     4  10  20  37  59  83 108 148 189 230 273 339
#     4  10  17  36  58  79 109 149 190 226 277 338
#
# _framework density 19.152798000000001
#
# number of rings (size 3 to 8) (size 9 to 14) (size 15 to 20)
#    0.000    2.286    4.286    2.143    0.000    1.143 
#    0.000    0.000    0.000    1.714    0.000    0.000 
#    0.000    0.000    0.000    0.000    0.000    0.000 
#
# Total GULP energy -173495.629548 kJ/mol
# GULP energy per Si atom -12392.544968 kJ/mol
# Density = 1.910921 g / cm^3
# Si number density = 19.152798 Si / 1000 Ang^3
#
#
#
# Elastic Constant Matrix: (Units=GPa)
#
#
# Indices 1 2 3 4 5 6 
#
# 1 55.3881 48.4042 20.6062 4.2251 -8.6462 2.6878
# 2 48.4042 108.8509 34.1907 -22.8279 -1.9824 -6.9014
# 3 20.6062 34.1907 68.5249 -13.1016 -18.0087 -0.9413
# 4 4.2251 -22.8279 -13.1016 25.1038 -3.2189 -5.0012
# 5 -8.6462 -1.9824 -18.0087 -3.2189 27.1624 -2.6888
# 6 2.6878 -6.9014 -0.9413 -5.0012 -2.6888 39.0005
#
#
#
# Elastic Compliance Matrix: (Units=1/GPa)
#
#
# Indices 1 2 3 4 5 6 
#
# 1 0.052547 -0.030825 -0.008444 -0.043939 0.002210 -0.014762
# 2 -0.030825 0.031025 0.000268 0.035694 -0.001946 0.012064
# 3 -0.008444 0.000268 0.024681 0.017542 0.016228 0.004593
# 4 -0.043939 0.035694 0.017542 0.095179 0.013798 0.022924
# 5 0.002210 -0.001946 0.016228 0.013798 0.050279 0.005131
# 6 -0.014762 0.012064 0.004593 0.022924 0.005131 0.032197
#
#
# Mechanical properties :
#
#
# Convention : Reuss Voigt Hill
#
# Bulk Modulus (GPa) = 33.05650 48.79623 40.92636
# Shear Modulus (GPa) = 13.36923 26.89087 20.13005
#
# Velocity S-wave (km/s) = 2.64489 3.75109 3.24547
# Velocity P-wave (km/s) = 5.15985 6.65534 5.95473
#
# Compressibility (1/GPa) = 0.03025124
#
# Stress axis : x y z
#
# Youngs Moduli (GPa) = 19.03055 32.23209 40.51779
#
# Poissons Ratio (x) = 0.99355 0.34214
# Poissons Ratio (y) = 0.58661 -0.01087
# Poissons Ratio (z) = 0.16070 -0.00865
#
# Static dielectric constant tensor:
#      x y z
#    x 3.220860 -0.241310 -0.177440 
#    y -0.241310 4.043090 -0.259090 
#    z -0.177440 -0.259090 3.763210 
# 
# 
# High freq. dielectric constant tensor:
#      x y z
#    x 1.700360 -0.016780 -0.026150 
#    y -0.016780 1.763480 -0.008640 
#    z -0.026150 -0.008640 1.745230 
# 
# From -- ./inp_files/358749.got.cif
#   From: 2010.06.25/outbox.cif.g09.slc.cpg/sg2_180_cif.got.tgz:358749.got - 2010.06.27 13:26:56.
