data_PCOD8038460
_publ_section_title
;
Structure prediction by ZEFSAII (Michael W. Deem and Ramdas Pophale) SiO2 
 PCOD8038460
Probable space group: P -1
;
_chemical_formula_sum "Si O2"
_cell_formula_units_Z 16
_cell_length_a 19.085134
_cell_length_b 17.311232
_cell_length_c 10.562761
_cell_angle_alpha 132.681508
_cell_angle_beta 145.053105
_cell_angle_gamma 23.197470
_cell_volume 742.035492
_symmetry_space_group_name_H-M "P -1"
_symmetry_group_IT_number 2
_symmetry_cell_setting 'triclinic'
loop_
_space_group_symop_operation_xyz
x,y,z
-x,-y,-z
loop_
_atom_site_type_symbol
_atom_site_label
_atom_site_fract_x
_atom_site_fract_y
_atom_site_fract_z
Si Si1 0.034145 0.351202 0.018393
Si Si2 0.620271 0.683850 0.214434
Si Si3 0.751195 0.917014 0.723791
Si Si4 0.186160 0.922921 0.105631
Si Si5 0.720453 0.481469 0.501642
Si Si6 0.032790 0.376430 0.663859
Si Si7 0.375944 0.660078 0.883872
Si Si8 0.542306 0.928110 0.213915
O O1 0.798405 0.474545 0.742372
O O2 0.076988 0.260514 0.113437
O O3 0.987800 0.508086 0.146242
O O4 0.259510 0.168685 0.050464
O O5 0.577061 0.776463 0.120183
O O6 0.897881 0.490723 0.455814
O O7 0.462271 0.854429 0.280109
O O8 0.553953 0.609466 0.018626
O O9 0.635071 0.911897 0.463057
O O10 0.896479 0.893342 0.824955
O O11 0.454404 0.720150 0.338389
O O12 0.172369 0.880101 0.897919
O O13 0.000000 0.000000 0.000000
O O14 0.728755 0.347727 0.378957
O O15 0.911458 0.369315 0.549043
O O16 0.312385 0.146943 0.781304
O O17 0.500000 0.500000 0.000000
#
# Coordination Sequence:
#
# PCOD8038460 Si02
#       8
#     2   2   2   2   2   2   2   2
#     4  11  23  42  57  91 133 158 196 250 318 358
#     4  10  17  36  59  88 119 147 207 256 288 346
#     4  10  19  38  63  88 122 160 204 253 300 357
#     4  10  21  39  64  89 114 160 212 253 294 359
#     4  11  23  41  60  88 128 163 192 257 311 356
#     4  12  21  37  63  92 123 156 207 251 298 360
#     4   9  18  36  59  82 113 157 204 240 295 355
#     4  11  22  35  64  92 118 164 206 247 298 362
#
# _framework density 21.562308999999999
#
# number of rings (size 3 to 8) (size 9 to 14) (size 15 to 20)
#    0.000    1.500    6.250    1.500    1.750    0.500 
#    2.250    6.250    0.000    0.000    0.000    0.000 
#    0.000    0.000    0.000    0.000    0.000    0.000 
#
# Total GULP energy -198328.770075 kJ/mol
# GULP energy per Si atom -12395.548130 kJ/mol
# Density = 2.151323 g / cm^3
# Si number density = 21.562309 Si / 1000 Ang^3
#
#
#
# Elastic Constant Matrix: (Units=GPa)
#
#
# Indices 1 2 3 4 5 6 
#
# 1 63.7602 17.9720 27.5955 -5.0952 31.9695 -0.8960
# 2 17.9720 63.7487 35.2514 8.1165 12.8286 2.2406
# 3 27.5955 35.2514 120.8717 16.1884 12.9235 2.8328
# 4 -5.0952 8.1165 16.1884 28.3284 8.2487 10.6472
# 5 31.9695 12.8286 12.9235 8.2487 30.4574 3.9377
# 6 -0.8960 2.2406 2.8328 10.6472 3.9377 29.0182
#
#
#
# Elastic Compliance Matrix: (Units=1/GPa)
#
#
# Indices 1 2 3 4 5 6 
#
# 1 0.052781 -0.001810 -0.009603 0.033349 -0.059407 -0.001468
# 2 -0.001810 0.019838 -0.004653 -0.002309 -0.003888 0.000241
# 3 -0.009603 -0.004653 0.012200 -0.010718 0.009571 0.001506
# 4 0.033349 -0.002309 -0.010718 0.067515 -0.045659 -0.016322
# 5 -0.059407 -0.003888 0.009571 -0.045659 0.105128 0.000019
# 6 -0.001468 0.000241 0.001506 -0.016322 0.000019 0.040236
#
#
# Mechanical properties :
#
#
# Convention : Reuss Voigt Hill
#
# Bulk Modulus (GPa) = 18.97992 45.55761 32.26877
# Shear Modulus (GPa) = 14.39300 28.73159 21.56230
#
# Velocity S-wave (km/s) = 2.58642 3.65429 3.16571
# Velocity P-wave (km/s) = 4.21199 6.24334 5.32542
#
# Compressibility (1/GPa) = 0.05268726
#
# Stress axis : x y z
#
# Youngs Moduli (GPa) = 18.94621 50.40924 81.97043
#
# Poissons Ratio (x) = 0.09122 0.78714
# Poissons Ratio (y) = 0.03428 0.38142
# Poissons Ratio (z) = 0.18194 0.23456
#
# Static dielectric constant tensor:
#      x y z
#    x 3.888260 0.215470 0.363960 
#    y 0.215470 4.005790 0.319960 
#    z 0.363960 0.319960 4.131040 
# 
# 
# High freq. dielectric constant tensor:
#      x y z
#    x 1.838510 0.010100 0.019980 
#    y 0.010100 1.837930 0.016030 
#    z 0.019980 0.016030 1.831960 
# 
# From -- ./inp_files/244648.got.cif
#   From: 2010.06.25/outbox.cif.g09.slc.cpg/sg2_123_cif.got.tgz:244648.got - 2010.06.27 13:26:56.
