data_PCOD8038637
_publ_section_title
;
Structure prediction by ZEFSAII (Michael W. Deem and Ramdas Pophale) SiO2 
 PCOD8038637
Probable space group: P -1
;
_chemical_formula_sum "Si O2"
_cell_formula_units_Z 16
_cell_length_a 8.748113
_cell_length_b 12.733615
_cell_length_c 14.470390
_cell_angle_alpha 138.052062
_cell_angle_beta 138.120824
_cell_angle_gamma 51.449405
_cell_volume 710.537365
_symmetry_space_group_name_H-M "P -1"
_symmetry_group_IT_number 2
_symmetry_cell_setting 'triclinic'
loop_
_space_group_symop_operation_xyz
x,y,z
-x,-y,-z
loop_
_atom_site_type_symbol
_atom_site_label
_atom_site_fract_x
_atom_site_fract_y
_atom_site_fract_z
Si Si1 0.589232 0.603535 0.481075
Si Si2 0.531055 0.352750 0.148238
Si Si3 0.826269 0.850937 0.051118
Si Si4 0.970311 0.095105 0.418410
Si Si5 0.132384 0.565137 0.359486
Si Si6 0.244034 0.953109 0.031891
Si Si7 0.615378 0.056006 0.391456
Si Si8 0.867984 0.460207 0.006642
O O1 0.649604 0.469224 0.342746
O O2 0.353899 0.573884 0.402697
O O3 0.799497 0.583695 0.637313
O O4 0.547426 0.783228 0.541066
O O5 0.362455 0.247869 0.056721
O O6 0.399335 0.469276 0.086347
O O7 0.735962 0.227263 0.114239
O O8 0.731150 0.919609 0.954653
O O9 0.866625 0.000871 0.228674
O O10 0.070996 0.730581 0.074510
O O11 0.944957 0.282862 0.509142
O O12 0.818114 0.090443 0.438077
O O13 0.244490 0.030853 0.515581
O O14 0.930430 0.545349 0.184147
O O15 0.451380 0.949339 0.196532
O O16 0.000000 0.000000 0.000000
O O17 0.000000 0.500000 0.000000
#
# Coordination Sequence:
#
# PCOD8038637 Si02
#       8
#     2   2   2   2   2   2   2   2
#     4  10  19  30  53  84 117 145 181 239 294 346
#     4  11  21  37  61  90 117 148 196 246 298 347
#     4  11  21  37  61  92 118 152 197 247 298 346
#     4  10  20  32  59  90 116 144 188 247 299 342
#     4  10  18  28  45  83 123 142 171 230 301 341
#     4  12  26  42  58  83 123 166 201 237 287 355
#     4  10  21  35  57  89 120 147 191 242 301 342
#     4  10  19  32  55  88 120 142 185 245 299 347
#
# _framework density 22.518167999999999
#
# number of rings (size 3 to 8) (size 9 to 14) (size 15 to 20)
#    0.000    1.500    3.750    3.375   10.500    0.000 
#    0.000    1.875    0.000    0.000    0.000    0.000 
#    0.000    0.000    0.000    0.000    0.000    0.000 
#
# Total GULP energy -198281.451606 kJ/mol
# GULP energy per Si atom -12392.590725 kJ/mol
# Density = 2.246692 g / cm^3
# Si number density = 22.518168 Si / 1000 Ang^3
#
#
#
# Elastic Constant Matrix: (Units=GPa)
#
#
# Indices 1 2 3 4 5 6 
#
# 1 20.8463 16.5375 12.2975 0.1725 -6.5758 -12.3115
# 2 16.5375 107.2118 16.8798 14.5034 -7.5716 -21.3532
# 3 12.2975 16.8798 107.3170 10.0820 -23.3996 -2.5180
# 4 0.1725 14.5034 10.0820 54.4670 -7.0088 -9.5793
# 5 -6.5758 -7.5716 -23.3996 -7.0088 10.6798 2.8568
# 6 -12.3115 -21.3532 -2.5180 -9.5793 2.8568 16.2917
#
#
#
# Elastic Compliance Matrix: (Units=1/GPa)
#
#
# Indices 1 2 3 4 5 6 
#
# 1 0.129970 0.002096 0.000436 0.026509 0.072049 0.103985
# 2 0.002096 0.012964 -0.001157 0.000357 0.003360 0.018017
# 3 0.000436 -0.001157 0.018324 0.001448 0.041840 -0.004841
# 4 0.026509 0.000357 0.001448 0.027226 0.029156 0.031620
# 5 0.072049 0.003360 0.041840 0.029156 0.240405 0.040305
# 6 0.103985 0.018017 -0.004841 0.031620 0.040305 0.174352
#
#
# Mechanical properties :
#
#
# Convention : Reuss Voigt Hill
#
# Bulk Modulus (GPa) = 6.09730 36.31162 21.20446
# Shear Modulus (GPa) = 7.63172 28.93171 18.28171
#
# Velocity S-wave (km/s) = 1.84296 3.58832 2.85242
# Velocity P-wave (km/s) = 2.69115 5.77309 4.50393
#
# Compressibility (1/GPa) = 0.16400713
#
# Stress axis : x y z
#
# Youngs Moduli (GPa) = 7.69407 77.13851 54.57438
#
# Poissons Ratio (x) = -0.16169 -0.02380
# Poissons Ratio (y) = -0.01613 0.06316
# Poissons Ratio (z) = -0.00335 0.08928
#
# Static dielectric constant tensor:
#      x y z
#    x 3.319290 -0.048860 -0.270210 
#    y -0.048860 5.242940 0.138190 
#    z -0.270210 0.138190 4.143270 
# 
# 
# High freq. dielectric constant tensor:
#      x y z
#    x 1.804960 -0.007110 -0.025410 
#    y -0.007110 1.922440 -0.000870 
#    z -0.025410 -0.000870 1.890840 
# 
# From -- ./inp_files/505647.got.cif
#   From: 2010.06.25/outbox.cif.g09.slc.cpg/sg2_253_cif.got.tgz:505647.got - 2010.06.27 13:26:56.
