data_PCOD8038749
_publ_section_title
;
Structure prediction by ZEFSAII (Michael W. Deem and Ramdas Pophale) SiO2 
 PCOD8038749
Probable space group: P -1
;
_chemical_formula_sum "Si O2"
_cell_formula_units_Z 14
_cell_length_a 22.399983
_cell_length_b 5.221240
_cell_length_c 9.137792
_cell_angle_alpha 124.920552
_cell_angle_beta 49.521922
_cell_angle_gamma 110.662933
_cell_volume 666.253582
_symmetry_space_group_name_H-M "P -1"
_symmetry_group_IT_number 2
_symmetry_cell_setting 'triclinic'
loop_
_space_group_symop_operation_xyz
x,y,z
-x,-y,-z
loop_
_atom_site_type_symbol
_atom_site_label
_atom_site_fract_x
_atom_site_fract_y
_atom_site_fract_z
Si Si1 0.209722 0.423874 0.658657
Si Si2 0.487247 0.367891 0.636738
Si Si3 0.376739 0.400612 0.306271
Si Si4 0.811896 0.286634 0.518810
Si Si5 0.052934 0.674517 0.094604
Si Si6 0.012558 0.783481 0.764479
Si Si7 0.646561 0.325617 0.884190
O O1 0.300710 0.518011 0.562261
O O2 0.189436 0.471319 0.534875
O O3 0.201299 0.074975 0.620537
O O4 0.146927 0.640857 0.915457
O O5 0.500000 0.500000 0.500000
O O6 0.544977 0.533235 0.710026
O O7 0.500000 0.000000 0.500000
O O8 0.398605 0.450918 0.855890
O O9 0.379158 0.590463 0.212982
O O10 0.372668 0.030893 0.163261
O O11 0.898200 0.292018 0.451909
O O12 0.740176 0.383215 0.773854
O O13 0.030014 0.541202 0.245790
O O14 0.030587 0.041839 0.244638
O O15 0.000000 0.500000 0.000000
O O16 0.000000 0.000000 0.000000
#
# Coordination Sequence:
#
# PCOD8038749 Si02
#       7
#     2   2   2   2   2   2   2
#     4  10  16  25  40  66  96 136 160 203 249 314
#     4  12  24  40  60  80 106 140 184 222 266 326
#     4  10  21  36  57  80 110 139 176 219 276 318
#     4  10  16  25  40  66  96 136 160 203 249 314
#     4  10  14  20  34  56  95 132 158 188 249 301
#     4  10  14  20  34  56  95 132 158 188 249 301
#     4  10  21  36  57  80 110 139 176 219 276 318
#
# _framework density 21.013020000000001
#
# number of rings (size 3 to 8) (size 9 to 14) (size 15 to 20)
#    0.000    1.714    5.714    2.571    0.000    0.000 
#    0.000    0.000    0.000    0.000    0.000    0.000 
#    0.000    6.857    0.000    0.000    0.000    0.000 
#
# Total GULP energy -173456.883376 kJ/mol
# GULP energy per Si atom -12389.777384 kJ/mol
# Density = 2.096519 g / cm^3
# Si number density = 21.013020 Si / 1000 Ang^3
#
#
#
# Elastic Constant Matrix: (Units=GPa)
#
#
# Indices 1 2 3 4 5 6 
#
# 1 47.3467 27.0018 57.8575 -4.9128 -34.5100 -12.6214
# 2 27.0018 135.8891 40.1394 -11.1797 -15.3675 -29.7264
# 3 57.8575 40.1394 122.6191 -16.7425 -51.4024 7.3799
# 4 -4.9128 -11.1797 -16.7425 27.1202 3.4864 -8.4633
# 5 -34.5100 -15.3675 -51.4024 3.4864 40.9656 -2.5359
# 6 -12.6214 -29.7264 7.3799 -8.4633 -2.5359 31.6623
#
#
#
# Elastic Compliance Matrix: (Units=1/GPa)
#
#
# Indices 1 2 3 4 5 6 
#
# 1 0.187528 0.020571 -0.056148 0.033674 0.100061 0.124169
# 2 0.020571 0.014467 -0.010065 0.010772 0.010937 0.027884
# 3 -0.056148 -0.010065 0.037140 -0.003629 -0.006765 -0.042000
# 4 0.033674 0.010772 -0.003629 0.054677 0.025743 0.041060
# 5 0.100061 0.010937 -0.006765 0.025743 0.106282 0.067125
# 6 0.124169 0.027884 -0.042000 0.041060 0.067125 0.133400
#
#
# Mechanical properties :
#
#
# Convention : Reuss Voigt Hill
#
# Bulk Modulus (GPa) = 6.76355 61.76136 34.26245
# Shear Modulus (GPa) = 7.41771 32.00672 19.71222
#
# Velocity S-wave (km/s) = 1.88088 3.90703 3.06616
# Velocity P-wave (km/s) = 2.81828 7.05755 5.37362
#
# Compressibility (1/GPa) = 0.14785133
#
# Stress axis : x y z
#
# Youngs Moduli (GPa) = 5.33254 69.12162 26.92524
#
# Poissons Ratio (x) = -1.42190 1.51180
# Poissons Ratio (y) = -0.10970 0.27100
# Poissons Ratio (z) = 0.29941 0.69570
#
# Static dielectric constant tensor:
#      x y z
#    x 3.791710 -0.593340 -0.712960 
#    y -0.593340 5.070980 -0.282170 
#    z -0.712960 -0.282170 3.704380 
# 
# 
# High freq. dielectric constant tensor:
#      x y z
#    x 1.792630 -0.029120 -0.061760 
#    y -0.029120 1.851470 -0.023320 
#    z -0.061760 -0.023320 1.795730 
# 
# From -- ./inp_files/351105.got.cif
#   From: 2010.06.25/outbox.cif.g09.slc.cpg/sg2_176_cif.got.tgz:351105.got - 2010.06.27 13:26:56.
