data_PCOD8038314
_publ_section_title
;
Structure prediction by ZEFSAII (Michael W. Deem and Ramdas Pophale) SiO2 
 PCOD8038314
Probable space group: P -1
;
_chemical_formula_sum "Si O2"
_cell_formula_units_Z 16
_cell_length_a 15.000000
_cell_length_b 15.000000
_cell_length_c 15.000000
_cell_angle_alpha 140.000000
_cell_angle_beta 160.000000
_cell_angle_gamma 40.000000
_cell_volume 725.414092
_symmetry_space_group_name_H-M "P -1"
_symmetry_group_IT_number 2
_symmetry_cell_setting 'triclinic'
loop_
_space_group_symop_operation_xyz
x,y,z
-x,-y,-z
loop_
_atom_site_type_symbol
_atom_site_label
_atom_site_fract_x
_atom_site_fract_y
_atom_site_fract_z
Si Si1 0.768832 0.332989 0.240928
Si Si2 0.015672 0.431504 0.844536
Si Si3 0.247878 0.253532 0.764498
Si Si4 0.524129 0.402996 0.603810
Si Si5 0.070519 0.793830 0.273334
Si Si6 0.086383 0.826386 0.926700
Si Si7 0.378487 0.345921 0.619227
Si Si8 0.478948 0.960687 0.847895
O O1 0.800005 0.222947 0.102838
O O2 0.723483 0.504431 0.306445
O O3 0.047835 0.274910 0.509234
O O4 0.502053 0.322658 0.036817
O O5 0.743934 0.552830 0.674651
O O6 0.987069 0.348334 0.844796
O O7 0.054685 0.323519 0.716053
O O8 0.292951 0.482599 0.146185
O O9 0.370287 0.090364 0.778661
O O10 0.720879 0.252854 0.648356
O O11 0.399336 0.396737 0.577947
O O12 0.247270 0.870199 0.562814
O O13 0.780674 0.886117 0.041839
O O14 0.833752 0.755190 0.651582
O O15 0.332986 0.750441 0.161027
O O16 0.000000 0.000000 0.000000
O O17 0.500000 0.000000 0.000000
#
# Coordination Sequence:
#
# PCOD8038314 Si02
#       8
#     2   2   2   2   2   2   2   2
#     4  12  25  47  74 108 134 184 244 284 349 421
#     4  12  22  43  67  98 140 180 235 285 340 388
#     4  12  24  42  73 100 137 183 233 289 332 405
#     4  12  25  43  70 104 135 178 235 288 346 404
#     4  12  26  42  67  98 142 190 231 285 344 406
#     4  12  28  48  74 105 144 180 220 292 364 426
#     4  12  24  47  76 102 140 181 234 288 349 424
#     4  12  26  43  65  96 140 190 236 280 341 408
#
# _framework density 22.056367999999999
#
# number of rings (size 3 to 8) (size 9 to 14) (size 15 to 20)
#    0.000    0.000    3.750    6.750    1.750    3.000 
#    0.000    0.000    0.000    0.000    0.000    0.000 
#    0.000    0.000    0.000    0.000    0.000    0.000 
#
# Total GULP energy -198255.565652 kJ/mol
# GULP energy per Si atom -12390.972853 kJ/mol
# Density = 2.200617 g / cm^3
# Si number density = 22.056368 Si / 1000 Ang^3
#
#
#
# Elastic Constant Matrix: (Units=GPa)
#
#
# Indices 1 2 3 4 5 6 
#
# 1 71.3911 21.6682 -1.3348 1.0538 11.9141 -14.6532
# 2 21.6682 162.7653 24.8965 -23.0778 -0.1113 -12.7189
# 3 -1.3348 24.8965 111.8258 -20.9602 22.7427 11.6477
# 4 1.0538 -23.0778 -20.9602 59.5091 -1.4273 5.6789
# 5 11.9141 -0.1113 22.7427 -1.4273 43.3804 -3.0296
# 6 -14.6532 -12.7189 11.6477 5.6789 -3.0296 43.7944
#
#
#
# Elastic Compliance Matrix: (Units=1/GPa)
#
#
# Indices 1 2 3 4 5 6 
#
# 1 0.016408 -0.002171 0.000924 -0.001346 -0.004729 0.004461
# 2 -0.002171 0.007124 -0.001745 0.002069 0.001713 0.001657
# 3 0.000924 -0.001745 0.011838 0.003726 -0.006641 -0.004289
# 4 -0.001346 0.002069 0.003726 0.019241 -0.001184 -0.003417
# 5 -0.004729 0.001713 -0.006641 -0.001184 0.027991 0.002772
# 6 0.004461 0.001657 -0.004289 -0.003417 0.002772 0.026583
#
#
# Mechanical properties :
#
#
# Convention : Reuss Voigt Hill
#
# Bulk Modulus (GPa) = 34.03025 48.49355 41.26190
# Shear Modulus (GPa) = 40.01110 49.38693 44.69902
#
# Velocity S-wave (km/s) = 4.26377 4.73707 4.50664
# Velocity P-wave (km/s) = 6.30095 7.20789 6.76963
#
# Compressibility (1/GPa) = 0.02938562
#
# Stress axis : x y z
#
# Youngs Moduli (GPa) = 60.94450 140.37383 84.47456
#
# Poissons Ratio (x) = 0.30478 -0.07806
# Poissons Ratio (y) = 0.13232 0.14741
# Poissons Ratio (z) = -0.05631 0.24496
#
# Static dielectric constant tensor:
#      x y z
#    x 4.165360 -0.291360 0.134460 
#    y -0.291360 4.615720 -0.063730 
#    z 0.134460 -0.063730 4.440850 
# 
# 
# High freq. dielectric constant tensor:
#      x y z
#    x 1.875580 -0.018050 0.014420 
#    y -0.018050 1.896810 -0.012680 
#    z 0.014420 -0.012680 1.909780 
# 
# From -- ./inp_files/534274.got.cif
#   From: 2010.06.25/outbox.ucp.g09.slc.cvg/sg2_268_cif.got.tgz:534274.got - 2010.06.28 11:54:26.
