data_PCOD8038778
_publ_section_title
;
Structure prediction by ZEFSAII (Michael W. Deem and Ramdas Pophale) SiO2 
 PCOD8038778
Probable space group: P -1
;
_chemical_formula_sum "Si O2"
_cell_formula_units_Z 16
_cell_length_a 7.980252
_cell_length_b 8.358030
_cell_length_c 12.916987
_cell_angle_alpha 118.858986
_cell_angle_beta 105.737537
_cell_angle_gamma 98.843753
_cell_volume 683.612728
_symmetry_space_group_name_H-M "P -1"
_symmetry_group_IT_number 2
_symmetry_cell_setting 'triclinic'
loop_
_space_group_symop_operation_xyz
x,y,z
-x,-y,-z
loop_
_atom_site_type_symbol
_atom_site_label
_atom_site_fract_x
_atom_site_fract_y
_atom_site_fract_z
Si Si1 0.241438 0.962135 0.199684
Si Si2 0.154636 0.079334 0.435345
Si Si3 0.727881 0.236380 0.549479
Si Si4 0.236237 0.170016 0.761957
Si Si5 0.895672 0.650963 0.016130
Si Si6 0.101304 0.457728 0.603343
Si Si7 0.599706 0.344183 0.761739
Si Si8 0.376567 0.839568 0.727046
O O1 0.317095 0.805030 0.216766
O O2 0.053376 0.853034 0.069138
O O3 0.191791 0.087212 0.320819
O O4 0.402923 0.096697 0.193320
O O5 0.197711 0.298664 0.547645
O O6 0.285404 0.981378 0.486728
O O7 0.936405 0.953323 0.377924
O O8 0.605148 0.319127 0.630564
O O9 0.647359 0.223285 0.417398
O O10 0.942793 0.380005 0.640049
O O11 0.182663 0.313208 0.874719
O O12 0.391806 0.305625 0.753769
O O13 0.304617 0.018606 0.791717
O O14 0.726421 0.565798 0.881264
O O15 0.000000 0.500000 0.000000
O O16 0.264009 0.658202 0.724462
O O17 0.000000 0.500000 0.500000
#
# Coordination Sequence:
#
# PCOD8038778 Si02
#       8
#     2   2   2   2   2   2   2   2
#     4   8  18  31  52  76 105 139 175 224 259 310
#     4  10  18  32  50  78 107 145 174 215 268 304
#     4  10  20  34  52  79 117 140 171 222 267 319
#     4  10  18  30  53  78 106 140 176 218 262 321
#     4   9  17  33  52  78 107 136 176 225 268 310
#     4  10  19  33  51  73 110 150 180 209 257 330
#     4   9  18  31  51  80 107 139 172 223 271 306
#     4  10  20  35  52  80 109 147 176 212 270 318
#
# _framework density 23.405063999999999
#
# number of rings (size 3 to 8) (size 9 to 14) (size 15 to 20)
#    0.000    2.500    2.500    1.500    0.000    5.000 
#    0.000    0.000    0.000    1.500    0.000    0.000 
#    0.000    0.000    0.000    0.000    0.000    0.000 
#
# Total GULP energy -198328.631696 kJ/mol
# GULP energy per Si atom -12395.539481 kJ/mol
# Density = 2.335179 g / cm^3
# Si number density = 23.405064 Si / 1000 Ang^3
#
#
#
# Elastic Constant Matrix: (Units=GPa)
#
#
# Indices 1 2 3 4 5 6 
#
# 1 131.8666 34.6891 42.6125 24.3936 -15.1873 29.6638
# 2 34.6891 75.4899 22.8716 22.9335 -5.2501 14.7869
# 3 42.6125 22.8716 76.8931 21.7156 -17.1307 6.0247
# 4 24.3936 22.9335 21.7156 23.8241 4.1702 11.7733
# 5 -15.1873 -5.2501 -17.1307 4.1702 36.9130 3.4740
# 6 29.6638 14.7869 6.0247 11.7733 3.4740 29.2727
#
#
#
# Elastic Compliance Matrix: (Units=1/GPa)
#
#
# Indices 1 2 3 4 5 6 
#
# 1 0.012764 -0.001013 -0.003567 -0.004546 0.004949 -0.010447
# 2 -0.001013 0.019982 0.001521 -0.019461 0.005538 -0.002211
# 3 -0.003567 0.001521 0.023625 -0.024627 0.011885 0.006479
# 4 -0.004546 -0.019461 -0.024627 0.101309 -0.025802 -0.018178
# 5 0.004949 0.005538 0.011885 -0.025802 0.038767 -0.004482
# 6 -0.010447 -0.002211 0.006479 -0.018178 -0.004482 0.052375
#
#
# Mechanical properties :
#
#
# Convention : Reuss Voigt Hill
#
# Bulk Modulus (GPa) = 19.89998 53.84401 36.87200
# Shear Modulus (GPa) = 18.40332 30.27372 24.33852
#
# Velocity S-wave (km/s) = 2.80714 3.60038 3.22822
# Velocity P-wave (km/s) = 4.36206 6.35129 5.44823
#
# Compressibility (1/GPa) = 0.05025130
#
# Stress axis : x y z
#
# Youngs Moduli (GPa) = 78.34771 50.04581 42.32818
#
# Poissons Ratio (x) = 0.05069 0.15100
# Poissons Ratio (y) = 0.07935 -0.06437
# Poissons Ratio (z) = 0.27949 -0.07610
#
# Static dielectric constant tensor:
#      x y z
#    x 4.774120 0.691870 0.233550 
#    y 0.691870 4.354370 0.612640 
#    z 0.233550 0.612640 4.282730 
# 
# 
# High freq. dielectric constant tensor:
#      x y z
#    x 1.947670 0.025700 -0.002580 
#    y 0.025700 1.883670 0.031510 
#    z -0.002580 0.031510 1.899550 
# 
# From -- ./inp_files/493643.got.cif
#   From: 2010.06.25/outbox.cif.g09.slc.cpg/sg2_247_cif.got.tgz:493643.got - 2010.06.27 13:26:56.
