data_PCOD8038501
_publ_section_title
;
Structure prediction by ZEFSAII (Michael W. Deem and Ramdas Pophale) SiO2 
 PCOD8038501
Probable space group: P -1
;
_chemical_formula_sum "Si O2"
_cell_formula_units_Z 12
_cell_length_a 9.182332
_cell_length_b 8.390049
_cell_length_c 6.365758
_cell_angle_alpha 102.320856
_cell_angle_beta 103.233668
_cell_angle_gamma 70.406486
_cell_volume 444.734115
_symmetry_space_group_name_H-M "P -1"
_symmetry_group_IT_number 2
_symmetry_cell_setting 'triclinic'
loop_
_space_group_symop_operation_xyz
x,y,z
-x,-y,-z
loop_
_atom_site_type_symbol
_atom_site_label
_atom_site_fract_x
_atom_site_fract_y
_atom_site_fract_z
Si Si1 0.041965 0.713485 0.774662
Si Si2 0.384128 0.175644 0.748884
Si Si3 0.965750 0.635841 0.257584
Si Si4 0.602145 0.327577 0.089070
Si Si5 0.410647 0.814090 0.542602
Si Si6 0.914893 0.076274 0.710993
O O1 0.978903 0.569574 0.838399
O O2 0.214455 0.712692 0.909351
O O3 0.041799 0.663097 0.513764
O O4 0.939046 0.913253 0.829510
O O5 0.222010 0.319326 0.783415
O O6 0.426990 0.211290 0.532568
O O7 0.360876 0.990407 0.708723
O O8 0.528070 0.181426 0.945355
O O9 0.014101 0.768037 0.147175
O O10 0.574805 0.341023 0.335451
O O11 0.500000 0.500000 0.000000
O O12 0.269810 0.827666 0.337757
O O13 0.000000 0.000000 0.500000
#
# Coordination Sequence:
#
# PCOD8038501 Si02
#       6
#     2   2   2   2   2   2
#     4  10  19  35  64  90 121 167 216 251 317 383
#     4  11  23  40  68  95 126 166 217 266 321 374
#     4  10  18  36  64  90 121 170 210 256 314 386
#     4  12  23  40  62  97 133 164 207 270 322 379
#     4  11  23  42  65  96 127 168 214 263 323 385
#     4  10  17  36  66  87 119 172 212 250 317 381
#
# _framework density 26.982415
#
# number of rings (size 3 to 8) (size 9 to 14) (size 15 to 20)
#    0.000    1.333    8.333    0.500    0.000    0.667 
#    0.000    0.833    3.667    2.000    0.000    0.000 
#    0.000    0.000    0.000    0.000    0.000    0.000 
#
# Total GULP energy -148752.985054 kJ/mol
# GULP energy per Si atom -12396.082088 kJ/mol
# Density = 2.692100 g / cm^3
# Si number density = 26.982415 Si / 1000 Ang^3
#
#
#
# Elastic Constant Matrix: (Units=GPa)
#
#
# Indices 1 2 3 4 5 6 
#
# 1 117.3764 46.8628 35.4103 -21.3132 24.7687 13.1261
# 2 46.8628 198.3498 70.9792 -19.1281 7.4618 40.0579
# 3 35.4103 70.9792 92.3662 -15.5010 32.1436 15.6788
# 4 -21.3132 -19.1281 -15.5010 69.0678 13.7275 3.3439
# 5 24.7687 7.4618 32.1436 13.7275 50.4774 -1.5378
# 6 13.1261 40.0579 15.6788 3.3439 -1.5378 43.0649
#
#
#
# Elastic Compliance Matrix: (Units=1/GPa)
#
#
# Indices 1 2 3 4 5 6 
#
# 1 0.011765 -0.001677 0.000667 0.004923 -0.007377 -0.002914
# 2 -0.001677 0.008577 -0.006259 0.000027 0.003379 -0.005070
# 3 0.000667 -0.006259 0.022682 0.006891 -0.015834 -0.003740
# 4 0.004923 0.000027 0.006891 0.020334 -0.012522 -0.006060
# 5 -0.007377 0.003379 -0.015834 -0.012522 0.036637 0.007151
# 6 -0.002914 -0.005070 -0.003740 -0.006060 0.007151 0.030912
#
#
# Mechanical properties :
#
#
# Convention : Reuss Voigt Hill
#
# Bulk Modulus (GPa) = 35.10679 79.39968 57.25323
# Shear Modulus (GPa) = 32.27068 49.51136 40.89102
#
# Velocity S-wave (km/s) = 3.46206 4.28828 3.89713
# Velocity P-wave (km/s) = 5.38706 7.34911 6.44321
#
# Compressibility (1/GPa) = 0.02848451
#
# Stress axis : x y z
#
# Youngs Moduli (GPa) = 85.00116 116.59250 44.08833
#
# Poissons Ratio (x) = 0.19558 -0.02940
# Poissons Ratio (y) = 0.14258 0.27594
# Poissons Ratio (z) = -0.05668 0.72972
#
# Static dielectric constant tensor:
#      x y z
#    x 4.620950 0.546030 0.237740 
#    y 0.546030 5.605610 0.050880 
#    z 0.237740 0.050880 5.315600 
# 
# 
# High freq. dielectric constant tensor:
#      x y z
#    x 2.068900 0.026520 0.001730 
#    y 0.026520 2.103640 0.003630 
#    z 0.001730 0.003630 2.111830 
# 
# From -- ./inp_files/150987.got.cif
#   From: 2010.06.25/outbox.cif.g09.slc.cpg/sg2_76_cif.got.tgz:150987.got - 2010.06.27 13:26:56.
