data_PCOD8038078
_publ_section_title
;
Structure prediction by ZEFSAII (Michael W. Deem and Ramdas Pophale) SiO2 
 PCOD8038078
Probable space group: P -1
;
_chemical_formula_sum "Si O2"
_cell_formula_units_Z 14
_cell_length_a 15.000000
_cell_length_b 15.000000
_cell_length_c 15.000000
_cell_angle_alpha 40.000000
_cell_angle_beta 130.000000
_cell_angle_gamma 160.000000
_cell_volume 694.908786
_symmetry_space_group_name_H-M "P -1"
_symmetry_group_IT_number 2
_symmetry_cell_setting 'triclinic'
loop_
_space_group_symop_operation_xyz
x,y,z
-x,-y,-z
loop_
_atom_site_type_symbol
_atom_site_label
_atom_site_fract_x
_atom_site_fract_y
_atom_site_fract_z
Si Si1 0.812170 0.736471 0.947808
Si Si2 0.638599 0.852659 0.755985
Si Si3 0.235102 0.787987 0.296718
Si Si4 0.233966 0.059515 0.590842
Si Si5 0.382077 0.180744 0.955635
Si Si6 0.386097 0.540791 0.303224
Si Si7 0.674911 0.032748 0.453891
O O1 0.836087 0.929337 0.826627
O O2 0.641047 0.531263 0.903726
O O3 0.654773 0.499574 0.113644
O O4 0.113595 0.990926 0.937787
O O5 0.798931 0.144612 0.692523
O O6 0.575257 0.834232 0.627824
O O7 0.945849 0.406548 0.375500
O O8 0.447602 0.897882 0.379124
O O9 0.334727 0.980236 0.125670
O O10 0.341446 0.328165 0.428518
O O11 0.419987 0.207780 0.680288
O O12 0.266027 0.000560 0.568208
O O13 0.912215 0.708605 0.683750
O O14 0.463536 0.244913 0.855230
#
# Coordination Sequence:
#
# PCOD8038078 Si02
#       7
#     2   2   2   2   2   2   2
#     4  10  23  38  64  96 120 152 207 255 301 362
#     4  10  23  41  63  90 124 162 202 252 303 349
#     4  11  25  40  59  88 125 168 208 236 287 372
#     4  10  22  39  63  94 117 149 204 248 304 366
#     4  11  22  42  63  90 124 160 199 253 307 350
#     4  10  21  41  66  89 118 151 194 262 311 346
#     4  12  24  41  61  88 127 166 200 245 294 360
#
# _framework density 20.146529000000001
#
# number of rings (size 3 to 8) (size 9 to 14) (size 15 to 20)
#    0.000    1.429    0.000    5.143    0.000   13.143 
#    0.000    4.286    0.000    0.000    0.000    0.000 
#    0.000    0.000    0.000    0.000    0.000    0.000 
#
# Total GULP energy -173586.955208 kJ/mol
# GULP energy per Si atom -12399.068229 kJ/mol
# Density = 2.010067 g / cm^3
# Si number density = 20.146529 Si / 1000 Ang^3
#
#
#
# Elastic Constant Matrix: (Units=GPa)
#
#
# Indices 1 2 3 4 5 6 
#
# 1 128.3743 36.9343 51.9451 9.8091 -14.3201 -14.5244
# 2 36.9343 132.8928 35.0249 13.0117 -7.0704 2.0069
# 3 51.9451 35.0249 129.7158 26.0221 -20.5287 -2.9417
# 4 9.8091 13.0117 26.0221 35.7354 -7.0225 -0.5032
# 5 -14.3201 -7.0704 -20.5287 -7.0225 46.5409 5.1713
# 6 -14.5244 2.0069 -2.9417 -0.5032 5.1713 46.0754
#
#
#
# Elastic Compliance Matrix: (Units=1/GPa)
#
#
# Indices 1 2 3 4 5 6 
#
# 1 0.010147 -0.001970 -0.003430 0.000685 0.001085 0.002951
# 2 -0.001970 0.008575 -0.001203 -0.001716 0.000029 -0.001093
# 3 -0.003430 -0.001203 0.011065 -0.006139 0.002795 -0.000703
# 4 0.000685 -0.001716 -0.006139 0.033337 0.002272 0.000008
# 5 0.001085 0.000029 0.002795 0.002272 0.023634 -0.002109
# 6 0.002951 -0.001093 -0.000703 0.000008 -0.002109 0.022873
#
#
# Mechanical properties :
#
#
# Convention : Reuss Voigt Hill
#
# Bulk Modulus (GPa) = 60.30551 70.97684 65.64117
# Shear Modulus (GPa) = 38.95122 43.47557 41.21340
#
# Velocity S-wave (km/s) = 4.40181 4.65043 4.52783
# Velocity P-wave (km/s) = 7.47215 8.00888 7.74517
#
# Compressibility (1/GPa) = 0.01658223
#
# Stress axis : x y z
#
# Youngs Moduli (GPa) = 98.55017 116.61336 90.37207
#
# Poissons Ratio (x) = 0.22972 0.30999
# Poissons Ratio (y) = 0.19414 0.10869
# Poissons Ratio (z) = 0.33805 0.14025
#
# Static dielectric constant tensor:
#      x y z
#    x 3.943930 -0.046880 -0.011040 
#    y -0.046880 4.097930 0.231700 
#    z -0.011040 0.231700 4.021320 
# 
# 
# High freq. dielectric constant tensor:
#      x y z
#    x 1.807130 -0.004450 -0.006250 
#    y -0.004450 1.817700 0.013430 
#    z -0.006250 0.013430 1.807460 
# 
# From -- ./inp_files/533688.got.cif
#   From: 2010.06.25/outbox.ucp.g09.slc.cvg/sg2_267_cif.got.tgz:533688.got - 2010.06.28 11:54:26.
