data_PCOD8038441
_publ_section_title
;
Structure prediction by ZEFSAII (Michael W. Deem and Ramdas Pophale) SiO2 
 PCOD8038441
Probable space group: P -1
;
_chemical_formula_sum "Si O2"
_cell_formula_units_Z 14
_cell_length_a 9.731582
_cell_length_b 15.097267
_cell_length_c 12.821387
_cell_angle_alpha 30.131346
_cell_angle_beta 57.442347
_cell_angle_gamma 70.000690
_cell_volume 762.333140
_symmetry_space_group_name_H-M "P -1"
_symmetry_group_IT_number 2
_symmetry_cell_setting 'triclinic'
loop_
_space_group_symop_operation_xyz
x,y,z
-x,-y,-z
loop_
_atom_site_type_symbol
_atom_site_label
_atom_site_fract_x
_atom_site_fract_y
_atom_site_fract_z
Si Si1 0.058013 0.659962 0.229576
Si Si2 0.591180 0.083692 0.165637
Si Si3 0.480695 0.662318 0.700251
Si Si4 0.322555 0.605704 0.035476
Si Si5 0.630256 0.015499 0.839026
Si Si6 0.617288 0.394288 0.427068
Si Si7 0.742188 0.722167 0.192025
O O1 0.000000 0.500000 0.500000
O O2 0.902976 0.738709 0.182947
O O3 0.211846 0.827919 0.042732
O O4 0.128578 0.579489 0.179566
O O5 0.553100 0.211282 0.144432
O O6 0.568171 0.876956 0.423337
O O7 0.467049 0.091907 0.112758
O O8 0.335965 0.636762 0.874184
O O9 0.392660 0.555603 0.741258
O O10 0.626106 0.576113 0.768869
O O11 0.710537 0.232404 0.561195
O O12 0.500000 0.000000 0.000000
O O13 0.768788 0.915096 0.922483
O O14 0.730602 0.566101 0.269306
O O15 0.424967 0.324927 0.620080
#
# Coordination Sequence:
#
# PCOD8038441 Si02
#       7
#     2   2   2   2   2   2   2
#     4  10  22  35  52  80 113 141 167 218 277 314
#     4   9  20  35  55  79 106 138 174 226 259 311
#     4  10  17  36  57  83  97 142 186 219 253 312
#     4   9  20  33  56  79 109 136 179 219 264 314
#     4   9  18  32  52  78  98 133 186 209 253 314
#     4   9  19  31  57  74 102 139 185 214 250 317
#     4  10  19  35  52  74 111 141 169 217 269 309
#
# _framework density 18.364674999999998
#
# number of rings (size 3 to 8) (size 9 to 14) (size 15 to 20)
#    0.857    1.714    0.000    2.143    6.000    0.000 
#    2.571    7.857    0.000    3.429    0.000    0.000 
#    0.000    0.000    0.000    0.000    0.000    0.000 
#
# Total GULP energy -173490.383570 kJ/mol
# GULP energy per Si atom -12392.170255 kJ/mol
# Density = 1.832288 g / cm^3
# Si number density = 18.364675 Si / 1000 Ang^3
#
#
#
# Elastic Constant Matrix: (Units=GPa)
#
#
# Indices 1 2 3 4 5 6 
#
# 1 83.4192 20.5420 40.8514 -5.8531 28.4216 -8.1803
# 2 20.5420 89.8381 30.0442 4.6458 10.7900 11.5607
# 3 40.8514 30.0442 94.2543 -0.4475 21.0530 -0.8339
# 4 -5.8531 4.6458 -0.4475 26.9408 -1.3345 7.4466
# 5 28.4216 10.7900 21.0530 -1.3345 26.0562 3.7428
# 6 -8.1803 11.5607 -0.8339 7.4466 3.7428 25.8265
#
#
#
# Elastic Compliance Matrix: (Units=1/GPa)
#
#
# Indices 1 2 3 4 5 6 
#
# 1 0.023804 -0.002852 -0.004152 0.001228 -0.023042 0.011668
# 2 -0.002852 0.013767 -0.003484 -0.001045 0.001184 -0.007049
# 3 -0.004152 -0.003484 0.014973 -0.000903 -0.006448 0.001923
# 4 0.001228 -0.001045 -0.000903 0.040901 0.003567 -0.011483
# 5 -0.023042 0.001184 -0.006448 0.003567 0.071200 -0.019383
# 6 0.011668 -0.007049 0.001923 -0.011483 -0.019383 0.051753
#
#
# Mechanical properties :
#
#
# Convention : Reuss Voigt Hill
#
# Bulk Modulus (GPa) = 31.67748 50.04297 40.86023
# Shear Modulus (GPa) = 20.16966 27.50296 23.83631
#
# Velocity S-wave (km/s) = 3.31763 3.87408 3.60661
# Velocity P-wave (km/s) = 5.65351 6.87896 6.29612
#
# Compressibility (1/GPa) = 0.03156817
#
# Stress axis : x y z
#
# Youngs Moduli (GPa) = 42.00912 72.63588 66.78744
#
# Poissons Ratio (x) = 0.20714 0.27732
# Poissons Ratio (y) = 0.11980 0.23269
# Poissons Ratio (z) = 0.17443 0.25307
#
# Static dielectric constant tensor:
#      x y z
#    x 3.140290 -0.083720 0.433450 
#    y -0.083720 3.314660 -0.045330 
#    z 0.433450 -0.045330 3.437840 
# 
# 
# High freq. dielectric constant tensor:
#      x y z
#    x 1.684230 0.009220 0.033840 
#    y 0.009220 1.717610 -0.011030 
#    z 0.033840 -0.011030 1.705490 
# 
# From -- ./inp_files/267063.got.cif
#   From: 2010.06.25/outbox.cif.g09.slc.cpg/sg2_134_cif.got.tgz:267063.got - 2010.06.27 13:26:56.
