data_PCOD8038430
_publ_section_title
;
Structure prediction by ZEFSAII (Michael W. Deem and Ramdas Pophale) SiO2 
 PCOD8038430
Probable space group: P -1
;
_chemical_formula_sum "Si O2"
_cell_formula_units_Z 16
_cell_length_a 21.263119
_cell_length_b 5.510321
_cell_length_c 9.420563
_cell_angle_alpha 66.980606
_cell_angle_beta 48.370689
_cell_angle_gamma 82.261468
_cell_volume 746.666768
_symmetry_space_group_name_H-M "P -1"
_symmetry_group_IT_number 2
_symmetry_cell_setting 'triclinic'
loop_
_space_group_symop_operation_xyz
x,y,z
-x,-y,-z
loop_
_atom_site_type_symbol
_atom_site_label
_atom_site_fract_x
_atom_site_fract_y
_atom_site_fract_z
Si Si1 0.500282 0.685924 0.096049
Si Si2 0.180265 0.020579 0.293555
Si Si3 0.703667 0.178184 0.199285
Si Si4 0.331870 0.457439 0.572025
Si Si5 0.114264 0.743721 0.187962
Si Si6 0.070790 0.264631 0.582853
Si Si7 0.673101 0.556166 0.938758
Si Si8 0.225754 0.510107 0.458599
O O1 0.419148 0.568799 0.336816
O O2 0.500000 0.500000 0.000000
O O3 0.584942 0.662751 0.064107
O O4 0.500000 0.000000 0.000000
O O5 0.141034 0.983690 0.204332
O O6 0.234250 0.808693 0.320379
O O7 0.101782 0.007859 0.526694
O O8 0.249735 0.289670 0.115709
O O9 0.668196 0.354756 0.333117
O O10 0.671095 0.858659 0.327634
O O11 0.807422 0.247396 0.039751
O O12 0.667413 0.258026 0.082175
O O13 0.250341 0.492012 0.589417
O O14 0.094344 0.474800 0.370834
O O15 0.029669 0.786236 0.217701
O O16 0.127910 0.354974 0.616046
O O17 0.703881 0.600317 0.718761
#
# Coordination Sequence:
#
# PCOD8038430 Si02
#       8
#     2   2   2   2   2   2   2   2
#     4  12  26  46  75 105 130 171 234 281 319 395
#     4  10  17  35  66  97 125 167 231 281 328 372
#     4  12  26  44  66  98 145 178 214 272 356 398
#     4  12  28  45  66 101 140 180 213 280 349 401
#     4  10  19  37  59 100 130 174 221 285 326 395
#     4   9  19  33  66  96 125 167 244 276 318 378
#     4  11  23  41  72  95 131 178 226 271 331 401
#     4  10  21  40  65  95 128 176 231 275 327 397
#
# _framework density 21.428569
#
# number of rings (size 3 to 8) (size 9 to 14) (size 15 to 20)
#    0.000    1.250    5.000    2.625    3.500    1.000 
#    0.000    1.250    0.000    0.000    0.000    0.000 
#    0.000    0.000    0.000    0.000    0.000    0.000 
#
# Total GULP energy -198253.976055 kJ/mol
# GULP energy per Si atom -12390.873503 kJ/mol
# Density = 2.137980 g / cm^3
# Si number density = 21.428569 Si / 1000 Ang^3
#
#
#
# Elastic Constant Matrix: (Units=GPa)
#
#
# Indices 1 2 3 4 5 6 
#
# 1 100.3115 26.7870 27.3585 -0.3982 -16.3746 -21.9183
# 2 26.7870 116.5221 42.9695 -0.8981 -10.8976 3.2087
# 3 27.3585 42.9695 88.4762 0.3628 -21.5072 -8.1317
# 4 -0.3982 -0.8981 0.3628 31.7312 -5.3891 1.9117
# 5 -16.3746 -10.8976 -21.5072 -5.3891 35.7859 12.3382
# 6 -21.9183 3.2087 -8.1317 1.9117 12.3382 30.9720
#
#
#
# Elastic Compliance Matrix: (Units=1/GPa)
#
#
# Indices 1 2 3 4 5 6 
#
# 1 0.013216 -0.002512 -0.001779 -0.000206 0.001188 0.008685
# 2 -0.002512 0.011174 -0.004818 0.000808 0.001095 -0.004686
# 3 -0.001779 -0.004818 0.016009 0.000870 0.007306 0.000479
# 4 -0.000206 0.000808 0.000870 0.033077 0.007373 -0.004980
# 5 0.001188 0.001095 0.007306 0.007373 0.038911 -0.013311
# 6 0.008685 -0.004686 0.000479 -0.004980 -0.013311 0.044655
#
#
# Mechanical properties :
#
#
# Convention : Reuss Voigt Hill
#
# Bulk Modulus (GPa) = 45.08286 55.50441 50.29364
# Shear Modulus (GPa) = 27.37433 33.57747 30.47590
#
# Velocity S-wave (km/s) = 3.57805 3.96276 3.77531
# Velocity P-wave (km/s) = 6.17691 6.84809 6.52114
#
# Compressibility (1/GPa) = 0.02218138
#
# Stress axis : x y z
#
# Youngs Moduli (GPa) = 75.66776 89.49468 62.46573
#
# Poissons Ratio (x) = 0.22480 0.11112
# Poissons Ratio (y) = 0.19006 0.30095
# Poissons Ratio (z) = 0.13460 0.43117
#
# Static dielectric constant tensor:
#      x y z
#    x 4.015910 -0.063660 -0.235540 
#    y -0.063660 4.267090 0.093320 
#    z -0.235540 0.093320 3.693570 
# 
# 
# High freq. dielectric constant tensor:
#      x y z
#    x 1.839290 -0.006890 -0.017090 
#    y -0.006890 1.854370 0.004260 
#    z -0.017090 0.004260 1.817640 
# 
# From -- ./inp_files/51192.got.cif
#   From: 2010.06.25/outbox.cif.g09.slc.cpg/sg2_26_cif.got.tgz:51192.got - 2010.06.27 13:26:56.
