data_PCOD8038132
_publ_section_title
;
Structure prediction by ZEFSAII (Michael W. Deem and Ramdas Pophale) SiO2 
 PCOD8038132
Probable space group: P -1
;
_chemical_formula_sum "Si O2"
_cell_formula_units_Z 16
_cell_length_a 13.650756
_cell_length_b 9.536413
_cell_length_c 11.665042
_cell_angle_alpha 118.198372
_cell_angle_beta 42.175533
_cell_angle_gamma 127.915835
_cell_volume 803.923801
_symmetry_space_group_name_H-M "P -1"
_symmetry_group_IT_number 2
_symmetry_cell_setting 'triclinic'
loop_
_space_group_symop_operation_xyz
x,y,z
-x,-y,-z
loop_
_atom_site_type_symbol
_atom_site_label
_atom_site_fract_x
_atom_site_fract_y
_atom_site_fract_z
Si Si1 0.342344 0.267153 0.786165
Si Si2 0.121982 0.438023 0.008231
Si Si3 0.581059 0.267429 0.743929
Si Si4 0.222480 0.609081 0.745781
Si Si5 0.357603 0.119727 0.267282
Si Si6 0.678978 0.238570 0.898382
Si Si7 0.421150 0.089891 0.451710
Si Si8 0.682918 0.554610 0.596333
O O1 0.177212 0.289089 0.943701
O O2 0.395437 0.225413 0.850112
O O3 0.322808 0.113905 0.653572
O O4 0.491344 0.453670 0.685552
O O5 0.215831 0.527728 0.844986
O O6 0.166335 0.585447 0.126776
O O7 0.928422 0.343319 0.121561
O O8 0.598780 0.275523 0.867937
O O9 0.707143 0.457142 0.651781
O O10 0.620397 0.116359 0.595894
O O11 0.385189 0.790398 0.655547
O O12 0.208644 0.460206 0.607291
O O13 0.355863 0.141832 0.413770
O O14 0.276002 0.240085 0.332719
O O15 0.259490 0.912983 0.234269
O O16 0.543435 0.180324 0.091681
#
# Coordination Sequence:
#
# PCOD8038132 Si02
#       8
#     2   2   2   2   2   2   2   2
#     4   9  18  30  55  74 103 129 170 209 249 297
#     4  11  20  35  49  81 103 141 163 211 260 303
#     4   9  20  31  55  79 105 130 169 213 258 295
#     4  10  21  32  55  73 109 133 171 209 257 304
#     4  10  18  30  55  80  98 129 177 216 251 291
#     4  10  19  32  50  79 107 131 165 217 253 300
#     4  10  17  34  55  80 101 130 171 218 253 292
#     4   9  18  34  53  78  99 132 173 215 247 298
#
# _framework density 19.902384000000001
#
# number of rings (size 3 to 8) (size 9 to 14) (size 15 to 20)
#    0.750    1.500    2.500    1.125    0.000    4.000 
#    0.000    1.875    0.000    0.000    0.000    0.000 
#    0.000    0.000    0.000    0.000    0.000    0.000 
#
# Total GULP energy -198288.219361 kJ/mol
# GULP energy per Si atom -12393.013710 kJ/mol
# Density = 1.985709 g / cm^3
# Si number density = 19.902384 Si / 1000 Ang^3
#
#
#
# Elastic Constant Matrix: (Units=GPa)
#
#
# Indices 1 2 3 4 5 6 
#
# 1 56.9000 32.7599 11.3721 6.7874 6.1271 -17.2665
# 2 32.7599 78.1180 18.9522 16.3252 -0.1097 -21.7769
# 3 11.3721 18.9522 45.0201 12.3269 0.1968 -5.4714
# 4 6.7874 16.3252 12.3269 16.7971 -2.0506 -3.7679
# 5 6.1271 -0.1097 0.1968 -2.0506 28.4023 3.4142
# 6 -17.2665 -21.7769 -5.4714 -3.7679 3.4142 29.2535
#
#
#
# Elastic Compliance Matrix: (Units=1/GPa)
#
#
# Indices 1 2 3 4 5 6 
#
# 1 0.026248 -0.007617 -0.002092 -0.000223 -0.006921 0.010210
# 2 -0.007617 0.022415 -0.002220 -0.014918 -0.000524 0.009915
# 3 -0.002092 -0.002220 0.028672 -0.018112 -0.001096 0.000271
# 4 -0.000223 -0.014918 -0.018112 0.087321 0.006924 -0.004185
# 5 -0.006921 -0.000524 -0.001096 0.006924 0.038198 -0.008246
# 6 0.010210 0.009915 0.000271 -0.004185 -0.008246 0.048065
#
#
# Mechanical properties :
#
#
# Convention : Reuss Voigt Hill
#
# Bulk Modulus (GPa) = 18.69931 34.02293 26.36112
# Shear Modulus (GPa) = 17.08804 22.68752 19.88778
#
# Velocity S-wave (km/s) = 2.93335 3.37996 3.16455
# Velocity P-wave (km/s) = 4.57041 5.68895 5.16008
#
# Compressibility (1/GPa) = 0.05347792
#
# Stress axis : x y z
#
# Youngs Moduli (GPa) = 38.09761 44.61359 34.87709
#
# Poissons Ratio (x) = 0.33982 0.07295
# Poissons Ratio (y) = 0.29019 0.07743
# Poissons Ratio (z) = 0.07968 0.09905
#
# Static dielectric constant tensor:
#      x y z
#    x 3.461730 -0.132770 0.230210 
#    y -0.132770 3.493680 0.272370 
#    z 0.230210 0.272370 3.391060 
# 
# 
# High freq. dielectric constant tensor:
#      x y z
#    x 1.761790 -0.019970 0.020160 
#    y -0.019970 1.759910 0.029710 
#    z 0.020160 0.029710 1.755030 
# 
# From -- ./inp_files/419578.got.cif
#   From: 2010.06.25/outbox.cif.g09.slc.cpg/sg2_210_cif.got.tgz:419578.got - 2010.06.27 13:26:56.
