data_PCOD8038619
_publ_section_title
;
Structure prediction by ZEFSAII (Michael W. Deem and Ramdas Pophale) SiO2 
 PCOD8038619
Probable space group: P -1
;
_chemical_formula_sum "Si O2"
_cell_formula_units_Z 12
_cell_length_a 8.982008
_cell_length_b 15.631974
_cell_length_c 16.469401
_cell_angle_alpha 18.625122
_cell_angle_beta 111.928222
_cell_angle_gamma 101.474009
_cell_volume 583.908065
_symmetry_space_group_name_H-M "P -1"
_symmetry_group_IT_number 2
_symmetry_cell_setting 'triclinic'
loop_
_space_group_symop_operation_xyz
x,y,z
-x,-y,-z
loop_
_atom_site_type_symbol
_atom_site_label
_atom_site_fract_x
_atom_site_fract_y
_atom_site_fract_z
Si Si1 0.711972 0.531679 0.458595
Si Si2 0.742467 0.064946 0.487617
Si Si3 0.319611 0.481360 0.074936
Si Si4 0.390959 0.931843 0.143965
Si Si5 0.216040 0.348214 0.466848
Si Si6 0.108569 0.844560 0.859562
O O1 0.489033 0.753203 0.239076
O O2 0.743177 0.195816 0.739200
O O3 0.840937 0.503849 0.586751
O O4 0.743004 0.696853 0.238038
O O5 0.544127 0.284135 0.293650
O O6 0.764932 0.740857 0.753689
O O7 0.769092 0.241972 0.258347
O O8 0.899664 0.989770 0.652950
O O9 0.265418 0.633637 0.015158
O O10 0.554348 0.860563 0.306916
O O11 0.130964 0.131333 0.631500
O O12 0.129893 0.632857 0.130812
#
# Coordination Sequence:
#
# PCOD8038619 Si02
#       6
#     2   2   2   2   2   2
#     4   8  13  24  39  58  95 130 155 186 219 272
#     4  10  21  37  53  68  92 128 163 192 232 290
#     4  10  21  37  53  68  92 128 163 192 232 290
#     4   8  13  24  39  58  95 130 155 186 219 272
#     4  10  18  26  42  74 104 122 152 202 240 272
#     4  12  20  30  50  76 100 118 154 204 246 274
#
# _framework density 20.551181
#
# number of rings (size 3 to 8) (size 9 to 14) (size 15 to 20)
#    1.000    1.333    0.000    5.000    0.000    0.000 
#    0.000    0.000    0.000    0.000    0.000    0.000 
#    0.000  106.667    0.000    0.000    0.000    0.000 
#
# Total GULP energy -148721.027862 kJ/mol
# GULP energy per Si atom -12393.418989 kJ/mol
# Density = 2.050441 g / cm^3
# Si number density = 20.551181 Si / 1000 Ang^3
#
#
#
# Elastic Constant Matrix: (Units=GPa)
#
#
# Indices 1 2 3 4 5 6 
#
# 1 49.1970 36.4460 61.4238 -4.8073 -12.3091 21.0722
# 2 36.4460 51.8341 50.5701 12.3816 -2.0572 35.4992
# 3 61.4238 50.5701 164.4573 15.9340 -52.8717 25.1740
# 4 -4.8073 12.3816 15.9340 28.9055 9.9467 -3.4313
# 5 -12.3091 -2.0572 -52.8717 9.9467 38.5643 -10.1755
# 6 21.0722 35.4992 25.1740 -3.4313 -10.1755 24.6865
#
#
#
# Elastic Compliance Matrix: (Units=1/GPa)
#
#
# Indices 1 2 3 4 5 6 
#
# 1 0.189004 -0.020692 -0.127265 0.163222 -0.170376 -0.049339
# 2 -0.020692 -0.063965 0.031411 -0.002057 0.060569 0.102293
# 3 -0.127265 0.031411 0.100284 -0.135960 0.132834 -0.002944
# 4 0.163222 -0.002057 -0.135960 0.200126 -0.199824 -0.052272
# 5 -0.170376 0.060569 0.132834 -0.199824 0.202816 -0.021299
# 6 -0.049339 0.102293 -0.002944 -0.052272 -0.021299 -0.077516
#
#
# Mechanical properties :
#
#
# Convention : Reuss Voigt Hill
#
# Bulk Modulus (GPa) = -128.69171 62.48536 -33.10318
# Shear Modulus (GPa) = 6.39998 26.23448 16.31723
#
# Velocity S-wave (km/s) = 1.76661 3.57675 2.82082
# Velocity P-wave (km/s) = 7.65472 6.89408 2.35229
#
# Compressibility (1/GPa) = -0.00777051
#
# Stress axis : x y z
#
# Youngs Moduli (GPa) = 5.29089 -15.63362 9.97172
#
# Poissons Ratio (x) = -0.32349 1.26906
# Poissons Ratio (y) = 0.10948 -0.31322
# Poissons Ratio (z) = 0.67335 0.49106
#
# Static dielectric constant tensor:
#      x y z
#    x 3.581600 0.293440 -0.494010 
#    y 0.293440 3.420980 -0.042020 
#    z -0.494010 -0.042020 4.122950 
# 
# 
# High freq. dielectric constant tensor:
#      x y z
#    x 1.782170 0.030470 -0.027620 
#    y 0.030470 1.777670 0.005950 
#    z -0.027620 0.005950 1.821630 
# 
# From -- ./inp_files/503526.got.cif
#   From: 2010.06.25/outbox.cif.g09.slc.cpg/sg2_252_cif.got.tgz:503526.got - 2010.06.27 13:26:56.
