data_PCOD8038099
_publ_section_title
;
Structure prediction by ZEFSAII (Michael W. Deem and Ramdas Pophale) SiO2 
 PCOD8038099
Probable space group: P -1
;
_chemical_formula_sum "Si O2"
_cell_formula_units_Z 16
_cell_length_a 20.475583
_cell_length_b 21.601740
_cell_length_c 7.235624
_cell_angle_alpha 37.518053
_cell_angle_beta 33.526568
_cell_angle_gamma 23.135799
_cell_volume 689.300463
_symmetry_space_group_name_H-M "P -1"
_symmetry_group_IT_number 2
_symmetry_cell_setting 'triclinic'
loop_
_space_group_symop_operation_xyz
x,y,z
-x,-y,-z
loop_
_atom_site_type_symbol
_atom_site_label
_atom_site_fract_x
_atom_site_fract_y
_atom_site_fract_z
Si Si1 0.613273 0.705329 0.724443
Si Si2 0.038849 0.618532 0.479668
Si Si3 0.512868 0.411848 0.513334
Si Si4 0.895488 0.201161 0.189070
Si Si5 0.729752 0.075293 0.246621
Si Si6 0.921911 0.795678 0.687851
Si Si7 0.775816 0.267989 0.726454
Si Si8 0.152232 0.311538 0.575059
O O1 0.797922 0.571494 0.480193
O O2 0.444592 0.838385 0.672138
O O3 0.651724 0.775206 0.607534
O O4 0.577107 0.635301 0.110326
O O5 0.977340 0.667715 0.720830
O O6 0.855428 0.715709 0.558028
O O7 0.130719 0.661671 0.092779
O O8 0.500000 0.500000 0.500000
O O9 0.731716 0.254896 0.326626
O O10 0.397450 0.539246 0.318028
O O11 0.873254 0.188835 0.485379
O O12 0.093357 0.035295 0.042937
O O13 0.746400 0.973958 0.598854
O O14 0.706493 0.200287 0.107158
O O15 0.078798 0.779829 0.360742
O O16 0.892888 0.762396 0.031476
O O17 0.000000 0.500000 0.500000
#
# Coordination Sequence:
#
# PCOD8038099 Si02
#       8
#     2   2   2   2   2   2   2   2
#     4  11  20  37  62  92 122 159 207 250 303 360
#     4  10  20  41  67  91 118 159 207 259 296 352
#     4  10  17  33  65  90 119 156 200 257 295 351
#     4  10  18  35  63  91 121 161 200 244 309 357
#     4  11  23  35  60  94 129 162 196 249 309 374
#     4  11  24  40  63  91 126 161 201 250 311 358
#     4  11  18  37  62  88 127 158 202 250 300 361
#     4  10  22  41  68  88 117 161 211 255 301 351
#
# _framework density 23.211940999999999
#
# number of rings (size 3 to 8) (size 9 to 14) (size 15 to 20)
#    0.000    1.500    6.250    1.500    0.000    2.500 
#    0.000    9.375    8.250    0.000    0.000    0.000 
#    0.000    0.000    0.000    0.000    0.000    0.000 
#
# Total GULP energy -198289.141534 kJ/mol
# GULP energy per Si atom -12393.071346 kJ/mol
# Density = 2.315911 g / cm^3
# Si number density = 23.211941 Si / 1000 Ang^3
#
#
#
# Elastic Constant Matrix: (Units=GPa)
#
#
# Indices 1 2 3 4 5 6 
#
# 1 113.7213 47.9724 17.2145 9.5894 -23.5818 -32.2598
# 2 47.9724 107.9539 20.3080 -11.4491 -0.3344 -38.3637
# 3 17.2145 20.3080 68.5375 -13.3914 -10.9028 -10.5864
# 4 9.5894 -11.4491 -13.3914 25.1372 -12.3992 -1.7411
# 5 -23.5818 -0.3344 -10.9028 -12.3992 32.6630 8.5217
# 6 -32.2598 -38.3637 -10.5864 -1.7411 8.5217 34.3952
#
#
#
# Elastic Compliance Matrix: (Units=1/GPa)
#
#
# Indices 1 2 3 4 5 6 
#
# 1 0.014347 -0.004314 -0.001123 -0.004327 0.006616 0.006441
# 2 -0.004314 0.018675 -0.000636 0.008843 -0.004515 0.018155
# 3 -0.001123 -0.000636 0.020738 0.017284 0.012009 0.002519
# 4 -0.004327 0.008843 0.017284 0.068339 0.026592 0.007996
# 5 0.006616 -0.004515 0.012009 0.026592 0.051134 -0.006458
# 6 0.006441 0.018155 0.002519 0.007996 -0.006458 0.058144
#
#
# Mechanical properties :
#
#
# Convention : Reuss Voigt Hill
#
# Bulk Modulus (GPa) = 24.03082 51.24473 37.63778
# Shear Modulus (GPa) = 19.42536 32.08693 25.75614
#
# Velocity S-wave (km/s) = 2.89601 3.72202 3.33469
# Velocity P-wave (km/s) = 4.64303 6.37151 5.57467
#
# Compressibility (1/GPa) = 0.04161323
#
# Stress axis : x y z
#
# Youngs Moduli (GPa) = 69.70040 53.54666 48.22086
#
# Poissons Ratio (x) = 0.23098 0.05417
# Poissons Ratio (y) = 0.30066 0.03069
# Poissons Ratio (z) = 0.07830 0.03408
#
# Static dielectric constant tensor:
#      x y z
#    x 4.427760 -0.411860 -0.350530 
#    y -0.411860 4.380490 -0.099240 
#    z -0.350530 -0.099240 4.016140 
# 
# 
# High freq. dielectric constant tensor:
#      x y z
#    x 1.919980 -0.021700 -0.015180 
#    y -0.021700 1.901180 -0.018800 
#    z -0.015180 -0.018800 1.904590 
# 
# From -- ./inp_files/355617.got.cif
#   From: 2010.06.25/outbox.cif.g09.slc.cpg/sg2_178_cif.got.tgz:355617.got - 2010.06.27 13:26:56.
