data_PCOD8038600
_publ_section_title
;
Structure prediction by ZEFSAII (Michael W. Deem and Ramdas Pophale) SiO2 
 PCOD8038600
Probable space group: P -1
;
_chemical_formula_sum "Si O2"
_cell_formula_units_Z 14
_cell_length_a 10.111058
_cell_length_b 16.313839
_cell_length_c 7.561055
_cell_angle_alpha 76.570154
_cell_angle_beta 73.433715
_cell_angle_gamma 33.914354
_cell_volume 666.969821
_symmetry_space_group_name_H-M "P -1"
_symmetry_group_IT_number 2
_symmetry_cell_setting 'triclinic'
loop_
_space_group_symop_operation_xyz
x,y,z
-x,-y,-z
loop_
_atom_site_type_symbol
_atom_site_label
_atom_site_fract_x
_atom_site_fract_y
_atom_site_fract_z
Si Si1 0.666154 0.272739 0.799798
Si Si2 0.200739 0.810503 0.602347
Si Si3 0.853471 0.447110 0.016931
Si Si4 0.058524 0.428732 0.272850
Si Si5 0.616703 0.725234 0.470276
Si Si6 0.955647 0.213153 0.018000
Si Si7 0.301059 0.928171 0.198944
O O1 0.736173 0.259137 0.578360
O O2 0.410507 0.440872 0.863714
O O3 0.642124 0.183569 0.882746
O O4 0.873631 0.209094 0.872265
O O5 0.389816 0.787313 0.599136
O O6 0.220113 0.725596 0.783169
O O7 0.927269 0.983642 0.633421
O O8 0.955432 0.313634 0.946544
O O9 0.040116 0.376249 0.139109
O O10 0.848169 0.525118 0.839180
O O11 0.250103 0.294160 0.408377
O O12 0.798214 0.566778 0.393165
O O13 0.525441 0.834856 0.293911
O O14 0.229142 0.042949 0.043883
#
# Coordination Sequence:
#
# PCOD8038600 Si02
#       7
#     2   2   2   2   2   2   2
#     4  11  18  37  61  86 120 156 186 237 300 343
#     4   9  20  36  61  90 116 143 193 244 291 348
#     4  11  22  40  53  89 118 153 201 236 281 350
#     4  10  22  36  62  77 117 162 199 230 276 349
#     4  10  17  39  60  86 106 159 200 232 283 347
#     4  10  23  36  58  91 125 142 188 252 297 338
#     4   9  20  38  60  91 118 143 196 241 294 353
#
# _framework density 20.990455000000001
#
# number of rings (size 3 to 8) (size 9 to 14) (size 15 to 20)
#    0.857    1.143    2.857    3.429    0.000    0.571 
#    7.714    1.429    0.000    0.000    0.000    0.000 
#    0.000    0.000    0.000    0.000    0.000    0.000 
#
# Total GULP energy -173487.029081 kJ/mol
# GULP energy per Si atom -12391.930649 kJ/mol
# Density = 2.094268 g / cm^3
# Si number density = 20.990455 Si / 1000 Ang^3
#
#
#
# Elastic Constant Matrix: (Units=GPa)
#
#
# Indices 1 2 3 4 5 6 
#
# 1 46.2850 34.4318 20.2063 -15.6943 20.6395 -3.2646
# 2 34.4318 83.4678 15.0492 -13.0282 20.4152 -7.3481
# 3 20.2063 15.0492 70.0911 -10.5747 27.0309 -4.1937
# 4 -15.6943 -13.0282 -10.5747 26.8558 -12.6535 7.8288
# 5 20.6395 20.4152 27.0309 -12.6535 30.3825 -3.5521
# 6 -3.2646 -7.3481 -4.1937 7.8288 -3.5521 34.7203
#
#
#
# Elastic Compliance Matrix: (Units=1/GPa)
#
#
# Indices 1 2 3 4 5 6 
#
# 1 0.041168 -0.011687 -0.002685 0.012049 -0.013056 -0.002979
# 2 -0.011687 0.017984 0.001754 -0.000871 -0.005773 0.002525
# 3 -0.002685 0.001754 0.021994 -0.001545 -0.019433 0.001136
# 4 0.012049 -0.000871 -0.001545 0.053004 0.014717 -0.009684
# 5 -0.013056 -0.005773 -0.019433 0.014717 0.068956 -0.001060
# 6 -0.002979 0.002525 0.001136 -0.009684 -0.001060 0.031268
#
#
# Mechanical properties :
#
#
# Convention : Reuss Voigt Hill
#
# Bulk Modulus (GPa) = 17.88568 37.69095 27.78831
# Shear Modulus (GPa) = 17.96973 27.06881 22.51927
#
# Velocity S-wave (km/s) = 2.92908 3.59496 3.27897
# Velocity P-wave (km/s) = 4.46975 5.93523 5.25384
#
# Compressibility (1/GPa) = 0.05591066
#
# Stress axis : x y z
#
# Youngs Moduli (GPa) = 24.29045 55.60569 45.46747
#
# Poissons Ratio (x) = 0.64986 0.12206
# Poissons Ratio (y) = 0.28388 -0.07974
# Poissons Ratio (z) = 0.06521 -0.09752
#
# Static dielectric constant tensor:
#      x y z
#    x 3.417820 -0.262090 0.142320 
#    y -0.262090 3.713970 -0.114860 
#    z 0.142320 -0.114860 3.763010 
# 
# 
# High freq. dielectric constant tensor:
#      x y z
#    x 1.787990 -0.024860 0.012970 
#    y -0.024860 1.813910 -0.007260 
#    z 0.012970 -0.007260 1.823590 
# 
# From -- ./inp_files/276598.got.cif
#   From: 2010.06.25/outbox.cif.g09.slc.cpg/sg2_139_cif.got.tgz:276598.got - 2010.06.27 13:26:56.
