data_PCOD8038812
_publ_section_title
;
Structure prediction by ZEFSAII (Michael W. Deem and Ramdas Pophale) SiO2 
 PCOD8038812
Probable space group: P -1
;
_chemical_formula_sum "Si O2"
_cell_formula_units_Z 16
_cell_length_a 5.421877
_cell_length_b 8.941518
_cell_length_c 27.108108
_cell_angle_alpha 137.208456
_cell_angle_beta 58.816351
_cell_angle_gamma 100.621288
_cell_volume 719.201686
_symmetry_space_group_name_H-M "P -1"
_symmetry_group_IT_number 2
_symmetry_cell_setting 'triclinic'
loop_
_space_group_symop_operation_xyz
x,y,z
-x,-y,-z
loop_
_atom_site_type_symbol
_atom_site_label
_atom_site_fract_x
_atom_site_fract_y
_atom_site_fract_z
Si Si1 0.068974 0.783200 0.724621
Si Si2 0.052571 0.490701 0.137646
Si Si3 0.831692 0.836877 0.866839
Si Si4 0.375432 0.377388 0.527123
Si Si5 0.819067 0.869259 0.040870
Si Si6 0.018940 0.245982 0.456244
Si Si7 0.468737 0.761789 0.134158
Si Si8 0.455814 0.086647 0.733646
O O1 0.122093 0.550701 0.630960
O O2 0.058011 0.736684 0.772952
O O3 0.351344 0.866099 0.701852
O O4 0.754841 0.975047 0.787557
O O5 0.173403 0.379288 0.151214
O O6 0.309388 0.565387 0.099505
O O7 0.761678 0.723412 0.235787
O O8 0.979330 0.303049 0.063759
O O9 0.489024 0.967141 0.914739
O O10 0.968902 0.998550 0.925022
O O11 0.500000 0.500000 0.500000
O O12 0.203442 0.210188 0.480488
O O13 0.676169 0.233608 0.493323
O O14 0.738561 0.713930 0.054686
O O15 0.000000 0.500000 0.500000
O O16 0.199148 0.028746 0.349431
O O17 0.589700 0.754071 0.174842
#
# Coordination Sequence:
#
# PCOD8038812 Si02
#       8
#     2   2   2   2   2   2   2   2
#     4  10  20  37  59  91 118 159 203 256 293 365
#     4  11  26  39  61  91 125 166 201 256 311 363
#     4  11  25  43  64  88 123 167 210 247 302 369
#     4  10  18  30  56  86 116 144 199 247 296 340
#     4  11  24  44  65  87 121 165 216 251 295 363
#     4  10  19  31  55  87 117 150 193 247 295 356
#     4  10  22  38  61  92 123 160 203 260 308 352
#     4  11  21  36  60  89 126 154 200 255 311 354
#
# _framework density 22.24689
#
# number of rings (size 3 to 8) (size 9 to 14) (size 15 to 20)
#    0.000    1.500    3.750    2.625    5.250    0.500 
#    0.000    0.000    0.000    1.500    0.000    0.000 
#    0.000    0.000    0.000    0.000    0.000    0.000 
#
# Total GULP energy -198307.030007 kJ/mol
# GULP energy per Si atom -12394.189375 kJ/mol
# Density = 2.219625 g / cm^3
# Si number density = 22.246890 Si / 1000 Ang^3
#
#
#
# Elastic Constant Matrix: (Units=GPa)
#
#
# Indices 1 2 3 4 5 6 
#
# 1 112.2285 11.9222 8.4155 0.5221 11.5156 -8.7550
# 2 11.9222 81.8270 31.9067 -1.5970 -5.0276 -15.9423
# 3 8.4155 31.9067 95.8020 -13.2538 3.9484 -17.9481
# 4 0.5221 -1.5970 -13.2538 13.1871 -5.1595 0.2008
# 5 11.5156 -5.0276 3.9484 -5.1595 28.5632 -8.0519
# 6 -8.7550 -15.9423 -17.9481 0.2008 -8.0519 15.6705
#
#
#
# Elastic Compliance Matrix: (Units=1/GPa)
#
#
# Indices 1 2 3 4 5 6 
#
# 1 0.009622 -0.001242 -0.000260 -0.002379 -0.003985 0.001798
# 2 -0.001242 0.017882 -0.001807 0.004195 0.010513 0.020777
# 3 -0.000260 -0.001807 0.017532 0.019818 0.006984 0.021431
# 4 -0.002379 0.004195 0.019818 0.107270 0.029438 0.039390
# 5 -0.003985 0.010513 0.006984 0.029438 0.055376 0.044545
# 6 0.001798 0.020777 0.021431 0.039390 0.044545 0.132886
#
#
# Mechanical properties :
#
#
# Convention : Reuss Voigt Hill
#
# Bulk Modulus (GPa) = 26.02843 43.81625 34.92234
# Shear Modulus (GPa) = 13.88925 27.32505 20.60715
#
# Velocity S-wave (km/s) = 2.50136 3.50846 3.04681
# Velocity P-wave (km/s) = 4.47969 6.01254 5.30180
#
# Compressibility (1/GPa) = 0.03841953
#
# Stress axis : x y z
#
# Youngs Moduli (GPa) = 103.92891 55.92172 57.03934
#
# Poissons Ratio (x) = 0.06943 0.01481
# Poissons Ratio (y) = 0.12903 0.10307
# Poissons Ratio (z) = 0.02699 0.10105
#
# Static dielectric constant tensor:
#      x y z
#    x 6.006150 0.044280 -0.040090 
#    y 0.044280 3.850760 -0.194520 
#    z -0.040090 -0.194520 3.942980 
# 
# 
# High freq. dielectric constant tensor:
#      x y z
#    x 1.889340 -0.013110 0.001740 
#    y -0.013110 1.830900 -0.008400 
#    z 0.001740 -0.008400 1.875710 
# 
# From -- ./inp_files/37448.got.cif
#   From: 2010.06.25/outbox.cif.g09.slc.cpg/sg2_19_cif.got.tgz:37448.got - 2010.06.27 13:26:56.
