data_PCOD8038284
_publ_section_title
;
Structure prediction by ZEFSAII (Michael W. Deem and Ramdas Pophale) SiO2 
 PCOD8038284
Probable space group: P -1
;
_chemical_formula_sum "Si O2"
_cell_formula_units_Z 16
_cell_length_a 18.000000
_cell_length_b 15.000000
_cell_length_c 27.000000
_cell_angle_alpha 20.000000
_cell_angle_beta 160.000000
_cell_angle_gamma 160.000000
_cell_volume 746.015535
_symmetry_space_group_name_H-M "P -1"
_symmetry_group_IT_number 2
_symmetry_cell_setting 'triclinic'
loop_
_space_group_symop_operation_xyz
x,y,z
-x,-y,-z
loop_
_atom_site_type_symbol
_atom_site_label
_atom_site_fract_x
_atom_site_fract_y
_atom_site_fract_z
Si Si1 0.459003 0.670769 0.644646
Si Si2 0.081714 0.449623 0.023512
Si Si3 0.118420 0.872571 0.742638
Si Si4 0.325558 0.648006 0.316176
Si Si5 0.018275 0.392550 0.438339
Si Si6 0.570621 0.978300 0.906294
Si Si7 0.406075 0.601833 0.761904
Si Si8 0.158697 0.855535 0.199484
O O1 0.698511 0.637637 0.796108
O O2 0.270250 0.512413 0.564477
O O3 0.357458 0.542284 0.703285
O O4 0.500000 0.000000 0.500000
O O5 0.160447 0.753309 0.883782
O O6 0.000000 0.500000 0.000000
O O7 0.847257 0.173095 0.997429
O O8 0.381825 0.030073 0.796546
O O9 0.945564 0.594582 0.744917
O O10 0.986894 0.077795 0.562111
O O11 0.500000 0.500000 0.500000
O O12 0.297480 0.764906 0.291593
O O13 0.450652 0.929066 0.211173
O O14 0.007300 0.573557 0.288441
O O15 0.816486 0.384240 0.355378
O O16 0.524634 0.644515 0.046750
O O17 0.646762 0.912994 0.760884
O O18 0.000000 0.000000 0.000000
#
# Coordination Sequence:
#
# PCOD8038284 Si02
#       8
#     2   2   2   2   2   2   2   2
#     4  12  25  46  72  99 146 179 224 285 341 410
#     4  11  26  43  68 102 138 180 225 278 338 406
#     4  11  25  45  68 101 140 177 232 280 341 410
#     4  11  25  44  69  99 137 180 229 290 340 398
#     4  12  27  44  71 104 138 181 229 282 344 409
#     4  11  24  44  70  97 137 180 227 278 348 404
#     4  12  26  45  70 103 137 184 228 276 349 407
#     4  12  27  46  70 100 139 178 235 286 336 404
#
# _framework density 21.447275000000001
#
# number of rings (size 3 to 8) (size 9 to 14) (size 15 to 20)
#    0.000    0.500    2.500    4.875    5.250    9.000 
#    0.000    0.000    0.000    0.000    0.000    0.000 
#    0.000    0.000    0.000    0.000    0.000    0.000 
#
# Total GULP energy -198331.724368 kJ/mol
# GULP energy per Si atom -12395.732773 kJ/mol
# Density = 2.139846 g / cm^3
# Si number density = 21.447275 Si / 1000 Ang^3
#
#
#
# Elastic Constant Matrix: (Units=GPa)
#
#
# Indices 1 2 3 4 5 6 
#
# 1 182.1257 20.3407 62.6443 -5.5977 13.0121 12.3552
# 2 20.3407 50.7420 19.6561 -7.9538 -4.4918 1.7354
# 3 62.6443 19.6561 169.2274 -14.0068 15.8733 13.6650
# 4 -5.5977 -7.9538 -14.0068 44.6373 1.4590 5.1780
# 5 13.0121 -4.4918 15.8733 1.4590 63.0307 1.6158
# 6 12.3552 1.7354 13.6650 5.1780 1.6158 41.2274
#
#
#
# Elastic Compliance Matrix: (Units=1/GPa)
#
#
# Indices 1 2 3 4 5 6 
#
# 1 0.006543 -0.001882 -0.002018 0.000020 -0.000947 -0.001178
# 2 -0.001882 0.021847 -0.001788 0.003047 0.002331 -0.000237
# 3 -0.002018 -0.001788 0.007332 0.002005 -0.001554 -0.001941
# 4 0.000020 0.003047 0.002005 0.024041 -0.000751 -0.003789
# 5 -0.000947 0.002331 -0.001554 -0.000751 0.016632 0.000143
# 6 -0.001178 -0.000237 -0.001941 -0.003789 0.000143 0.025732
#
#
# Mechanical properties :
#
#
# Convention : Reuss Voigt Hill
#
# Bulk Modulus (GPa) = 41.07404 67.48639 54.28021
# Shear Modulus (GPa) = 41.11186 49.74270 45.42728
#
# Velocity S-wave (km/s) = 4.38297 4.82114 4.60726
# Velocity P-wave (km/s) = 6.69378 7.90732 7.32572
#
# Compressibility (1/GPa) = 0.02434628
#
# Stress axis : x y z
#
# Youngs Moduli (GPa) = 152.83126 45.77363 136.38047
#
# Poissons Ratio (x) = 0.08613 0.27522
# Poissons Ratio (y) = 0.28758 0.24389
# Poissons Ratio (z) = 0.30841 0.08186
#
# Static dielectric constant tensor:
#      x y z
#    x 4.485630 -0.101300 -0.019660 
#    y -0.101300 4.086900 -0.090640 
#    z -0.019660 -0.090640 4.319210 
# 
# 
# High freq. dielectric constant tensor:
#      x y z
#    x 1.881450 -0.003510 0.009180 
#    y -0.003510 1.844160 -0.004570 
#    z 0.009180 -0.004570 1.880150 
# 
# From -- ./inp_files/109718.got.cif
#   From: 2010.06.25/outbox.ucp.g09.slc.cvg/sg2_55_cif.got.tgz:109718.got - 2010.06.28 11:54:26.
