data_PCOD8038829
_publ_section_title
;
Structure prediction by ZEFSAII (Michael W. Deem and Ramdas Pophale) SiO2 
 PCOD8038829
Probable space group: P -1
;
_chemical_formula_sum "Si O2"
_cell_formula_units_Z 16
_cell_length_a 15.813668
_cell_length_b 16.092193
_cell_length_c 5.140897
_cell_angle_alpha 77.467173
_cell_angle_beta 113.333469
_cell_angle_gamma 69.004845
_cell_volume 1018.469883
_symmetry_space_group_name_H-M "P -1"
_symmetry_group_IT_number 2
_symmetry_cell_setting 'triclinic'
loop_
_space_group_symop_operation_xyz
x,y,z
-x,-y,-z
loop_
_atom_site_type_symbol
_atom_site_label
_atom_site_fract_x
_atom_site_fract_y
_atom_site_fract_z
Si Si1 0.947692 0.398325 0.545802
Si Si2 0.922498 0.218184 0.527927
Si Si3 0.805039 0.202715 0.895106
Si Si4 0.864297 0.592269 0.055558
Si Si5 0.441728 0.424988 0.718711
Si Si6 0.230334 0.423898 0.558383
Si Si7 0.942519 0.992419 0.185460
Si Si8 0.424173 0.628176 0.583453
O O1 0.060023 0.359821 0.856988
O O2 0.943085 0.308570 0.470288
O O3 0.938864 0.473197 0.253416
O O4 0.849253 0.458533 0.584824
O O5 0.867267 0.222958 0.730461
O O6 0.843630 0.224572 0.199675
O O7 0.039374 0.118343 0.717700
O O8 0.680125 0.269996 0.668356
O O9 0.825842 0.089707 0.983195
O O10 0.774972 0.630967 0.148950
O O11 0.806128 0.620094 0.690842
O O12 0.348012 0.401777 0.664377
O O13 0.395735 0.541367 0.602426
O O14 0.488775 0.388114 0.515434
O O15 0.531638 0.367495 0.082815
O O16 0.000000 0.000000 0.500000
O O17 0.000000 0.000000 0.000000
#
# Coordination Sequence:
#
# PCOD8038829 Si02
#       8
#     2   2   2   2   2   2   2   2
#     4   9  20  28  45  64  90 112 146 171 213 254
#     4  10  19  27  48  66  87 117 147 171 208 265
#     4  10  19  31  45  63  89 119 146 172 218 248
#     4   9  20  29  43  62  89 116 139 180 207 253
#     4  10  20  30  42  60  86 108 152 178 207 243
#     4  10  18  31  44  58  85 121 141 171 216 251
#     4   8  16  30  42  63  87 110 141 179 206 250
#     4  10  20  30  41  62  84 113 141 189 205 238
#
# _framework density 15.709842
#
# number of rings (size 3 to 8) (size 9 to 14) (size 15 to 20)
#    0.750    1.750    0.000    2.625    3.500    1.000 
#    0.000    0.000    0.000    0.000    0.000    0.000 
#    0.000    6.000    0.000    0.000    0.000    0.000 
#
# Total GULP energy -198216.213313 kJ/mol
# GULP energy per Si atom -12388.513332 kJ/mol
# Density = 1.567409 g / cm^3
# Si number density = 15.709842 Si / 1000 Ang^3
#
#
#
# Elastic Constant Matrix: (Units=GPa)
#
#
# Indices 1 2 3 4 5 6 
#
# 1 42.0730 13.5456 9.1199 0.0950 7.8069 -2.8375
# 2 13.5456 48.5078 22.1676 -1.4485 5.5962 -2.8749
# 3 9.1199 22.1676 64.5507 0.8958 -0.9493 -9.5672
# 4 0.0950 -1.4485 0.8958 25.6865 -9.5040 -1.1022
# 5 7.8069 5.5962 -0.9493 -9.5040 26.9472 3.7751
# 6 -2.8375 -2.8749 -9.5672 -1.1022 3.7751 13.6097
#
#
#
# Elastic Compliance Matrix: (Units=1/GPa)
#
#
# Indices 1 2 3 4 5 6 
#
# 1 0.028026 -0.006047 -0.001075 -0.003467 -0.008967 0.006017
# 2 -0.006047 0.026573 -0.008400 0.000362 -0.003872 -0.000449
# 3 -0.001075 -0.008400 0.020324 -0.000299 0.000987 0.011991
# 4 -0.003467 0.000362 -0.000299 0.045235 0.017145 -0.001949
# 5 -0.008967 -0.003872 0.000987 0.017145 0.048565 -0.014076
# 6 0.006017 -0.000449 0.011991 -0.001949 -0.014076 0.086812
#
#
# Mechanical properties :
#
#
# Convention : Reuss Voigt Hill
#
# Bulk Modulus (GPa) = 22.78985 27.19975 24.99480
# Shear Modulus (GPa) = 16.59995 20.60190 18.60093
#
# Velocity S-wave (km/s) = 3.25416 3.62526 3.44471
# Velocity P-wave (km/s) = 5.35328 5.90548 5.63615
#
# Compressibility (1/GPa) = 0.04387918
#
# Stress axis : x y z
#
# Youngs Moduli (GPa) = 35.68164 37.63153 49.20289
#
# Poissons Ratio (x) = 0.22757 0.05288
# Poissons Ratio (y) = 0.21578 0.41330
# Poissons Ratio (z) = 0.03835 0.31610
#
# Static dielectric constant tensor:
#      x y z
#    x 2.799150 -0.150700 -0.136800 
#    y -0.150700 3.093710 -0.025130 
#    z -0.136800 -0.025130 3.073950 
# 
# 
# High freq. dielectric constant tensor:
#      x y z
#    x 1.584480 -0.018060 -0.015250 
#    y -0.018060 1.580010 0.018070 
#    z -0.015250 0.018070 1.605880 
# 
# From -- ./inp_files/97049.got.cif
#   From: 2010.06.25/outbox.cif.g09.slc.cpg/sg2_49_cif.got.tgz:97049.got - 2010.06.27 13:26:56.
