data_PCOD8038603
_publ_section_title
;
Structure prediction by ZEFSAII (Michael W. Deem and Ramdas Pophale) SiO2 
 PCOD8038603
Probable space group: P -1
;
_chemical_formula_sum "Si O2"
_cell_formula_units_Z 16
_cell_length_a 17.436259
_cell_length_b 11.194691
_cell_length_c 9.158941
_cell_angle_alpha 64.994720
_cell_angle_beta 41.031016
_cell_angle_gamma 95.170143
_cell_volume 772.438654
_symmetry_space_group_name_H-M "P -1"
_symmetry_group_IT_number 2
_symmetry_cell_setting 'triclinic'
loop_
_space_group_symop_operation_xyz
x,y,z
-x,-y,-z
loop_
_atom_site_type_symbol
_atom_site_label
_atom_site_fract_x
_atom_site_fract_y
_atom_site_fract_z
Si Si1 0.233470 0.764365 0.779702
Si Si2 0.977555 0.775705 0.244807
Si Si3 0.584817 0.157203 0.073085
Si Si4 0.316520 0.902375 0.294604
Si Si5 0.194631 0.179490 0.738591
Si Si6 0.483197 0.452126 0.379996
Si Si7 0.730731 0.429407 0.969079
Si Si8 0.393315 0.218244 0.163434
O O1 0.209513 0.739950 0.650891
O O2 0.415579 0.954645 0.456110
O O3 0.200675 0.591769 0.975491
O O4 0.108958 0.768588 0.025770
O O5 0.880222 0.741836 0.255494
O O6 0.860423 0.628527 0.612950
O O7 0.056734 0.970558 0.095481
O O8 0.550997 0.266065 0.974536
O O9 0.713540 0.162972 0.796396
O O10 0.682530 0.270197 0.017395
O O11 0.294955 0.041018 0.290767
O O12 0.500000 0.000000 0.000000
O O13 0.299891 0.292986 0.671967
O O14 0.291569 0.185131 0.465447
O O15 0.500000 0.500000 0.500000
O O16 0.570579 0.382170 0.265763
O O17 0.563239 0.623879 0.076289
#
# Coordination Sequence:
#
# PCOD8038603 Si02
#       8
#     2   2   2   2   2   2   2   2
#     4  10  20  38  59  89 126 161 202 253 307 359
#     4  11  22  39  66  88 126 172 208 242 301 388
#     4  10  20  37  65  91 119 162 214 257 300 354
#     4   8  18  34  60  88 118 157 202 259 292 351
#     4  11  21  42  68  87 121 168 214 246 305 377
#     4  12  26  39  64  99 123 155 205 275 312 349
#     4  12  23  37  61  93 127 162 204 253 312 369
#     4  10  17  39  62  89 119 151 214 251 300 363
#
# _framework density 20.713619000000001
#
# number of rings (size 3 to 8) (size 9 to 14) (size 15 to 20)
#    0.000    1.750    5.000    1.875    5.250    0.000 
#    0.000    1.250    2.750    0.000    0.000    0.000 
#    0.000    0.000    0.000    0.000    0.000    0.000 
#
# Total GULP energy -198278.545463 kJ/mol
# GULP energy per Si atom -12392.409091 kJ/mol
# Density = 2.066647 g / cm^3
# Si number density = 20.713619 Si / 1000 Ang^3
#
#
#
# Elastic Constant Matrix: (Units=GPa)
#
#
# Indices 1 2 3 4 5 6 
#
# 1 83.6989 42.9975 32.3387 -9.2609 -3.0951 -15.0448
# 2 42.9975 89.0097 30.7680 -1.1327 6.6014 11.4799
# 3 32.3387 30.7680 74.2483 -13.5012 4.5629 5.4279
# 4 -9.2609 -1.1327 -13.5012 21.4100 -1.9745 6.5028
# 5 -3.0951 6.6014 4.5629 -1.9745 15.1034 -4.1045
# 6 -15.0448 11.4799 5.4279 6.5028 -4.1045 39.9841
#
#
#
# Elastic Compliance Matrix: (Units=1/GPa)
#
#
# Indices 1 2 3 4 5 6 
#
# 1 0.025118 -0.012856 -0.007388 0.002420 0.017541 0.015552
# 2 -0.012856 0.020597 -0.001837 -0.003508 -0.014648 -0.011435
# 3 -0.007388 -0.001837 0.020518 0.011274 -0.007512 -0.007642
# 4 0.002420 -0.003508 0.011274 0.057641 0.003823 -0.008595
# 5 0.017541 -0.014648 -0.007512 0.003823 0.084375 0.019865
# 6 0.015552 -0.011435 -0.007642 -0.008595 0.019865 0.038619
#
#
# Mechanical properties :
#
#
# Convention : Reuss Voigt Hill
#
# Bulk Modulus (GPa) = 45.30920 51.01836 48.16378
# Shear Modulus (GPa) = 16.75680 24.68968 20.72324
#
# Velocity S-wave (km/s) = 2.84733 3.45621 3.16644
# Velocity P-wave (km/s) = 5.72113 6.37268 6.05567
#
# Compressibility (1/GPa) = 0.02207057
#
# Stress axis : x y z
#
# Youngs Moduli (GPa) = 39.81181 48.55163 48.73809
#
# Poissons Ratio (x) = 0.62418 0.36006
# Poissons Ratio (y) = 0.51182 0.08955
# Poissons Ratio (z) = 0.29411 0.08921
#
# Static dielectric constant tensor:
#      x y z
#    x 3.853160 0.054190 0.239380 
#    y 0.054190 4.287580 0.304620 
#    z 0.239380 0.304620 3.904980 
# 
# 
# High freq. dielectric constant tensor:
#      x y z
#    x 1.797100 -0.018870 0.014470 
#    y -0.018870 1.807410 0.007950 
#    z 0.014470 0.007950 1.802200 
# 
# From -- ./inp_files/331809.got.cif
#   From: 2010.06.25/outbox.cif.g09.slc.cpg/sg2_166_cif.got.tgz:331809.got - 2010.06.27 13:26:56.
