data_PCOD8038819
_publ_section_title
;
Structure prediction by ZEFSAII (Michael W. Deem and Ramdas Pophale) SiO2 
 PCOD8038819
Probable space group: P -1
;
_chemical_formula_sum "Si O2"
_cell_formula_units_Z 16
_cell_length_a 12.212276
_cell_length_b 10.198456
_cell_length_c 11.117829
_cell_angle_alpha 116.597461
_cell_angle_beta 61.588401
_cell_angle_gamma 127.856452
_cell_volume 937.107207
_symmetry_space_group_name_H-M "P -1"
_symmetry_group_IT_number 2
_symmetry_cell_setting 'triclinic'
loop_
_space_group_symop_operation_xyz
x,y,z
-x,-y,-z
loop_
_atom_site_type_symbol
_atom_site_label
_atom_site_fract_x
_atom_site_fract_y
_atom_site_fract_z
Si Si1 0.923197 0.605596 0.057070
Si Si2 0.028489 0.227640 0.661778
Si Si3 0.933052 0.256480 0.348079
Si Si4 0.109859 0.933593 0.938313
Si Si5 0.132885 0.160991 0.349882
Si Si6 0.659536 0.737592 0.922645
Si Si7 0.146667 0.643785 0.338774
Si Si8 0.668816 0.441669 0.936463
O O1 0.880183 0.652292 0.226394
O O2 0.776974 0.497307 0.014788
O O3 0.000000 0.500000 0.000000
O O4 0.037670 0.776492 0.001226
O O5 0.145649 0.247894 0.508496
O O6 0.916433 0.277049 0.687792
O O7 0.929577 0.037141 0.681899
O O8 0.846466 0.125875 0.231834
O O9 0.827384 0.269096 0.507075
O O10 0.024482 0.184921 0.332828
O O11 0.035922 0.442027 0.316041
O O12 0.256880 0.081058 0.980190
O O13 0.000000 0.000000 0.000000
O O14 0.286838 0.247633 0.237301
O O15 0.688258 0.607350 0.928001
O O16 0.491747 0.677394 0.979167
O O17 0.297501 0.670312 0.220649
#
# Coordination Sequence:
#
# PCOD8038819 Si02
#       8
#     2   2   2   2   2   2   2   2
#     4  12  20  34  55  84 112 135 184 226 265 320
#     4  10  20  30  55  81 110 133 179 229 263 313
#     4  10  18  30  57  79 105 136 187 230 257 307
#     4  12  18  34  57  83 105 139 194 225 254 319
#     4  10  18  34  51  82 106 140 178 221 271 314
#     4  11  22  36  58  81 113 144 182 227 275 326
#     4  10  18  34  51  81 110 139 174 226 274 312
#     4  11  22  37  55  84 113 144 178 228 282 324
#
# _framework density 17.073820000000001
#
# number of rings (size 3 to 8) (size 9 to 14) (size 15 to 20)
#    0.000    1.250    7.500    0.000    0.000    0.000 
#    0.000    3.750    0.000    0.000    0.000    0.000 
#    0.000    0.000    0.000    0.000    0.000    0.000 
#
# Total GULP energy -198366.510996 kJ/mol
# GULP energy per Si atom -12397.906937 kJ/mol
# Density = 1.703496 g / cm^3
# Si number density = 17.073820 Si / 1000 Ang^3
#
#
#
# Elastic Constant Matrix: (Units=GPa)
#
#
# Indices 1 2 3 4 5 6 
#
# 1 94.6956 58.4653 59.8372 -3.0395 -3.8609 -0.3847
# 2 58.4653 104.8021 52.5767 -3.0857 -5.1745 -7.2444
# 3 59.8372 52.5767 182.7225 -2.6423 3.1206 18.2361
# 4 -3.0395 -3.0857 -2.6423 28.9203 1.1375 -2.4083
# 5 -3.8609 -5.1745 3.1206 1.1375 28.6641 1.5820
# 6 -0.3847 -7.2444 18.2361 -2.4083 1.5820 32.9339
#
#
#
# Elastic Compliance Matrix: (Units=1/GPa)
#
#
# Indices 1 2 3 4 5 6 
#
# 1 0.017883 -0.008063 -0.003589 0.000674 0.001294 0.000410
# 2 -0.008063 0.015644 -0.002339 0.000927 0.001700 0.004628
# 3 -0.003589 -0.002339 0.007825 -0.000256 -0.001480 -0.004837
# 4 0.000674 0.000927 -0.000256 0.035022 -0.001268 0.002975
# 5 0.001294 0.001700 -0.001480 -0.001268 0.035612 -0.000594
# 6 0.000410 0.004628 -0.004837 0.002975 -0.000594 0.034311
#
#
# Mechanical properties :
#
#
# Convention : Reuss Voigt Hill
#
# Bulk Modulus (GPa) = 74.79318 80.44207 77.61762
# Shear Modulus (GPa) = 27.97417 32.19306 30.08362
#
# Velocity S-wave (km/s) = 4.05214 4.34697 4.20214
# Velocity P-wave (km/s) = 8.11135 8.50949 8.31280
#
# Compressibility (1/GPa) = 0.01337020
#
# Stress axis : x y z
#
# Youngs Moduli (GPa) = 55.92051 63.92092 127.78964
#
# Poissons Ratio (x) = 0.51541 0.45866
# Poissons Ratio (y) = 0.45090 0.29884
# Poissons Ratio (z) = 0.20071 0.14948
#
# Static dielectric constant tensor:
#      x y z
#    x 2.998080 -0.215410 0.089850 
#    y -0.215410 3.160280 0.062800 
#    z 0.089850 0.062800 3.801050 
# 
# 
# High freq. dielectric constant tensor:
#      x y z
#    x 1.630540 -0.034730 0.007460 
#    y -0.034730 1.654790 0.006890 
#    z 0.007460 0.006890 1.683350 
# 
# From -- ./inp_files/176052.got.cif
#   From: 2010.06.25/outbox.cif.g09.slc.cpg/sg2_89_cif.got.tgz:176052.got - 2010.06.27 13:26:56.
