data_PCOD8038687
_publ_section_title
;
Structure prediction by ZEFSAII (Michael W. Deem and Ramdas Pophale) SiO2 
 PCOD8038687
Probable space group: P -1
;
_chemical_formula_sum "Si O2"
_cell_formula_units_Z 16
_cell_length_a 18.842501
_cell_length_b 12.269119
_cell_length_c 8.169141
_cell_angle_alpha 126.236241
_cell_angle_beta 140.123534
_cell_angle_gamma 41.657423
_cell_volume 804.100159
_symmetry_space_group_name_H-M "P -1"
_symmetry_group_IT_number 2
_symmetry_cell_setting 'triclinic'
loop_
_space_group_symop_operation_xyz
x,y,z
-x,-y,-z
loop_
_atom_site_type_symbol
_atom_site_label
_atom_site_fract_x
_atom_site_fract_y
_atom_site_fract_z
Si Si1 0.121850 0.531991 0.372741
Si Si2 0.081164 0.857824 0.275022
Si Si3 0.329494 0.906649 0.238093
Si Si4 0.593881 0.626009 0.352848
Si Si5 0.912508 0.734187 0.909292
Si Si6 0.847183 0.204457 0.282893
Si Si7 0.476235 0.461649 0.182481
Si Si8 0.326251 0.757251 0.407257
O O1 0.255467 0.419702 0.393921
O O2 0.105232 0.401254 0.326578
O O3 0.151712 0.640150 0.639388
O O4 0.983060 0.658336 0.142261
O O5 0.152829 0.784746 0.510530
O O6 0.177105 0.839854 0.285699
O O7 0.971745 0.048739 0.278858
O O8 0.007140 0.770800 0.007395
O O9 0.481544 0.820217 0.362899
O O10 0.326813 0.894140 0.420097
O O11 0.233062 0.092750 0.168984
O O12 0.287114 0.785848 0.988204
O O13 0.572103 0.517334 0.341885
O O14 0.586283 0.580878 0.112199
O O15 0.360599 0.602029 0.220336
O O16 0.568612 0.296864 0.307276
#
# Coordination Sequence:
#
# PCOD8038687 Si02
#       8
#     2   2   2   2   2   2   2   2
#     4  10  18  32  53  75 101 135 171 211 253 295
#     4   9  17  31  50  72 102 133 164 207 250 294
#     4  10  20  33  52  81 106 129 167 212 255 303
#     4  10  18  32  55  75 101 132 169 213 253 296
#     4   9  20  33  48  76 107 132 169 212 251 297
#     4   9  17  30  51  75  98 128 170 209 247 294
#     4   9  18  30  49  82 105 127 168 214 255 301
#     4  10  18  29  50  76 108 136 162 205 262 305
#
# _framework density 19.898018
#
# number of rings (size 3 to 8) (size 9 to 14) (size 15 to 20)
#    0.000    2.500    0.000    5.250    0.000    2.500 
#    0.000    0.000    0.000    7.500    0.000    5.250 
#    0.000    0.000    0.000    0.000    0.000    0.000 
#
# Total GULP energy -198213.304542 kJ/mol
# GULP energy per Si atom -12388.331534 kJ/mol
# Density = 1.985273 g / cm^3
# Si number density = 19.898018 Si / 1000 Ang^3
#
#
#
# Elastic Constant Matrix: (Units=GPa)
#
#
# Indices 1 2 3 4 5 6 
#
# 1 82.4262 31.8122 20.4214 -4.8062 -1.0211 -17.5869
# 2 31.8122 117.2024 34.0140 -4.8243 10.9590 2.6940
# 3 20.4214 34.0140 48.0995 -3.6228 1.4680 8.7253
# 4 -4.8062 -4.8243 -3.6228 37.4747 1.0106 10.3324
# 5 -1.0211 10.9590 1.4680 1.0106 21.5332 -3.8659
# 6 -17.5869 2.6940 8.7253 10.3324 -3.8659 23.2193
#
#
#
# Elastic Compliance Matrix: (Units=1/GPa)
#
#
# Indices 1 2 3 4 5 6 
#
# 1 0.021901 -0.004222 -0.011717 -0.006199 0.008895 0.025721
# 2 -0.004222 0.012135 -0.005622 0.001900 -0.006887 -0.004486
# 3 -0.011717 -0.005622 0.035284 0.008533 -0.005194 -0.026143
# 4 -0.006199 0.001900 0.008533 0.033933 -0.007838 -0.024527
# 5 0.008895 -0.006887 -0.005194 -0.007838 0.055064 0.022144
# 6 0.025721 -0.004486 -0.026143 -0.024527 0.022144 0.087495
#
#
# Mechanical properties :
#
#
# Convention : Reuss Voigt Hill
#
# Bulk Modulus (GPa) = 38.17039 46.69148 42.43093
# Shear Modulus (GPa) = 16.79728 27.21081 22.00405
#
# Velocity S-wave (km/s) = 2.90861 3.70200 3.32903
# Velocity P-wave (km/s) = 5.52310 6.46447 6.01224
#
# Compressibility (1/GPa) = 0.02619832
#
# Stress axis : x y z
#
# Youngs Moduli (GPa) = 45.65966 82.40507 28.34148
#
# Poissons Ratio (x) = 0.34794 0.33207
# Poissons Ratio (y) = 0.19279 0.15933
# Poissons Ratio (z) = 0.53499 0.46327
#
# Static dielectric constant tensor:
#      x y z
#    x 3.468370 -0.005200 0.105790 
#    y -0.005200 3.828460 -0.218960 
#    z 0.105790 -0.218960 3.658140 
# 
# 
# High freq. dielectric constant tensor:
#      x y z
#    x 1.743870 -0.012260 0.012420 
#    y -0.012260 1.785850 -0.032110 
#    z 0.012420 -0.032110 1.754690 
# 
# From -- ./inp_files/332412.got.cif
#   From: 2010.06.25/outbox.cif.g09.slc.cpg/sg2_167_cif.got.tgz:332412.got - 2010.06.27 13:26:56.
