data_PCOD8038557
_publ_section_title
;
Structure prediction by ZEFSAII (Michael W. Deem and Ramdas Pophale) SiO2 
 PCOD8038557
Probable space group: P -1
;
_chemical_formula_sum "Si O2"
_cell_formula_units_Z 14
_cell_length_a 8.901637
_cell_length_b 12.840932
_cell_length_c 13.527366
_cell_angle_alpha 119.757695
_cell_angle_beta 133.325727
_cell_angle_gamma 32.804930
_cell_volume 596.607336
_symmetry_space_group_name_H-M "P -1"
_symmetry_group_IT_number 2
_symmetry_cell_setting 'triclinic'
loop_
_space_group_symop_operation_xyz
x,y,z
-x,-y,-z
loop_
_atom_site_type_symbol
_atom_site_label
_atom_site_fract_x
_atom_site_fract_y
_atom_site_fract_z
Si Si1 0.615096 0.999980 0.654873
Si Si2 0.719483 0.609766 0.340869
Si Si3 0.252763 0.767841 0.723491
Si Si4 0.184257 0.697572 0.241408
Si Si5 0.299008 0.714502 0.506643
Si Si6 0.215977 0.294336 0.047719
Si Si7 0.216974 0.282568 0.267580
O O1 0.587294 0.923965 0.699486
O O2 0.003992 0.858298 0.744069
O O3 0.500000 0.000000 0.500000
O O4 0.372966 0.222746 0.675130
O O5 0.368142 0.719400 0.275603
O O6 0.000000 0.500000 0.500000
O O7 0.869441 0.453181 0.252495
O O8 0.554317 0.533142 0.744012
O O9 0.083430 0.836599 0.568088
O O10 0.395594 0.837688 0.838271
O O11 0.071055 0.806065 0.347735
O O12 0.843704 0.802286 0.085446
O O13 0.500000 0.500000 0.500000
O O14 0.560877 0.702243 0.605760
O O15 0.106016 0.317644 0.121239
O O16 0.000000 0.500000 0.000000
#
# Coordination Sequence:
#
# PCOD8038557 Si02
#       7
#     2   2   2   2   2   2   2
#     4  12  23  39  67  99 133 165 208 272 326 374
#     4  12  22  39  67  98 128 165 215 270 320 380
#     4   9  19  38  62  94 131 160 212 268 316 377
#     4  10  17  37  64  95 124 173 215 257 316 379
#     4   9  18  33  66  94 124 165 212 262 314 370
#     4   9  21  41  69  91 126 179 214 257 322 380
#     4  11  22  42  67  97 130 167 215 263 322 381
#
# _framework density 23.466021000000001
#
# number of rings (size 3 to 8) (size 9 to 14) (size 15 to 20)
#    0.000    1.714    4.286    0.857    2.000    0.571 
#    0.000    7.857    0.000    0.000    0.000    0.000 
#    0.000    0.000    0.000    0.000    0.000    0.000 
#
# Total GULP energy -173514.922637 kJ/mol
# GULP energy per Si atom -12393.923046 kJ/mol
# Density = 2.341261 g / cm^3
# Si number density = 23.466021 Si / 1000 Ang^3
#
#
#
# Elastic Constant Matrix: (Units=GPa)
#
#
# Indices 1 2 3 4 5 6 
#
# 1 107.1757 23.3491 44.0904 -2.8597 -15.6448 30.8142
# 2 23.3491 73.8631 20.1154 -0.6444 -4.5918 34.3158
# 3 44.0904 20.1154 153.0261 17.9089 -13.1830 17.9261
# 4 -2.8597 -0.6444 17.9089 25.3587 6.4939 2.5465
# 5 -15.6448 -4.5918 -13.1830 6.4939 39.5979 -0.8678
# 6 30.8142 34.3158 17.9261 2.5465 -0.8678 36.3813
#
#
#
# Elastic Compliance Matrix: (Units=1/GPa)
#
#
# Indices 1 2 3 4 5 6 
#
# 1 0.014680 0.002952 -0.003143 0.004297 0.004087 -0.013873
# 2 0.002952 0.025120 -0.001390 0.003919 0.002410 -0.025726
# 3 -0.003143 -0.001390 0.008667 -0.007222 0.002673 0.000272
# 4 0.004297 0.003919 -0.007222 0.047976 -0.008281 -0.007333
# 5 0.004087 0.002410 0.002673 -0.008281 0.029269 -0.005774
# 6 -0.013873 -0.025726 0.000272 -0.007333 -0.005774 0.063743
#
#
# Mechanical properties :
#
#
# Convention : Reuss Voigt Hill
#
# Bulk Modulus (GPa) = 22.07291 56.57497 39.32394
# Shear Modulus (GPa) = 24.07085 36.70157 30.38621
#
# Velocity S-wave (km/s) = 3.20625 3.95907 3.60238
# Velocity P-wave (km/s) = 4.80972 6.71272 5.83927
#
# Compressibility (1/GPa) = 0.04530439
#
# Stress axis : x y z
#
# Youngs Moduli (GPa) = 68.11811 39.80910 115.38244
#
# Poissons Ratio (x) = -0.11752 0.36270
# Poissons Ratio (y) = -0.20109 0.16038
# Poissons Ratio (z) = 0.21413 0.05534
#
# Static dielectric constant tensor:
#      x y z
#    x 4.590470 0.250610 -0.057810 
#    y 0.250610 3.919010 0.185580 
#    z -0.057810 0.185580 4.809890 
# 
# 
# High freq. dielectric constant tensor:
#      x y z
#    x 1.935710 0.020030 0.002840 
#    y 0.020030 1.925410 0.004660 
#    z 0.002840 0.004660 1.914830 
# 
# From -- ./inp_files/198417.got.cif
#   From: 2010.06.25/outbox.cif.g09.slc.cpg/sg2_100_cif.got.tgz:198417.got - 2010.06.27 13:26:56.
