data_PCOD8038728
_publ_section_title
;
Structure prediction by ZEFSAII (Michael W. Deem and Ramdas Pophale) SiO2 
 PCOD8038728
Probable space group: P -1
;
_chemical_formula_sum "Si O2"
_cell_formula_units_Z 16
_cell_length_a 17.680398
_cell_length_b 5.237776
_cell_length_c 11.267385
_cell_angle_alpha 98.288290
_cell_angle_beta 67.402547
_cell_angle_gamma 119.149357
_cell_volume 840.120775
_symmetry_space_group_name_H-M "P -1"
_symmetry_group_IT_number 2
_symmetry_cell_setting 'triclinic'
loop_
_space_group_symop_operation_xyz
x,y,z
-x,-y,-z
loop_
_atom_site_type_symbol
_atom_site_label
_atom_site_fract_x
_atom_site_fract_y
_atom_site_fract_z
Si Si1 0.690165 0.113661 0.021479
Si Si2 0.317750 0.555969 0.243636
Si Si3 0.879894 0.583499 0.580674
Si Si4 0.915588 0.152371 0.155872
Si Si5 0.395894 0.517590 0.937920
Si Si6 0.611719 0.842823 0.798334
Si Si7 0.080582 0.903526 0.576866
Si Si8 0.120407 0.446367 0.962150
O O1 0.632082 0.278929 0.111790
O O2 0.798457 0.338120 0.985273
O O3 0.655443 0.818011 0.100695
O O4 0.669915 0.030175 0.890132
O O5 0.209070 0.460392 0.292686
O O6 0.340797 0.343196 0.299813
O O7 0.374001 0.891621 0.280841
O O8 0.360259 0.514353 0.092084
O O9 0.874308 0.274121 0.529061
O O10 0.969236 0.752045 0.621113
O O11 0.881578 0.770108 0.476025
O O12 0.891419 0.085587 0.303269
O O13 0.875619 0.361409 0.142764
O O14 0.868681 0.837044 0.098463
O O15 0.026035 0.332108 0.084796
O O16 0.505424 0.635458 0.880654
#
# Coordination Sequence:
#
# PCOD8038728 Si02
#       8
#     2   2   2   2   2   2   2   2
#     4  10  18  30  48  71 104 138 167 206 235 325
#     4  10  18  30  48  71 104 138 167 206 235 325
#     4  10  21  35  51  80  98 135 192 204 256 321
#     4  10  21  37  53  70 107 138 170 235 258 287
#     4  10  19  31  48  77 111 139 160 204 269 320
#     4  10  19  31  48  77 111 139 160 204 269 320
#     4  10  21  37  53  70 107 138 170 235 258 287
#     4  10  21  35  51  80  98 135 192 204 256 321
#
# _framework density 19.044882000000001
#
# number of rings (size 3 to 8) (size 9 to 14) (size 15 to 20)
#    0.000    2.000    0.000    6.000    3.500    0.000 
#    9.000    0.000    0.000    0.000    0.000    0.000 
#    0.000  116.000    0.000    0.000    0.000    0.000 
#
# Total GULP energy -198244.329546 kJ/mol
# GULP energy per Si atom -12390.270597 kJ/mol
# Density = 1.900153 g / cm^3
# Si number density = 19.044882 Si / 1000 Ang^3
#
#
#
# Elastic Constant Matrix: (Units=GPa)
#
#
# Indices 1 2 3 4 5 6 
#
# 1 80.6744 50.3705 16.7426 0.8089 -22.8476 -16.1365
# 2 50.3705 144.0584 7.2863 -0.9828 -14.2700 -18.3223
# 3 16.7426 7.2863 25.9635 -3.6902 -11.7448 4.0634
# 4 0.8089 -0.9828 -3.6902 14.9408 -0.1093 -4.1835
# 5 -22.8476 -14.2700 -11.7448 -0.1093 33.5787 -0.1012
# 6 -16.1365 -18.3223 4.0634 -4.1835 -0.1012 49.3276
#
#
#
# Elastic Compliance Matrix: (Units=1/GPa)
#
#
# Indices 1 2 3 4 5 6 
#
# 1 0.021427 -0.005428 -0.009419 -0.002210 0.008988 0.005600
# 2 -0.005428 0.009055 0.001203 0.001647 0.000586 0.001630
# 3 -0.009419 0.001203 0.052538 0.011999 0.012500 -0.005919
# 4 -0.002210 0.001647 0.011999 0.071542 0.003641 0.004976
# 5 0.008988 0.000586 0.012500 0.003641 0.040537 0.002520
# 6 0.005600 0.001630 -0.005919 0.004976 0.002520 0.023625
#
#
# Mechanical properties :
#
#
# Convention : Reuss Voigt Hill
#
# Bulk Modulus (GPa) = 17.94265 44.38831 31.16548
# Shear Modulus (GPa) = 18.89726 31.32256 25.10991
#
# Velocity S-wave (km/s) = 3.15342 4.05985 3.63500
# Velocity P-wave (km/s) = 4.76449 6.73308 5.83244
#
# Compressibility (1/GPa) = 0.05573312
#
# Stress axis : x y z
#
# Youngs Moduli (GPa) = 46.66991 110.43265 19.03391
#
# Poissons Ratio (x) = 0.59945 0.17927
# Poissons Ratio (y) = 0.25333 -0.02290
# Poissons Ratio (z) = 0.43957 -0.13288
#
# Static dielectric constant tensor:
#      x y z
#    x 4.076470 -0.940770 -0.223610 
#    y -0.940770 4.475190 -0.079780 
#    z -0.223610 -0.079780 2.898860 
# 
# 
# High freq. dielectric constant tensor:
#      x y z
#    x 1.745000 -0.031560 -0.027280 
#    y -0.031560 1.766980 -0.014560 
#    z -0.027280 -0.014560 1.674910 
# 
# From -- ./inp_files/459575.got.cif
#   From: 2010.06.25/outbox.cif.g09.slc.cpg/sg2_230_cif.got.tgz:459575.got - 2010.06.27 13:26:56.
