data_PCOD8038623
_publ_section_title
;
Structure prediction by ZEFSAII (Michael W. Deem and Ramdas Pophale) SiO2 
 PCOD8038623
Probable space group: P -1
;
_chemical_formula_sum "Si O2"
_cell_formula_units_Z 14
_cell_length_a 14.523290
_cell_length_b 12.147018
_cell_length_c 14.017469
_cell_angle_alpha 102.504707
_cell_angle_beta 123.098368
_cell_angle_gamma 29.603380
_cell_volume 799.598413
_symmetry_space_group_name_H-M "P -1"
_symmetry_group_IT_number 2
_symmetry_cell_setting 'triclinic'
loop_
_space_group_symop_operation_xyz
x,y,z
-x,-y,-z
loop_
_atom_site_type_symbol
_atom_site_label
_atom_site_fract_x
_atom_site_fract_y
_atom_site_fract_z
Si Si1 0.725944 0.720470 0.833500
Si Si2 0.701379 0.326199 0.365342
Si Si3 0.178070 0.371970 0.665852
Si Si4 0.478241 0.725728 0.683249
Si Si5 0.965362 0.242860 0.371758
Si Si6 0.742202 0.691482 0.613507
Si Si7 0.502647 0.681656 0.478440
O O1 0.642504 0.674180 0.815230
O O2 0.776080 0.662441 0.739568
O O3 0.492001 0.033875 0.778793
O O4 0.000000 0.500000 0.000000
O O5 0.519825 0.382043 0.262029
O O6 0.725873 0.376979 0.291485
O O7 0.573878 0.513990 0.417031
O O8 0.000000 0.000000 0.500000
O O9 0.186809 0.499240 0.695816
O O10 0.000000 0.500000 0.500000
O O11 0.035848 0.455258 0.694812
O O12 0.609629 0.558833 0.624833
O O13 0.167255 0.067643 0.546240
O O14 0.163825 0.015885 0.353625
O O15 0.655911 0.648971 0.519781
O O16 0.500000 0.000000 0.500000
#
# Coordination Sequence:
#
# PCOD8038623 Si02
#       7
#     2   2   2   2   2   2   2
#     4  11  24  38  54  83 119 146 179 229 278 330
#     4  10  18  26  48  76 109 139 173 221 282 312
#     4  12  18  33  59  81 109 145 186 230 271 327
#     4   8  17  33  46  73 110 141 175 214 279 316
#     4   9  18  28  48  82 100 135 181 222 268 312
#     4  11  19  33  58  85 108 145 183 226 281 318
#     4   9  17  28  44  79 112 126 175 232 267 312
#
# _framework density 17.508789
#
# number of rings (size 3 to 8) (size 9 to 14) (size 15 to 20)
#    0.857    1.143    4.286    1.286    2.000    0.571 
#    0.000    0.000    0.000    0.857    0.000    2.000 
#    0.000    0.000    0.000    0.000    0.000    0.000 
#
# Total GULP energy -173438.082006 kJ/mol
# GULP energy per Si atom -12388.434429 kJ/mol
# Density = 1.746894 g / cm^3
# Si number density = 17.508789 Si / 1000 Ang^3
#
#
#
# Elastic Constant Matrix: (Units=GPa)
#
#
# Indices 1 2 3 4 5 6 
#
# 1 161.6333 54.5218 26.4413 0.0477 25.1684 15.7846
# 2 54.5218 123.3970 31.2701 -8.2582 10.4680 7.7866
# 3 26.4413 31.2701 64.4482 -7.1298 13.2013 9.6060
# 4 0.0477 -8.2582 -7.1298 15.7570 0.7383 4.2953
# 5 25.1684 10.4680 13.2013 0.7383 16.2549 5.1995
# 6 15.7846 7.7866 9.6060 4.2953 5.1995 25.2052
#
#
#
# Elastic Compliance Matrix: (Units=1/GPa)
#
#
# Indices 1 2 3 4 5 6 
#
# 1 0.009239 -0.003044 0.000492 -0.000148 -0.011922 -0.002548
# 2 -0.003044 0.010597 -0.003450 0.004220 0.000799 -0.000936
# 3 0.000492 -0.003450 0.022202 0.010693 -0.015000 -0.006432
# 4 -0.000148 0.004220 0.010693 0.075368 -0.009418 -0.016187
# 5 -0.011922 0.000799 -0.015000 -0.009418 0.093600 -0.004768
# 6 -0.002548 -0.000936 -0.006432 -0.016187 -0.004768 0.047753
#
#
# Mechanical properties :
#
#
# Convention : Reuss Voigt Hill
#
# Bulk Modulus (GPa) = 33.29550 63.77167 48.53358
# Shear Modulus (GPa) = 17.80789 27.25977 22.53383
#
# Velocity S-wave (km/s) = 3.19263 3.95006 3.59137
# Velocity P-wave (km/s) = 5.71387 7.57005 6.70649
#
# Compressibility (1/GPa) = 0.03003409
#
# Stress axis : x y z
#
# Youngs Moduli (GPa) = 108.24194 94.36616 45.04006
#
# Poissons Ratio (x) = 0.28729 -0.02218
# Poissons Ratio (y) = 0.32954 0.15538
# Poissons Ratio (z) = -0.05330 0.32555
#
# Static dielectric constant tensor:
#      x y z
#    x 4.251610 -0.133540 0.127760 
#    y -0.133540 3.343330 -0.021870 
#    z 0.127760 -0.021870 2.725530 
# 
# 
# High freq. dielectric constant tensor:
#      x y z
#    x 1.704340 0.001460 0.017690 
#    y 0.001460 1.684380 -0.000660 
#    z 0.017690 -0.000660 1.591460 
# 
# From -- ./inp_files/531895.got.cif
#   From: 2010.06.25/outbox.cif.g09.slc.cpg/sg2_266_cif.got.tgz:531895.got - 2010.06.27 13:26:56.
