data_PCOD8038856
_publ_section_title
;
Structure prediction by ZEFSAII (Michael W. Deem and Ramdas Pophale) SiO2 
 PCOD8038856
Probable space group: P -1
;
_chemical_formula_sum "Si O2"
_cell_formula_units_Z 16
_cell_length_a 14.428218
_cell_length_b 11.194204
_cell_length_c 21.054131
_cell_angle_alpha 41.381260
_cell_angle_beta 149.178652
_cell_angle_gamma 148.166287
_cell_volume 916.273674
_symmetry_space_group_name_H-M "P -1"
_symmetry_group_IT_number 2
_symmetry_cell_setting 'triclinic'
loop_
_space_group_symop_operation_xyz
x,y,z
-x,-y,-z
loop_
_atom_site_type_symbol
_atom_site_label
_atom_site_fract_x
_atom_site_fract_y
_atom_site_fract_z
Si Si1 0.490556 0.719379 0.639489
Si Si2 0.576983 0.958708 0.466393
Si Si3 0.711792 0.964424 0.220289
Si Si4 0.253504 0.482966 0.128028
Si Si5 0.015629 0.407686 0.146209
Si Si6 0.335476 0.568064 0.387839
Si Si7 0.057576 0.827392 0.606816
Si Si8 0.025467 0.248833 0.548539
O O1 0.542621 0.789907 0.568399
O O2 0.648815 0.650526 0.783587
O O3 0.226649 0.510680 0.575900
O O4 0.544603 0.927018 0.631434
O O5 0.476492 0.824345 0.394570
O O6 0.846187 0.153870 0.538015
O O7 0.451846 0.753359 0.141817
O O8 0.877608 0.893835 0.342011
O O9 0.733910 0.068945 0.262075
O O10 0.801428 0.159210 0.142784
O O11 0.128318 0.380750 0.162265
O O12 0.077279 0.450071 0.984808
O O13 0.209338 0.548273 0.257011
O O14 0.500000 0.500000 0.500000
O O15 0.159129 0.411958 0.400554
O O16 0.105345 0.781160 0.582674
O O17 0.000000 0.000000 0.500000
#
# Coordination Sequence:
#
# PCOD8038856 Si02
#       8
#     2   2   2   2   2   2   2   2
#     4  10  21  36  51  74 105 139 173 208 257 303
#     4  11  21  33  53  78 104 136 170 212 259 305
#     4   9  18  30  50  75 103 132 160 212 257 298
#     4  10  20  35  53  71 104 138 170 210 250 308
#     4  10  21  33  51  80 100 132 174 206 259 304
#     4  11  20  32  53  79 106 129 165 216 263 300
#     4   9  17  28  45  78 104 129 159 204 260 305
#     4  10  18  31  50  77 105 131 169 207 258 304
#
# _framework density 17.462032000000001
#
# number of rings (size 3 to 8) (size 9 to 14) (size 15 to 20)
#    0.000    2.000    1.250    4.500    5.250    0.000 
#    0.000    0.625    0.000    0.000    0.000    1.750 
#    0.000    0.000    0.000    0.000    0.000    0.000 
#
# Total GULP energy -198350.593268 kJ/mol
# GULP energy per Si atom -12396.912079 kJ/mol
# Density = 1.742229 g / cm^3
# Si number density = 17.462032 Si / 1000 Ang^3
#
#
#
# Elastic Constant Matrix: (Units=GPa)
#
#
# Indices 1 2 3 4 5 6 
#
# 1 42.8673 27.0811 38.1960 -1.0457 -3.7977 -4.5638
# 2 27.0811 73.3861 40.0312 -5.3498 -2.7754 1.4061
# 3 38.1960 40.0312 99.0115 2.5311 -3.5991 -6.5929
# 4 -1.0457 -5.3498 2.5311 18.9218 3.0280 -0.3974
# 5 -3.7977 -2.7754 -3.5991 3.0280 21.4806 -3.1424
# 6 -4.5638 1.4061 -6.5929 -0.3974 -3.1424 34.9730
#
#
#
# Elastic Compliance Matrix: (Units=1/GPa)
#
#
# Indices 1 2 3 4 5 6 
#
# 1 0.039616 -0.008132 -0.011607 0.000811 0.004438 0.003717
# 2 -0.008132 0.019990 -0.005328 0.006017 -0.001019 -0.002893
# 3 -0.011607 -0.005328 0.017015 -0.004549 0.001037 0.001949
# 4 0.000811 0.006017 -0.004549 0.056454 -0.007955 -0.001067
# 5 0.004438 -0.001019 0.001037 -0.007955 0.049255 0.005151
# 6 0.003717 -0.002893 0.001949 -0.001067 0.005151 0.030013
#
#
# Mechanical properties :
#
#
# Convention : Reuss Voigt Hill
#
# Bulk Modulus (GPa) = 37.75509 47.32017 42.53763
# Shear Modulus (GPa) = 18.42938 22.40554 20.41746
#
# Velocity S-wave (km/s) = 3.25221 3.58593 3.42314
# Velocity P-wave (km/s) = 5.98086 6.65604 6.32746
#
# Compressibility (1/GPa) = 0.02648650
#
# Stress axis : x y z
#
# Youngs Moduli (GPa) = 25.24250 50.02622 58.77022
#
# Poissons Ratio (x) = 0.40682 0.68213
# Poissons Ratio (y) = 0.20527 0.31314
# Poissons Ratio (z) = 0.29298 0.26655
#
# Static dielectric constant tensor:
#      x y z
#    x 3.238400 0.142140 -0.192500 
#    y 0.142140 3.347230 0.031040 
#    z -0.192500 0.031040 3.163400 
# 
# 
# High freq. dielectric constant tensor:
#      x y z
#    x 1.667390 0.020100 -0.012760 
#    y 0.020100 1.682270 0.000270 
#    z -0.012760 0.000270 1.653120 
# 
# From -- ./inp_files/281150.got.cif
#   From: 2010.06.25/outbox.cif.g09.slc.cpg/sg2_141_cif.got.tgz:281150.got - 2010.06.27 13:26:56.
