data_PCOD8038266
_publ_section_title
;
Structure prediction by ZEFSAII (Michael W. Deem and Ramdas Pophale) SiO2 
 PCOD8038266
Probable space group: P -1
;
_chemical_formula_sum "Si O2"
_cell_formula_units_Z 16
_cell_length_a 9.370414
_cell_length_b 11.096247
_cell_length_c 11.389858
_cell_angle_alpha 125.718336
_cell_angle_beta 67.251386
_cell_angle_gamma 122.562663
_cell_volume 805.806044
_symmetry_space_group_name_H-M "P -1"
_symmetry_group_IT_number 2
_symmetry_cell_setting 'triclinic'
loop_
_space_group_symop_operation_xyz
x,y,z
-x,-y,-z
loop_
_atom_site_type_symbol
_atom_site_label
_atom_site_fract_x
_atom_site_fract_y
_atom_site_fract_z
Si Si1 0.737650 0.517300 0.712511
Si Si2 0.322285 0.840930 0.449033
Si Si3 0.003968 0.187158 0.324152
Si Si4 0.850854 0.687419 0.008196
Si Si5 0.560147 0.445789 0.070201
Si Si6 0.241465 0.032828 0.893826
Si Si7 0.180506 0.967838 0.136889
Si Si8 0.598166 0.125986 0.813819
O O1 0.674359 0.325267 0.596490
O O2 0.566454 0.550551 0.784267
O O3 0.865677 0.623394 0.627639
O O4 0.837006 0.567185 0.834329
O O5 0.157051 0.851741 0.563318
O O6 0.288419 0.820662 0.308531
O O7 0.500000 0.000000 0.500000
O O8 0.934443 0.116200 0.174757
O O9 0.098875 0.081361 0.287555
O O10 0.754081 0.584257 0.096230
O O11 0.755284 0.799702 0.062340
O O12 0.042392 0.786223 0.047163
O O13 0.500000 0.500000 0.000000
O O14 0.571468 0.273424 0.968736
O O15 0.402025 0.002120 0.773949
O O16 0.263699 0.051882 0.036709
O O17 0.323166 0.960757 0.172183
#
# Coordination Sequence:
#
# PCOD8038266 Si02
#       8
#     2   2   2   2   2   2   2   2
#     4  11  19  38  64  91 112 150 211 252 283 339
#     4  12  25  39  62  86 115 164 212 241 280 358
#     4  11  22  39  63  86 122 164 201 237 286 358
#     4  10  17  34  61  90 114 150 192 243 300 352
#     4  10  18  34  63  84 118 146 198 253 296 348
#     4  11  18  37  62  89 116 155 198 241 298 354
#     4  11  23  34  61  93 128 147 190 251 311 349
#     4  12  22  37  58  94 120 158 192 248 303 354
#
# _framework density 19.855896000000001
#
# number of rings (size 3 to 8) (size 9 to 14) (size 15 to 20)
#    0.000    1.000    8.750    1.500    1.750    1.000 
#    0.000    0.000    0.000    0.750    0.000    0.000 
#    0.000    0.000    0.000    0.000    0.000    0.000 
#
# Total GULP energy -198276.671282 kJ/mol
# GULP energy per Si atom -12392.291955 kJ/mol
# Density = 1.981070 g / cm^3
# Si number density = 19.855896 Si / 1000 Ang^3
#
#
#
# Elastic Constant Matrix: (Units=GPa)
#
#
# Indices 1 2 3 4 5 6 
#
# 1 92.4868 36.8972 21.3673 2.4721 -19.7867 -10.2580
# 2 36.8972 123.5517 31.8735 7.5426 -15.4982 16.3151
# 3 21.3673 31.8735 72.0416 -0.1272 -27.8758 -4.4456
# 4 2.4721 7.5426 -0.1272 38.1598 4.8214 -4.8677
# 5 -19.7867 -15.4982 -27.8758 4.8214 25.8133 -0.4735
# 6 -10.2580 16.3151 -4.4456 -4.8677 -0.4735 30.2280
#
#
#
# Elastic Compliance Matrix: (Units=1/GPa)
#
#
# Indices 1 2 3 4 5 6 
#
# 1 0.015768 -0.004992 0.002877 -0.000503 0.012448 0.008582
# 2 -0.004992 0.012147 -0.005136 -0.003099 -0.001676 -0.009531
# 3 0.002877 -0.005136 0.026833 -0.001686 0.028558 0.007870
# 4 -0.000503 -0.003099 -0.001686 0.028756 -0.009333 0.005738
# 5 0.012448 -0.001676 0.028558 -0.009333 0.080025 0.009079
# 6 0.008582 -0.009531 0.007870 0.005738 0.009079 0.043362
#
#
# Mechanical properties :
#
#
# Convention : Reuss Voigt Hill
#
# Bulk Modulus (GPa) = 24.84700 52.03958 38.44329
# Shear Modulus (GPa) = 21.29409 32.03634 26.66521
#
# Velocity S-wave (km/s) = 3.27835 4.02113 3.66859
# Velocity P-wave (km/s) = 5.18372 6.91555 6.11129
#
# Compressibility (1/GPa) = 0.04024630
#
# Stress axis : x y z
#
# Youngs Moduli (GPa) = 63.42088 82.32450 37.26822
#
# Poissons Ratio (x) = 0.41099 -0.10723
# Poissons Ratio (y) = 0.31662 0.19139
# Poissons Ratio (z) = -0.18248 0.42278
#
# Static dielectric constant tensor:
#      x y z
#    x 3.476810 0.467290 -0.270690 
#    y 0.467290 4.021380 -0.052000 
#    z -0.270690 -0.052000 3.547510 
# 
# 
# High freq. dielectric constant tensor:
#      x y z
#    x 1.740930 0.026040 -0.031000 
#    y 0.026040 1.796890 -0.003160 
#    z -0.031000 -0.003160 1.750530 
# 
# From -- ./inp_files/391298.got.cif
#   From: 2010.06.25/outbox.cif.g09.slc.cpg/sg2_196_cif.got.tgz:391298.got - 2010.06.27 13:26:56.
