data_PCOD8038846
_publ_section_title
;
Structure prediction by ZEFSAII (Michael W. Deem and Ramdas Pophale) SiO2 
 PCOD8038846
Probable space group: P -1
;
_chemical_formula_sum "Si O2"
_cell_formula_units_Z 16
_cell_length_a 11.759517
_cell_length_b 12.996096
_cell_length_c 11.896386
_cell_angle_alpha 107.821736
_cell_angle_beta 115.893441
_cell_angle_gamma 125.794761
_cell_volume 847.300733
_symmetry_space_group_name_H-M "P -1"
_symmetry_group_IT_number 2
_symmetry_cell_setting 'triclinic'
loop_
_space_group_symop_operation_xyz
x,y,z
-x,-y,-z
loop_
_atom_site_type_symbol
_atom_site_label
_atom_site_fract_x
_atom_site_fract_y
_atom_site_fract_z
Si Si1 0.468966 0.076297 0.177165
Si Si2 0.849288 0.496966 0.449707
Si Si3 0.250891 0.263909 0.302831
Si Si4 0.664078 0.530932 0.210796
Si Si5 0.029014 0.103632 0.392452
Si Si6 0.729359 0.068004 0.199005
Si Si7 0.096847 0.917265 0.093527
Si Si8 0.169923 0.253583 0.860819
O O1 0.630597 0.294295 0.357429
O O2 0.594720 0.049352 0.224172
O O3 0.250186 0.925967 0.116367
O O4 0.415461 0.059366 0.017122
O O5 0.756352 0.486559 0.290899
O O6 0.000000 0.500000 0.500000
O O7 0.018650 0.701950 0.654447
O O8 0.500000 0.500000 0.500000
O O9 0.104242 0.178412 0.322054
O O10 0.260006 0.141084 0.243902
O O11 0.120372 0.224624 0.129544
O O12 0.769494 0.712585 0.376734
O O13 0.743226 0.590435 0.133786
O O14 0.386440 0.343666 0.039491
O O15 0.789154 0.000849 0.269616
O O16 0.980331 0.942523 0.339610
O O17 0.991742 0.810474 0.133974
#
# Coordination Sequence:
#
# PCOD8038846 Si02
#       8
#     2   2   2   2   2   2   2   2
#     4  10  18  31  49  74 105 127 170 218 262 304
#     4   9  19  32  51  76  99 129 173 220 258 297
#     4  10  20  30  47  73 104 139 163 211 271 311
#     4  10  20  33  55  72 104 138 176 211 253 313
#     4  10  18  32  51  73 102 130 176 215 251 307
#     4   9  18  30  48  74  99 133 167 213 263 294
#     4  10  21  31  48  74 109 134 169 212 263 317
#     4  10  21  35  48  78 106 142 169 205 259 317
#
# _framework density 18.883497999999999
#
# number of rings (size 3 to 8) (size 9 to 14) (size 15 to 20)
#    0.000    2.250    1.250    1.875    7.000    0.000 
#    0.000    0.000    0.000    6.750    0.000   18.375 
#    0.000    0.000    0.000    0.000    0.000    0.000 
#
# Total GULP energy -198217.841636 kJ/mol
# GULP energy per Si atom -12388.615102 kJ/mol
# Density = 1.884052 g / cm^3
# Si number density = 18.883498 Si / 1000 Ang^3
#
#
#
# Elastic Constant Matrix: (Units=GPa)
#
#
# Indices 1 2 3 4 5 6 
#
# 1 100.3848 34.8110 19.0896 4.8643 8.2498 16.7255
# 2 34.8110 57.1683 4.9885 5.5773 4.7906 8.9635
# 3 19.0896 4.9885 69.0271 11.0249 -1.5130 0.5906
# 4 4.8643 5.5773 11.0249 21.1869 0.1197 3.7451
# 5 8.2498 4.7906 -1.5130 0.1197 21.9397 -2.6028
# 6 16.7255 8.9635 0.5906 3.7451 -2.6028 22.7118
#
#
#
# Elastic Compliance Matrix: (Units=1/GPa)
#
#
# Indices 1 2 3 4 5 6 
#
# 1 0.015082 -0.007145 -0.004044 0.002174 -0.005489 -0.009169
# 2 -0.007145 0.022931 0.000975 -0.004286 -0.002634 -0.003409
# 3 -0.004044 0.000975 0.016986 -0.008884 0.002997 0.003960
# 4 0.002174 -0.004286 -0.008884 0.054016 -0.001833 -0.008796
# 5 -0.005489 -0.002634 0.002997 -0.001833 0.049741 0.011007
# 6 -0.009169 -0.003409 0.003960 -0.008796 0.011007 0.054737
#
#
# Mechanical properties :
#
#
# Convention : Reuss Voigt Hill
#
# Bulk Modulus (GPa) = 28.92637 38.26205 33.59421
# Shear Modulus (GPa) = 20.37116 24.34708 22.35912
#
# Velocity S-wave (km/s) = 3.28804 3.59462 3.44474
# Velocity P-wave (km/s) = 5.45587 6.12654 5.80091
#
# Compressibility (1/GPa) = 0.03457054
#
# Stress axis : x y z
#
# Youngs Moduli (GPa) = 66.30427 43.60823 58.87315
#
# Poissons Ratio (x) = 0.31160 0.23807
# Poissons Ratio (y) = 0.47377 -0.05739
# Poissons Ratio (z) = 0.26812 -0.04251
#
# Static dielectric constant tensor:
#      x y z
#    x 3.570500 -0.117050 -0.175920 
#    y -0.117050 3.538830 0.555130 
#    z -0.175920 0.555130 4.055280 
# 
# 
# High freq. dielectric constant tensor:
#      x y z
#    x 1.724670 0.000760 -0.000630 
#    y 0.000760 1.699670 0.018710 
#    z -0.000630 0.018710 1.746620 
# 
# From -- ./inp_files/422422.got.cif
#   From: 2010.06.25/outbox.cif.g09.slc.cpg/sg2_212_cif.got.tgz:422422.got - 2010.06.27 13:26:56.
