data_PCOD8038021
_publ_section_title
;
Structure prediction by ZEFSAII (Michael W. Deem and Ramdas Pophale) SiO2 
 PCOD8038021
Probable space group: P -1
;
_chemical_formula_sum "Si O2"
_cell_formula_units_Z 14
_cell_length_a 7.491997
_cell_length_b 13.705500
_cell_length_c 8.329209
_cell_angle_alpha 134.989902
_cell_angle_beta 89.463948
_cell_angle_gamma 74.474631
_cell_volume 557.495401
_symmetry_space_group_name_H-M "P -1"
_symmetry_group_IT_number 2
_symmetry_cell_setting 'triclinic'
loop_
_space_group_symop_operation_xyz
x,y,z
-x,-y,-z
loop_
_atom_site_type_symbol
_atom_site_label
_atom_site_fract_x
_atom_site_fract_y
_atom_site_fract_z
Si Si1 0.668228 0.399748 0.238831
Si Si2 0.255170 0.718713 0.563680
Si Si3 0.724289 0.937529 0.611316
Si Si4 0.712173 0.562265 0.892722
Si Si5 0.646881 0.663774 0.368935
Si Si6 0.704161 0.862088 0.158387
Si Si7 0.965552 0.092518 0.940894
O O1 0.617066 0.390026 0.417737
O O2 0.506073 0.407723 0.121206
O O3 0.732052 0.539016 0.362092
O O4 0.850819 0.245912 0.024115
O O5 0.156098 0.613770 0.356693
O O6 0.409674 0.745724 0.477015
O O7 0.101922 0.876419 0.828424
O O8 0.729083 0.791969 0.537434
O O9 0.739148 0.914973 0.394965
O O10 0.909045 0.965506 0.708801
O O11 0.522937 0.075831 0.813582
O O12 0.714910 0.581487 0.104271
O O13 0.782325 0.680735 0.940832
O O14 0.811007 0.930761 0.110560
#
# Coordination Sequence:
#
# PCOD8038021 Si02
#       7
#     2   2   2   2   2   2   2
#     4   9  18  34  57  87 109 148 191 229 287 333
#     4   9  19  33  58  86 113 149 190 232 290 336
#     4  10  21  37  58  82 116 155 187 231 288 338
#     4  10  17  33  58  85 113 148 191 234 281 336
#     4  10  19  33  60  87 113 151 190 234 286 336
#     4  10  20  37  58  84 115 153 192 229 284 346
#     4  10  21  36  60  84 113 151 194 232 280 346
#
# _framework density 25.112316
#
# number of rings (size 3 to 8) (size 9 to 14) (size 15 to 20)
#    0.857    1.429    1.429    3.857    0.000    1.143 
#    0.000    3.571    6.286    0.000    0.000    0.000 
#    0.000    0.000    0.000    0.000    0.000    0.000 
#
# Total GULP energy -173516.871749 kJ/mol
# GULP energy per Si atom -12394.062268 kJ/mol
# Density = 2.505516 g / cm^3
# Si number density = 25.112316 Si / 1000 Ang^3
#
#
#
# Elastic Constant Matrix: (Units=GPa)
#
#
# Indices 1 2 3 4 5 6 
#
# 1 82.9823 14.8984 26.4826 7.5496 6.3125 34.2365
# 2 14.8984 74.6264 16.6686 0.1705 6.5994 26.1402
# 3 26.4826 16.6686 130.3754 28.2568 6.9000 22.9505
# 4 7.5496 0.1705 28.2568 28.8955 7.6255 4.8299
# 5 6.3125 6.5994 6.9000 7.6255 23.6332 2.2493
# 6 34.2365 26.1402 22.9505 4.8299 2.2493 43.7330
#
#
#
# Elastic Compliance Matrix: (Units=1/GPa)
#
#
# Indices 1 2 3 4 5 6 
#
# 1 0.018501 0.002120 -0.001151 -0.000250 -0.003696 -0.014929
# 2 0.002120 0.017862 -0.001186 0.003892 -0.005334 -0.011870
# 3 -0.001151 -0.001186 0.010666 -0.009893 0.000997 -0.002945
# 4 -0.000250 0.003892 -0.009893 0.048153 -0.013520 -0.001562
# 5 -0.003696 -0.005334 0.000997 -0.013520 0.048427 0.004561
# 6 -0.014929 -0.011870 -0.002945 -0.001562 0.004561 0.043132
#
#
# Mechanical properties :
#
#
# Convention : Reuss Voigt Hill
#
# Bulk Modulus (GPa) = 21.46202 44.89814 33.18008
# Shear Modulus (GPa) = 24.66628 34.58130 29.62379
#
# Velocity S-wave (km/s) = 3.13747 3.71491 3.43833
# Velocity P-wave (km/s) = 4.65724 6.02648 5.38555
#
# Compressibility (1/GPa) = 0.04659394
#
# Stress axis : x y z
#
# Youngs Moduli (GPa) = 54.05213 55.98408 93.76011
#
# Poissons Ratio (x) = -0.11871 0.10795
# Poissons Ratio (y) = -0.11461 0.11122
# Poissons Ratio (z) = 0.06223 0.06641
#
# Static dielectric constant tensor:
#      x y z
#    x 4.075240 0.157860 -0.006060 
#    y 0.157860 4.733740 0.469060 
#    z -0.006060 0.469060 4.727380 
# 
# 
# High freq. dielectric constant tensor:
#      x y z
#    x 1.975830 0.011050 -0.000380 
#    y 0.011050 2.020790 0.023330 
#    z -0.000380 0.023330 2.009850 
# 
# From -- ./inp_files/198378.got.cif
#   From: 2010.06.25/outbox.cif.g09.slc.cpg/sg2_100_cif.got.tgz:198378.got - 2010.06.27 13:26:56.
