data_PCOD8038880
_publ_section_title
;
Structure prediction by ZEFSAII (Michael W. Deem and Ramdas Pophale) SiO2 
 PCOD8038880
Probable space group: P -1
;
_chemical_formula_sum "Si O2"
_cell_formula_units_Z 14
_cell_length_a 14.273584
_cell_length_b 16.360116
_cell_length_c 14.168355
_cell_angle_alpha 40.124124
_cell_angle_beta 159.118380
_cell_angle_gamma 143.395027
_cell_volume 701.544843
_symmetry_space_group_name_H-M "P -1"
_symmetry_group_IT_number 2
_symmetry_cell_setting 'triclinic'
loop_
_space_group_symop_operation_xyz
x,y,z
-x,-y,-z
loop_
_atom_site_type_symbol
_atom_site_label
_atom_site_fract_x
_atom_site_fract_y
_atom_site_fract_z
Si Si1 0.120354 0.219020 0.894671
Si Si2 0.480941 0.429386 0.896075
Si Si3 0.690710 0.957729 0.646225
Si Si4 0.920294 0.427834 0.587278
Si Si5 0.369213 0.994150 0.659585
Si Si6 0.329112 0.087872 0.727655
Si Si7 0.289898 0.183830 0.794524
O O1 0.356143 0.344430 0.950122
O O2 0.879377 0.268510 0.670388
O O3 0.270912 0.178028 0.160924
O O4 0.991008 0.091393 0.813509
O O5 0.354687 0.547586 0.655058
O O6 0.409078 0.331204 0.824987
O O7 0.819404 0.503026 0.156210
O O8 0.564993 0.932603 0.444826
O O9 0.500000 0.000000 0.500000
O O10 0.000000 0.500000 0.500000
O O11 0.410954 0.116991 0.667672
O O12 0.051158 0.879265 0.464709
O O13 0.588231 0.920108 0.949089
O O14 0.389892 0.209996 0.754084
O O15 0.000000 0.000000 0.500000
O O16 0.500000 0.000000 0.000000
#
# Coordination Sequence:
#
# PCOD8038880 Si02
#       7
#     2   2   2   2   2   2   2
#     4  10  22  35  45  73 102 133 175 203 243 298
#     4  11  20  34  54  73  98 135 165 213 254 289
#     4  11  23  32  52  71 104 145 167 203 241 304
#     4  10  22  34  52  70  98 135 170 211 252 288
#     4  10  19  33  48  73 106 134 164 200 254 301
#     4   8  16  29  48  71  99 130 155 205 255 301
#     4  10  18  31  52  76 102 125 168 207 255 305
#
# _framework density 19.955957999999999
#
# number of rings (size 3 to 8) (size 9 to 14) (size 15 to 20)
#    0.000    2.000    1.429    3.429   10.000    0.000 
#    0.000    0.000    0.000    0.000    0.000    2.000 
#    0.000    0.000    0.000    0.000    0.000    0.000 
#
# Total GULP energy -173439.575453 kJ/mol
# GULP energy per Si atom -12388.541104 kJ/mol
# Density = 1.991054 g / cm^3
# Si number density = 19.955958 Si / 1000 Ang^3
#
#
#
# Elastic Constant Matrix: (Units=GPa)
#
#
# Indices 1 2 3 4 5 6 
#
# 1 117.1044 26.1350 24.0459 -13.4163 -20.6258 -35.1800
# 2 26.1350 63.4035 20.6708 -16.5044 -7.8520 -25.4321
# 3 24.0459 20.6708 109.6579 -10.6863 -0.7726 -7.9810
# 4 -13.4163 -16.5044 -10.6863 34.1032 -3.1903 3.5601
# 5 -20.6258 -7.8520 -0.7726 -3.1903 28.5693 5.8874
# 6 -35.1800 -25.4321 -7.9810 3.5601 5.8874 32.6114
#
#
#
# Elastic Compliance Matrix: (Units=1/GPa)
#
#
# Indices 1 2 3 4 5 6 
#
# 1 0.015644 0.003971 -0.002242 0.006493 0.009548 0.016991
# 2 0.003971 0.028712 -0.003310 0.012687 0.007312 0.023159
# 3 -0.002242 -0.003310 0.010131 0.000772 -0.001694 -0.002299
# 4 0.006493 0.012687 0.000772 0.038050 0.010157 0.011099
# 5 0.009548 0.007312 -0.001694 0.010157 0.043634 0.006602
# 6 0.016991 0.023159 -0.002299 0.011099 0.006602 0.064088
#
#
# Mechanical properties :
#
#
# Convention : Reuss Voigt Hill
#
# Bulk Modulus (GPa) = 19.48402 47.98545 33.73473
# Shear Modulus (GPa) = 22.67277 33.67770 28.17523
#
# Velocity S-wave (km/s) = 3.37433 4.11250 3.76156
# Velocity P-wave (km/s) = 4.99661 6.82994 5.98390
#
# Compressibility (1/GPa) = 0.05132411
#
# Stress axis : x y z
#
# Youngs Moduli (GPa) = 63.92379 34.82875 98.70889
#
# Poissons Ratio (x) = -0.13829 0.22132
# Poissons Ratio (y) = -0.25382 0.32668
# Poissons Ratio (z) = 0.14333 0.11527
#
# Static dielectric constant tensor:
#      x y z
#    x 4.177090 -1.803060 0.787800 
#    y -1.803060 9.848060 -3.973960 
#    z 0.787800 -3.973960 6.847630 
# 
# 
# High freq. dielectric constant tensor:
#      x y z
#    x 1.753440 -0.041040 0.006470 
#    y -0.041040 1.745900 0.008070 
#    z 0.006470 0.008070 1.808440 
# 
# From -- ./inp_files/32465.got.cif
#   From: 2010.06.25/outbox.cif.g09.slc.cpg/sg2_17_cif.got.tgz:32465.got - 2010.06.27 13:26:56.
