data_PCOD8038598
_publ_section_title
;
Structure prediction by ZEFSAII (Michael W. Deem and Ramdas Pophale) SiO2 
 PCOD8038598
Probable space group: P -1
;
_chemical_formula_sum "Si O2"
_cell_formula_units_Z 16
_cell_length_a 8.421876
_cell_length_b 14.005497
_cell_length_c 9.454633
_cell_angle_alpha 102.412034
_cell_angle_beta 96.902498
_cell_angle_gamma 134.083145
_cell_volume 722.227176
_symmetry_space_group_name_H-M "P -1"
_symmetry_group_IT_number 2
_symmetry_cell_setting 'triclinic'
loop_
_space_group_symop_operation_xyz
x,y,z
-x,-y,-z
loop_
_atom_site_type_symbol
_atom_site_label
_atom_site_fract_x
_atom_site_fract_y
_atom_site_fract_z
Si Si1 0.477111 0.286708 0.595871
Si Si2 0.460965 0.882127 0.872749
Si Si3 0.339400 0.344741 0.359913
Si Si4 0.126824 0.199715 0.761955
Si Si5 0.412890 0.052351 0.418369
Si Si6 0.255946 0.450051 0.943582
Si Si7 0.068813 0.379713 0.208642
Si Si8 0.582134 0.734044 0.933467
O O1 0.293384 0.241155 0.440097
O O2 0.347915 0.251507 0.717961
O O3 0.538080 0.201160 0.554152
O O4 0.736064 0.454894 0.661284
O O5 0.514911 0.928778 0.730545
O O6 0.622363 0.867547 0.948972
O O7 0.199367 0.714771 0.809514
O O8 0.500000 0.000000 0.000000
O O9 0.500000 0.500000 0.500000
O O10 0.101234 0.288985 0.259598
O O11 0.456753 0.345110 0.238840
O O12 0.111105 0.311609 0.778524
O O13 0.183583 0.194210 0.929209
O O14 0.868554 0.048407 0.633253
O O15 0.500000 0.000000 0.500000
O O16 0.330348 0.591880 0.942030
O O17 0.500000 0.500000 0.000000
O O18 0.097276 0.385930 0.045740
#
# Coordination Sequence:
#
# PCOD8038598 Si02
#       8
#     2   2   2   2   2   2   2   2
#     4  11  23  45  70 102 132 183 240 281 349 408
#     4  12  30  47  65 102 145 187 229 285 354 414
#     4  10  20  39  69 104 137 172 230 289 337 405
#     4  11  23  44  76 100 135 182 232 288 340 419
#     4  12  30  49  64  99 144 187 230 285 356 410
#     4  10  17  38  71 106 128 164 233 284 337 401
#     4  11  22  42  72 103 138 176 225 290 346 409
#     4  11  22  44  73 103 136 182 238 282 341 415
#
# _framework density 22.153693000000001
#
# number of rings (size 3 to 8) (size 9 to 14) (size 15 to 20)
#    0.000    1.000    6.250    1.875    3.500    3.500 
#    0.000    0.000    0.000    0.000    0.000    0.000 
#    0.000    0.000    0.000    0.000    0.000    0.000 
#
# Total GULP energy -198235.785211 kJ/mol
# GULP energy per Si atom -12389.736576 kJ/mol
# Density = 2.210327 g / cm^3
# Si number density = 22.153693 Si / 1000 Ang^3
#
#
#
# Elastic Constant Matrix: (Units=GPa)
#
#
# Indices 1 2 3 4 5 6 
#
# 1 86.9637 48.6963 43.3397 1.3664 2.3195 -28.1305
# 2 48.6963 99.8012 39.4933 0.2336 4.5334 -12.2339
# 3 43.3397 39.4933 109.7977 -7.6102 -9.0463 -17.6429
# 4 1.3664 0.2336 -7.6102 36.1083 -5.5182 0.3169
# 5 2.3195 4.5334 -9.0463 -5.5182 21.0876 5.9050
# 6 -28.1305 -12.2339 -17.6429 0.3169 5.9050 49.7731
#
#
#
# Elastic Compliance Matrix: (Units=1/GPa)
#
#
# Indices 1 2 3 4 5 6 
#
# 1 0.021052 -0.006832 -0.005100 -0.002880 -0.006360 0.009184
# 2 -0.006832 0.014640 -0.003097 -0.001053 -0.003745 -0.000910
# 3 -0.005100 -0.003097 0.013193 0.004211 0.007972 0.000060
# 4 -0.002880 -0.001053 0.004211 0.030368 0.010820 -0.001871
# 5 -0.006360 -0.003745 0.007972 0.010820 0.057582 -0.008590
# 6 0.009184 -0.000910 0.000060 -0.001871 -0.008590 0.026110
#
#
# Mechanical properties :
#
#
# Convention : Reuss Voigt Hill
#
# Bulk Modulus (GPa) = 53.11573 62.18015 57.64794
# Shear Modulus (GPa) = 25.09020 32.39601 28.74311
#
# Velocity S-wave (km/s) = 3.36899 3.82819 3.60591
# Velocity P-wave (km/s) = 6.25792 6.90425 6.58901
#
# Compressibility (1/GPa) = 0.01882681
#
# Stress axis : x y z
#
# Youngs Moduli (GPa) = 47.50053 68.30480 75.79738
#
# Poissons Ratio (x) = 0.46669 0.38658
# Poissons Ratio (y) = 0.32455 0.23473
# Poissons Ratio (z) = 0.24226 0.21153
#
# Static dielectric constant tensor:
#      x y z
#    x 3.916130 -0.380010 0.048320 
#    y -0.380010 4.402090 -0.036040 
#    z 0.048320 -0.036040 4.163660 
# 
# 
# High freq. dielectric constant tensor:
#      x y z
#    x 1.857200 -0.018010 -0.008960 
#    y -0.018010 1.870410 -0.002380 
#    z -0.008960 -0.002380 1.879080 
# 
# From -- ./inp_files/207824.got.cif
#   From: 2010.06.25/outbox.cif.g09.slc.cpg/sg2_104_cif.got.tgz:207824.got - 2010.06.27 13:26:56.
