data_PCOD8038427
_publ_section_title
;
Structure prediction by ZEFSAII (Michael W. Deem and Ramdas Pophale) SiO2 
 PCOD8038427
Probable space group: P -1
;
_chemical_formula_sum "Si O2"
_cell_formula_units_Z 16
_cell_length_a 11.534445
_cell_length_b 19.852905
_cell_length_c 14.403120
_cell_angle_alpha 29.297430
_cell_angle_beta 131.809745
_cell_angle_gamma 149.946841
_cell_volume 754.124002
_symmetry_space_group_name_H-M "P -1"
_symmetry_group_IT_number 2
_symmetry_cell_setting 'triclinic'
loop_
_space_group_symop_operation_xyz
x,y,z
-x,-y,-z
loop_
_atom_site_type_symbol
_atom_site_label
_atom_site_fract_x
_atom_site_fract_y
_atom_site_fract_z
Si Si1 0.534304 0.915613 0.905247
Si Si2 0.922599 0.230923 0.169230
Si Si3 0.848171 0.987078 0.140785
Si Si4 0.445934 0.606688 0.520460
Si Si5 0.300449 0.503502 0.203300
Si Si6 0.743840 0.584691 0.048819
Si Si7 0.563433 0.231525 0.500542
Si Si8 0.784267 0.653009 0.459887
O O1 0.252197 0.764391 0.965876
O O2 0.662237 0.140832 0.658424
O O3 0.695172 0.980499 0.999869
O O4 0.502209 0.767117 0.994457
O O5 0.087539 0.391254 0.151399
O O6 0.739984 0.979477 0.406226
O O7 0.099681 0.307888 0.089527
O O8 0.675388 0.844498 0.309613
O O9 0.932328 0.900052 0.242312
O O10 0.101823 0.236491 0.002359
O O11 0.550106 0.531462 0.701989
O O12 0.344734 0.626080 0.528771
O O13 0.208783 0.423898 0.542334
O O14 0.163371 0.400698 0.355335
O O15 0.667098 0.378778 0.288070
O O16 0.500000 0.500000 0.000000
O O17 0.500000 0.500000 0.500000
#
# Coordination Sequence:
#
# PCOD8038427 Si02
#       8
#     2   2   2   2   2   2   2   2
#     4  10  20  40  64  94 124 167 205 249 320 372
#     4  10  24  39  65  90 127 167 203 253 315 365
#     4  10  18  38  64  91 126 161 203 260 307 367
#     4  10  17  36  64  96 117 157 218 258 300 369
#     4  10  17  35  66  92 122 163 209 251 310 373
#     4  12  26  42  60  94 131 163 209 261 307 362
#     4  10  25  38  63  96 122 167 210 250 311 369
#     4   8  16  30  62  95 116 153 213 254 297 368
#
# _framework density 21.216670000000001
#
# number of rings (size 3 to 8) (size 9 to 14) (size 15 to 20)
#    0.750    1.500    5.000    1.125    3.500    3.500 
#    0.000    1.250    0.000    0.000    0.000    0.000 
#    0.000    0.000    0.000    0.000    0.000    0.000 
#
# Total GULP energy -198226.873541 kJ/mol
# GULP energy per Si atom -12389.179596 kJ/mol
# Density = 2.116838 g / cm^3
# Si number density = 21.216670 Si / 1000 Ang^3
#
#
#
# Elastic Constant Matrix: (Units=GPa)
#
#
# Indices 1 2 3 4 5 6 
#
# 1 27.3709 35.3994 28.6271 -7.7478 13.0602 -11.9859
# 2 35.3994 152.2245 46.1794 -0.4429 13.2425 -22.0034
# 3 28.6271 46.1794 129.1139 -5.4591 26.2407 -1.5877
# 4 -7.7478 -0.4429 -5.4591 21.9699 2.3238 0.3542
# 5 13.0602 13.2425 26.2407 2.3238 32.7208 -1.7852
# 6 -11.9859 -22.0034 -1.5877 0.3542 -1.7852 21.4613
#
#
#
# Elastic Compliance Matrix: (Units=1/GPa)
#
#
# Indices 1 2 3 4 5 6 
#
# 1 0.109131 -0.012898 -0.011464 0.037785 -0.029439 0.043805
# 2 -0.012898 0.010299 -0.001561 -0.005081 0.002787 0.003556
# 3 -0.011464 -0.001561 0.011642 -0.000585 -0.004497 -0.007507
# 4 0.037785 -0.005081 -0.000585 0.060077 -0.016085 0.013520
# 5 -0.029439 0.002787 -0.004497 -0.016085 0.045394 -0.009875
# 6 0.043805 0.003556 -0.007507 0.013520 -0.009875 0.073106
#
#
# Mechanical properties :
#
#
# Convention : Reuss Voigt Hill
#
# Bulk Modulus (GPa) = 12.62213 58.79125 35.70669
# Shear Modulus (GPa) = 12.88974 28.46395 20.67684
#
# Velocity S-wave (km/s) = 2.46748 3.66674 3.12518
# Velocity P-wave (km/s) = 3.75234 6.75993 5.46703
#
# Compressibility (1/GPa) = 0.07922596
#
# Stress axis : x y z
#
# Youngs Moduli (GPa) = 9.16326 97.09637 85.89366
#
# Poissons Ratio (x) = 1.25232 0.98471
# Poissons Ratio (y) = 0.11818 0.13412
# Poissons Ratio (z) = 0.10505 0.15161
#
# Static dielectric constant tensor:
#      x y z
#    x 3.778960 -0.601810 0.266180 
#    y -0.601810 4.195150 -0.012280 
#    z 0.266180 -0.012280 4.045730 
# 
# 
# High freq. dielectric constant tensor:
#      x y z
#    x 1.797610 -0.022650 0.023000 
#    y -0.022650 1.832500 -0.000350 
#    z 0.023000 -0.000350 1.831320 
# 
# From -- ./inp_files/524053.got.cif
#   From: 2010.06.25/outbox.cif.g09.slc.cpg/sg2_263_cif.got.tgz:524053.got - 2010.06.27 13:26:56.
