data_PCOD8038716
_publ_section_title
;
Structure prediction by ZEFSAII (Michael W. Deem and Ramdas Pophale) SiO2 
 PCOD8038716
Probable space group: P -1
;
_chemical_formula_sum "Si O2"
_cell_formula_units_Z 16
_cell_length_a 19.487512
_cell_length_b 19.112644
_cell_length_c 10.181337
_cell_angle_alpha 35.824074
_cell_angle_beta 133.524312
_cell_angle_gamma 157.988540
_cell_volume 796.753432
_symmetry_space_group_name_H-M "P -1"
_symmetry_group_IT_number 2
_symmetry_cell_setting 'triclinic'
loop_
_space_group_symop_operation_xyz
x,y,z
-x,-y,-z
loop_
_atom_site_type_symbol
_atom_site_label
_atom_site_fract_x
_atom_site_fract_y
_atom_site_fract_z
Si Si1 0.132737 0.394428 0.700384
Si Si2 0.930979 0.235566 0.948374
Si Si3 0.750692 0.992149 0.699623
Si Si4 0.542544 0.418041 0.236965
Si Si5 0.340330 0.847114 0.334487
Si Si6 0.730637 0.248418 0.321109
Si Si7 0.803830 0.847502 0.431664
Si Si8 0.584752 0.606835 0.247265
O O1 0.278471 0.444201 0.812039
O O2 0.243001 0.638292 0.433654
O O3 0.031650 0.293628 0.862416
O O4 0.970382 0.189260 0.688892
O O5 0.761011 0.137604 0.833144
O O6 0.074605 0.464615 0.886531
O O7 0.836092 0.024403 0.225961
O O8 0.649191 0.870179 0.608298
O O9 0.759935 0.139366 0.529754
O O10 0.630627 0.780064 0.967448
O O11 0.586484 0.487433 0.342709
O O12 0.500000 0.500000 0.000000
O O13 0.325947 0.774865 0.570986
O O14 0.569329 0.111050 0.210844
O O15 0.744476 0.758269 0.338109
O O16 0.629609 0.609789 0.652096
O O17 0.000000 0.000000 0.500000
#
# Coordination Sequence:
#
# PCOD8038716 Si02
#       8
#     2   2   2   2   2   2   2   2
#     4  11  19  33  58  90 125 153 186 243 308 350
#     4  11  21  35  56  91 120 148 199 246 294 351
#     4  11  19  36  61  92 126 151 189 241 301 366
#     4  10  24  36  58  87 125 162 191 240 296 361
#     4  10  18  30  53  87 126 150 180 242 302 353
#     4  10  18  29  56  89 121 151 181 237 310 351
#     4  11  25  41  65  80 114 165 203 249 283 343
#     4  10  24  42  56  87 120 155 207 238 288 345
#
# _framework density 20.081493999999999
#
# number of rings (size 3 to 8) (size 9 to 14) (size 15 to 20)
#    0.000    1.500    5.000    0.750    3.500    5.000 
#    0.000    0.000    0.000    1.500    0.000    0.000 
#    0.000    0.000    0.000    0.000    0.000    0.000 
#
# Total GULP energy -198250.751584 kJ/mol
# GULP energy per Si atom -12390.671974 kJ/mol
# Density = 2.003579 g / cm^3
# Si number density = 20.081494 Si / 1000 Ang^3
#
#
#
# Elastic Constant Matrix: (Units=GPa)
#
#
# Indices 1 2 3 4 5 6 
#
# 1 74.2402 50.0186 33.5570 4.8007 22.7773 0.6748
# 2 50.0186 190.8939 59.0142 -16.7064 18.0879 6.7445
# 3 33.5570 59.0142 86.5619 -11.2453 19.9490 -2.2989
# 4 4.8007 -16.7064 -11.2453 28.9799 -1.0572 15.8356
# 5 22.7773 18.0879 19.9490 -1.0572 20.2928 5.1898
# 6 0.6748 6.7445 -2.2989 15.8356 5.1898 36.2469
#
#
#
# Elastic Compliance Matrix: (Units=1/GPa)
#
#
# Indices 1 2 3 4 5 6 
#
# 1 0.027753 -0.005766 -0.002263 -0.016002 -0.027522 0.011344
# 2 -0.005766 0.008307 -0.003621 0.007568 0.004457 -0.005613
# 3 -0.002263 -0.003621 0.018353 0.003859 -0.012584 0.001996
# 4 -0.016002 0.007568 0.003859 0.059859 0.018112 -0.029610
# 5 -0.027522 0.004457 -0.012584 0.018112 0.095310 -0.022674
# 6 0.011344 -0.005613 0.001996 -0.029610 -0.022674 0.044731
#
#
# Mechanical properties :
#
#
# Convention : Reuss Voigt Hill
#
# Bulk Modulus (GPa) = 32.14093 70.76396 51.45245
# Shear Modulus (GPa) = 17.36216 31.04433 24.20324
#
# Velocity S-wave (km/s) = 2.94357 3.93608 3.47544
# Velocity P-wave (km/s) = 5.25289 7.48144 6.46393
#
# Compressibility (1/GPa) = 0.03111297
#
# Stress axis : x y z
#
# Youngs Moduli (GPa) = 36.03260 120.37853 54.48766
#
# Poissons Ratio (x) = 0.69408 0.12330
# Poissons Ratio (y) = 0.20776 0.19731
# Poissons Ratio (z) = 0.08154 0.43591
#
# Static dielectric constant tensor:
#      x y z
#    x 3.772330 -0.444420 0.335610 
#    y -0.444420 4.519960 -0.389950 
#    z 0.335610 -0.389950 3.461380 
# 
# 
# High freq. dielectric constant tensor:
#      x y z
#    x 1.745480 -0.001620 0.040940 
#    y -0.001620 1.818900 -0.019880 
#    z 0.040940 -0.019880 1.753730 
# 
# From -- ./inp_files/472719.got.cif
#   From: 2010.06.25/outbox.cif.g09.slc.cpg/sg2_237_cif.got.tgz:472719.got - 2010.06.27 13:26:56.
