data_PCOD8038789
_publ_section_title
;
Structure prediction by ZEFSAII (Michael W. Deem and Ramdas Pophale) SiO2 
 PCOD8038789
Probable space group: P -1
;
_chemical_formula_sum "Si O2"
_cell_formula_units_Z 16
_cell_length_a 15.751621
_cell_length_b 11.919048
_cell_length_c 9.171649
_cell_angle_alpha 131.179524
_cell_angle_beta 113.575064
_cell_angle_gamma 46.984807
_cell_volume 943.807743
_symmetry_space_group_name_H-M "P -1"
_symmetry_group_IT_number 2
_symmetry_cell_setting 'triclinic'
loop_
_space_group_symop_operation_xyz
x,y,z
-x,-y,-z
loop_
_atom_site_type_symbol
_atom_site_label
_atom_site_fract_x
_atom_site_fract_y
_atom_site_fract_z
Si Si1 0.561592 0.759182 0.756722
Si Si2 0.301665 0.142022 0.258529
Si Si3 0.123112 0.533987 0.020111
Si Si4 0.686740 0.423882 0.740199
Si Si5 0.274984 0.223736 0.637448
Si Si6 0.310876 0.922123 0.602953
Si Si7 0.856756 0.768510 0.028003
Si Si8 0.466426 0.211842 0.913944
O O1 0.632888 0.788302 0.718226
O O2 0.637165 0.533896 0.645505
O O3 0.440359 0.829543 0.664443
O O4 0.545242 0.854971 0.988209
O O5 0.255194 0.242114 0.467299
O O6 0.397970 0.915056 0.148579
O O7 0.190942 0.192989 0.136303
O O8 0.169359 0.420738 0.803220
O O9 0.149157 0.390232 0.042913
O O10 0.188571 0.622694 0.179672
O O11 0.987361 0.703406 0.057356
O O12 0.701927 0.234207 0.590520
O O13 0.592297 0.566786 0.923360
O O14 0.398513 0.178004 0.721785
O O15 0.274910 0.055744 0.553817
O O16 0.221772 0.038334 0.772605
#
# Coordination Sequence:
#
# PCOD8038789 Si02
#       8
#     2   2   2   2   2   2   2   2
#     4  10  18  30  54  75 102 127 166 207 242 289
#     4  12  18  31  54  79 100 131 166 206 248 291
#     4   9  19  37  52  76  94 131 172 214 244 278
#     4   9  19  32  54  72 105 128 165 205 250 287
#     4  10  21  31  52  75 105 131 165 201 252 297
#     4  11  19  33  51  78 103 133 160 203 250 304
#     4  10  19  33  58  73  96 127 177 212 240 285
#     4   9  18  32  50  76  99 133 165 202 243 291
#
# _framework density 16.952604000000001
#
# number of rings (size 3 to 8) (size 9 to 14) (size 15 to 20)
#    0.750    1.250    3.750    1.875    0.000    1.000 
#    0.000    0.625    5.500    0.750    0.000    0.000 
#    0.000    0.000    0.000    0.000    0.000    0.000 
#
# Total GULP energy -198322.492341 kJ/mol
# GULP energy per Si atom -12395.155771 kJ/mol
# Density = 1.691402 g / cm^3
# Si number density = 16.952604 Si / 1000 Ang^3
#
#
#
# Elastic Constant Matrix: (Units=GPa)
#
#
# Indices 1 2 3 4 5 6 
#
# 1 55.8949 31.1974 33.0908 3.5647 2.3525 -15.9884
# 2 31.1974 58.8143 40.0027 0.3583 1.2381 -14.6270
# 3 33.0908 40.0027 91.7982 -5.1653 0.5131 2.3448
# 4 3.5647 0.3583 -5.1653 25.5256 9.7748 0.2001
# 5 2.3525 1.2381 0.5131 9.7748 26.1047 -2.4329
# 6 -15.9884 -14.6270 2.3448 0.2001 -2.4329 25.2811
#
#
#
# Elastic Compliance Matrix: (Units=1/GPa)
#
#
# Indices 1 2 3 4 5 6 
#
# 1 0.032956 -0.005888 -0.010225 -0.007526 0.002066 0.018642
# 2 -0.005888 0.033060 -0.012901 -0.003133 0.001956 0.016814
# 3 -0.010225 -0.012901 0.021037 0.007172 -0.003079 -0.016235
# 4 -0.007526 -0.003133 0.007172 0.048878 -0.018493 -0.009404
# 5 0.002066 0.001956 -0.003079 -0.018493 0.045691 0.007267
# 6 0.018642 0.016814 -0.016235 -0.009404 0.007267 0.063353
#
#
# Mechanical properties :
#
#
# Convention : Reuss Voigt Hill
#
# Bulk Modulus (GPa) = 34.45323 46.12103 40.28713
# Shear Modulus (GPa) = 15.99101 22.19671 19.09386
#
# Velocity S-wave (km/s) = 3.07461 3.62240 3.35969
# Velocity P-wave (km/s) = 5.74210 6.69034 6.23428
#
# Compressibility (1/GPa) = 0.02902485
#
# Stress axis : x y z
#
# Youngs Moduli (GPa) = 30.34348 30.24846 47.53625
#
# Poissons Ratio (x) = 0.17809 0.48607
# Poissons Ratio (y) = 0.17865 0.61325
# Poissons Ratio (z) = 0.31027 0.39022
#
# Static dielectric constant tensor:
#      x y z
#    x 2.975270 -0.209900 -0.045830 
#    y -0.209900 3.187680 0.018300 
#    z -0.045830 0.018300 3.025330 
# 
# 
# High freq. dielectric constant tensor:
#      x y z
#    x 1.629660 -0.019450 -0.001400 
#    y -0.019450 1.649010 -0.000860 
#    z -0.001400 -0.000860 1.644670 
# 
# From -- ./inp_files/177829.got.cif
#   From: 2010.06.25/outbox.cif.g09.slc.cpg/sg2_89_cif.got.tgz:177829.got - 2010.06.27 13:26:56.
