data_PCOD8038808
_publ_section_title
;
Structure prediction by ZEFSAII (Michael W. Deem and Ramdas Pophale) SiO2 
 PCOD8038808
Probable space group: P -1
;
_chemical_formula_sum "Si O2"
_cell_formula_units_Z 16
_cell_length_a 18.048104
_cell_length_b 16.345034
_cell_length_c 10.182403
_cell_angle_alpha 127.980790
_cell_angle_beta 147.622162
_cell_angle_gamma 32.933697
_cell_volume 828.256819
_symmetry_space_group_name_H-M "P -1"
_symmetry_group_IT_number 2
_symmetry_cell_setting 'triclinic'
loop_
_space_group_symop_operation_xyz
x,y,z
-x,-y,-z
loop_
_atom_site_type_symbol
_atom_site_label
_atom_site_fract_x
_atom_site_fract_y
_atom_site_fract_z
Si Si1 0.923875 0.706282 0.332824
Si Si2 0.055527 0.184700 0.795575
Si Si3 0.124601 0.238977 0.216098
Si Si4 0.695913 0.447581 0.681011
Si Si5 0.648923 0.954117 0.383545
Si Si6 0.580398 0.738774 0.784086
Si Si7 0.423302 0.863729 0.942930
Si Si8 0.811492 0.583814 0.403097
O O1 0.968854 0.730033 0.283949
O O2 0.808711 0.854130 0.400845
O O3 0.141369 0.547392 0.573873
O O4 0.792191 0.674361 0.089440
O O5 0.814111 0.307515 0.610084
O O6 0.190881 0.163949 0.094819
O O7 0.179865 0.006066 0.773389
O O8 0.229415 0.109961 0.359563
O O9 0.204845 0.310448 0.418105
O O10 0.867744 0.376043 0.982159
O O11 0.500000 0.500000 0.500000
O O12 0.626609 0.596908 0.659629
O O13 0.488890 0.948387 0.126384
O O14 0.523496 0.133547 0.360479
O O15 0.420526 0.820280 0.749045
O O16 0.583122 0.702502 0.108267
O O17 0.000000 0.500000 0.500000
#
# Coordination Sequence:
#
# PCOD8038808 Si02
#       8
#     2   2   2   2   2   2   2   2
#     4  11  17  32  54  88 119 136 172 220 270 338
#     4  10  21  36  52  83 117 135 178 234 272 312
#     4   9  20  34  51  75 109 151 177 211 276 319
#     4  10  23  41  56  70 106 153 193 226 266 317
#     4  10  18  30  56  84 116 142 168 213 277 345
#     4  11  18  33  58  81 107 151 181 203 279 334
#     4  10  18  32  53  86 118 140 169 214 274 343
#     4  11  17  28  52  85 119 145 171 201 268 349
#
# _framework density 19.317679999999999
#
# number of rings (size 3 to 8) (size 9 to 14) (size 15 to 20)
#    0.750    1.000    7.500    0.750    0.000    4.000 
#    2.250    1.250    0.000    0.750    0.000    0.000 
#    0.000    0.000    0.000    0.000    0.000    0.000 
#
# Total GULP energy -198238.616586 kJ/mol
# GULP energy per Si atom -12389.913537 kJ/mol
# Density = 1.927371 g / cm^3
# Si number density = 19.317680 Si / 1000 Ang^3
#
#
#
# Elastic Constant Matrix: (Units=GPa)
#
#
# Indices 1 2 3 4 5 6 
#
# 1 82.7999 31.4713 23.0274 -20.5166 -20.4565 -5.8590
# 2 31.4713 107.5529 18.9643 -37.5429 -2.9900 2.1658
# 3 23.0274 18.9643 29.2731 -19.0024 -13.3634 11.4186
# 4 -20.5166 -37.5429 -19.0024 23.9450 3.6370 -9.0299
# 5 -20.4565 -2.9900 -13.3634 3.6370 29.8622 -6.9436
# 6 -5.8590 2.1658 11.4186 -9.0299 -6.9436 38.1856
#
#
#
# Elastic Compliance Matrix: (Units=1/GPa)
#
#
# Indices 1 2 3 4 5 6 
#
# 1 0.021778 0.002003 -0.001785 0.022630 0.014288 0.011711
# 2 0.002003 0.027575 0.024018 0.065972 0.008888 0.008778
# 3 -0.001785 0.024018 0.118618 0.124086 0.038995 -0.000672
# 4 0.022630 0.065972 0.124086 0.268470 0.053263 0.035797
# 5 0.014288 0.008888 0.038995 0.053263 0.058199 0.013205
# 6 0.011711 0.008778 -0.000672 0.035797 0.013205 0.038554
#
#
# Mechanical properties :
#
#
# Convention : Reuss Voigt Hill
#
# Bulk Modulus (GPa) = 4.62011 40.72798 22.67404
# Shear Modulus (GPa) = 8.97874 28.14276 18.56075
#
# Velocity S-wave (km/s) = 2.15825 3.82100 3.10307
# Velocity P-wave (km/s) = 2.93386 6.37148 4.96000
#
# Compressibility (1/GPa) = 0.21644529
#
# Stress axis : x y z
#
# Youngs Moduli (GPa) = 45.91685 36.26415 8.43041
#
# Poissons Ratio (x) = -0.07263 0.01505
# Poissons Ratio (y) = -0.09197 -0.20249
# Poissons Ratio (z) = 0.08195 -0.87101
#
# Static dielectric constant tensor:
#      x y z
#    x 3.249520 -0.122940 -0.324570 
#    y -0.122940 3.812790 -0.312230 
#    z -0.324570 -0.312230 3.143180 
# 
# 
# High freq. dielectric constant tensor:
#      x y z
#    x 1.725360 -0.009370 -0.037090 
#    y -0.009370 1.767290 -0.027930 
#    z -0.037090 -0.027930 1.700920 
# 
# From -- ./inp_files/314043.got.cif
#   From: 2010.06.25/outbox.cif.g09.slc.cpg/sg2_158_cif.got.tgz:314043.got - 2010.06.27 13:26:56.
