data_PCOD8038743
_publ_section_title
;
Structure prediction by ZEFSAII (Michael W. Deem and Ramdas Pophale) SiO2 
 PCOD8038743
Probable space group: P -1
;
_chemical_formula_sum "Si O2"
_cell_formula_units_Z 16
_cell_length_a 22.656377
_cell_length_b 6.266855
_cell_length_c 11.766381
_cell_angle_alpha 108.160967
_cell_angle_beta 136.143828
_cell_angle_gamma 46.888619
_cell_volume 788.979304
_symmetry_space_group_name_H-M "P -1"
_symmetry_group_IT_number 2
_symmetry_cell_setting 'triclinic'
loop_
_space_group_symop_operation_xyz
x,y,z
-x,-y,-z
loop_
_atom_site_type_symbol
_atom_site_label
_atom_site_fract_x
_atom_site_fract_y
_atom_site_fract_z
Si Si1 0.771111 0.174162 0.310532
Si Si2 0.592981 0.150114 0.113644
Si Si3 0.412154 0.321258 0.049673
Si Si4 0.131516 0.347977 0.137125
Si Si5 0.086899 0.682478 0.903691
Si Si6 0.244044 0.768075 0.064227
Si Si7 0.116065 0.663402 0.367633
Si Si8 0.942270 0.734557 0.293243
O O1 0.721308 0.037027 0.278047
O O2 0.679168 0.435664 0.134748
O O3 0.789428 0.326862 0.458442
O O4 0.900793 0.881551 0.386731
O O5 0.596937 0.932465 0.996324
O O6 0.500000 0.500000 0.000000
O O7 0.546296 0.148265 0.172152
O O8 0.377141 0.500039 0.151708
O O9 0.181179 0.363993 0.326186
O O10 0.227197 0.973909 0.179171
O O11 0.117161 0.556056 0.052221
O O12 0.000000 0.500000 0.000000
O O13 0.042850 0.561160 0.741125
O O14 0.206769 0.582143 0.010441
O O15 0.982769 0.056511 0.809441
O O16 0.164471 0.015652 0.896504
O O17 0.059864 0.648944 0.399885
#
# Coordination Sequence:
#
# PCOD8038743 Si02
#       8
#     2   2   2   2   2   2   2   2
#     4  10  20  32  48  76 105 130 165 200 252 306
#     4   9  18  34  56  76  99 125 160 206 253 313
#     4   9  18  35  55  77 100 126 159 208 260 296
#     4  11  19  34  48  69 103 139 179 208 230 277
#     4  10  18  30  50  67  97 139 172 208 238 279
#     4   9  18  30  51  74  96 130 172 208 240 288
#     4  11  21  30  46  72 104 141 170 203 241 285
#     4   9  18  31  45  69 104 136 164 203 239 294
#
# _framework density 20.279368000000002
#
# number of rings (size 3 to 8) (size 9 to 14) (size 15 to 20)
#    0.000    2.250    3.750    1.500    0.000    2.500 
#    0.000    0.000    0.000    0.750    0.000    8.750 
#    0.000    0.000    0.000    0.000    0.000    0.000 
#
# Total GULP energy -198243.639101 kJ/mol
# GULP energy per Si atom -12390.227444 kJ/mol
# Density = 2.023321 g / cm^3
# Si number density = 20.279368 Si / 1000 Ang^3
#
#
#
# Elastic Constant Matrix: (Units=GPa)
#
#
# Indices 1 2 3 4 5 6 
#
# 1 108.6457 66.1943 32.2801 24.8281 17.4290 -5.5623
# 2 66.1943 108.6360 23.1671 37.0575 3.5491 -13.6374
# 3 32.2801 23.1671 52.8678 31.7535 5.0475 -5.8647
# 4 24.8281 37.0575 31.7535 36.1182 4.2574 -5.1229
# 5 17.4290 3.5491 5.0475 4.2574 15.8323 9.8812
# 6 -5.5623 -13.6374 -5.8647 -5.1229 9.8812 36.7399
#
#
#
# Elastic Compliance Matrix: (Units=1/GPa)
#
#
# Indices 1 2 3 4 5 6 
#
# 1 0.023113 -0.014921 -0.013784 0.015064 -0.024540 0.004461
# 2 -0.014921 0.025152 0.015162 -0.030144 0.012925 0.001818
# 3 -0.013784 0.015162 0.051292 -0.051758 0.007842 0.002403
# 4 0.015064 -0.030144 -0.051758 0.096407 -0.020337 0.001742
# 5 -0.024540 0.012925 0.007842 -0.020337 0.108829 -0.029771
# 6 0.004461 0.001818 0.002403 0.001742 -0.029771 0.037202
#
#
# Mechanical properties :
#
#
# Convention : Reuss Voigt Hill
#
# Bulk Modulus (GPa) = 13.79867 57.04806 35.42336
# Shear Modulus (GPa) = 12.71494 27.63860 20.17677
#
# Velocity S-wave (km/s) = 2.50669 3.69574 3.15769
# Velocity P-wave (km/s) = 3.89834 6.81201 5.54980
#
# Compressibility (1/GPa) = 0.07247074
#
# Stress axis : x y z
#
# Youngs Moduli (GPa) = 43.26614 39.75839 19.49610
#
# Poissons Ratio (x) = 0.59322 0.26874
# Poissons Ratio (y) = 0.64555 -0.29559
# Poissons Ratio (z) = 0.59638 -0.60280
#
# Static dielectric constant tensor:
#      x y z
#    x 4.517040 -0.125520 0.045880 
#    y -0.125520 4.261710 0.304840 
#    z 0.045880 0.304840 3.155370 
# 
# 
# High freq. dielectric constant tensor:
#      x y z
#    x 1.803570 0.005710 0.003050 
#    y 0.005710 1.804580 0.025500 
#    z 0.003050 0.025500 1.726150 
# 
# From -- ./inp_files/70681.got.cif
#   From: 2010.06.25/outbox.cif.g09.slc.cpg/sg2_36_cif.got.tgz:70681.got - 2010.06.27 13:26:56.
