data_PCOD8038609
_publ_section_title
;
Structure prediction by ZEFSAII (Michael W. Deem and Ramdas Pophale) SiO2 
 PCOD8038609
Probable space group: P -1
;
_chemical_formula_sum "Si O2"
_cell_formula_units_Z 16
_cell_length_a 17.477772
_cell_length_b 9.506482
_cell_length_c 11.666639
_cell_angle_alpha 63.234238
_cell_angle_beta 52.389649
_cell_angle_gamma 31.041431
_cell_volume 779.251000
_symmetry_space_group_name_H-M "P -1"
_symmetry_group_IT_number 2
_symmetry_cell_setting 'triclinic'
loop_
_space_group_symop_operation_xyz
x,y,z
-x,-y,-z
loop_
_atom_site_type_symbol
_atom_site_label
_atom_site_fract_x
_atom_site_fract_y
_atom_site_fract_z
Si Si1 0.075424 0.724318 0.522577
Si Si2 0.716652 0.159513 0.709098
Si Si3 0.646474 0.741173 0.383356
Si Si4 0.567638 0.064890 0.977147
Si Si5 0.843709 0.604512 0.066206
Si Si6 0.651239 0.402734 0.439469
Si Si7 0.733127 0.395752 0.800189
Si Si8 0.034598 0.915323 0.868124
O O1 0.186946 0.532839 0.599507
O O2 0.182198 0.575484 0.361858
O O3 0.000000 0.000000 0.500000
O O4 0.910315 0.833299 0.638752
O O5 0.683790 0.311257 0.573827
O O6 0.688310 0.305622 0.794467
O O7 0.594330 0.171228 0.822597
O O8 0.699445 0.806602 0.222648
O O9 0.580604 0.675725 0.400630
O O10 0.500000 0.000000 0.500000
O O11 0.435524 0.301904 0.105221
O O12 0.752275 0.784909 0.967670
O O13 0.500000 0.000000 0.000000
O O14 0.906522 0.342627 0.094873
O O15 0.000000 0.500000 0.000000
O O16 0.500000 0.500000 0.500000
O O17 0.820542 0.165742 0.291490
O O18 0.858723 0.171485 0.867625
O O19 0.000000 0.000000 0.000000
#
# Coordination Sequence:
#
# PCOD8038609 Si02
#       8
#     2   2   2   2   2   2   2   2
#     4  10  17  39  68  92 120 160 222 268 307 376
#     4  11  22  43  70  94 124 173 230 263 311 398
#     4  11  22  39  66  97 127 160 211 275 321 377
#     4  12  27  42  63  97 140 172 211 275 336 383
#     4  11  24  43  63  93 132 172 213 261 332 389
#     4  11  24  41  66  98 130 173 215 269 329 383
#     4  11  21  42  71  97 122 169 226 266 316 392
#     4  11  24  43  68  96 131 170 214 270 327 392
#
# _framework density 20.532537000000001
#
# number of rings (size 3 to 8) (size 9 to 14) (size 15 to 20)
#    0.000    1.000    3.750    5.625    5.250    1.000 
#    0.000    1.875    0.000    0.000    0.000    0.000 
#    0.000    0.000    0.000    0.000    0.000    0.000 
#
# Total GULP energy -198337.586866 kJ/mol
# GULP energy per Si atom -12396.099179 kJ/mol
# Density = 2.048580 g / cm^3
# Si number density = 20.532537 Si / 1000 Ang^3
#
#
#
# Elastic Constant Matrix: (Units=GPa)
#
#
# Indices 1 2 3 4 5 6 
#
# 1 133.1147 38.4708 61.4119 8.0854 -11.4486 -4.9117
# 2 38.4708 67.6930 24.1081 4.7337 -6.4218 -5.7462
# 3 61.4119 24.1081 144.9149 7.6997 -9.4676 17.5519
# 4 8.0854 4.7337 7.6997 30.0339 -6.7751 4.6875
# 5 -11.4486 -6.4218 -9.4676 -6.7751 38.2718 -4.3754
# 6 -4.9117 -5.7462 17.5519 4.6875 -4.3754 26.8951
#
#
#
# Elastic Compliance Matrix: (Units=1/GPa)
#
#
# Indices 1 2 3 4 5 6 
#
# 1 0.011144 -0.004098 -0.004397 -0.001535 0.001811 0.004591
# 2 -0.004098 0.018408 -0.001714 -0.001739 0.001689 0.004881
# 3 -0.004397 -0.001714 0.009976 0.000098 0.000002 -0.007696
# 4 -0.001535 -0.001739 0.000098 0.036040 0.004945 -0.006193
# 5 0.001811 0.001689 0.000002 0.004945 0.028338 0.004438
# 6 0.004591 0.004881 -0.007696 -0.006193 0.004438 0.045887
#
#
# Mechanical properties :
#
#
# Convention : Reuss Voigt Hill
#
# Bulk Modulus (GPa) = 52.32935 65.96714 59.14825
# Shear Modulus (GPa) = 28.31566 33.82229 31.06898
#
# Velocity S-wave (km/s) = 3.71760 4.06304 3.89415
# Velocity P-wave (km/s) = 6.63090 7.36267 7.00634
#
# Compressibility (1/GPa) = 0.01910974
#
# Stress axis : x y z
#
# Youngs Moduli (GPa) = 89.73761 54.32323 100.23899
#
# Poissons Ratio (x) = 0.22263 0.44073
# Poissons Ratio (y) = 0.36777 0.17182
# Poissons Ratio (z) = 0.39456 0.09311
#
# Static dielectric constant tensor:
#      x y z
#    x 3.985480 -0.145860 -0.171890 
#    y -0.145860 3.691320 0.131900 
#    z -0.171890 0.131900 4.330950 
# 
# 
# High freq. dielectric constant tensor:
#      x y z
#    x 1.792610 -0.017380 -0.001820 
#    y -0.017380 1.798970 0.000310 
#    z -0.001820 0.000310 1.826450 
# 
# From -- ./inp_files/357781.got.cif
#   From: 2010.06.25/outbox.cif.g09.slc.cpg/sg2_179_cif.got.tgz:357781.got - 2010.06.27 13:26:56.
