data_PCOD8038042
_publ_section_title
;
Structure prediction by ZEFSAII (Michael W. Deem and Ramdas Pophale) SiO2 
 PCOD8038042
Probable space group: P -1
;
_chemical_formula_sum "Si O2"
_cell_formula_units_Z 16
_cell_length_a 20.781870
_cell_length_b 13.459302
_cell_length_c 9.535515
_cell_angle_alpha 55.230970
_cell_angle_beta 53.890031
_cell_angle_gamma 23.539246
_cell_volume 856.846933
_symmetry_space_group_name_H-M "P -1"
_symmetry_group_IT_number 2
_symmetry_cell_setting 'triclinic'
loop_
_space_group_symop_operation_xyz
x,y,z
-x,-y,-z
loop_
_atom_site_type_symbol
_atom_site_label
_atom_site_fract_x
_atom_site_fract_y
_atom_site_fract_z
Si Si1 0.043038 0.557802 0.304659
Si Si2 0.718995 0.056660 0.176414
Si Si3 0.993414 0.147084 0.731625
Si Si4 0.611168 0.155733 0.932145
Si Si5 0.750715 0.279949 0.026172
Si Si6 0.382842 0.044192 0.140095
Si Si7 0.535632 0.279844 0.514775
Si Si8 0.262648 0.826504 0.448927
O O1 0.062916 0.648002 0.305059
O O2 0.209744 0.318501 0.199550
O O3 0.000000 0.500000 0.500000
O O4 0.901235 0.765613 0.204917
O O5 0.650254 0.086685 0.100414
O O6 0.597942 0.178299 0.358740
O O7 0.720559 0.199613 0.038440
O O8 0.835494 0.269237 0.828491
O O9 0.071646 0.055821 0.548798
O O10 0.135045 0.899027 0.844119
O O11 0.422017 0.442727 0.916338
O O12 0.726943 0.106365 0.757966
O O13 0.647309 0.981997 0.948030
O O14 0.471415 0.838857 0.303100
O O15 0.500000 0.000000 0.000000
O O16 0.354170 0.577931 0.506623
O O17 0.662005 0.201698 0.492370
#
# Coordination Sequence:
#
# PCOD8038042 Si02
#       8
#     2   2   2   2   2   2   2   2
#     4  11  20  37  61  79 110 155 198 228 266 336
#     4  11  21  37  59  85 111 152 187 228 287 344
#     4  10  19  33  57  89 111 143 191 237 279 323
#     4  11  22  36  60  83 116 147 187 232 286 338
#     4  10  19  34  58  86 113 143 182 236 286 339
#     4  11  23  38  59  86 110 147 194 239 272 322
#     4  10  18  34  59  83 109 145 193 226 272 337
#     4  10  17  33  59  86 109 141 186 236 274 327
#
# _framework density 18.673112
#
# number of rings (size 3 to 8) (size 9 to 14) (size 15 to 20)
#    0.000    1.500    5.000    3.375    0.000    2.500 
#    0.000    1.250    2.750    0.000    0.000    0.000 
#    0.000    0.000    0.000    0.000    0.000    0.000 
#
# Total GULP energy -198444.439455 kJ/mol
# GULP energy per Si atom -12402.777466 kJ/mol
# Density = 1.863061 g / cm^3
# Si number density = 18.673112 Si / 1000 Ang^3
#
#
#
# Elastic Constant Matrix: (Units=GPa)
#
#
# Indices 1 2 3 4 5 6 
#
# 1 77.4474 44.5244 65.6946 7.5994 -9.1954 12.9863
# 2 44.5244 122.2698 51.4185 18.1038 -10.1493 23.5174
# 3 65.6946 51.4185 128.5698 21.1074 -12.0916 11.6951
# 4 7.5994 18.1038 21.1074 32.6809 0.1794 -2.6032
# 5 -9.1954 -10.1493 -12.0916 0.1794 40.2432 2.0044
# 6 12.9863 23.5174 11.6951 -2.6032 2.0044 19.1202
#
#
#
# Elastic Compliance Matrix: (Units=1/GPa)
#
#
# Indices 1 2 3 4 5 6 
#
# 1 0.025580 -0.003763 -0.011399 0.003048 0.001733 -0.005539
# 2 -0.003763 0.014435 -0.000756 -0.007940 0.003394 -0.016173
# 3 -0.011399 -0.000756 0.015424 -0.007056 0.001966 -0.001929
# 4 0.003048 -0.007940 -0.007056 0.040302 -0.004501 0.017971
# 5 0.001733 0.003394 0.001966 -0.004501 0.027211 -0.010020
# 6 -0.005539 -0.016173 -0.001929 0.017971 -0.010020 0.080633
#
#
# Mechanical properties :
#
#
# Convention : Reuss Voigt Hill
#
# Bulk Modulus (GPa) = 42.36931 72.39580 57.38255
# Shear Modulus (GPa) = 20.55164 29.51883 25.03523
#
# Velocity S-wave (km/s) = 3.32113 3.98027 3.66554
# Velocity P-wave (km/s) = 6.11930 7.74452 6.97938
#
# Compressibility (1/GPa) = 0.02360199
#
# Stress axis : x y z
#
# Youngs Moduli (GPa) = 39.09254 69.27512 64.83549
#
# Poissons Ratio (x) = 0.26070 0.73906
# Poissons Ratio (y) = 0.14712 0.04903
# Poissons Ratio (z) = 0.44562 0.05239
#
# Static dielectric constant tensor:
#      x y z
#    x 3.183950 0.188680 -0.225590 
#    y 0.188680 3.501210 0.117600 
#    z -0.225590 0.117600 3.535380 
# 
# 
# High freq. dielectric constant tensor:
#      x y z
#    x 1.692950 0.018790 -0.014610 
#    y 0.018790 1.732180 0.015800 
#    z -0.014610 0.015800 1.728570 
# 
# From -- ./inp_files/254332.got.cif
#   From: 2010.06.25/outbox.cif.g09.slc.cpg/sg2_128_cif.got.tgz:254332.got - 2010.06.27 13:26:56.
