data_PCOD8038835
_publ_section_title
;
Structure prediction by ZEFSAII (Michael W. Deem and Ramdas Pophale) SiO2 
 PCOD8038835
Probable space group: P -1
;
_chemical_formula_sum "Si O2"
_cell_formula_units_Z 16
_cell_length_a 8.888406
_cell_length_b 5.050013
_cell_length_c 18.248479
_cell_angle_alpha 64.676005
_cell_angle_beta 92.408981
_cell_angle_gamma 81.232949
_cell_volume 726.456906
_symmetry_space_group_name_H-M "P -1"
_symmetry_group_IT_number 2
_symmetry_cell_setting 'triclinic'
loop_
_space_group_symop_operation_xyz
x,y,z
-x,-y,-z
loop_
_atom_site_type_symbol
_atom_site_label
_atom_site_fract_x
_atom_site_fract_y
_atom_site_fract_z
Si Si1 0.992064 0.313661 0.924255
Si Si2 0.748932 0.526481 0.005153
Si Si3 0.488717 0.542837 0.802052
Si Si4 0.765331 0.065761 0.667636
Si Si5 0.528696 0.086837 0.371149
Si Si6 0.172745 0.592175 0.234048
Si Si7 0.552578 0.092331 0.096211
Si Si8 0.361049 0.393943 0.470574
O O1 0.964650 0.296702 0.838773
O O2 0.149898 0.431069 0.926596
O O3 0.850091 0.539079 0.932626
O O4 0.000000 0.000000 0.000000
O O5 0.695375 0.206310 0.047652
O O6 0.600725 0.792158 0.968360
O O7 0.403658 0.691461 0.708382
O O8 0.668461 0.440950 0.802284
O O9 0.468404 0.782454 0.837267
O O10 0.413638 0.265057 0.858231
O O11 0.832730 0.155071 0.734976
O O12 0.781688 0.324438 0.576177
O O13 0.579315 0.081439 0.663178
O O14 0.849141 0.726412 0.692959
O O15 0.408967 0.265075 0.406364
O O16 0.668409 0.869878 0.442870
O O17 0.500000 0.500000 0.500000
#
# Coordination Sequence:
#
# PCOD8038835 Si02
#       8
#     2   2   2   2   2   2   2   2
#     4  11  24  39  61  79 113 148 192 241 290 330
#     4  10  25  40  57  84 108 151 190 240 288 336
#     4  11  20  34  55  79 113 150 187 226 277 339
#     4  10  18  31  47  72 110 146 183 225 272 332
#     4   9  18  28  46  75 109 155 180 217 275 337
#     4  11  21  33  53  79 106 146 190 228 276 333
#     4  11  24  39  59  81 114 149 194 231 281 342
#     4   9  16  27  45  72 114 150 179 219 270 334
#
# _framework density 22.024708
#
# number of rings (size 3 to 8) (size 9 to 14) (size 15 to 20)
#    0.000    1.750    3.750    2.250    7.000    1.000 
#    0.000    0.000    0.000    0.000    0.000    0.000 
#    0.000    6.000    0.000    0.000    0.000    0.000 
#
# Total GULP energy -198241.796905 kJ/mol
# GULP energy per Si atom -12390.112307 kJ/mol
# Density = 2.197458 g / cm^3
# Si number density = 22.024708 Si / 1000 Ang^3
#
#
#
# Elastic Constant Matrix: (Units=GPa)
#
#
# Indices 1 2 3 4 5 6 
#
# 1 66.8066 20.7744 35.6421 -0.4628 9.6142 20.1659
# 2 20.7744 81.3997 32.8759 -5.8214 17.5547 23.3569
# 3 35.6421 32.8759 140.9683 -21.0576 29.2278 20.5298
# 4 -0.4628 -5.8214 -21.0576 49.8833 2.6774 5.8969
# 5 9.6142 17.5547 29.2278 2.6774 25.0951 5.7701
# 6 20.1659 23.3569 20.5298 5.8969 5.7701 20.4929
#
#
#
# Elastic Compliance Matrix: (Units=1/GPa)
#
#
# Indices 1 2 3 4 5 6 
#
# 1 0.022646 0.002470 -0.001902 0.002590 -0.003165 -0.023049
# 2 0.002470 0.022439 0.002280 0.007723 -0.013523 -0.028705
# 3 -0.001902 0.002280 0.012828 0.007818 -0.013902 -0.011914
# 4 0.002590 0.007723 0.007818 0.027751 -0.013060 -0.023492
# 5 -0.003165 -0.013523 -0.013902 -0.013060 0.063917 0.018216
# 6 -0.023049 -0.028705 -0.011914 -0.023492 0.018216 0.117761
#
#
# Mechanical properties :
#
#
# Convention : Reuss Voigt Hill
#
# Bulk Modulus (GPa) = 15.72085 51.97326 33.84705
# Shear Modulus (GPa) = 17.67730 32.41974 25.04852
#
# Velocity S-wave (km/s) = 2.83611 3.84079 3.37603
# Velocity P-wave (km/s) = 4.22824 6.58163 5.53154
#
# Compressibility (1/GPa) = 0.06360980
#
# Stress axis : x y z
#
# Youngs Moduli (GPa) = 44.15787 44.56538 77.95279
#
# Poissons Ratio (x) = -0.11008 0.14826
# Poissons Ratio (y) = -0.10907 -0.17775
# Poissons Ratio (z) = 0.08399 -0.10162
#
# Static dielectric constant tensor:
#      x y z
#    x 3.473810 0.249280 0.304240 
#    y 0.249280 4.364550 -0.294230 
#    z 0.304240 -0.294230 4.713350 
# 
# 
# High freq. dielectric constant tensor:
#      x y z
#    x 1.788600 0.021230 0.035530 
#    y 0.021230 1.884840 -0.009050 
#    z 0.035530 -0.009050 1.878270 
# 
# From -- ./inp_files/553261.got.cif
#   From: 2010.06.25/outbox.cif.g09.slc.cpg/sg2_277_cif.got.tgz:553261.got - 2010.06.27 13:26:56.
