data_PCOD8038016
_publ_section_title
;
Structure prediction by ZEFSAII (Michael W. Deem and Ramdas Pophale) SiO2 
 PCOD8038016
Probable space group: P -1
;
_chemical_formula_sum "Si O2"
_cell_formula_units_Z 16
_cell_length_a 14.089416
_cell_length_b 8.986615
_cell_length_c 25.603684
_cell_angle_alpha 53.544806
_cell_angle_beta 18.447965
_cell_angle_gamma 62.327161
_cell_volume 759.819753
_symmetry_space_group_name_H-M "P -1"
_symmetry_group_IT_number 2
_symmetry_cell_setting 'triclinic'
loop_
_space_group_symop_operation_xyz
x,y,z
-x,-y,-z
loop_
_atom_site_type_symbol
_atom_site_label
_atom_site_fract_x
_atom_site_fract_y
_atom_site_fract_z
Si Si1 0.285554 0.347079 0.877293
Si Si2 0.214735 0.139131 0.575905
Si Si3 0.597039 0.265662 0.209526
Si Si4 0.969610 0.108436 0.369457
Si Si5 0.524679 0.312231 0.554919
Si Si6 0.714782 0.409056 0.549526
Si Si7 0.779250 0.783345 0.680987
Si Si8 0.846717 0.051314 0.242747
O O1 0.478108 0.577551 0.746533
O O2 0.526537 0.294047 0.723983
O O3 0.972066 0.307508 0.012863
O O4 0.182910 0.220036 0.010947
O O5 0.205986 0.355908 0.536191
O O6 0.572790 0.145840 0.372563
O O7 0.955073 0.001375 0.696956
O O8 0.090743 0.033578 0.717759
O O9 0.546505 0.301021 0.166599
O O10 0.353985 0.043503 0.399286
O O11 0.869982 0.293121 0.365089
O O12 0.274166 0.189335 0.234403
O O13 0.500000 0.500000 0.500000
O O14 0.492884 0.327001 0.630969
O O15 0.239017 0.117066 0.721918
O O16 0.045342 0.373011 0.382253
O O17 0.000000 0.000000 0.500000
#
# Coordination Sequence:
#
# PCOD8038016 Si02
#       8
#     2   2   2   2   2   2   2   2
#     4  11  20  34  57  92 118 138 181 243 292 332
#     4  10  17  33  58  84 106 152 196 228 270 337
#     4  10  18  36  57  80 121 147 179 234 291 328
#     4   9  17  35  55  79 109 146 194 234 265 328
#     4  10  18  32  50  81 117 147 187 234 275 329
#     4  11  21  33  60  88 110 148 194 235 278 334
#     4   9  21  38  55  82 115 153 188 232 278 333
#     4  10  20  33  53  82 125 146 177 235 297 329
#
# _framework density 21.057625999999999
#
# number of rings (size 3 to 8) (size 9 to 14) (size 15 to 20)
#    0.000    2.000    5.000    0.750    0.000    1.000 
#    0.000    0.000    0.000    1.500    0.000    0.000 
#    0.000    0.000    0.000    0.000    0.000    0.000 
#
# Total GULP energy -198226.580499 kJ/mol
# GULP energy per Si atom -12389.161281 kJ/mol
# Density = 2.100970 g / cm^3
# Si number density = 21.057626 Si / 1000 Ang^3
#
#
#
# Elastic Constant Matrix: (Units=GPa)
#
#
# Indices 1 2 3 4 5 6 
#
# 1 158.6332 43.6537 27.8716 -4.1887 -1.9416 20.8584
# 2 43.6537 115.7047 11.7335 -13.0909 6.4053 4.5214
# 3 27.8716 11.7335 31.3825 -3.9244 10.3173 2.2636
# 4 -4.1887 -13.0909 -3.9244 10.2357 5.2981 6.5550
# 5 -1.9416 6.4053 10.3173 5.2981 35.1549 -4.3860
# 6 20.8584 4.5214 2.2636 6.5550 -4.3860 39.0402
#
#
#
# Elastic Compliance Matrix: (Units=1/GPa)
#
#
# Indices 1 2 3 4 5 6 
#
# 1 0.008907 -0.002971 -0.008136 -0.003165 0.003521 -0.003016
# 2 -0.002971 0.012675 0.003753 0.023602 -0.007747 -0.004932
# 3 -0.008136 0.003753 0.050338 0.037440 -0.022525 -0.007823
# 4 -0.003165 0.023602 0.037440 0.193058 -0.049700 -0.041212
# 5 0.003521 -0.007747 -0.022525 -0.049700 0.045876 0.013820
# 6 -0.003016 -0.004932 -0.007823 -0.041212 0.013820 0.036723
#
#
# Mechanical properties :
#
#
# Convention : Reuss Voigt Hill
#
# Bulk Modulus (GPa) = 17.47819 52.47091 34.97455
# Shear Modulus (GPa) = 13.11114 31.71695 22.41405
#
# Velocity S-wave (km/s) = 2.49797 3.88519 3.26608
# Velocity P-wave (km/s) = 4.07897 6.71551 5.55590
#
# Compressibility (1/GPa) = 0.05721416
#
# Stress axis : x y z
#
# Youngs Moduli (GPa) = 112.27337 78.89746 19.86554
#
# Poissons Ratio (x) = 0.23437 0.16162
# Poissons Ratio (y) = 0.33351 -0.07456
# Poissons Ratio (z) = 0.91342 -0.29612
#
# Static dielectric constant tensor:
#      x y z
#    x 4.561690 0.182840 -0.079380 
#    y 0.182840 4.019250 -0.190530 
#    z -0.079380 -0.190530 3.151090 
# 
# 
# High freq. dielectric constant tensor:
#      x y z
#    x 1.851520 0.011860 0.002400 
#    y 0.011860 1.835430 -0.020620 
#    z 0.002400 -0.020620 1.750110 
# 
# From -- ./inp_files/619198.got.cif
#   From: 2010.06.25/outbox.cif.g09.slc.cpg/sg2_310_cif.got.tgz:619198.got - 2010.06.27 13:26:56.
