data_PCOD8038111
_publ_section_title
;
Structure prediction by ZEFSAII (Michael W. Deem and Ramdas Pophale) SiO2 
 PCOD8038111
Probable space group: P -1
;
_chemical_formula_sum "Si O2"
_cell_formula_units_Z 14
_cell_length_a 9.000000
_cell_length_b 24.000000
_cell_length_c 12.000000
_cell_angle_alpha 140.000000
_cell_angle_beta 120.000000
_cell_angle_gamma 30.000000
_cell_volume 717.332707
_symmetry_space_group_name_H-M "P -1"
_symmetry_group_IT_number 2
_symmetry_cell_setting 'triclinic'
loop_
_space_group_symop_operation_xyz
x,y,z
-x,-y,-z
loop_
_atom_site_type_symbol
_atom_site_label
_atom_site_fract_x
_atom_site_fract_y
_atom_site_fract_z
Si Si1 0.775899 0.439775 0.071258
Si Si2 0.218198 0.364589 0.970287
Si Si3 0.694745 0.905737 0.146870
Si Si4 0.642396 0.866937 0.432570
Si Si5 0.340830 0.623061 0.392361
Si Si6 0.034824 0.089806 0.143640
Si Si7 0.264977 0.709901 0.886547
O O1 0.613984 0.544128 0.287008
O O2 0.937091 0.452923 0.090389
O O3 0.500000 0.500000 0.000000
O O4 0.084477 0.239032 0.900010
O O5 0.480145 0.322724 0.043766
O O6 0.453578 0.183734 0.733136
O O7 0.000000 0.500000 0.000000
O O8 0.493306 0.067360 0.390078
O O9 0.431934 0.947321 0.065860
O O10 0.929966 0.849609 0.055943
O O11 0.057987 0.691889 0.323248
O O12 0.500000 0.000000 0.500000
O O13 0.536066 0.469577 0.312282
O O14 0.159451 0.784196 0.630042
O O15 0.857854 0.213659 0.164162
O O16 0.000000 0.000000 0.000000
#
# Coordination Sequence:
#
# PCOD8038111 Si02
#       7
#     2   2   2   2   2   2   2
#     4  11  19  39  64  91 122 163 200 246 304 364
#     4  12  22  37  61  95 127 155 205 249 300 370
#     4  10  22  40  63  88 122 162 204 249 307 355
#     4  11  20  37  63  90 126 162 195 251 311 357
#     4  10  22  41  64  88 120 167 202 244 311 361
#     4  11  24  43  64  90 120 158 210 259 300 353
#     4  11  23  42  62  88 123 166 201 250 302 367
#
# _framework density 19.516746000000001
#
# number of rings (size 3 to 8) (size 9 to 14) (size 15 to 20)
#    0.000    1.143    4.286    2.571    2.000    0.571 
#    2.571    7.857    0.000    0.000    0.000    0.000 
#    0.000    0.000    0.000    0.000    0.000    0.000 
#
# Total GULP energy -173477.514944 kJ/mol
# GULP energy per Si atom -12391.251067 kJ/mol
# Density = 1.947232 g / cm^3
# Si number density = 19.516746 Si / 1000 Ang^3
#
#
#
# Elastic Constant Matrix: (Units=GPa)
#
#
# Indices 1 2 3 4 5 6 
#
# 1 167.3353 45.0570 49.8726 -2.0932 -5.9145 -16.7543
# 2 45.0570 110.0539 16.2804 5.8444 3.3611 -7.7611
# 3 49.8726 16.2804 91.4497 3.0350 6.1019 -9.8306
# 4 -2.0932 5.8444 3.0350 23.7807 -2.3965 3.8616
# 5 -5.9145 3.3611 6.1019 -2.3965 35.2445 3.3406
# 6 -16.7543 -7.7611 -9.8306 3.8616 3.3406 43.0862
#
#
#
# Elastic Compliance Matrix: (Units=1/GPa)
#
#
# Indices 1 2 3 4 5 6 
#
# 1 0.008187 -0.002831 -0.004031 0.001940 0.002341 0.001398
# 2 -0.002831 0.010556 0.000027 -0.003232 -0.001824 0.001238
# 3 -0.004031 0.000027 0.013673 -0.002789 -0.003432 0.002073
# 4 0.001940 -0.003232 -0.002789 0.044619 0.004607 -0.004820
# 5 0.002341 -0.001824 -0.003432 0.004607 0.030127 -0.002950
# 6 0.001398 0.001238 0.002073 -0.004820 -0.002950 0.025110
#
#
# Mechanical properties :
#
#
# Convention : Reuss Voigt Hill
#
# Bulk Modulus (GPa) = 53.34758 65.69543 59.52151
# Shear Modulus (GPa) = 32.85345 37.59754 35.22549
#
# Velocity S-wave (km/s) = 4.10731 4.39387 4.25300
# Velocity P-wave (km/s) = 7.06307 7.71204 7.39468
#
# Compressibility (1/GPa) = 0.01874499
#
# Stress axis : x y z
#
# Youngs Moduli (GPa) = 122.14797 94.73062 73.13729
#
# Poissons Ratio (x) = 0.26821 0.29481
# Poissons Ratio (y) = 0.34584 -0.00196
# Poissons Ratio (z) = 0.49237 -0.00254
#
# Static dielectric constant tensor:
#      x y z
#    x 3.757490 0.032270 -0.219280 
#    y 0.032270 3.583420 0.100090 
#    z -0.219280 0.100090 3.645080 
# 
# 
# High freq. dielectric constant tensor:
#      x y z
#    x 1.773050 -0.001070 -0.010690 
#    y -0.001070 1.770100 0.006360 
#    z -0.010690 0.006360 1.759140 
# 
# From -- ./inp_files/174735.got.cif
#   From: 2010.06.25/outbox.ucp.g09.slc.cvg/sg2_88_cif.got.tgz:174735.got - 2010.06.28 11:54:26.
