data_PCOD8038001
_publ_section_title
;
Structure prediction by ZEFSAII (Michael W. Deem and Ramdas Pophale) SiO2 
 PCOD8038001
Probable space group: P -1
;
_chemical_formula_sum "Si O2"
_cell_formula_units_Z 16
_cell_length_a 15.000000
_cell_length_b 15.000000
_cell_length_c 12.000000
_cell_angle_alpha 40.000000
_cell_angle_beta 60.000000
_cell_angle_gamma 30.000000
_cell_volume 747.221570
_symmetry_space_group_name_H-M "P -1"
_symmetry_group_IT_number 2
_symmetry_cell_setting 'triclinic'
loop_
_space_group_symop_operation_xyz
x,y,z
-x,-y,-z
loop_
_atom_site_type_symbol
_atom_site_label
_atom_site_fract_x
_atom_site_fract_y
_atom_site_fract_z
Si Si1 0.922627 0.924307 0.511013
Si Si2 0.309601 0.320474 0.124558
Si Si3 0.567396 0.185452 0.254876
Si Si4 0.424047 0.994507 0.949792
Si Si5 0.040241 0.394644 0.318794
Si Si6 0.596826 0.299882 0.732406
Si Si7 0.953056 0.928210 0.727490
Si Si8 0.486454 0.497299 0.169613
O O1 0.023914 0.661313 0.663851
O O2 0.846701 0.992302 0.620638
O O3 0.084009 0.862315 0.459871
O O4 0.734699 0.196729 0.290981
O O5 0.438880 0.208354 0.261347
O O6 0.459681 0.091170 0.152422
O O7 0.145482 0.391229 0.182677
O O8 0.191494 0.599675 0.894377
O O9 0.433031 0.409994 0.227465
O O10 0.792195 0.857535 0.455891
O O11 0.605798 0.264129 0.066959
O O12 0.488145 0.757834 0.152289
O O13 0.177058 0.297414 0.790299
O O14 0.500000 0.000000 0.000000
O O15 0.500000 0.500000 0.500000
O O16 0.582282 0.407034 0.751584
O O17 0.840639 0.001711 0.836954
#
# Coordination Sequence:
#
# PCOD8038001 Si02
#       8
#     2   2   2   2   2   2   2   2
#     4  10  21  40  65  96 130 178 221 278 337 400
#     4  12  24  46  69  97 136 183 226 279 338 401
#     4  10  22  43  72  92 135 183 232 275 329 401
#     4  12  28  44  66 104 144 174 222 284 343 409
#     4  11  26  44  67  98 135 184 229 270 342 406
#     4  12  24  42  68 105 136 170 226 284 338 405
#     4  11  22  38  70  96 135 173 225 283 343 392
#     4  10  20  42  68  97 129 173 227 285 328 389
#
# _framework density 21.412658
#
# number of rings (size 3 to 8) (size 9 to 14) (size 15 to 20)
#    0.000    1.000    5.000    1.125    5.250    1.500 
#    0.000    0.625    2.750    0.000    0.000    0.000 
#    0.000    0.000    0.000    0.000    0.000    0.000 
#
# Total GULP energy -198258.985250 kJ/mol
# GULP energy per Si atom -12391.186578 kJ/mol
# Density = 2.136392 g / cm^3
# Si number density = 21.412658 Si / 1000 Ang^3
#
#
#
# Elastic Constant Matrix: (Units=GPa)
#
#
# Indices 1 2 3 4 5 6 
#
# 1 116.8953 42.8970 29.6082 0.9454 -1.4557 26.3118
# 2 42.8970 131.8615 40.0470 -1.8241 1.0130 13.2222
# 3 29.6082 40.0470 117.7740 -9.4847 -3.2535 4.9381
# 4 0.9454 -1.8241 -9.4847 28.5759 4.3622 5.7217
# 5 -1.4557 1.0130 -3.2535 4.3622 30.0344 3.1222
# 6 26.3118 13.2222 4.9381 5.7217 3.1222 32.9618
#
#
#
# Elastic Compliance Matrix: (Units=1/GPa)
#
#
# Indices 1 2 3 4 5 6 
#
# 1 0.011790 -0.002486 -0.001704 0.000360 0.001286 -0.008343
# 2 -0.002486 0.009287 -0.002475 0.000214 -0.000593 -0.001351
# 3 -0.001704 -0.002475 0.010015 0.003077 0.000612 0.000261
# 4 0.000360 0.000214 0.003077 0.038105 -0.004461 -0.007026
# 5 0.001286 -0.000593 0.000612 -0.004461 0.034442 -0.003368
# 6 -0.008343 -0.001351 0.000261 -0.007026 -0.003368 0.039039
#
#
# Mechanical properties :
#
#
# Convention : Reuss Voigt Hill
#
# Bulk Modulus (GPa) = 56.30613 65.73726 61.02170
# Shear Modulus (GPa) = 30.87762 35.24632 33.06197
#
# Velocity S-wave (km/s) = 3.80152 4.06156 3.93369
# Velocity P-wave (km/s) = 6.75437 7.26373 7.01368
#
# Compressibility (1/GPa) = 0.01776006
#
# Stress axis : x y z
#
# Youngs Moduli (GPa) = 84.82041 107.67387 99.85283
#
# Poissons Ratio (x) = 0.26769 0.17017
# Poissons Ratio (y) = 0.21088 0.24718
# Poissons Ratio (z) = 0.14455 0.26654
#
# Static dielectric constant tensor:
#      x y z
#    x 4.099950 0.235120 -0.050650 
#    y 0.235120 3.836620 -0.142040 
#    z -0.050650 -0.142040 3.945900 
# 
# 
# High freq. dielectric constant tensor:
#      x y z
#    x 1.848490 0.016420 -0.006490 
#    y 0.016420 1.822070 -0.013500 
#    z -0.006490 -0.013500 1.854370 
# 
# From -- ./inp_files/320673.got.cif
#   From: 2010.06.25/outbox.ucp.g09.slc.cvg/sg2_161_cif.got.tgz:320673.got - 2010.06.28 11:54:26.
