data_PCOD8038255
_publ_section_title
;
Structure prediction by ZEFSAII (Michael W. Deem and Ramdas Pophale) SiO2 
 PCOD8038255
Probable space group: P -1
;
_chemical_formula_sum "Si O2"
_cell_formula_units_Z 16
_cell_length_a 9.348206
_cell_length_b 6.561359
_cell_length_c 14.221885
_cell_angle_alpha 70.245561
_cell_angle_beta 87.879726
_cell_angle_gamma 76.709449
_cell_volume 798.212209
_symmetry_space_group_name_H-M "P -1"
_symmetry_group_IT_number 2
_symmetry_cell_setting 'triclinic'
loop_
_space_group_symop_operation_xyz
x,y,z
-x,-y,-z
loop_
_atom_site_type_symbol
_atom_site_label
_atom_site_fract_x
_atom_site_fract_y
_atom_site_fract_z
Si Si1 0.916592 0.741726 0.857178
Si Si2 0.685001 0.387007 0.219886
Si Si3 0.708635 0.288008 0.527448
Si Si4 0.827112 0.686197 0.067209
Si Si5 0.108579 0.508852 0.643359
Si Si6 0.457441 0.386497 0.374776
Si Si7 0.194221 0.197711 0.351116
Si Si8 0.853467 0.960548 0.199374
O O1 0.811164 0.764293 0.766455
O O2 0.019935 0.494856 0.893413
O O3 0.814152 0.776022 0.947156
O O4 0.005672 0.934230 0.822220
O O5 0.690494 0.571946 0.110888
O O6 0.822196 0.387483 0.286338
O O7 0.529559 0.451237 0.266661
O O8 0.711200 0.142076 0.211741
O O9 0.805647 0.453256 0.459278
O O10 0.585773 0.256216 0.460274
O O11 0.630248 0.386277 0.610411
O O12 0.815949 0.051445 0.583715
O O13 0.822288 0.891925 0.105222
O O14 0.120852 0.247050 0.697400
O O15 0.938223 0.633165 0.619713
O O16 0.350079 0.227968 0.378960
#
# Coordination Sequence:
#
# PCOD8038255 Si02
#       8
#     2   2   2   2   2   2   2   2
#     4  10  20  34  56  91 121 144 183 240 283 339
#     4   9  19  38  60  83 116 152 192 234 275 344
#     4  10  24  42  59  80 114 157 196 234 282 343
#     4   9  18  35  59  87 118 149 187 226 287 346
#     4  10  21  37  58  88 116 144 192 240 286 334
#     4  10  24  41  58  82 111 159 194 235 281 342
#     4  12  22  37  58  88 117 150 186 243 288 329
#     4  10  17  34  61  85 115 154 186 229 288 337
#
# _framework density 20.044796999999999
#
# number of rings (size 3 to 8) (size 9 to 14) (size 15 to 20)
#    0.000    2.000    3.750    1.125    1.750    6.500 
#    0.000    0.625    0.000    1.500    0.000    0.000 
#    0.000    0.000    0.000    0.000    0.000    0.000 
#
# Total GULP energy -198419.265247 kJ/mol
# GULP energy per Si atom -12401.204078 kJ/mol
# Density = 1.999917 g / cm^3
# Si number density = 20.044797 Si / 1000 Ang^3
#
#
#
# Elastic Constant Matrix: (Units=GPa)
#
#
# Indices 1 2 3 4 5 6 
#
# 1 85.4688 39.5695 56.2419 2.7752 -27.3746 -4.1397
# 2 39.5695 116.6699 50.7558 5.8440 -16.1830 3.3684
# 3 56.2419 50.7558 114.0143 4.6142 -27.6114 -2.7710
# 4 2.7752 5.8440 4.6142 28.2944 -4.2758 -6.9708
# 5 -27.3746 -16.1830 -27.6114 -4.2758 34.9231 4.8574
# 6 -4.1397 3.3684 -2.7710 -6.9708 4.8574 20.1025
#
#
#
# Elastic Compliance Matrix: (Units=1/GPa)
#
#
# Indices 1 2 3 4 5 6 
#
# 1 0.020385 -0.002926 -0.006491 0.001595 0.009397 0.002076
# 2 -0.002926 0.011390 -0.003514 -0.002393 0.000460 -0.003936
# 3 -0.006491 -0.003514 0.014736 -0.000302 0.004897 -0.000005
# 4 0.001595 -0.002393 -0.000302 0.039537 0.002837 0.013712
# 5 0.009397 0.000460 0.004897 0.002837 0.041333 -0.006471
# 6 0.002076 -0.003936 -0.000005 0.013712 -0.006471 0.057150
#
#
# Mechanical properties :
#
#
# Convention : Reuss Voigt Hill
#
# Bulk Modulus (GPa) = 48.43403 67.69860 58.06631
# Shear Modulus (GPa) = 23.01223 27.96972 25.49097
#
# Velocity S-wave (km/s) = 3.39195 3.73950 3.56996
# Velocity P-wave (km/s) = 6.28934 7.24515 6.78410
#
# Compressibility (1/GPa) = 0.02064664
#
# Stress axis : x y z
#
# Youngs Moduli (GPa) = 49.05561 87.79763 67.86309
#
# Poissons Ratio (x) = 0.25691 0.44053
# Poissons Ratio (y) = 0.14354 0.23850
# Poissons Ratio (z) = 0.31844 0.30855
#
# Static dielectric constant tensor:
#      x y z
#    x 3.444610 0.028740 -0.332600 
#    y 0.028740 3.558930 0.119520 
#    z -0.332600 0.119520 3.864270 
# 
# 
# High freq. dielectric constant tensor:
#      x y z
#    x 1.759080 0.005190 -0.025090 
#    y 0.005190 1.784990 0.009640 
#    z -0.025090 0.009640 1.781040 
# 
# From -- ./inp_files/135080.got.cif
#   From: 2010.06.25/outbox.cif.g09.slc.cpg/sg2_68_cif.got.tgz:135080.got - 2010.06.27 13:26:56.
