data_PCOD8038522
_publ_section_title
;
Structure prediction by ZEFSAII (Michael W. Deem and Ramdas Pophale) SiO2 
 PCOD8038522
Probable space group: P -1
;
_chemical_formula_sum "Si O2"
_cell_formula_units_Z 16
_cell_length_a 16.560920
_cell_length_b 13.798732
_cell_length_c 18.786592
_cell_angle_alpha 148.018618
_cell_angle_beta 20.870189
_cell_angle_gamma 143.250359
_cell_volume 809.192069
_symmetry_space_group_name_H-M "P -1"
_symmetry_group_IT_number 2
_symmetry_cell_setting 'triclinic'
loop_
_space_group_symop_operation_xyz
x,y,z
-x,-y,-z
loop_
_atom_site_type_symbol
_atom_site_label
_atom_site_fract_x
_atom_site_fract_y
_atom_site_fract_z
Si Si1 0.344574 0.328168 0.501934
Si Si2 0.933227 0.880061 0.296857
Si Si3 0.372515 0.241458 0.650163
Si Si4 0.625078 0.899558 0.898396
Si Si5 0.719564 0.960833 0.140426
Si Si6 0.541591 0.047510 0.787772
Si Si7 0.264025 0.447991 0.490000
Si Si8 0.895932 0.739261 0.977289
O O1 0.500000 0.500000 0.500000
O O2 0.118461 0.293560 0.715548
O O3 0.254335 0.338564 0.503271
O O4 0.511720 0.163573 0.275751
O O5 0.853488 0.809652 0.240971
O O6 0.791188 0.054010 0.550169
O O7 0.191528 0.950164 0.128475
O O8 0.510706 0.418981 0.615616
O O9 0.534125 0.070244 0.405567
O O10 0.299244 0.287477 0.819155
O O11 0.731267 0.709963 0.671295
O O12 0.468038 0.841556 0.060523
O O13 0.500000 0.000000 0.000000
O O14 0.637094 0.893682 0.088287
O O15 0.775736 0.781305 0.027438
O O16 0.944593 0.088153 0.022680
O O17 0.035917 0.558038 0.737893
#
# Coordination Sequence:
#
# PCOD8038522 Si02
#       8
#     2   2   2   2   2   2   2   2
#     4  10  17  37  58  81 120 146 184 248 283 335
#     4   9  21  35  61  83 113 155 196 231 293 346
#     4  10  19  38  61  89 113 152 192 237 295 350
#     4  12  23  39  57  83 118 164 198 231 286 355
#     4   9  18  37  61  87 116 146 193 247 285 351
#     4   9  20  37  58  80 117 154 194 234 287 342
#     4  11  23  37  54  87 125 147 194 244 284 343
#     4  10  20  34  59  89 117 149 189 244 302 328
#
# _framework density 19.772808999999999
#
# number of rings (size 3 to 8) (size 9 to 14) (size 15 to 20)
#    0.750    1.250    2.500    1.875    0.000    4.000 
#    0.000    2.500    0.000    3.750    0.000    0.000 
#    0.000    0.000    0.000    0.000    0.000    0.000 
#
# Total GULP energy -198238.173045 kJ/mol
# GULP energy per Si atom -12389.885815 kJ/mol
# Density = 1.972780 g / cm^3
# Si number density = 19.772809 Si / 1000 Ang^3
#
#
#
# Elastic Constant Matrix: (Units=GPa)
#
#
# Indices 1 2 3 4 5 6 
#
# 1 124.9059 16.1040 45.4764 7.8315 -9.4814 -22.2594
# 2 16.1040 44.9014 20.4100 -0.2728 -5.7025 -0.6859
# 3 45.4764 20.4100 78.1329 4.8818 4.4731 -9.1547
# 4 7.8315 -0.2728 4.8818 18.7826 4.3336 0.5891
# 5 -9.4814 -5.7025 4.4731 4.3336 34.8091 -2.4207
# 6 -22.2594 -0.6859 -9.1547 0.5891 -2.4207 30.8388
#
#
#
# Elastic Compliance Matrix: (Units=1/GPa)
#
#
# Indices 1 2 3 4 5 6 
#
# 1 0.012402 -0.000955 -0.006055 -0.005041 0.005158 0.007634
# 2 -0.000955 0.026315 -0.006893 0.001564 0.004616 -0.001818
# 3 -0.006055 -0.006893 0.018560 -0.001274 -0.004962 0.000621
# 4 -0.005041 0.001564 -0.001274 0.057851 -0.008556 -0.005759
# 5 0.005158 0.004616 -0.004962 -0.008556 0.032947 0.005102
# 6 0.007634 -0.001818 0.000621 -0.005759 0.005102 0.038591
#
#
# Mechanical properties :
#
#
# Convention : Reuss Voigt Hill
#
# Bulk Modulus (GPa) = 33.93176 45.76900 39.85038
# Shear Modulus (GPa) = 22.29217 27.94942 25.12079
#
# Velocity S-wave (km/s) = 3.36134 3.76377 3.56823
# Velocity P-wave (km/s) = 5.68004 6.48735 6.09707
#
# Compressibility (1/GPa) = 0.02947092
#
# Stress axis : x y z
#
# Youngs Moduli (GPa) = 80.63491 38.00164 53.87960
#
# Poissons Ratio (x) = 0.03628 0.32623
# Poissons Ratio (y) = 0.07697 0.37141
# Poissons Ratio (z) = 0.48822 0.26196
#
# Static dielectric constant tensor:
#      x y z
#    x 3.769020 -0.221460 -0.003990 
#    y -0.221460 3.336230 -0.100780 
#    z -0.003990 -0.100780 3.799600 
# 
# 
# High freq. dielectric constant tensor:
#      x y z
#    x 1.772910 -0.012720 0.004120 
#    y -0.012720 1.744210 -0.010920 
#    z 0.004120 -0.010920 1.765650 
# 
# From -- ./inp_files/600303.got.cif
#   From: 2010.06.25/outbox.cif.g09.slc.cpg/sg2_301_cif.got.tgz:600303.got - 2010.06.27 13:26:56.
