data_PCOD8038444
_publ_section_title
;
Structure prediction by ZEFSAII (Michael W. Deem and Ramdas Pophale) SiO2 
 PCOD8038444
Probable space group: P -1
;
_chemical_formula_sum "Si O2"
_cell_formula_units_Z 12
_cell_length_a 9.021540
_cell_length_b 17.883968
_cell_length_c 9.219669
_cell_angle_alpha 149.557885
_cell_angle_beta 99.366867
_cell_angle_gamma 66.536322
_cell_volume 637.074000
_symmetry_space_group_name_H-M "P -1"
_symmetry_group_IT_number 2
_symmetry_cell_setting 'triclinic'
loop_
_space_group_symop_operation_xyz
x,y,z
-x,-y,-z
loop_
_atom_site_type_symbol
_atom_site_label
_atom_site_fract_x
_atom_site_fract_y
_atom_site_fract_z
Si Si1 0.328741 0.686228 0.276740
Si Si2 0.807789 0.034545 0.043959
Si Si3 0.676935 0.820192 0.764058
Si Si4 0.530441 0.109453 0.890105
Si Si5 0.488124 0.219887 0.753736
Si Si6 0.186726 0.467584 0.933462
O O1 0.313206 0.793136 0.596095
O O2 0.343747 0.786612 0.307358
O O3 0.500000 0.500000 0.000000
O O4 0.167814 0.649314 0.183873
O O5 0.712620 0.058185 0.913605
O O6 0.829064 0.866877 0.852303
O O7 0.000000 0.000000 0.000000
O O8 0.716986 0.667551 0.406600
O O9 0.642708 0.772642 0.840116
O O10 0.500000 0.000000 0.000000
O O11 0.514380 0.219051 0.928868
O O12 0.532586 0.937250 0.561939
O O13 0.309489 0.394856 0.973833
O O14 0.000000 0.500000 0.000000
#
# Coordination Sequence:
#
# PCOD8038444 Si02
#       6
#     2   2   2   2   2   2
#     4  10  20  35  55  82 109 147 184 218 270 336
#     4  11  20  34  56  84 108 139 190 229 263 318
#     4  10  17  36  58  79 105 150 192 210 263 339
#     4  10  19  35  60  81 108 144 189 227 265 323
#     4  10  19  36  57  84 107 146 186 225 270 323
#     4  11  21  36  57  84 115 144 178 228 279 325
#
# _framework density 18.836117000000002
#
# number of rings (size 3 to 8) (size 9 to 14) (size 15 to 20)
#    0.000    1.667    5.000    4.000    0.000    0.000 
#    0.000   10.833    0.000    0.000    0.000    0.000 
#    0.000    0.000    0.000    0.000    0.000    0.000 
#
# Total GULP energy -148695.076010 kJ/mol
# GULP energy per Si atom -12391.256334 kJ/mol
# Density = 1.879325 g / cm^3
# Si number density = 18.836117 Si / 1000 Ang^3
#
#
#
# Elastic Constant Matrix: (Units=GPa)
#
#
# Indices 1 2 3 4 5 6 
#
# 1 146.4450 74.7539 18.1960 -14.1256 16.3670 19.7369
# 2 74.7539 119.6340 49.4048 -24.8033 1.2158 25.7870
# 3 18.1960 49.4048 84.0289 -15.9888 9.9157 7.8903
# 4 -14.1256 -24.8033 -15.9888 25.5355 6.3339 -1.5351
# 5 16.3670 1.2158 9.9157 6.3339 32.4716 3.2595
# 6 19.7369 25.7870 7.8903 -1.5351 3.2595 25.7279
#
#
#
# Elastic Compliance Matrix: (Units=1/GPa)
#
#
# Indices 1 2 3 4 5 6 
#
# 1 0.011581 -0.007844 0.003547 0.002693 -0.007046 -0.001057
# 2 -0.007844 0.021403 -0.008592 0.008973 0.005324 -0.012939
# 3 0.003547 -0.008592 0.018466 0.007454 -0.008737 0.001779
# 4 0.002693 0.008973 0.007454 0.057089 -0.014289 -0.008128
# 5 -0.007046 0.005324 -0.008737 -0.014289 0.039921 -0.003162
# 6 -0.001057 -0.012939 0.001779 -0.008128 -0.003162 0.052019
#
#
# Mechanical properties :
#
#
# Convention : Reuss Voigt Hill
#
# Bulk Modulus (GPa) = 38.94940 70.53525 54.74232
# Shear Modulus (GPa) = 21.29346 30.59720 25.94533
#
# Velocity S-wave (km/s) = 3.36588 4.03474 3.71539
# Velocity P-wave (km/s) = 5.98569 7.69634 6.89428
#
# Compressibility (1/GPa) = 0.02567434
#
# Stress axis : x y z
#
# Youngs Moduli (GPa) = 86.34583 46.72201 54.15281
#
# Poissons Ratio (x) = 0.36647 -0.19207
# Poissons Ratio (y) = 0.67726 0.46526
# Poissons Ratio (z) = -0.30626 0.40141
#
# Static dielectric constant tensor:
#      x y z
#    x 4.146780 0.690950 0.272190 
#    y 0.690950 3.633340 -0.096800 
#    z 0.272190 -0.096800 3.704550 
# 
# 
# High freq. dielectric constant tensor:
#      x y z
#    x 1.742850 0.034130 0.012850 
#    y 0.034130 1.692200 -0.011110 
#    z 0.012850 -0.011110 1.739240 
# 
# From -- ./inp_files/147268.got.cif
#   From: 2010.06.25/outbox.cif.g09.slc.cpg/sg2_74_cif.got.tgz:147268.got - 2010.06.27 13:26:56.
