data_PCOD8038342
_publ_section_title
;
Structure prediction by ZEFSAII (Michael W. Deem and Ramdas Pophale) SiO2 
 PCOD8038342
Probable space group: P -1
;
_chemical_formula_sum "Si O2"
_cell_formula_units_Z 14
_cell_length_a 14.215368
_cell_length_b 8.297653
_cell_length_c 9.663481
_cell_angle_alpha 116.487949
_cell_angle_beta 75.372932
_cell_angle_gamma 135.449025
_cell_volume 711.829752
_symmetry_space_group_name_H-M "P -1"
_symmetry_group_IT_number 2
_symmetry_cell_setting 'triclinic'
loop_
_space_group_symop_operation_xyz
x,y,z
-x,-y,-z
loop_
_atom_site_type_symbol
_atom_site_label
_atom_site_fract_x
_atom_site_fract_y
_atom_site_fract_z
Si Si1 0.312557 0.432731 0.795732
Si Si2 0.110793 0.515585 0.529576
Si Si3 0.440860 0.617347 0.549245
Si Si4 0.796308 0.724405 0.701999
Si Si5 0.625010 0.913082 0.360193
Si Si6 0.585625 0.438284 0.904508
Si Si7 0.962542 0.809104 0.324515
O O1 0.408960 0.650768 0.727699
O O2 0.328603 0.235952 0.715097
O O3 0.158780 0.285315 0.765506
O O4 0.356578 0.575089 0.981147
O O5 0.122803 0.361570 0.361394
O O6 0.069162 0.414389 0.665032
O O7 0.000000 0.500000 0.500000
O O8 0.252876 0.797395 0.595107
O O9 0.500000 0.500000 0.500000
O O10 0.298114 0.412554 0.449007
O O11 0.549051 0.869290 0.515900
O O12 0.713603 0.656050 0.845687
O O13 0.903050 0.026855 0.759469
O O14 0.516642 0.818699 0.242497
O O15 0.500000 0.500000 0.000000
O O16 0.000000 0.000000 0.500000
#
# Coordination Sequence:
#
# PCOD8038342 Si02
#       7
#     2   2   2   2   2   2   2
#     4  10  17  35  57  84 108 149 191 228 277 334
#     4  11  22  35  58  87 115 147 186 238 284 323
#     4   9  17  29  56  82 104 139 189 232 271 317
#     4  10  20  37  58  85 113 144 193 230 276 338
#     4   9  19  34  56  83 116 141 186 237 283 326
#     4   9  20  36  58  85 113 147 188 230 283 332
#     4  10  19  34  57  81 110 145 192 234 270 328
#
# _framework density 19.667624
#
# number of rings (size 3 to 8) (size 9 to 14) (size 15 to 20)
#    0.000    2.286    2.857    2.571    2.000    2.857 
#    0.000    0.714    0.000    4.286    0.000    0.000 
#    0.000    0.000    0.000    0.000    0.000    0.000 
#
# Total GULP energy -173444.098473 kJ/mol
# GULP energy per Si atom -12388.864177 kJ/mol
# Density = 1.962286 g / cm^3
# Si number density = 19.667624 Si / 1000 Ang^3
#
#
#
# Elastic Constant Matrix: (Units=GPa)
#
#
# Indices 1 2 3 4 5 6 
#
# 1 95.8792 46.3623 35.2430 -12.4022 22.8667 14.4964
# 2 46.3623 187.4321 68.1572 -23.6955 14.0215 21.5796
# 3 35.2430 68.1572 111.5002 -33.3475 27.0397 9.2686
# 4 -12.4022 -23.6955 -33.3475 29.2592 3.8325 -4.5485
# 5 22.8667 14.0215 27.0397 3.8325 38.1289 0.1873
# 6 14.4964 21.5796 9.2686 -4.5485 0.1873 28.3856
#
#
#
# Elastic Compliance Matrix: (Units=1/GPa)
#
#
# Indices 1 2 3 4 5 6 
#
# 1 0.014916 -0.001965 0.001300 0.006652 -0.009786 -0.005417
# 2 -0.001965 0.007594 -0.004036 0.000015 0.001263 -0.003458
# 3 0.001300 -0.004036 0.023493 0.026352 -0.018600 -0.000922
# 4 0.006652 0.000015 0.026352 0.070875 -0.029804 -0.000459
# 5 -0.009786 0.001263 -0.018600 -0.029804 0.047793 0.005020
# 6 -0.005417 -0.003458 -0.000922 -0.000459 0.005020 0.040819
#
#
# Mechanical properties :
#
#
# Convention : Reuss Voigt Hill
#
# Bulk Modulus (GPa) = 27.32141 77.14853 52.23497
# Shear Modulus (GPa) = 22.01738 35.49133 28.75436
#
# Velocity S-wave (km/s) = 3.34948 4.25262 3.82778
# Velocity P-wave (km/s) = 5.37405 7.96394 6.79355
#
# Compressibility (1/GPa) = 0.03660133
#
# Stress axis : x y z
#
# Youngs Moduli (GPa) = 67.04252 131.67630 42.56562
#
# Poissons Ratio (x) = 0.25880 -0.05533
# Poissons Ratio (y) = 0.13177 0.17177
# Poissons Ratio (z) = -0.08715 0.53138
#
# Static dielectric constant tensor:
#      x y z
#    x 3.704870 0.220600 0.281430 
#    y 0.220600 4.234160 -0.575060 
#    z 0.281430 -0.575060 3.911650 
# 
# 
# High freq. dielectric constant tensor:
#      x y z
#    x 1.766210 0.022140 0.023480 
#    y 0.022140 1.770850 -0.026010 
#    z 0.023480 -0.026010 1.739770 
# 
# From -- ./inp_files/174941.got.cif
#   From: 2010.06.25/outbox.cif.g09.slc.cpg/sg2_88_cif.got.tgz:174941.got - 2010.06.27 13:26:56.
