data_PCOD8038691
_publ_section_title
;
Structure prediction by ZEFSAII (Michael W. Deem and Ramdas Pophale) SiO2 
 PCOD8038691
Probable space group: P -1
;
_chemical_formula_sum "Si O2"
_cell_formula_units_Z 16
_cell_length_a 12.467411
_cell_length_b 9.497593
_cell_length_c 12.144278
_cell_angle_alpha 109.140060
_cell_angle_beta 119.935367
_cell_angle_gamma 112.957889
_cell_volume 867.214624
_symmetry_space_group_name_H-M "P -1"
_symmetry_group_IT_number 2
_symmetry_cell_setting 'triclinic'
loop_
_space_group_symop_operation_xyz
x,y,z
-x,-y,-z
loop_
_atom_site_type_symbol
_atom_site_label
_atom_site_fract_x
_atom_site_fract_y
_atom_site_fract_z
Si Si1 0.601048 0.888156 0.035492
Si Si2 0.073894 0.686937 0.663097
Si Si3 0.187714 0.706460 0.138941
Si Si4 0.719943 0.894202 0.704663
Si Si5 0.361825 0.612922 0.346249
Si Si6 0.585604 0.651709 0.789154
Si Si7 0.683824 0.210064 0.015910
Si Si8 0.773873 0.631987 0.572676
O O1 0.763677 0.083697 0.237482
O O2 0.576113 0.974922 0.936384
O O3 0.624583 0.743321 0.956170
O O4 0.435109 0.750628 0.992627
O O5 0.133829 0.648386 0.794277
O O6 0.000000 0.500000 0.500000
O O7 0.931603 0.693795 0.607080
O O8 0.297523 0.714948 0.289837
O O9 0.169643 0.868269 0.188537
O O10 0.282757 0.748266 0.084660
O O11 0.000000 0.500000 0.000000
O O12 0.540953 0.788439 0.535616
O O13 0.703352 0.831790 0.807231
O O14 0.807239 0.833963 0.664311
O O15 0.372310 0.490149 0.228619
O O16 0.238686 0.462311 0.341799
O O17 0.391617 0.522378 0.625544
#
# Coordination Sequence:
#
# PCOD8038691 Si02
#       8
#     2   2   2   2   2   2   2   2
#     4   9  18  33  54  74 102 136 174 211 260 297
#     4  10  18  29  50  80 102 124 169 223 261 291
#     4  12  22  34  50  78 112 141 167 209 261 312
#     4   9  18  35  52  74 107 141 173 210 252 308
#     4   9  20  32  53  79 104 141 173 205 259 314
#     4   9  16  34  56  77 102 135 177 217 251 301
#     4   9  20  34  49  76 103 136 175 208 257 303
#     4   9  18  31  54  81 104 130 175 221 256 292
#
# _framework density 18.449874000000001
#
# number of rings (size 3 to 8) (size 9 to 14) (size 15 to 20)
#    0.750    1.750    1.250    3.375    0.000    1.000 
#    0.000    5.000    0.000    0.000    0.000    7.875 
#    0.000    0.000    0.000    0.000    0.000    0.000 
#
# Total GULP energy -198234.150973 kJ/mol
# GULP energy per Si atom -12389.634436 kJ/mol
# Density = 1.840788 g / cm^3
# Si number density = 18.449874 Si / 1000 Ang^3
#
#
#
# Elastic Constant Matrix: (Units=GPa)
#
#
# Indices 1 2 3 4 5 6 
#
# 1 114.6396 26.6790 35.6041 13.3435 -3.1135 -0.5406
# 2 26.6790 67.1543 23.6472 10.3336 -1.7826 -2.8304
# 3 35.6041 23.6472 74.7846 14.4495 -15.1810 -6.1778
# 4 13.3435 10.3336 14.4495 27.0531 -5.4640 -1.9034
# 5 -3.1135 -1.7826 -15.1810 -5.4640 30.7953 0.9751
# 6 -0.5406 -2.8304 -6.1778 -1.9034 0.9751 21.5039
#
#
#
# Elastic Compliance Matrix: (Units=1/GPa)
#
#
# Indices 1 2 3 4 5 6 
#
# 1 0.010903 -0.002515 -0.004352 -0.002516 -0.001589 -0.001458
# 2 -0.002515 0.017879 -0.004045 -0.003751 -0.001907 0.000882
# 3 -0.004352 -0.004045 0.019640 -0.004885 0.008008 0.004205
# 4 -0.002516 -0.003751 -0.004885 0.043324 0.004755 0.001659
# 5 -0.001589 -0.001907 0.008008 0.004755 0.036969 0.000754
# 6 -0.001458 0.000882 0.004205 0.001659 0.000754 0.047903
#
#
# Mechanical properties :
#
#
# Convention : Reuss Voigt Hill
#
# Bulk Modulus (GPa) = 37.60066 47.60435 42.60250
# Shear Modulus (GPa) = 24.11870 27.24701 25.68286
#
# Velocity S-wave (km/s) = 3.61952 3.84710 3.73505
# Velocity P-wave (km/s) = 6.15565 6.75215 6.46079
#
# Compressibility (1/GPa) = 0.02659528
#
# Stress axis : x y z
#
# Youngs Moduli (GPa) = 91.71899 55.93276 50.91751
#
# Poissons Ratio (x) = 0.14069 0.22161
# Poissons Ratio (y) = 0.23071 0.20597
# Poissons Ratio (z) = 0.39918 0.22626
#
# Static dielectric constant tensor:
#      x y z
#    x 3.453010 -0.149820 -0.067890 
#    y -0.149820 3.172320 0.119820 
#    z -0.067890 0.119820 3.271290 
# 
# 
# High freq. dielectric constant tensor:
#      x y z
#    x 1.722960 -0.007980 -0.002530 
#    y -0.007980 1.673660 0.012990 
#    z -0.002530 0.012990 1.708750 
# 
# From -- ./inp_files/417872.got.cif
#   From: 2010.06.25/outbox.cif.g09.slc.cpg/sg2_209_cif.got.tgz:417872.got - 2010.06.27 13:26:56.
