data_PCOD8038347
_publ_section_title
;
Structure prediction by ZEFSAII (Michael W. Deem and Ramdas Pophale) SiO2 
 PCOD8038347
Probable space group: P -1
;
_chemical_formula_sum "Si O2"
_cell_formula_units_Z 16
_cell_length_a 11.617082
_cell_length_b 20.268376
_cell_length_c 13.846990
_cell_angle_alpha 29.400767
_cell_angle_beta 147.006734
_cell_angle_gamma 149.281508
_cell_volume 763.428878
_symmetry_space_group_name_H-M "P -1"
_symmetry_group_IT_number 2
_symmetry_cell_setting 'triclinic'
loop_
_space_group_symop_operation_xyz
x,y,z
-x,-y,-z
loop_
_atom_site_type_symbol
_atom_site_label
_atom_site_fract_x
_atom_site_fract_y
_atom_site_fract_z
Si Si1 0.562238 0.102847 0.279413
Si Si2 0.179533 0.147012 0.874412
Si Si3 0.038151 0.374183 0.567908
Si Si4 0.434912 0.773917 0.672438
Si Si5 0.779528 0.286927 0.695079
Si Si6 0.758197 0.839217 0.514834
Si Si7 0.153254 0.223047 0.146096
Si Si8 0.953592 0.868706 0.421365
O O1 0.495849 0.169053 0.242933
O O2 0.846227 0.185418 0.355690
O O3 0.460542 0.920563 0.443408
O O4 0.434386 0.147731 0.047530
O O5 0.199808 0.298900 0.743944
O O6 0.119784 0.153647 0.712701
O O7 0.000000 0.000000 0.000000
O O8 0.215974 0.552188 0.486492
O O9 0.842338 0.356315 0.370840
O O10 0.889666 0.285786 0.670847
O O11 0.606744 0.704239 0.845484
O O12 0.496377 0.155836 0.664587
O O13 0.946059 0.265030 0.919729
O O14 0.762404 0.728470 0.744735
O O15 0.758988 0.776119 0.486984
O O16 0.000000 0.000000 0.500000
O O17 0.047692 0.043698 0.288226
#
# Coordination Sequence:
#
# PCOD8038347 Si02
#       8
#     2   2   2   2   2   2   2   2
#     4  10  19  32  56  87 121 144 190 250 299 350
#     4  12  20  35  63  93 118 155 194 250 310 350
#     4  11  22  38  61  90 129 155 194 254 305 357
#     4  10  17  35  57  88 122 152 189 249 300 347
#     4  11  24  41  58  90 125 162 199 243 301 365
#     4  10  23  42  61  85 121 159 208 250 286 353
#     4  10  21  37  62  88 118 159 196 247 303 354
#     4  10  22  35  59  91 115 149 200 253 295 347
#
# _framework density 20.958075999999998
#
# number of rings (size 3 to 8) (size 9 to 14) (size 15 to 20)
#    0.000    1.500    3.750    3.000    0.000    3.500 
#    2.250    0.625    0.000    1.500    0.000    0.000 
#    0.000    0.000    0.000    0.000    0.000    0.000 
#
# Total GULP energy -198213.157709 kJ/mol
# GULP energy per Si atom -12388.322357 kJ/mol
# Density = 2.091037 g / cm^3
# Si number density = 20.958076 Si / 1000 Ang^3
#
#
#
# Elastic Constant Matrix: (Units=GPa)
#
#
# Indices 1 2 3 4 5 6 
#
# 1 123.1079 21.7074 55.7550 1.9186 5.9281 -6.6344
# 2 21.7074 48.5957 24.9996 14.8989 4.8918 -1.4548
# 3 55.7550 24.9996 121.6747 31.8902 17.5935 2.8673
# 4 1.9186 14.8989 31.8902 23.6219 5.9747 7.6891
# 5 5.9281 4.8918 17.5935 5.9747 18.3434 8.0673
# 6 -6.6344 -1.4548 2.8673 7.6891 8.0673 28.3645
#
#
#
# Elastic Compliance Matrix: (Units=1/GPa)
#
#
# Indices 1 2 3 4 5 6 
#
# 1 0.012617 -0.005681 -0.008386 0.013750 0.001256 -0.000577
# 2 -0.005681 0.029441 0.003329 -0.023889 -0.004809 0.007688
# 3 -0.008386 0.003329 0.020259 -0.028151 -0.011552 0.007078
# 4 0.013750 -0.023889 -0.028151 0.100471 0.006919 -0.024367
# 5 0.001256 -0.004809 -0.011552 0.006919 0.073732 -0.021631
# 6 -0.000577 0.007688 0.007078 -0.024367 -0.021631 0.047557
#
#
# Mechanical properties :
#
#
# Convention : Reuss Voigt Hill
#
# Bulk Modulus (GPa) = 24.48447 55.36692 39.92570
# Shear Modulus (GPa) = 15.66587 26.79372 21.22980
#
# Velocity S-wave (km/s) = 2.73699 3.57941 3.18616
# Velocity P-wave (km/s) = 4.65790 6.59986 5.71202
#
# Compressibility (1/GPa) = 0.04084221
#
# Stress axis : x y z
#
# Youngs Moduli (GPa) = 79.26001 33.96608 49.36060
#
# Poissons Ratio (x) = 0.19296 0.41393
# Poissons Ratio (y) = 0.45028 -0.16435
# Poissons Ratio (z) = 0.66466 -0.11309
#
# Static dielectric constant tensor:
#      x y z
#    x 5.212530 0.033420 -0.332220 
#    y 0.033420 3.615940 0.311950 
#    z -0.332220 0.311950 4.015610 
# 
# 
# High freq. dielectric constant tensor:
#      x y z
#    x 1.821840 -0.019290 0.009070 
#    y -0.019290 1.790010 0.035800 
#    z 0.009070 0.035800 1.814190 
# 
# From -- ./inp_files/432569.got.cif
#   From: 2010.06.25/outbox.cif.g09.slc.cpg/sg2_217_cif.got.tgz:432569.got - 2010.06.27 13:26:56.
