data_PCOD8038971
_publ_section_title
;
Structure prediction by ZEFSAII (Michael W. Deem and Ramdas Pophale) SiO2 
 PCOD8038971
Probable space group: P -1
;
_chemical_formula_sum "Si O2"
_cell_formula_units_Z 16
_cell_length_a 14.926058
_cell_length_b 9.953407
_cell_length_c 8.745108
_cell_angle_alpha 107.247435
_cell_angle_beta 57.479071
_cell_angle_gamma 67.148644
_cell_volume 766.928135
_symmetry_space_group_name_H-M "P -1"
_symmetry_group_IT_number 2
_symmetry_cell_setting 'triclinic'
loop_
_space_group_symop_operation_xyz
x,y,z
-x,-y,-z
loop_
_atom_site_type_symbol
_atom_site_label
_atom_site_fract_x
_atom_site_fract_y
_atom_site_fract_z
Si Si1 0.838308 0.096758 0.223613
Si Si2 0.541994 0.127633 0.994416
Si Si3 0.856914 0.560766 0.264866
Si Si4 0.736093 0.461660 0.577600
Si Si5 0.743890 0.965062 0.026026
Si Si6 0.819219 0.920878 0.476029
Si Si7 0.852222 0.629001 0.969866
Si Si8 0.983665 0.288815 0.516426
O O1 0.732899 0.323040 0.433920
O O2 0.837242 0.996197 0.335290
O O3 0.768231 0.086119 0.137262
O O4 0.000000 0.000000 0.000000
O O5 0.605956 0.112106 0.095497
O O6 0.655806 0.065179 0.737378
O O7 0.413747 0.353247 0.146629
O O8 0.500000 0.000000 0.000000
O O9 0.758248 0.571293 0.478926
O O10 0.857325 0.726426 0.345383
O O11 0.024291 0.371137 0.082454
O O12 0.809496 0.568984 0.135241
O O13 0.858386 0.322145 0.547519
O O14 0.718122 0.851762 0.121287
O O15 0.887260 0.785988 0.741734
O O16 0.937803 0.872481 0.475369
O O17 0.904582 0.495193 0.729903
#
# Coordination Sequence:
#
# PCOD8038971 Si02
#       8
#     2   2   2   2   2   2   2   2
#     4  12  25  44  69  97 137 174 220 270 332 395
#     4  11  24  44  69  97 135 173 224 273 327 390
#     4  10  19  35  62  95 127 163 217 276 322 375
#     4  12  24  41  65  97 132 177 220 265 329 395
#     4  11  21  41  63  96 132 176 214 273 334 388
#     4  10  23  42  67  95 134 172 215 277 332 388
#     4  10  18  31  61  92 126 158 215 274 331 363
#     4  10  21  35  63  98 127 167 218 277 323 379
#
# _framework density 20.862451
#
# number of rings (size 3 to 8) (size 9 to 14) (size 15 to 20)
#    0.000    1.250    5.000    1.125    5.250    1.500 
#    0.000    3.750    0.000    0.000    0.000    0.000 
#    0.000    0.000    0.000    0.000    0.000    0.000 
#
# Total GULP energy -198233.241719 kJ/mol
# GULP energy per Si atom -12389.577607 kJ/mol
# Density = 2.081497 g / cm^3
# Si number density = 20.862451 Si / 1000 Ang^3
#
#
#
# Elastic Constant Matrix: (Units=GPa)
#
#
# Indices 1 2 3 4 5 6 
#
# 1 112.9538 34.9660 39.9110 -3.8143 14.1594 -5.3148
# 2 34.9660 80.8524 37.6328 -9.4234 -0.4776 -2.5469
# 3 39.9110 37.6328 88.8129 -1.1077 2.8045 -0.0945
# 4 -3.8143 -9.4234 -1.1077 38.5212 -2.0618 3.9283
# 5 14.1594 -0.4776 2.8045 -2.0618 32.5191 4.6525
# 6 -5.3148 -2.5469 -0.0945 3.9283 4.6525 28.3737
#
#
#
# Elastic Compliance Matrix: (Units=1/GPa)
#
#
# Indices 1 2 3 4 5 6 
#
# 1 0.012057 -0.003428 -0.003796 -0.000336 -0.005405 0.002871
# 2 -0.003428 0.016943 -0.005670 0.003782 0.002480 -0.000070
# 3 -0.003796 -0.005670 0.015342 -0.001197 0.000322 -0.001056
# 4 -0.000336 0.003782 -0.001197 0.027359 0.002604 -0.003942
# 5 -0.005405 0.002480 0.000322 0.002604 0.034246 -0.006765
# 6 0.002871 -0.000070 -0.001056 -0.003942 -0.006765 0.037427
#
#
# Mechanical properties :
#
#
# Convention : Reuss Voigt Hill
#
# Bulk Modulus (GPa) = 53.89784 56.40432 55.15108
# Shear Modulus (GPa) = 28.51501 31.22341 29.86921
#
# Velocity S-wave (km/s) = 3.70105 3.87283 3.78791
# Velocity P-wave (km/s) = 6.64490 6.86246 6.75456
#
# Compressibility (1/GPa) = 0.01855362
#
# Stress axis : x y z
#
# Youngs Moduli (GPa) = 82.93997 59.02112 65.18089
#
# Poissons Ratio (x) = 0.20232 0.24743
# Poissons Ratio (y) = 0.28432 0.36958
# Poissons Ratio (z) = 0.31485 0.33465
#
# Static dielectric constant tensor:
#      x y z
#    x 3.900450 -0.299920 0.300640 
#    y -0.299920 3.806070 -0.082580 
#    z 0.300640 -0.082580 3.916290 
# 
# 
# High freq. dielectric constant tensor:
#      x y z
#    x 1.802120 -0.017520 0.027530 
#    y -0.017520 1.810120 0.001190 
#    z 0.027530 0.001190 1.815750 
# 
# From -- ./inp_files/298699.got.cif
#   From: 2010.06.25/outbox.cif.g09.slc.cpg/sg2_150_cif.got.tgz:298699.got - 2010.06.27 13:26:56.
