data_PCOD8038320
_publ_section_title
;
Structure prediction by ZEFSAII (Michael W. Deem and Ramdas Pophale) SiO2 
 PCOD8038320
Probable space group: P -1
;
_chemical_formula_sum "Si O2"
_cell_formula_units_Z 16
_cell_length_a 8.858706
_cell_length_b 14.661866
_cell_length_c 9.073029
_cell_angle_alpha 111.875328
_cell_angle_beta 114.899001
_cell_angle_gamma 43.882610
_cell_volume 736.462173
_symmetry_space_group_name_H-M "P -1"
_symmetry_group_IT_number 2
_symmetry_cell_setting 'triclinic'
loop_
_space_group_symop_operation_xyz
x,y,z
-x,-y,-z
loop_
_atom_site_type_symbol
_atom_site_label
_atom_site_fract_x
_atom_site_fract_y
_atom_site_fract_z
Si Si1 0.963774 0.271603 0.394442
Si Si2 0.073861 0.789558 0.966238
Si Si3 0.860525 0.950761 0.249716
Si Si4 0.392490 0.435343 0.643405
Si Si5 0.729831 0.207191 0.455045
Si Si6 0.790105 0.784136 0.260868
Si Si7 0.557617 0.679966 0.096462
Si Si8 0.783467 0.424040 0.875281
O O1 0.844289 0.423796 0.412304
O O2 0.795832 0.261365 0.395282
O O3 0.179558 0.204691 0.545902
O O4 0.044655 0.192074 0.225289
O O5 0.298104 0.762178 0.008941
O O6 0.132706 0.664918 0.997640
O O7 0.908568 0.921219 0.077246
O O8 0.719558 0.912314 0.225377
O O9 0.100055 0.858222 0.375790
O O10 0.720497 0.104209 0.313280
O O11 0.481187 0.328280 0.486051
O O12 0.365911 0.383272 0.748573
O O13 0.566599 0.455314 0.743029
O O14 0.596387 0.781089 0.155321
O O15 0.026573 0.649210 0.215349
O O16 0.711742 0.562698 0.970227
#
# Coordination Sequence:
#
# PCOD8038320 Si02
#       8
#     2   2   2   2   2   2   2   2
#     4  11  20  33  57  87 110 135 182 234 273 313
#     4  10  18  34  60  79 108 141 189 225 259 319
#     4   9  19  38  56  75 108 151 190 214 260 332
#     4  11  18  33  57  83 111 135 186 223 269 320
#     4  10  19  33  59  80 105 145 190 224 262 314
#     4  10  22  34  54  82 116 142 180 219 279 324
#     4  11  19  33  55  85 110 147 178 219 276 328
#     4  10  17  35  52  79 108 153 173 217 262 340
#
# _framework density 21.725487999999999
#
# number of rings (size 3 to 8) (size 9 to 14) (size 15 to 20)
#    0.000    1.750    7.500    1.500    0.000    1.000 
#    0.000    0.625    2.750    0.750    0.000    0.000 
#    0.000    0.000    0.000    0.000    0.000    0.000 
#
# Total GULP energy -198420.687188 kJ/mol
# GULP energy per Si atom -12401.292949 kJ/mol
# Density = 2.167604 g / cm^3
# Si number density = 21.725488 Si / 1000 Ang^3
#
#
#
# Elastic Constant Matrix: (Units=GPa)
#
#
# Indices 1 2 3 4 5 6 
#
# 1 63.6061 13.8158 31.7714 13.2899 10.9538 18.1915
# 2 13.8158 60.0587 30.5841 37.1396 1.1011 15.3162
# 3 31.7714 30.5841 132.0996 33.0975 -15.3137 -0.7438
# 4 13.2899 37.1396 33.0975 36.9036 2.4984 6.1686
# 5 10.9538 1.1011 -15.3137 2.4984 25.5493 9.3685
# 6 18.1915 15.3162 -0.7438 6.1686 9.3685 18.6951
#
#
#
# Elastic Compliance Matrix: (Units=1/GPa)
#
#
# Indices 1 2 3 4 5 6 
#
# 1 0.029542 0.011272 -0.008341 -0.008660 -0.005272 -0.032813
# 2 0.011272 0.066435 -0.000673 -0.062545 0.017689 -0.053650
# 3 -0.008341 -0.000673 0.013534 -0.010411 0.009923 0.007668
# 4 -0.008660 -0.062545 -0.010411 0.097597 -0.023637 0.038896
# 5 -0.005272 0.017689 0.009923 -0.023637 0.060429 -0.031451
# 6 -0.032813 -0.053650 0.007668 0.038896 -0.031451 0.132604
#
#
# Mechanical properties :
#
#
# Convention : Reuss Voigt Hill
#
# Bulk Modulus (GPa) = 8.76995 45.34522 27.05759
# Shear Modulus (GPa) = 11.53051 28.20248 19.86649
#
# Velocity S-wave (km/s) = 2.30627 3.60686 3.02724
# Velocity P-wave (km/s) = 3.33726 6.18572 4.96993
#
# Compressibility (1/GPa) = 0.11402578
#
# Stress axis : x y z
#
# Youngs Moduli (GPa) = 33.85055 15.05242 73.88930
#
# Poissons Ratio (x) = -0.16967 0.61630
# Poissons Ratio (y) = -0.38155 0.04972
# Poissons Ratio (z) = 0.28234 0.01013
#
# Static dielectric constant tensor:
#      x y z
#    x 3.644460 0.216420 -0.179700 
#    y 0.216420 3.691550 0.300870 
#    z -0.179700 0.300870 4.052590 
# 
# 
# High freq. dielectric constant tensor:
#      x y z
#    x 1.823980 0.020300 -0.018130 
#    y 0.020300 1.831590 0.020070 
#    z -0.018130 0.020070 1.859840 
# 
# From -- ./inp_files/203265.got.cif
#   From: 2010.06.25/outbox.cif.g09.slc.cpg/sg2_102_cif.got.tgz:203265.got - 2010.06.27 13:26:56.
