data_PCOD8038698
_publ_section_title
;
Structure prediction by ZEFSAII (Michael W. Deem and Ramdas Pophale) SiO2 
 PCOD8038698
Probable space group: P -1
;
_chemical_formula_sum "Si O2"
_cell_formula_units_Z 16
_cell_length_a 5.277217
_cell_length_b 21.671285
_cell_length_c 16.374233
_cell_angle_alpha 24.921359
_cell_angle_beta 98.974182
_cell_angle_gamma 103.782911
_cell_volume 758.052851
_symmetry_space_group_name_H-M "P -1"
_symmetry_group_IT_number 2
_symmetry_cell_setting 'triclinic'
loop_
_space_group_symop_operation_xyz
x,y,z
-x,-y,-z
loop_
_atom_site_type_symbol
_atom_site_label
_atom_site_fract_x
_atom_site_fract_y
_atom_site_fract_z
Si Si1 0.350209 0.760560 0.687031
Si Si2 0.816757 0.193208 0.764768
Si Si3 0.092885 0.140928 0.394597
Si Si4 0.811471 0.532819 0.075794
Si Si5 0.464752 0.307183 0.874634
Si Si6 0.621053 0.370561 0.981003
Si Si7 0.330889 0.108903 0.961056
Si Si8 0.989605 0.521263 0.377351
O O1 0.127574 0.856873 0.549448
O O2 0.266971 0.595310 0.842661
O O3 0.627143 0.861249 0.545882
O O4 0.383991 0.743563 0.807159
O O5 0.580468 0.183737 0.828386
O O6 0.876975 0.356508 0.529855
O O7 0.077766 0.171085 0.849903
O O8 0.732574 0.071334 0.834813
O O9 0.000000 0.000000 0.500000
O O10 0.145455 0.302579 0.159010
O O11 0.575217 0.517551 0.147521
O O12 0.084947 0.523228 0.144474
O O13 0.531427 0.273060 0.012124
O O14 0.400850 0.151279 0.007948
O O15 0.206136 0.374318 0.781035
O O16 0.715783 0.418985 0.712740
O O17 0.000000 0.500000 0.500000
#
# Coordination Sequence:
#
# PCOD8038698 Si02
#       8
#     2   2   2   2   2   2   2   2
#     4  10  19  35  57  77 107 145 182 226 253 315
#     4  10  20  33  54  75 104 126 177 210 257 307
#     4  10  18  29  51  84 110 128 172 228 273 296
#     4  10  19  36  58  76 104 143 186 223 255 313
#     4  12  22  34  56  78 109 140 175 222 273 316
#     4  10  20  33  53  82 104 138 183 221 265 315
#     4  10  19  34  52  77  97 138 167 213 253 319
#     4  12  21  35  54  82 109 135 173 228 269 314
#
# _framework density 21.106708000000001
#
# number of rings (size 3 to 8) (size 9 to 14) (size 15 to 20)
#    0.000    1.500    2.500    6.000    0.000    0.000 
#    0.000    0.000    0.000   24.000    0.000    0.000 
#    0.000    0.000    0.000    0.000    0.000    0.000 
#
# Total GULP energy -198281.413619 kJ/mol
# GULP energy per Si atom -12392.588351 kJ/mol
# Density = 2.105867 g / cm^3
# Si number density = 21.106708 Si / 1000 Ang^3
#
#
#
# Elastic Constant Matrix: (Units=GPa)
#
#
# Indices 1 2 3 4 5 6 
#
# 1 222.7062 30.5664 -0.6261 -14.5890 12.1478 -16.9613
# 2 30.5664 131.1429 24.3113 -26.5520 3.3081 -0.2966
# 3 -0.6261 24.3113 42.3880 -35.9280 -6.2362 4.2582
# 4 -14.5890 -26.5520 -35.9280 43.9767 3.7346 -0.9298
# 5 12.1478 3.3081 -6.2362 3.7346 29.3261 -21.2250
# 6 -16.9613 -0.2966 4.2582 -0.9298 -21.2250 40.8711
#
#
#
# Elastic Compliance Matrix: (Units=1/GPa)
#
#
# Indices 1 2 3 4 5 6 
#
# 1 0.005108 -0.001029 0.004589 0.004905 -0.000617 0.001425
# 2 -0.001029 0.009066 -0.003086 0.002800 -0.002550 -0.001301
# 3 0.004589 -0.003086 0.083818 0.067572 0.006121 -0.002135
# 4 0.004905 0.002800 0.067572 0.081266 -0.000956 -0.003632
# 5 -0.000617 -0.002550 0.006121 -0.000956 0.056702 0.028512
# 6 0.001425 -0.001301 -0.002135 -0.003632 0.028512 0.039996
#
#
# Mechanical properties :
#
#
# Convention : Reuss Voigt Hill
#
# Bulk Modulus (GPa) = 10.10722 56.08223 33.09472
# Shear Modulus (GPa) = 16.23442 45.63383 30.93412
#
# Velocity S-wave (km/s) = 2.77638 4.65483 3.83248
# Velocity P-wave (km/s) = 3.88288 7.45107 5.94118
#
# Compressibility (1/GPa) = 0.09893917
#
# Stress axis : x y z
#
# Youngs Moduli (GPa) = 195.77415 110.30730 11.93060
#
# Poissons Ratio (x) = 0.11356 -0.05475
# Poissons Ratio (y) = 0.20154 0.03682
# Poissons Ratio (z) = -0.89846 0.34041
#
# Static dielectric constant tensor:
#      x y z
#    x 5.977220 0.007430 -0.041430 
#    y 0.007430 3.754370 -0.348670 
#    z -0.041430 -0.348670 3.274750 
# 
# 
# High freq. dielectric constant tensor:
#      x y z
#    x 1.874000 -0.000690 -0.004530 
#    y -0.000690 1.815850 -0.043180 
#    z -0.004530 -0.043180 1.772280 
# 
# From -- ./inp_files/53823.got.cif
#   From: 2010.06.25/outbox.cif.g09.slc.cpg/sg2_27_cif.got.tgz:53823.got - 2010.06.27 13:26:56.
