data_PCOD8038369
_publ_section_title
;
Structure prediction by ZEFSAII (Michael W. Deem and Ramdas Pophale) SiO2 
 PCOD8038369
Probable space group: P -1
;
_chemical_formula_sum "Si O2"
_cell_formula_units_Z 16
_cell_length_a 9.162569
_cell_length_b 19.455657
_cell_length_c 11.200325
_cell_angle_alpha 126.322168
_cell_angle_beta 82.138048
_cell_angle_gamma 140.757208
_cell_volume 788.932807
_symmetry_space_group_name_H-M "P -1"
_symmetry_group_IT_number 2
_symmetry_cell_setting 'triclinic'
loop_
_space_group_symop_operation_xyz
x,y,z
-x,-y,-z
loop_
_atom_site_type_symbol
_atom_site_label
_atom_site_fract_x
_atom_site_fract_y
_atom_site_fract_z
Si Si1 0.033511 0.146548 0.373478
Si Si2 0.805534 0.265909 0.279189
Si Si3 0.014230 0.804537 0.078767
Si Si4 0.189969 0.923754 0.914797
Si Si5 0.609334 0.079625 0.439844
Si Si6 0.315989 0.710322 0.445135
Si Si7 0.716833 0.489998 0.723651
Si Si8 0.993165 0.026397 0.663295
O O1 0.371844 0.323649 0.559433
O O2 0.874562 0.982474 0.278857
O O3 0.014792 0.130575 0.215260
O O4 0.861605 0.141732 0.436118
O O5 0.766333 0.150392 0.216166
O O6 0.836244 0.345702 0.468299
O O7 0.099754 0.421819 0.328466
O O8 0.506297 0.132547 0.098257
O O9 0.335637 0.940852 0.235069
O O10 0.850385 0.801666 0.162617
O O11 0.033893 0.841858 0.976534
O O12 0.808715 0.617402 0.923890
O O13 0.751513 0.247686 0.598730
O O14 0.500000 0.000000 0.500000
O O15 0.214952 0.564036 0.266243
O O16 0.668370 0.884051 0.604081
O O17 0.000000 0.000000 0.500000
#
# Coordination Sequence:
#
# PCOD8038369 Si02
#       8
#     2   2   2   2   2   2   2   2
#     4  11  21  36  57  96 122 148 200 255 295 339
#     4  10  17  35  59  86 121 165 189 228 303 366
#     4  10  21  42  61  85 118 165 196 237 308 359
#     4  10  18  34  63  88 120 153 204 246 281 364
#     4  11  21  40  67  84 109 163 217 243 276 348
#     4  10  19  39  58  86 117 161 199 231 299 361
#     4  10  23  35  59  91 129 156 184 240 315 363
#     4  10  21  39  60  82 114 158 207 249 290 343
#
# _framework density 20.280563000000001
#
# number of rings (size 3 to 8) (size 9 to 14) (size 15 to 20)
#    0.000    1.750    3.750    3.375    0.000    2.500 
#    0.000    8.750    0.000    0.000    0.000    0.000 
#    0.000    0.000    0.000    0.000    0.000    0.000 
#
# Total GULP energy -198264.378332 kJ/mol
# GULP energy per Si atom -12391.523646 kJ/mol
# Density = 2.023440 g / cm^3
# Si number density = 20.280563 Si / 1000 Ang^3
#
#
#
# Elastic Constant Matrix: (Units=GPa)
#
#
# Indices 1 2 3 4 5 6 
#
# 1 153.7168 54.3211 66.3317 -2.1494 -27.1641 -22.1843
# 2 54.3211 80.6230 39.2451 -10.1873 -7.9061 -11.7193
# 3 66.3317 39.2451 87.5498 -2.3982 -27.3584 -9.1100
# 4 -2.1494 -10.1873 -2.3982 32.4786 -0.6248 -0.5791
# 5 -27.1641 -7.9061 -27.3584 -0.6248 35.9817 4.1770
# 6 -22.1843 -11.7193 -9.1100 -0.5791 4.1770 33.2194
#
#
#
# Elastic Compliance Matrix: (Units=1/GPa)
#
#
# Indices 1 2 3 4 5 6 
#
# 1 0.011515 -0.004313 -0.005389 -0.000852 0.003137 0.004281
# 2 -0.004313 0.018894 -0.005991 0.005172 -0.003886 0.002721
# 3 -0.005389 -0.005991 0.021525 -0.000454 0.011115 -0.001215
# 4 -0.000852 0.005172 -0.000454 0.032361 0.000521 0.001630
# 5 0.003137 -0.003886 0.011115 0.000521 0.037880 -0.000982
# 6 0.004281 0.002721 -0.001215 0.001630 -0.000982 0.033741
#
#
# Mechanical properties :
#
#
# Convention : Reuss Voigt Hill
#
# Bulk Modulus (GPa) = 48.66693 71.29837 59.98265
# Shear Modulus (GPa) = 25.75320 31.13539 28.44429
#
# Velocity S-wave (km/s) = 3.56736 3.92246 3.74911
# Velocity P-wave (km/s) = 6.40445 7.46636 6.95570
#
# Compressibility (1/GPa) = 0.02054783
#
# Stress axis : x y z
#
# Youngs Moduli (GPa) = 86.84101 52.92750 46.45827
#
# Poissons Ratio (x) = 0.22829 0.25035
# Poissons Ratio (y) = 0.37457 0.27833
# Poissons Ratio (z) = 0.46796 0.31709
#
# Static dielectric constant tensor:
#      x y z
#    x 4.278180 -0.280530 -0.390270 
#    y -0.280530 3.631840 0.034000 
#    z -0.390270 0.034000 3.618290 
# 
# 
# High freq. dielectric constant tensor:
#      x y z
#    x 1.805500 -0.005780 -0.023070 
#    y -0.005780 1.786340 -0.005660 
#    z -0.023070 -0.005660 1.759920 
# 
# From -- ./inp_files/237151.got.cif
#   From: 2010.06.25/outbox.cif.g09.slc.cpg/sg2_119_cif.got.tgz:237151.got - 2010.06.27 13:26:56.
