data_PCOD8038791
_publ_section_title
;
Structure prediction by ZEFSAII (Michael W. Deem and Ramdas Pophale) SiO2 
 PCOD8038791
Probable space group: P -1
;
_chemical_formula_sum "Si O2"
_cell_formula_units_Z 14
_cell_length_a 11.910940
_cell_length_b 11.479929
_cell_length_c 9.068900
_cell_angle_alpha 38.422469
_cell_angle_beta 87.892483
_cell_angle_gamma 90.357203
_cell_volume 768.888066
_symmetry_space_group_name_H-M "P -1"
_symmetry_group_IT_number 2
_symmetry_cell_setting 'triclinic'
loop_
_space_group_symop_operation_xyz
x,y,z
-x,-y,-z
loop_
_atom_site_type_symbol
_atom_site_label
_atom_site_fract_x
_atom_site_fract_y
_atom_site_fract_z
Si Si1 0.216437 0.366910 0.954786
Si Si2 0.963546 0.375744 0.262857
Si Si3 0.585152 0.659129 0.515044
Si Si4 0.798988 0.715529 0.640387
Si Si5 0.563067 0.700830 0.143877
Si Si6 0.443155 0.940626 0.409736
Si Si7 0.806117 0.024312 0.551790
O O1 0.123708 0.504525 0.757201
O O2 0.331571 0.404080 0.823903
O O3 0.234936 0.410642 0.086774
O O4 0.174645 0.145860 0.163660
O O5 0.906986 0.178490 0.406999
O O6 0.078951 0.333250 0.383879
O O7 0.000000 0.500000 0.000000
O O8 0.710843 0.676246 0.554400
O O9 0.587230 0.753239 0.260628
O O10 0.546762 0.439947 0.723977
O O11 0.500323 0.759853 0.525692
O O12 0.802672 0.934741 0.475363
O O13 0.538514 0.888780 0.873630
O O14 0.311689 0.884824 0.496397
O O15 0.500000 0.000000 0.500000
#
# Coordination Sequence:
#
# PCOD8038791 Si02
#       7
#     2   2   2   2   2   2   2
#     4   8  18  34  51  77 100 139 175 215 263 307
#     4  10  18  30  54  78 101 136 171 223 271 301
#     4  11  21  37  52  80 115 140 179 215 265 324
#     4   9  19  33  50  78 105 134 176 224 252 312
#     4  10  22  36  56  76 111 150 170 218 269 320
#     4  11  20  36  58  82 105 140 181 223 266 315
#     4   9  18  32  49  78 107 128 169 224 267 300
#
# _framework density 18.208110999999999
#
# number of rings (size 3 to 8) (size 9 to 14) (size 15 to 20)
#    0.857    1.429    1.429    1.714    0.000    4.571 
#    0.000    0.714    0.000    3.429    0.000    0.000 
#    0.000    0.000    0.000    0.000    0.000    0.000 
#
# Total GULP energy -173492.222609 kJ/mol
# GULP energy per Si atom -12392.301615 kJ/mol
# Density = 1.816667 g / cm^3
# Si number density = 18.208111 Si / 1000 Ang^3
#
#
#
# Elastic Constant Matrix: (Units=GPa)
#
#
# Indices 1 2 3 4 5 6 
#
# 1 124.8055 47.1164 30.6276 -6.2065 15.2336 16.6164
# 2 47.1164 68.3375 19.4667 4.5029 10.0456 12.5880
# 3 30.6276 19.4667 58.5635 1.0906 -1.5201 18.3357
# 4 -6.2065 4.5029 1.0906 24.7275 -1.0208 -0.5722
# 5 15.2336 10.0456 -1.5201 -1.0208 25.6708 -5.9457
# 6 16.6164 12.5880 18.3357 -0.5722 -5.9457 22.4929
#
#
#
# Elastic Compliance Matrix: (Units=1/GPa)
#
#
# Indices 1 2 3 4 5 6 
#
# 1 0.012847 -0.006386 -0.003355 0.004168 -0.006252 -0.004728
# 2 -0.006386 0.022583 -0.001479 -0.006161 -0.007426 -0.008835
# 3 -0.003355 -0.001479 0.024622 -0.002046 0.000055 -0.016803
# 4 0.004168 -0.006161 -0.002046 0.042885 0.002393 0.003760
# 5 -0.006252 -0.007426 0.000055 0.002393 0.050817 0.022224
# 6 -0.004728 -0.008835 -0.016803 0.003760 0.022224 0.072563
#
#
# Mechanical properties :
#
#
# Convention : Reuss Voigt Hill
#
# Bulk Modulus (GPa) = 26.58801 49.56978 38.07889
# Shear Modulus (GPa) = 19.13558 24.87794 22.00676
#
# Velocity S-wave (km/s) = 3.24533 3.70037 3.48030
# Velocity P-wave (km/s) = 5.35508 6.74834 6.09168
#
# Compressibility (1/GPa) = 0.03761093
#
# Stress axis : x y z
#
# Youngs Moduli (GPa) = 77.84114 44.28207 40.61392
#
# Poissons Ratio (x) = 0.28279 0.13628
# Poissons Ratio (y) = 0.49711 0.06005
# Poissons Ratio (z) = 0.26119 0.06547
#
# Static dielectric constant tensor:
#      x y z
#    x 3.625630 -0.293810 0.127130 
#    y -0.293810 3.227900 -0.174400 
#    z 0.127130 -0.174400 3.195470 
# 
# 
# High freq. dielectric constant tensor:
#      x y z
#    x 1.716350 -0.015180 -0.001230 
#    y -0.015180 1.683470 -0.021750 
#    z -0.001230 -0.021750 1.684860 
# 
# From -- ./inp_files/255900.got.cif
#   From: 2010.06.25/outbox.cif.g09.slc.cpg/sg2_128_cif.got.tgz:255900.got - 2010.06.27 13:26:56.
