data_PCOD8038178
_publ_section_title
;
Structure prediction by ZEFSAII (Michael W. Deem and Ramdas Pophale) SiO2 
 PCOD8038178
Probable space group: P -1
;
_chemical_formula_sum "Si O2"
_cell_formula_units_Z 12
_cell_length_a 8.541983
_cell_length_b 12.274538
_cell_length_c 11.186917
_cell_angle_alpha 58.253694
_cell_angle_beta 138.996584
_cell_angle_gamma 127.138098
_cell_volume 607.881944
_symmetry_space_group_name_H-M "P -1"
_symmetry_group_IT_number 2
_symmetry_cell_setting 'triclinic'
loop_
_space_group_symop_operation_xyz
x,y,z
-x,-y,-z
loop_
_atom_site_type_symbol
_atom_site_label
_atom_site_fract_x
_atom_site_fract_y
_atom_site_fract_z
Si Si1 0.369688 0.085245 0.083338
Si Si2 0.653832 0.203068 0.816203
Si Si3 0.162155 0.947693 0.289801
Si Si4 0.726950 0.331272 0.023154
Si Si5 0.179690 0.367953 0.108503
Si Si6 0.525821 0.806411 0.536700
O O1 0.621789 0.224777 0.133647
O O2 0.417569 0.960175 0.117101
O O3 0.309009 0.050303 0.206869
O O4 0.139833 0.115369 0.867629
O O5 0.512725 0.233924 0.601821
O O6 0.563560 0.261513 0.848993
O O7 0.967762 0.276291 0.942546
O O8 0.267084 0.822556 0.430014
O O9 0.239152 0.044906 0.395831
O O10 0.028654 0.360839 0.152615
O O11 0.692840 0.473966 0.952850
O O12 0.408817 0.311902 0.288781
#
# Coordination Sequence:
#
# PCOD8038178 Si02
#       6
#     2   2   2   2   2   2
#     4  10  17  34  58  75 105 135 174 212 250 308
#     4   9  18  32  58  79  98 137 167 214 264 293
#     4   9  19  32  54  79 101 139 172 214 251 290
#     4   9  19  35  53  80 104 135 169 210 266 303
#     4   9  19  36  54  77 105 137 165 213 264 304
#     4  10  18  34  56  76 104 135 177 207 256 306
#
# _framework density 19.740675
#
# number of rings (size 3 to 8) (size 9 to 14) (size 15 to 20)
#    1.000    1.667    1.667    0.500    0.000    0.667 
#    0.000   10.833    0.000    0.000    0.000    0.000 
#    0.000    0.000    0.000    0.000    0.000    0.000 
#
# Total GULP energy -148671.716210 kJ/mol
# GULP energy per Si atom -12389.309684 kJ/mol
# Density = 1.969574 g / cm^3
# Si number density = 19.740675 Si / 1000 Ang^3
#
#
#
# Elastic Constant Matrix: (Units=GPa)
#
#
# Indices 1 2 3 4 5 6 
#
# 1 26.5532 23.1782 9.1273 -0.8264 -4.8765 2.7063
# 2 23.1782 130.0270 31.5191 -23.3743 6.7807 5.4282
# 3 9.1273 31.5191 94.6054 -5.6927 6.7314 -9.8375
# 4 -0.8264 -23.3743 -5.6927 18.0546 -8.8619 6.3712
# 5 -4.8765 6.7807 6.7314 -8.8619 22.9546 -2.2334
# 6 2.7063 5.4282 -9.8375 6.3712 -2.2334 27.4825
#
#
#
# Elastic Compliance Matrix: (Units=1/GPa)
#
#
# Indices 1 2 3 4 5 6 
#
# 1 0.049168 -0.009295 -0.002986 -0.003897 0.012351 -0.002167
# 2 -0.009295 0.014082 -0.003511 0.020406 0.002025 -0.007689
# 3 -0.002986 -0.003511 0.012711 -0.005242 -0.004729 0.006368
# 4 -0.003897 0.020406 -0.005242 0.105756 0.032846 -0.027371
# 5 0.012351 0.002025 -0.004729 0.032846 0.059062 -0.006124
# 6 -0.002167 -0.007689 0.006368 -0.027371 -0.006124 0.046246
#
#
# Mechanical properties :
#
#
# Convention : Reuss Voigt Hill
#
# Bulk Modulus (GPa) = 22.53321 42.09276 32.31298
# Shear Modulus (GPa) = 14.99698 26.18907 20.59302
#
# Velocity S-wave (km/s) = 2.75925 3.64628 3.23333
# Velocity P-wave (km/s) = 4.64658 6.25270 5.50849
#
# Compressibility (1/GPa) = 0.04437894
#
# Stress axis : x y z
#
# Youngs Moduli (GPa) = 20.33849 71.01074 78.67125
#
# Poissons Ratio (x) = 0.66005 0.23487
# Poissons Ratio (y) = 0.18905 0.27619
# Poissons Ratio (z) = 0.06072 0.24930
#
# Static dielectric constant tensor:
#      x y z
#    x 3.206790 -0.263840 0.052830 
#    y -0.263840 3.456940 0.066190 
#    z 0.052830 0.066190 3.518680 
# 
# 
# High freq. dielectric constant tensor:
#      x y z
#    x 1.730260 -0.026410 0.003130 
#    y -0.026410 1.757720 0.002110 
#    z 0.003130 0.002110 1.759500 
# 
# From -- ./inp_files/199263.got.cif
#   From: 2010.06.25/outbox.cif.g09.slc.cpg/sg2_100_cif.got.tgz:199263.got - 2010.06.27 13:26:56.
