data_PCOD8038957
_publ_section_title
;
Structure prediction by ZEFSAII (Michael W. Deem and Ramdas Pophale) SiO2 
 PCOD8038957
Probable space group: P -1
;
_chemical_formula_sum "Si O2"
_cell_formula_units_Z 16
_cell_length_a 9.817517
_cell_length_b 11.031350
_cell_length_c 12.012826
_cell_angle_alpha 71.899306
_cell_angle_beta 48.292459
_cell_angle_gamma 77.451111
_cell_volume 923.090415
_symmetry_space_group_name_H-M "P -1"
_symmetry_group_IT_number 2
_symmetry_cell_setting 'triclinic'
loop_
_space_group_symop_operation_xyz
x,y,z
-x,-y,-z
loop_
_atom_site_type_symbol
_atom_site_label
_atom_site_fract_x
_atom_site_fract_y
_atom_site_fract_z
Si Si1 0.430904 0.154298 0.810435
Si Si2 0.105450 0.157192 0.385321
Si Si3 0.921251 0.381601 0.513802
Si Si4 0.444196 0.049582 0.354335
Si Si5 0.697218 0.162791 0.352123
Si Si6 0.805233 0.134301 0.725157
Si Si7 0.603479 0.373823 0.519341
Si Si8 0.094414 0.103880 0.149324
O O1 0.594445 0.114160 0.816316
O O2 0.468041 0.286224 0.689070
O O3 0.410679 0.039694 0.765311
O O4 0.244502 0.173082 0.973740
O O5 0.304937 0.116504 0.327680
O O6 0.099116 0.150727 0.259266
O O7 0.085161 0.307717 0.382646
O O8 0.931346 0.087422 0.562223
O O9 0.840042 0.285043 0.680308
O O10 0.768147 0.418834 0.495544
O O11 0.000000 0.500000 0.500000
O O12 0.550667 0.158933 0.332879
O O13 0.326478 0.961608 0.524038
O O14 0.677188 0.293429 0.395768
O O15 0.898699 0.145085 0.194155
O O16 0.862734 0.049968 0.825733
O O17 0.500000 0.500000 0.500000
#
# Coordination Sequence:
#
# PCOD8038957 Si02
#       8
#     2   2   2   2   2   2   2   2
#     4  10  21  33  54  83 111 137 172 221 266 327
#     4  10  18  31  58  79 105 135 178 221 258 319
#     4   9  19  33  55  80 101 132 183 224 248 300
#     4  10  19  33  51  82 110 135 180 214 270 307
#     4  10  20  34  54  76 108 144 176 222 253 320
#     4   9  18  31  54  83 106 136 175 215 261 321
#     4  10  21  38  56  76 103 142 186 216 258 313
#     4  12  18  33  57  81 111 140 168 217 286 310
#
# _framework density 17.333079999999999
#
# number of rings (size 3 to 8) (size 9 to 14) (size 15 to 20)
#    0.750    1.250    3.750    1.500    1.750    0.500 
#    2.250    0.625    0.000    3.000    0.000    0.000 
#    0.000    0.000    0.000    0.000    0.000    0.000 
#
# Total GULP energy -198272.530117 kJ/mol
# GULP energy per Si atom -12392.033132 kJ/mol
# Density = 1.729363 g / cm^3
# Si number density = 17.333080 Si / 1000 Ang^3
#
#
#
# Elastic Constant Matrix: (Units=GPa)
#
#
# Indices 1 2 3 4 5 6 
#
# 1 76.4954 45.5065 19.1426 -2.9565 -17.9395 2.7188
# 2 45.5065 87.8184 24.3512 -5.6077 -10.4550 0.5995
# 3 19.1426 24.3512 91.5355 6.5447 -18.7445 0.0926
# 4 -2.9565 -5.6077 6.5447 13.3613 -5.1510 0.7620
# 5 -17.9395 -10.4550 -18.7445 -5.1510 20.7407 1.3328
# 6 2.7188 0.5995 0.0926 0.7620 1.3328 35.0323
#
#
#
# Elastic Compliance Matrix: (Units=1/GPa)
#
#
# Indices 1 2 3 4 5 6 
#
# 1 0.023199 -0.009586 0.000849 0.007815 0.018103 -0.002497
# 2 -0.009586 0.017592 -0.003310 0.006552 -0.000809 0.000340
# 3 0.000849 -0.003310 0.014139 -0.003904 0.010899 -0.000376
# 4 0.007815 0.006552 -0.003904 0.092971 0.029873 -0.003867
# 5 0.018103 -0.000809 0.010899 0.029873 0.081064 -0.005154
# 6 -0.002497 0.000340 -0.000376 -0.003867 -0.005154 0.029014
#
#
# Mechanical properties :
#
#
# Convention : Reuss Voigt Hill
#
# Bulk Modulus (GPa) = 32.42824 48.20555 40.31690
# Shear Modulus (GPa) = 17.10274 24.95012 21.02643
#
# Velocity S-wave (km/s) = 3.14460 3.79813 3.48671
# Velocity P-wave (km/s) = 5.65103 6.86338 6.28650
#
# Compressibility (1/GPa) = 0.03083732
#
# Stress axis : x y z
#
# Youngs Moduli (GPa) = 43.10572 56.84463 70.72628
#
# Poissons Ratio (x) = 0.54489 -0.06007
# Poissons Ratio (y) = 0.41319 0.23410
# Poissons Ratio (z) = -0.03661 0.18815
#
# Static dielectric constant tensor:
#      x y z
#    x 3.271120 -0.094480 -0.090120 
#    y -0.094480 3.171080 0.077530 
#    z -0.090120 0.077530 2.992880 
# 
# 
# High freq. dielectric constant tensor:
#      x y z
#    x 1.669620 -0.004880 -0.010770 
#    y -0.004880 1.657050 0.009820 
#    z -0.010770 0.009820 1.642130 
# 
# From -- ./inp_files/389958.got.cif
#   From: 2010.06.25/outbox.cif.g09.slc.cpg/sg2_195_cif.got.tgz:389958.got - 2010.06.27 13:26:56.
