data_PCOD8038672
_publ_section_title
;
Structure prediction by ZEFSAII (Michael W. Deem and Ramdas Pophale) SiO2 
 PCOD8038672
Probable space group: P -1
;
_chemical_formula_sum "Si O2"
_cell_formula_units_Z 14
_cell_length_a 12.043663
_cell_length_b 11.894010
_cell_length_c 12.751344
_cell_angle_alpha 76.047461
_cell_angle_beta 156.303931
_cell_angle_gamma 110.808680
_cell_volume 668.750026
_symmetry_space_group_name_H-M "P -1"
_symmetry_group_IT_number 2
_symmetry_cell_setting 'triclinic'
loop_
_space_group_symop_operation_xyz
x,y,z
-x,-y,-z
loop_
_atom_site_type_symbol
_atom_site_label
_atom_site_fract_x
_atom_site_fract_y
_atom_site_fract_z
Si Si1 0.771263 0.779911 0.332486
Si Si2 0.529295 0.449869 0.756764
Si Si3 0.467231 0.884822 0.214934
Si Si4 0.597215 0.136679 0.595635
Si Si5 0.750798 0.709307 0.835937
Si Si6 0.038508 0.353175 0.180262
Si Si7 0.552531 0.102022 0.111208
O O1 0.590501 0.634017 0.224742
O O2 0.717508 0.857963 0.367884
O O3 0.115384 0.803685 0.617104
O O4 0.658479 0.820274 0.116271
O O5 0.603418 0.595359 0.814791
O O6 0.271322 0.405955 0.459526
O O7 0.820489 0.430779 0.967496
O O8 0.522888 0.864599 0.389647
O O9 0.470716 0.024783 0.166954
O O10 0.149891 0.790118 0.926046
O O11 0.468310 0.217171 0.391844
O O12 0.500000 0.000000 0.500000
O O13 0.948944 0.194858 0.881250
O O14 0.794950 0.637403 0.787229
O O15 0.500000 0.000000 0.000000
#
# Coordination Sequence:
#
# PCOD8038672 Si02
#       7
#     2   2   2   2   2   2   2
#     4  10  19  29  46  77 106 131 162 194 241 317
#     4  11  19  31  49  76 108 137 162 198 250 316
#     4   9  19  33  51  72 105 138 163 209 254 288
#     4  11  24  39  54  75  98 132 183 221 249 292
#     4  11  21  35  53  73 101 136 167 211 259 298
#     4  10  19  30  48  77 106 136 167 197 247 321
#     4  10  18  29  46  72 104 136 163 194 244 306
#
# _framework density 20.934578999999999
#
# number of rings (size 3 to 8) (size 9 to 14) (size 15 to 20)
#    0.000    1.714    0.000    9.000    0.000    5.714 
#    0.000    0.000    0.000    0.000    0.000    6.000 
#    0.000    0.000    0.000    0.000    0.000    0.000 
#
# Total GULP energy -173569.524472 kJ/mol
# GULP energy per Si atom -12397.823177 kJ/mol
# Density = 2.088693 g / cm^3
# Si number density = 20.934579 Si / 1000 Ang^3
#
#
#
# Elastic Constant Matrix: (Units=GPa)
#
#
# Indices 1 2 3 4 5 6 
#
# 1 17.2999 23.8611 11.6669 7.5472 3.8861 6.9276
# 2 23.8611 160.3700 44.8449 0.9320 -7.8028 29.5697
# 3 11.6669 44.8449 117.2445 -10.5519 0.9701 2.2269
# 4 7.5472 0.9320 -10.5519 45.0048 2.3101 1.9909
# 5 3.8861 -7.8028 0.9701 2.3101 12.7528 0.8250
# 6 6.9276 29.5697 2.2269 1.9909 0.8250 24.5175
#
#
#
# Elastic Compliance Matrix: (Units=1/GPa)
#
#
# Indices 1 2 3 4 5 6 
#
# 1 0.097014 -0.012672 -0.005723 -0.015219 -0.033526 -0.009245
# 2 -0.012672 0.011402 -0.002901 0.001076 0.011535 -0.010383
# 3 -0.005723 -0.002901 0.010452 0.003383 -0.001695 0.003950
# 4 -0.015219 0.001076 0.003383 0.025496 0.000380 0.000612
# 5 -0.033526 0.011535 -0.001695 0.000380 0.096237 -0.007555
# 6 -0.009245 -0.010383 0.003950 0.000612 -0.007555 0.055767
#
#
# Mechanical properties :
#
#
# Convention : Reuss Voigt Hill
#
# Bulk Modulus (GPa) = 13.11074 50.62891 31.86983
# Shear Modulus (GPa) = 13.72169 30.75780 22.23974
#
# Velocity S-wave (km/s) = 2.56296 3.83722 3.26290
# Velocity P-wave (km/s) = 3.87746 6.62338 5.42696
#
# Compressibility (1/GPa) = 0.07627335
#
# Stress axis : x y z
#
# Youngs Moduli (GPa) = 10.30781 87.70564 95.67585
#
# Poissons Ratio (x) = 1.11142 0.54760
# Poissons Ratio (y) = 0.13062 0.27760
# Poissons Ratio (z) = 0.05900 0.25448
#
# Static dielectric constant tensor:
#      x y z
#    x 3.457450 0.631150 0.098020 
#    y 0.631150 4.361940 -0.048780 
#    z 0.098020 -0.048780 3.779040 
# 
# 
# High freq. dielectric constant tensor:
#      x y z
#    x 1.751380 0.042940 0.016940 
#    y 0.042940 1.831280 -0.007600 
#    z 0.016940 -0.007600 1.833450 
# 
# From -- ./inp_files/522021.got.cif
#   From: 2010.06.25/outbox.cif.g09.slc.cpg/sg2_262_cif.got.tgz:522021.got - 2010.06.27 13:26:56.
