data_PCOD8038976
_publ_section_title
;
Structure prediction by ZEFSAII (Michael W. Deem and Ramdas Pophale) SiO2 
 PCOD8038976
Probable space group: P -1
;
_chemical_formula_sum "Si O2"
_cell_formula_units_Z 16
_cell_length_a 18.018926
_cell_length_b 9.341421
_cell_length_c 9.017512
_cell_angle_alpha 86.635841
_cell_angle_beta 101.813139
_cell_angle_gamma 42.701891
_cell_volume 956.271724
_symmetry_space_group_name_H-M "P -1"
_symmetry_group_IT_number 2
_symmetry_cell_setting 'triclinic'
loop_
_space_group_symop_operation_xyz
x,y,z
-x,-y,-z
loop_
_atom_site_type_symbol
_atom_site_label
_atom_site_fract_x
_atom_site_fract_y
_atom_site_fract_z
Si Si1 0.123144 0.051630 0.760323
Si Si2 0.824616 0.701830 0.270156
Si Si3 0.796968 0.345414 0.296162
Si Si4 0.772437 0.525005 0.839384
Si Si5 0.957479 0.304528 0.169831
Si Si6 0.848557 0.472873 0.562205
Si Si7 0.118045 0.920915 0.075052
Si Si8 0.364812 0.222040 0.958587
O O1 0.181710 0.119370 0.747356
O O2 0.984510 0.255528 0.668413
O O3 0.187511 0.848450 0.685863
O O4 0.154378 0.960083 0.945079
O O5 0.943586 0.471427 0.248903
O O6 0.828533 0.644024 0.445626
O O7 0.710951 0.800610 0.135799
O O8 0.905226 0.250604 0.249426
O O9 0.803808 0.395918 0.462183
O O10 0.676221 0.572567 0.154003
O O11 0.771698 0.599938 0.672870
O O12 0.779655 0.341146 0.830932
O O13 0.884179 0.425594 0.980269
O O14 0.656274 0.731629 0.875149
O O15 0.091636 0.070247 0.192230
O O16 0.000000 0.000000 0.000000
O O17 0.500000 0.000000 0.000000
#
# Coordination Sequence:
#
# PCOD8038976 Si02
#       8
#     2   2   2   2   2   2   2   2
#     4  12  17  29  49  72 110 134 153 200 234 288
#     4   9  22  31  44  76 103 132 165 190 246 290
#     4   9  18  30  49  71  94 130 173 191 227 294
#     4   9  15  29  52  72  90 119 174 203 225 286
#     4   8  14  30  42  65  95 129 160 190 225 288
#     4  10  18  30  47  71 106 134 158 186 234 300
#     4  10  14  25  47  70  93 131 164 194 229 273
#     4   9  18  38  56  69  91 124 168 214 246 285
#
# _framework density 16.731646000000001
#
# number of rings (size 3 to 8) (size 9 to 14) (size 15 to 20)
#    0.000    3.000    6.250    0.750    0.000    1.500 
#    0.000    3.125    0.000    0.000    0.000    1.750 
#    0.000    0.000    0.000    0.000    0.000    0.000 
#
# Total GULP energy -198234.814691 kJ/mol
# GULP energy per Si atom -12389.675918 kJ/mol
# Density = 1.669356 g / cm^3
# Si number density = 16.731646 Si / 1000 Ang^3
#
#
#
# Elastic Constant Matrix: (Units=GPa)
#
#
# Indices 1 2 3 4 5 6 
#
# 1 47.0574 52.0226 30.3852 -0.6530 -9.3945 11.6439
# 2 52.0226 97.0158 33.6370 7.6257 -10.9664 3.4833
# 3 30.3852 33.6370 101.7356 16.9723 -23.0943 0.3378
# 4 -0.6530 7.6257 16.9723 22.1212 -0.0734 -5.4176
# 5 -9.3945 -10.9664 -23.0943 -0.0734 18.7000 -3.9204
# 6 11.6439 3.4833 0.3378 -5.4176 -3.9204 36.0669
#
#
#
# Elastic Compliance Matrix: (Units=1/GPa)
#
#
# Indices 1 2 3 4 5 6 
#
# 1 0.075805 -0.037121 -0.015567 0.022529 -0.006612 -0.018077
# 2 -0.037121 0.030039 0.004803 -0.013215 0.006474 0.007757
# 3 -0.015567 0.004803 0.020443 -0.016715 0.021047 0.004147
# 4 0.022529 -0.013215 -0.016715 0.063671 -0.016418 0.001939
# 5 -0.006612 0.006474 0.021047 -0.016418 0.081495 0.007704
# 6 -0.018077 0.007757 0.004147 0.001939 0.007704 0.033903
#
#
# Mechanical properties :
#
#
# Convention : Reuss Voigt Hill
#
# Bulk Modulus (GPa) = 32.76589 53.09981 42.93285
# Shear Modulus (GPa) = 12.15665 24.02856 18.09261
#
# Velocity S-wave (km/s) = 2.69841 3.79372 3.29194
# Velocity P-wave (km/s) = 5.41611 7.14107 6.33755
#
# Compressibility (1/GPa) = 0.03051955
#
# Stress axis : x y z
#
# Youngs Moduli (GPa) = 13.19169 33.28951 48.91661
#
# Poissons Ratio (x) = 1.23574 0.76146
# Poissons Ratio (y) = 0.48969 -0.23496
# Poissons Ratio (z) = 0.20535 -0.15990
#
# Static dielectric constant tensor:
#      x y z
#    x 2.628250 0.179090 -0.130980 
#    y 0.179090 3.385650 0.290310 
#    z -0.130980 0.290310 3.297320 
# 
# 
# High freq. dielectric constant tensor:
#      x y z
#    x 1.579520 0.021620 -0.018490 
#    y 0.021620 1.640850 0.017410 
#    z -0.018490 0.017410 1.646000 
# 
# From -- ./inp_files/326072.got.cif
#   From: 2010.06.25/outbox.cif.g09.slc.cpg/sg2_164_cif.got.tgz:326072.got - 2010.06.27 13:26:56.
