data_PCOD8038661
_publ_section_title
;
Structure prediction by ZEFSAII (Michael W. Deem and Ramdas Pophale) SiO2 
 PCOD8038661
Probable space group: P -1
;
_chemical_formula_sum "Si O2"
_cell_formula_units_Z 16
_cell_length_a 12.893631
_cell_length_b 11.017702
_cell_length_c 20.391035
_cell_angle_alpha 49.465394
_cell_angle_beta 154.567096
_cell_angle_gamma 136.108128
_cell_volume 862.463978
_symmetry_space_group_name_H-M "P -1"
_symmetry_group_IT_number 2
_symmetry_cell_setting 'triclinic'
loop_
_space_group_symop_operation_xyz
x,y,z
-x,-y,-z
loop_
_atom_site_type_symbol
_atom_site_label
_atom_site_fract_x
_atom_site_fract_y
_atom_site_fract_z
Si Si1 0.153238 0.885033 0.706195
Si Si2 0.065499 0.571377 0.112914
Si Si3 0.171975 0.041507 0.802453
Si Si4 0.392931 0.673987 0.981217
Si Si5 0.340387 0.241873 0.617805
Si Si6 0.142343 0.371983 0.693744
Si Si7 0.093599 0.272944 0.147064
Si Si8 0.312502 0.522779 0.598904
O O1 0.315440 0.761286 0.843342
O O2 0.862580 0.774460 0.550279
O O3 0.113795 0.931048 0.741980
O O4 0.310100 0.053351 0.692599
O O5 0.366996 0.660005 0.279592
O O6 0.017482 0.406052 0.098550
O O7 0.866355 0.494709 0.086490
O O8 0.997043 0.714573 0.983642
O O9 0.016994 0.170628 0.666596
O O10 0.486625 0.169495 0.948803
O O11 0.064531 0.919854 0.847549
O O12 0.631514 0.609942 0.128192
O O13 0.289199 0.344311 0.614024
O O14 0.285421 0.498431 0.670111
O O15 0.917643 0.422934 0.579014
O O16 0.406515 0.321352 0.311510
#
# Coordination Sequence:
#
# PCOD8038661 Si02
#       8
#     2   2   2   2   2   2   2   2
#     4  11  20  34  51  78 105 137 162 209 267 301
#     4  10  19  30  48  80 103 130 164 209 265 299
#     4  10  19  31  51  80 103 129 167 212 257 299
#     4  10  19  33  52  79 103 129 171 212 256 294
#     4  10  22  34  52  74 107 136 169 205 255 315
#     4   9  20  32  56  74 101 135 172 213 246 296
#     4  10  18  28  52  76 105 130 159 220 256 291
#     4  10  18  37  50  77 103 135 176 203 251 298
#
# _framework density 18.551500999999998
#
# number of rings (size 3 to 8) (size 9 to 14) (size 15 to 20)
#    0.750    1.250    3.750    1.125    3.500    1.000 
#    0.000    0.625    0.000    0.000    0.000    2.625 
#    0.000    0.000    0.000    0.000    0.000    0.000 
#
# Total GULP energy -198257.045836 kJ/mol
# GULP energy per Si atom -12391.065365 kJ/mol
# Density = 1.850928 g / cm^3
# Si number density = 18.551501 Si / 1000 Ang^3
#
#
#
# Elastic Constant Matrix: (Units=GPa)
#
#
# Indices 1 2 3 4 5 6 
#
# 1 29.7022 13.9077 23.6079 -1.0372 14.0731 11.0117
# 2 13.9077 67.9338 39.8047 -3.4400 11.1095 22.9049
# 3 23.6079 39.8047 139.1359 -11.3676 17.8788 8.5016
# 4 -1.0372 -3.4400 -11.3676 36.5935 -0.9183 0.1324
# 5 14.0731 11.1095 17.8788 -0.9183 28.1313 -0.1525
# 6 11.0117 22.9049 8.5016 0.1324 -0.1525 19.1117
#
#
#
# Elastic Compliance Matrix: (Units=1/GPa)
#
#
# Indices 1 2 3 4 5 6 
#
# 1 0.071146 0.015005 -0.008257 0.000146 -0.036567 -0.055595
# 2 0.015005 0.034561 -0.007322 0.001150 -0.016718 -0.046950
# 3 -0.008257 -0.007322 0.010236 0.002241 0.000639 0.008969
# 4 0.000146 0.001150 0.002241 0.028119 -0.001048 -0.002662
# 5 -0.036567 -0.016718 0.000639 -0.001048 0.060227 0.041309
# 6 -0.055595 -0.046950 0.008969 -0.002662 0.041309 0.136983
#
#
# Mechanical properties :
#
#
# Convention : Reuss Voigt Hill
#
# Bulk Modulus (GPa) = 8.71123 43.49028 26.10076
# Shear Modulus (GPa) = 13.13420 27.39741 20.26580
#
# Velocity S-wave (km/s) = 2.66369 3.84712 3.30875
# Velocity P-wave (km/s) = 3.76380 6.57478 5.35695
#
# Compressibility (1/GPa) = 0.11479431
#
# Stress axis : x y z
#
# Youngs Moduli (GPa) = 14.05558 28.93445 97.69477
#
# Poissons Ratio (x) = -0.43415 0.80663
# Poissons Ratio (y) = -0.21090 0.71535
# Poissons Ratio (z) = 0.11605 0.21187
#
# Static dielectric constant tensor:
#      x y z
#    x 2.928420 0.176700 0.120090 
#    y 0.176700 3.442020 -0.213690 
#    z 0.120090 -0.213690 3.617290 
# 
# 
# High freq. dielectric constant tensor:
#      x y z
#    x 1.666590 0.025710 0.013800 
#    y 0.025710 1.715990 -0.013330 
#    z 0.013800 -0.013330 1.729880 
# 
# From -- ./inp_files/353175.got.cif
#   From: 2010.06.25/outbox.cif.g09.slc.cpg/sg2_177_cif.got.tgz:353175.got - 2010.06.27 13:26:56.
