data_PCOD8038855
_publ_section_title
;
Structure prediction by ZEFSAII (Michael W. Deem and Ramdas Pophale) SiO2 
 PCOD8038855
Probable space group: P -1
;
_chemical_formula_sum "Si O2"
_cell_formula_units_Z 14
_cell_length_a 9.118263
_cell_length_b 21.812819
_cell_length_c 19.077340
_cell_angle_alpha 18.399240
_cell_angle_beta 136.236143
_cell_angle_gamma 127.826788
_cell_volume 782.050751
_symmetry_space_group_name_H-M "P -1"
_symmetry_group_IT_number 2
_symmetry_cell_setting 'triclinic'
loop_
_space_group_symop_operation_xyz
x,y,z
-x,-y,-z
loop_
_atom_site_type_symbol
_atom_site_label
_atom_site_fract_x
_atom_site_fract_y
_atom_site_fract_z
Si Si1 0.678228 0.748385 0.535593
Si Si2 0.309291 0.101000 0.769416
Si Si3 0.906951 0.499626 0.228109
Si Si4 0.775432 0.084115 0.285772
Si Si5 0.966273 0.104947 0.185560
Si Si6 0.493743 0.457988 0.865670
Si Si7 0.177402 0.642622 0.787427
O O1 0.579738 0.853324 0.313654
O O2 0.520984 0.619911 0.643095
O O3 0.940932 0.616367 0.758025
O O4 0.671183 0.908030 0.421751
O O5 0.142014 0.313417 0.513890
O O6 0.180938 0.940010 0.880140
O O7 0.500000 0.000000 0.000000
O O8 0.765811 0.491385 0.258134
O O9 0.759446 0.475649 0.136331
O O10 0.933104 0.724123 0.991608
O O11 0.823390 0.186776 0.118503
O O12 0.583484 0.237833 0.099215
O O13 0.000000 0.000000 0.500000
O O14 0.153011 0.884433 0.508805
O O15 0.636275 0.468661 0.971851
#
# Coordination Sequence:
#
# PCOD8038855 Si02
#       7
#     2   2   2   2   2   2   2
#     4   9  20  33  55  78 103 140 186 214 249 313
#     4   9  20  42  62  74  94 134 185 229 269 309
#     4  10  22  33  51  81 109 139 175 220 260 315
#     4  10  18  31  50  76 104 145 175 207 245 304
#     4   9  19  36  53  79 108 133 186 207 255 320
#     4  12  20  31  51  80 116 144 171 209 262 304
#     4   9  19  33  49  76 110 153 178 203 243 309
#
# _framework density 17.901651000000001
#
# number of rings (size 3 to 8) (size 9 to 14) (size 15 to 20)
#    0.000    2.857    2.857    2.571    2.000    3.429 
#    0.000    0.714    0.000    4.286    0.000    0.000 
#    0.000    0.000    0.000    0.000    0.000    0.000 
#
# Total GULP energy -173514.287453 kJ/mol
# GULP energy per Si atom -12393.877675 kJ/mol
# Density = 1.786091 g / cm^3
# Si number density = 17.901651 Si / 1000 Ang^3
#
#
#
# Elastic Constant Matrix: (Units=GPa)
#
#
# Indices 1 2 3 4 5 6 
#
# 1 106.9402 31.0726 41.8355 -21.9889 -8.0385 -1.2410
# 2 31.0726 72.5617 44.8097 -0.3290 -3.5360 -10.9732
# 3 41.8355 44.8097 74.7900 -1.2158 -9.3914 0.2169
# 4 -21.9889 -0.3290 -1.2158 36.4390 -2.6329 -2.2027
# 5 -8.0385 -3.5360 -9.3914 -2.6329 17.5441 -9.2411
# 6 -1.2410 -10.9732 0.2169 -2.2027 -9.2411 19.4680
#
#
#
# Elastic Compliance Matrix: (Units=1/GPa)
#
#
# Indices 1 2 3 4 5 6 
#
# 1 0.014781 -0.001201 -0.006539 0.009475 0.006928 0.004699
# 2 -0.001201 0.026106 -0.014166 0.000617 0.006735 0.018063
# 3 -0.006539 -0.014166 0.025942 -0.003387 0.003664 -0.007335
# 4 0.009475 0.000617 -0.003387 0.034759 0.013950 0.011544
# 5 0.006928 0.006735 0.003664 0.013950 0.091508 0.049212
# 6 0.004699 0.018063 -0.007335 0.011544 0.049212 0.086595
#
#
# Mechanical properties :
#
#
# Convention : Reuss Voigt Hill
#
# Bulk Modulus (GPa) = 43.44301 54.41416 48.92858
# Shear Modulus (GPa) = 15.09769 23.79518 19.44643
#
# Velocity S-wave (km/s) = 2.90723 3.64980 3.29947
# Velocity P-wave (km/s) = 5.96570 6.94432 6.47353
#
# Compressibility (1/GPa) = 0.02301866
#
# Stress axis : x y z
#
# Youngs Moduli (GPa) = 67.65255 38.30466 38.54722
#
# Poissons Ratio (x) = 0.04600 0.25204
# Poissons Ratio (y) = 0.08124 0.54607
# Poissons Ratio (z) = 0.44235 0.54264
#
# Static dielectric constant tensor:
#      x y z
#    x 3.264910 -0.267750 -0.005460 
#    y -0.267750 3.487770 -0.350000 
#    z -0.005460 -0.350000 3.147870 
# 
# 
# High freq. dielectric constant tensor:
#      x y z
#    x 1.684390 -0.018780 -0.006940 
#    y -0.018780 1.686250 -0.024980 
#    z -0.006940 -0.024980 1.669420 
# 
# From -- ./inp_files/447738.got.cif
#   From: 2010.06.25/outbox.cif.g09.slc.cpg/sg2_224_cif.got.tgz:447738.got - 2010.06.27 13:26:56.
