data_PCOD8038232
_publ_section_title
;
Structure prediction by ZEFSAII (Michael W. Deem and Ramdas Pophale) SiO2 
 PCOD8038232
Probable space group: P -1
;
_chemical_formula_sum "Si O2"
_cell_formula_units_Z 16
_cell_length_a 12.609402
_cell_length_b 9.744487
_cell_length_c 19.111831
_cell_angle_alpha 64.619972
_cell_angle_beta 153.901647
_cell_angle_gamma 122.859627
_cell_volume 856.771514
_symmetry_space_group_name_H-M "P -1"
_symmetry_group_IT_number 2
_symmetry_cell_setting 'triclinic'
loop_
_space_group_symop_operation_xyz
x,y,z
-x,-y,-z
loop_
_atom_site_type_symbol
_atom_site_label
_atom_site_fract_x
_atom_site_fract_y
_atom_site_fract_z
Si Si1 0.569121 0.005183 0.711504
Si Si2 0.272412 0.856699 0.079218
Si Si3 0.431342 0.378068 0.679698
Si Si4 0.004576 0.100347 0.551702
Si Si5 0.665507 0.058290 0.155124
Si Si6 0.685698 0.759319 0.740272
Si Si7 0.534877 0.271506 0.529083
Si Si8 0.838337 0.636984 0.621580
O O1 0.664156 0.869476 0.767425
O O2 0.274847 0.915298 0.584702
O O3 0.748534 0.088674 0.865924
O O4 0.600132 0.140328 0.641094
O O5 0.358664 0.702599 0.164412
O O6 0.475849 0.008564 0.121179
O O7 0.986496 0.802608 0.887768
O O8 0.181874 0.293480 0.601530
O O9 0.559418 0.569888 0.731718
O O10 0.327288 0.340440 0.547065
O O11 0.131871 0.031513 0.703500
O O12 0.000000 0.000000 0.500000
O O13 0.847258 0.255751 0.221114
O O14 0.500000 0.000000 0.000000
O O15 0.529149 0.791089 0.574874
O O16 0.791833 0.445201 0.645242
O O17 0.279616 0.301595 0.396092
#
# Coordination Sequence:
#
# PCOD8038232 Si02
#       8
#     2   2   2   2   2   2   2   2
#     4  12  21  39  59  82 117 154 184 230 286 343
#     4  11  21  38  59  82 116 154 183 233 281 338
#     4  10  19  38  60  86 108 147 197 233 274 330
#     4  11  18  37  62  82 106 147 191 229 279 337
#     4  11  20  34  58  89 110 137 191 245 277 322
#     4  11  25  35  55  88 119 148 187 235 283 329
#     4  10  20  35  57  82 113 150 190 231 274 334
#     4  10  17  34  60  85 108 146 195 233 275 329
#
# _framework density 18.674758000000001
#
# number of rings (size 3 to 8) (size 9 to 14) (size 15 to 20)
#    0.000    1.250    6.250    1.875    0.000    0.500 
#    4.500    0.000    0.000    0.750    0.000    0.000 
#    0.000    0.000    0.000    0.000    0.000    0.000 
#
# Total GULP energy -198403.400569 kJ/mol
# GULP energy per Si atom -12400.212536 kJ/mol
# Density = 1.863225 g / cm^3
# Si number density = 18.674758 Si / 1000 Ang^3
#
#
#
# Elastic Constant Matrix: (Units=GPa)
#
#
# Indices 1 2 3 4 5 6 
#
# 1 60.9081 53.9966 25.1917 -3.6177 -0.8795 13.7542
# 2 53.9966 118.7223 48.5514 17.9284 3.6396 15.4638
# 3 25.1917 48.5514 87.7677 8.8228 2.0385 9.8539
# 4 -3.6177 17.9284 8.8228 20.5270 6.9243 8.1210
# 5 -0.8795 3.6396 2.0385 6.9243 32.7696 5.8618
# 6 13.7542 15.4638 9.8539 8.1210 5.8618 28.5061
#
#
#
# Elastic Compliance Matrix: (Units=1/GPa)
#
#
# Indices 1 2 3 4 5 6 
#
# 1 0.041773 -0.021057 -0.001731 0.033599 -0.000379 -0.017628
# 2 -0.021057 0.022833 -0.004851 -0.024427 0.001262 0.006150
# 3 -0.001731 -0.004851 0.014907 -0.002099 0.000211 -0.001132
# 4 0.033599 -0.024427 -0.002099 0.090753 -0.010804 -0.025868
# 5 -0.000379 0.001262 0.000211 -0.010804 0.033417 -0.004369
# 6 -0.017628 0.006150 -0.001132 -0.025868 -0.004369 0.048908
#
#
# Mechanical properties :
#
#
# Convention : Reuss Voigt Hill
#
# Bulk Modulus (GPa) = 41.26364 58.09750 49.68057
# Shear Modulus (GPa) = 15.82535 25.67109 20.74822
#
# Velocity S-wave (km/s) = 2.91421 3.71164 3.33683
# Velocity P-wave (km/s) = 5.78510 7.03890 6.44257
#
# Compressibility (1/GPa) = 0.02423441
#
# Stress axis : x y z
#
# Youngs Moduli (GPa) = 23.93900 43.79629 67.08134
#
# Poissons Ratio (x) = 0.92222 0.11613
# Poissons Ratio (y) = 0.50409 0.32542
# Poissons Ratio (z) = 0.04144 0.21246
#
# Static dielectric constant tensor:
#      x y z
#    x 3.469240 0.368970 -0.033120 
#    y 0.368970 3.506250 0.170140 
#    z -0.033120 0.170140 3.503640 
# 
# 
# High freq. dielectric constant tensor:
#      x y z
#    x 1.717240 0.027260 -0.008570 
#    y 0.027260 1.718690 0.012450 
#    z -0.008570 0.012450 1.723110 
# 
# From -- ./inp_files/185849.got.cif
#   From: 2010.06.25/outbox.cif.g09.slc.cpg/sg2_93_cif.got.tgz:185849.got - 2010.06.27 13:26:56.
