data_PCOD8038355
_publ_section_title
;
Structure prediction by ZEFSAII (Michael W. Deem and Ramdas Pophale) SiO2 
 PCOD8038355
Probable space group: P -1
;
_chemical_formula_sum "Si O2"
_cell_formula_units_Z 16
_cell_length_a 13.251499
_cell_length_b 9.409682
_cell_length_c 19.196392
_cell_angle_alpha 27.626623
_cell_angle_beta 133.939727
_cell_angle_gamma 125.512195
_cell_volume 795.110026
_symmetry_space_group_name_H-M "P -1"
_symmetry_group_IT_number 2
_symmetry_cell_setting 'triclinic'
loop_
_space_group_symop_operation_xyz
x,y,z
-x,-y,-z
loop_
_atom_site_type_symbol
_atom_site_label
_atom_site_fract_x
_atom_site_fract_y
_atom_site_fract_z
Si Si1 0.743799 0.354732 0.287471
Si Si2 0.262855 0.859043 0.775914
Si Si3 0.640197 0.849897 0.709970
Si Si4 0.513024 0.243168 0.960398
Si Si5 0.843798 0.302511 0.818663
Si Si6 0.344152 0.172613 0.432588
Si Si7 0.953878 0.691689 0.577873
Si Si8 0.853935 0.755807 0.969262
O O1 0.692086 0.229691 0.242929
O O2 0.642212 0.651531 0.131841
O O3 0.900545 0.469797 0.314401
O O4 0.739495 0.076385 0.460497
O O5 0.165108 0.187715 0.588139
O O6 0.397790 0.905695 0.867224
O O7 0.178412 0.590514 0.882780
O O8 0.584592 0.524709 0.840129
O O9 0.692192 0.858662 0.652218
O O10 0.774120 0.900247 0.800096
O O11 0.513088 0.117066 0.548931
O O12 0.500000 0.000000 0.000000
O O13 0.711681 0.487958 0.713294
O O14 0.890556 0.472336 0.697954
O O15 0.801834 0.970028 0.917720
O O16 0.977546 0.250791 0.957444
O O17 0.000000 0.000000 0.500000
#
# Coordination Sequence:
#
# PCOD8038355 Si02
#       8
#     2   2   2   2   2   2   2   2
#     4  10  18  35  62  81 110 148 185 229 281 323
#     4  10  18  37  62  83 111 145 186 230 281 329
#     4   9  22  40  55  77 118 152 182 222 283 338
#     4  10  22  38  56  84 113 146 186 229 278 333
#     4  11  20  35  60  87 112 142 191 233 272 326
#     4  10  19  38  58  79 110 154 186 224 274 335
#     4  10  17  35  58  86 109 143 185 233 275 328
#     4  10  21  36  56  87 117 141 181 238 279 326
#
# _framework density 20.123000999999999
#
# number of rings (size 3 to 8) (size 9 to 14) (size 15 to 20)
#    0.000    2.000    5.000    0.375    0.000    2.000 
#    6.750    0.625    0.000    0.000    0.000    0.000 
#    0.000    0.000    0.000    0.000    0.000    0.000 
#
# Total GULP energy -198357.895198 kJ/mol
# GULP energy per Si atom -12397.368450 kJ/mol
# Density = 2.007720 g / cm^3
# Si number density = 20.123001 Si / 1000 Ang^3
#
#
#
# Elastic Constant Matrix: (Units=GPa)
#
#
# Indices 1 2 3 4 5 6 
#
# 1 92.3596 35.7055 44.6074 18.9480 16.1494 -19.2303
# 2 35.7055 84.0804 57.7579 20.0201 22.7347 -15.0546
# 3 44.6074 57.7579 118.7353 36.5384 30.9270 -12.0216
# 4 18.9480 20.0201 36.5384 28.2347 -3.6113 -3.9027
# 5 16.1494 22.7347 30.9270 -3.6113 36.9375 -1.8874
# 6 -19.2303 -15.0546 -12.0216 -3.9027 -1.8874 20.4127
#
#
#
# Elastic Compliance Matrix: (Units=1/GPa)
#
#
# Indices 1 2 3 4 5 6 
#
# 1 0.017227 -0.000489 0.000869 -0.011563 -0.008405 0.013392
# 2 -0.000489 0.021753 -0.002868 -0.011359 -0.011339 0.010673
# 3 0.000869 -0.002868 0.028496 -0.037930 -0.025884 0.005841
# 4 -0.011563 -0.011359 -0.037930 0.104819 0.053201 -0.016649
# 5 -0.008405 -0.011339 -0.025884 0.053201 0.063810 -0.015452
# 6 0.013392 0.010673 0.005841 -0.016649 -0.015452 0.068305
#
#
# Mechanical properties :
#
#
# Convention : Reuss Voigt Hill
#
# Bulk Modulus (GPa) = 16.00013 63.47965 39.73989
# Shear Modulus (GPa) = 15.14148 27.59060 21.36604
#
# Velocity S-wave (km/s) = 2.74605 3.70685 3.26202
# Velocity P-wave (km/s) = 4.24533 7.06649 5.82916
#
# Compressibility (1/GPa) = 0.06249950
#
# Stress axis : x y z
#
# Youngs Moduli (GPa) = 58.04996 45.97076 35.09253
#
# Poissons Ratio (x) = 0.02248 -0.03051
# Poissons Ratio (y) = 0.02839 0.10066
# Poissons Ratio (z) = -0.05047 0.13186
#
# Static dielectric constant tensor:
#      x y z
#    x 3.754360 0.109460 0.300630 
#    y 0.109460 3.522040 0.310510 
#    z 0.300630 0.310510 4.334280 
# 
# 
# High freq. dielectric constant tensor:
#      x y z
#    x 1.773650 0.002800 0.005950 
#    y 0.002800 1.753220 0.010280 
#    z 0.005950 0.010280 1.811200 
# 
# From -- ./inp_files/312477.got.cif
#   From: 2010.06.25/outbox.cif.g09.slc.cpg/sg2_157_cif.got.tgz:312477.got - 2010.06.27 13:26:56.
