data_PCOD8038590
_publ_section_title
;
Structure prediction by ZEFSAII (Michael W. Deem and Ramdas Pophale) SiO2 
 PCOD8038590
Probable space group: P -1
;
_chemical_formula_sum "Si O2"
_cell_formula_units_Z 16
_cell_length_a 18.423944
_cell_length_b 9.282598
_cell_length_c 11.704026
_cell_angle_alpha 107.315952
_cell_angle_beta 46.982989
_cell_angle_gamma 141.472994
_cell_volume 779.568260
_symmetry_space_group_name_H-M "P -1"
_symmetry_group_IT_number 2
_symmetry_cell_setting 'triclinic'
loop_
_space_group_symop_operation_xyz
x,y,z
-x,-y,-z
loop_
_atom_site_type_symbol
_atom_site_label
_atom_site_fract_x
_atom_site_fract_y
_atom_site_fract_z
Si Si1 0.471217 0.168457 0.342311
Si Si2 0.886990 0.956107 0.193203
Si Si3 0.374139 0.563527 0.522650
Si Si4 0.361463 0.220480 0.018665
Si Si5 0.012794 0.702635 0.413070
Si Si6 0.381052 0.720278 0.321026
Si Si7 0.080256 0.751693 0.614262
Si Si8 0.637911 0.659147 0.194012
O O1 0.517501 0.228861 0.440130
O O2 0.613101 0.446033 0.182090
O O3 0.460564 0.984130 0.265473
O O4 0.286991 0.019695 0.484215
O O5 0.999523 0.225022 0.205569
O O6 0.815126 0.738719 0.306336
O O7 0.746082 0.856858 0.234925
O O8 0.000000 0.000000 0.000000
O O9 0.364601 0.681859 0.466074
O O10 0.454214 0.515790 0.367015
O O11 0.474726 0.210369 0.873458
O O12 0.285022 0.200515 0.979836
O O13 0.500000 0.500000 0.000000
O O14 0.183257 0.980766 0.228675
O O15 0.050305 0.764195 0.520589
O O16 0.824974 0.554377 0.564171
O O17 0.999208 0.513144 0.339716
#
# Coordination Sequence:
#
# PCOD8038590 Si02
#       8
#     2   2   2   2   2   2   2   2
#     4  10  17  38  66  87 123 168 209 252 316 375
#     4  11  22  34  61  94 125 163 210 256 314 372
#     4  10  19  37  61  90 125 164 204 253 316 374
#     4  11  25  43  64  93 128 167 213 260 320 378
#     4  10  24  42  67  91 129 169 213 260 321 375
#     4  10  24  39  63  97 125 166 208 263 316 373
#     4  10  20  42  63  91 128 171 205 265 317 372
#     4  10  20  38  62  90 120 167 206 254 311 376
#
# _framework density 20.524180999999999
#
# number of rings (size 3 to 8) (size 9 to 14) (size 15 to 20)
#    0.000    1.750    2.500    1.875    3.500    3.500 
#    0.000    9.375    0.000    0.000    0.000    0.000 
#    0.000    0.000    0.000    0.000    0.000    0.000 
#
# Total GULP energy -198218.563970 kJ/mol
# GULP energy per Si atom -12388.660248 kJ/mol
# Density = 2.047747 g / cm^3
# Si number density = 20.524181 Si / 1000 Ang^3
#
#
#
# Elastic Constant Matrix: (Units=GPa)
#
#
# Indices 1 2 3 4 5 6 
#
# 1 93.3576 36.7194 35.5908 -4.8890 11.9585 2.7416
# 2 36.7194 110.9616 17.8903 3.2984 -0.7969 5.8644
# 3 35.5908 17.8903 59.7937 -2.8208 -5.3146 -4.7537
# 4 -4.8890 3.2984 -2.8208 28.1421 -3.3459 -1.3728
# 5 11.9585 -0.7969 -5.3146 -3.3459 23.4436 1.3071
# 6 2.7416 5.8644 -4.7537 -1.3728 1.3071 31.1067
#
#
#
# Elastic Compliance Matrix: (Units=1/GPa)
#
#
# Indices 1 2 3 4 5 6 
#
# 1 0.017990 -0.004271 -0.010543 0.001117 -0.011449 -0.001861
# 2 -0.004271 0.010714 -0.000710 -0.001899 0.002218 -0.001929
# 3 -0.010543 -0.000710 0.024653 0.002250 0.011015 0.004467
# 4 0.001117 -0.001899 0.002250 0.036872 0.005026 0.002020
# 5 -0.011449 0.002218 0.011015 0.005026 0.051768 0.000321
# 6 -0.001861 -0.001929 0.004467 0.002020 0.000321 0.033433
#
#
# Mechanical properties :
#
#
# Convention : Reuss Voigt Hill
#
# Bulk Modulus (GPa) = 44.82316 49.39044 47.10680
# Shear Modulus (GPa) = 23.37391 28.13263 25.75327
#
# Velocity S-wave (km/s) = 3.37834 3.70632 3.54613
# Velocity P-wave (km/s) = 6.09132 6.51402 6.30622
#
# Compressibility (1/GPa) = 0.02230989
#
# Stress axis : x y z
#
# Youngs Moduli (GPa) = 55.58523 93.33539 40.56381
#
# Poissons Ratio (x) = 0.39859 0.42768
# Poissons Ratio (y) = 0.23738 0.02878
# Poissons Ratio (z) = 0.58606 0.06622
#
# Static dielectric constant tensor:
#      x y z
#    x 3.603810 -0.102720 0.166660 
#    y -0.102720 3.724080 0.029090 
#    z 0.166660 0.029090 3.659900 
# 
# 
# High freq. dielectric constant tensor:
#      x y z
#    x 1.811580 0.005090 0.004350 
#    y 0.005090 1.807510 0.001890 
#    z 0.004350 0.001890 1.789840 
# 
# From -- ./inp_files/279288.got.cif
#   From: 2010.06.25/outbox.cif.g09.slc.cpg/sg2_140_cif.got.tgz:279288.got - 2010.06.27 13:26:56.
