data_PCOD8038025
_publ_section_title
;
Structure prediction by ZEFSAII (Michael W. Deem and Ramdas Pophale) SiO2 
 PCOD8038025
Probable space group: P -1
;
_chemical_formula_sum "Si O2"
_cell_formula_units_Z 14
_cell_length_a 9.912673
_cell_length_b 8.412212
_cell_length_c 16.857524
_cell_angle_alpha 42.648535
_cell_angle_beta 39.752183
_cell_angle_gamma 57.308000
_cell_volume 607.963181
_symmetry_space_group_name_H-M "P -1"
_symmetry_group_IT_number 2
_symmetry_cell_setting 'triclinic'
loop_
_space_group_symop_operation_xyz
x,y,z
-x,-y,-z
loop_
_atom_site_type_symbol
_atom_site_label
_atom_site_fract_x
_atom_site_fract_y
_atom_site_fract_z
Si Si1 0.076130 0.646887 0.724960
Si Si2 0.246339 0.356801 0.630005
Si Si3 0.938641 0.108083 0.570415
Si Si4 0.657990 0.620579 0.729004
Si Si5 0.498567 0.051687 0.742286
Si Si6 0.480938 0.716209 0.611657
Si Si7 0.809517 0.269259 0.907668
O O1 0.191095 0.614783 0.596785
O O2 0.250379 0.611824 0.726644
O O3 0.881295 0.447065 0.883823
O O4 0.989198 0.902027 0.685527
O O5 0.336773 0.372567 0.495381
O O6 0.023878 0.196580 0.792380
O O7 0.418218 0.253158 0.648614
O O8 0.098228 0.335815 0.428336
O O9 0.691971 0.163732 0.667620
O O10 0.000000 0.000000 0.500000
O O11 0.581372 0.839196 0.732473
O O12 0.509676 0.595517 0.728283
O O13 0.651981 0.393116 0.871992
O O14 0.309817 0.962378 0.918749
O O15 0.500000 0.000000 0.500000
#
# Coordination Sequence:
#
# PCOD8038025 Si02
#       7
#     2   2   2   2   2   2   2
#     4  10  21  36  59  90 115 153 201 240 291 350
#     4  10  22  37  62  86 121 153 204 240 292 352
#     4  10  17  33  58  88 113 150 198 243 283 343
#     4  11  22  35  61  91 120 152 197 249 297 344
#     4  11  19  37  65  86 117 160 202 242 285 359
#     4  12  21  37  61  92 121 152 194 251 302 339
#     4  10  23  38  59  89 119 160 201 236 294 358
#
# _framework density 23.027711
#
# number of rings (size 3 to 8) (size 9 to 14) (size 15 to 20)
#    0.857    0.571    5.714    2.143    0.000    0.571 
#    0.000    0.714    3.143    1.714    0.000    0.000 
#    0.000    0.000    0.000    0.000    0.000    0.000 
#
# Total GULP energy -173444.437782 kJ/mol
# GULP energy per Si atom -12388.888413 kJ/mol
# Density = 2.297530 g / cm^3
# Si number density = 23.027711 Si / 1000 Ang^3
#
#
#
# Elastic Constant Matrix: (Units=GPa)
#
#
# Indices 1 2 3 4 5 6 
#
# 1 126.2731 2.1348 27.8803 13.1061 4.3191 -10.1154
# 2 2.1348 60.8776 2.1844 4.3002 5.1918 -16.7890
# 3 27.8803 2.1844 65.2853 0.5862 -6.0101 -9.7693
# 4 13.1061 4.3002 0.5862 21.3861 -4.4305 -4.4030
# 5 4.3191 5.1918 -6.0101 -4.4305 27.6196 2.5337
# 6 -10.1154 -16.7890 -9.7693 -4.4030 2.5337 29.2588
#
#
#
# Elastic Compliance Matrix: (Units=1/GPa)
#
#
# Indices 1 2 3 4 5 6 
#
# 1 0.009803 0.001151 -0.004227 -0.006520 -0.003898 0.001995
# 2 0.001151 0.020463 0.000152 -0.003496 -0.005669 0.012156
# 3 -0.004227 0.000152 0.018259 0.004068 0.004807 0.004919
# 4 -0.006520 -0.003496 0.004068 0.054502 0.010905 0.004356
# 5 -0.003898 -0.005669 0.004807 0.010905 0.041128 -0.004916
# 6 0.001995 0.012156 0.004919 0.004356 -0.004916 0.044566
#
#
# Mechanical properties :
#
#
# Convention : Reuss Voigt Hill
#
# Bulk Modulus (GPa) = 23.43098 35.20390 29.31744
# Shear Modulus (GPa) = 23.94694 30.33531 27.14112
#
# Velocity S-wave (km/s) = 3.22827 3.63345 3.43684
# Velocity P-wave (km/s) = 4.90845 5.73790 5.33931
#
# Compressibility (1/GPa) = 0.04267854
#
# Stress axis : x y z
#
# Youngs Moduli (GPa) = 102.01007 48.86793 54.76648
#
# Poissons Ratio (x) = -0.05624 0.23148
# Poissons Ratio (y) = -0.11741 -0.00834
# Poissons Ratio (z) = 0.43117 -0.00744
#
# Static dielectric constant tensor:
#      x y z
#    x 4.701450 -0.340650 -0.482760 
#    y -0.340650 4.235470 -0.129920 
#    z -0.482760 -0.129920 4.174240 
# 
# 
# High freq. dielectric constant tensor:
#      x y z
#    x 1.915510 -0.039810 -0.011860 
#    y -0.039810 1.886880 -0.009690 
#    z -0.011860 -0.009690 1.881410 
# 
# From -- ./inp_files/565105.got.cif
#   From: 2010.06.25/outbox.cif.g09.slc.cpg/sg2_283_cif.got.tgz:565105.got - 2010.06.27 13:26:56.
