data_PCOD8038169
_publ_section_title
;
Structure prediction by ZEFSAII (Michael W. Deem and Ramdas Pophale) SiO2 
 PCOD8038169
Probable space group: P -1
;
_chemical_formula_sum "Si O2"
_cell_formula_units_Z 16
_cell_length_a 24.000000
_cell_length_b 15.000000
_cell_length_c 9.000000
_cell_angle_alpha 50.000000
_cell_angle_beta 150.000000
_cell_angle_gamma 150.000000
_cell_volume 731.734496
_symmetry_space_group_name_H-M "P -1"
_symmetry_group_IT_number 2
_symmetry_cell_setting 'triclinic'
loop_
_space_group_symop_operation_xyz
x,y,z
-x,-y,-z
loop_
_atom_site_type_symbol
_atom_site_label
_atom_site_fract_x
_atom_site_fract_y
_atom_site_fract_z
Si Si1 0.491366 0.478536 0.327957
Si Si2 0.345700 0.811101 0.566533
Si Si3 0.125564 0.028891 0.862739
Si Si4 0.260174 0.958470 0.027467
Si Si5 0.209828 0.810343 0.772233
Si Si6 0.591469 0.379013 0.207552
Si Si7 0.809034 0.650624 0.677082
Si Si8 0.028245 0.618999 0.270861
O O1 0.500000 0.500000 0.500000
O O2 0.678857 0.571761 0.601466
O O3 0.314814 0.249627 0.118158
O O4 0.486549 0.606821 0.120624
O O5 0.326523 0.885833 0.306932
O O6 0.295855 0.637474 0.582484
O O7 0.197289 0.717227 0.451692
O O8 0.562360 0.001991 0.917425
O O9 0.000000 0.000000 0.500000
O O10 0.992710 0.889470 0.847410
O O11 0.147291 0.924143 0.936514
O O12 0.428246 0.189203 0.136952
O O13 0.150258 0.842151 0.740991
O O14 0.124392 0.780621 0.449801
O O15 0.109165 0.601052 0.766657
O O16 0.698961 0.565519 0.356702
O O17 0.873307 0.571982 0.894454
#
# Coordination Sequence:
#
# PCOD8038169 Si02
#       8
#     2   2   2   2   2   2   2   2
#     4  12  29  49  71 103 140 184 231 292 353 407
#     4  11  23  42  69 101 135 181 230 283 346 410
#     4  12  25  43  74 101 135 183 234 285 341 411
#     4  11  22  43  70 101 135 179 234 280 343 412
#     4  10  24  40  61  99 144 177 225 282 342 413
#     4  11  23  45  72  99 137 184 227 287 341 415
#     4  12  24  44  72  98 138 178 237 279 344 416
#     4  11  24  40  65 102 140 184 219 282 352 407
#
# _framework density 21.865853999999999
#
# number of rings (size 3 to 8) (size 9 to 14) (size 15 to 20)
#    0.000    0.750    3.750    4.500    1.750    6.500 
#    0.000    0.000    0.000    0.000    0.000    0.000 
#    0.000    0.000    0.000    0.000    0.000    0.000 
#
# Total GULP energy -198217.970022 kJ/mol
# GULP energy per Si atom -12388.623126 kJ/mol
# Density = 2.181609 g / cm^3
# Si number density = 21.865854 Si / 1000 Ang^3
#
#
#
# Elastic Constant Matrix: (Units=GPa)
#
#
# Indices 1 2 3 4 5 6 
#
# 1 136.0888 24.8212 42.2059 11.3825 8.0363 -9.7720
# 2 24.8212 75.7955 13.5705 1.7711 20.8095 -5.4836
# 3 42.2059 13.5705 55.8261 1.9409 14.7554 -2.9331
# 4 11.3825 1.7711 1.9409 34.0213 2.1178 0.9350
# 5 8.0363 20.8095 14.7554 2.1178 31.4666 4.8103
# 6 -9.7720 -5.4836 -2.9331 0.9350 4.8103 36.8193
#
#
#
# Elastic Compliance Matrix: (Units=1/GPa)
#
#
# Indices 1 2 3 4 5 6 
#
# 1 0.010445 -0.002578 -0.007789 -0.003123 0.002671 0.001498
# 2 -0.002578 0.017356 0.001036 0.000543 -0.011880 0.003522
# 3 -0.007789 0.001036 0.026632 0.001706 -0.011555 0.001675
# 4 -0.003123 0.000543 0.001706 0.030483 -0.002245 -0.001093
# 5 0.002671 -0.011880 -0.011555 -0.002245 0.045731 -0.007899
# 6 0.001498 0.003522 0.001675 -0.001093 -0.007899 0.029275
#
#
# Mechanical properties :
#
#
# Convention : Reuss Voigt Hill
#
# Bulk Modulus (GPa) = 27.95450 47.65618 37.80534
# Shear Modulus (GPa) = 26.24583 32.93564 29.59074
#
# Velocity S-wave (km/s) = 3.46831 3.88527 3.68269
# Velocity P-wave (km/s) = 5.37133 6.47836 5.95065
#
# Compressibility (1/GPa) = 0.03577241
#
# Stress axis : x y z
#
# Youngs Moduli (GPa) = 95.74007 57.61759 37.54854
#
# Poissons Ratio (x) = 0.14853 0.29245
# Poissons Ratio (y) = 0.24680 -0.03891
# Poissons Ratio (z) = 0.74568 -0.05970
#
# Static dielectric constant tensor:
#      x y z
#    x 4.059680 -0.214810 -0.065470 
#    y -0.214810 4.147030 0.101850 
#    z -0.065470 0.101850 4.093230 
# 
# 
# High freq. dielectric constant tensor:
#      x y z
#    x 1.870510 -0.000860 0.003570 
#    y -0.000860 1.878760 0.007610 
#    z 0.003570 0.007610 1.851740 
# 
# From -- ./inp_files/354530.got.cif
#   From: 2010.06.25/outbox.ucp.g09.slc.cvg/sg2_178_cif.got.tgz:354530.got - 2010.06.28 11:54:26.
