data_PCOD8038446
_publ_section_title
;
Structure prediction by ZEFSAII (Michael W. Deem and Ramdas Pophale) SiO2 
 PCOD8038446
Probable space group: P -1
;
_chemical_formula_sum "Si O2"
_cell_formula_units_Z 16
_cell_length_a 9.570394
_cell_length_b 8.414188
_cell_length_c 14.024715
_cell_angle_alpha 69.889136
_cell_angle_beta 124.423235
_cell_angle_gamma 117.280457
_cell_volume 822.432103
_symmetry_space_group_name_H-M "P -1"
_symmetry_group_IT_number 2
_symmetry_cell_setting 'triclinic'
loop_
_space_group_symop_operation_xyz
x,y,z
-x,-y,-z
loop_
_atom_site_type_symbol
_atom_site_label
_atom_site_fract_x
_atom_site_fract_y
_atom_site_fract_z
Si Si1 0.778689 0.456301 0.321349
Si Si2 0.516670 0.071561 0.285931
Si Si3 0.989010 0.181815 0.005906
Si Si4 0.608796 0.975815 0.955148
Si Si5 0.165159 0.274045 0.872225
Si Si6 0.924830 0.706615 0.493188
Si Si7 0.836133 0.951523 0.752469
Si Si8 0.780532 0.925346 0.522612
O O1 0.608886 0.278131 0.310998
O O2 0.752655 0.543767 0.193326
O O3 0.788173 0.591905 0.384037
O O4 0.961180 0.408855 0.395730
O O5 0.530472 0.056641 0.179980
O O6 0.308526 0.001282 0.248122
O O7 0.607858 0.945125 0.400099
O O8 0.080854 0.326199 0.928080
O O9 0.783297 0.155726 0.961971
O O10 0.108913 0.209388 0.143198
O O11 0.000000 0.000000 0.000000
O O12 0.674795 0.804942 0.028847
O O13 0.500000 0.000000 0.000000
O O14 0.011275 0.131850 0.777799
O O15 0.812450 0.751621 0.526060
O O16 0.049215 0.893788 0.457715
O O17 0.747052 0.885780 0.629659
#
# Coordination Sequence:
#
# PCOD8038446 Si02
#       8
#     2   2   2   2   2   2   2   2
#     4  10  21  34  59  79 117 145 178 231 290 332
#     4  11  21  35  54  91 113 138 189 237 273 333
#     4   8  16  33  55  76 106 145 189 222 257 331
#     4  10  20  33  57  89 113 139 191 239 266 319
#     4  10  18  36  61  77 106 160 180 221 278 336
#     4   9  20  38  50  86 110 144 189 227 275 344
#     4  10  17  36  58  81 105 148 198 220 267 339
#     4  10  20  32  63  79 108 146 190 234 271 322
#
# _framework density 19.454492999999999
#
# number of rings (size 3 to 8) (size 9 to 14) (size 15 to 20)
#    0.000    2.500    5.000    0.375    1.750    3.500 
#    0.000    0.625    2.750    1.500    0.000    0.000 
#    0.000    0.000    0.000    0.000    0.000    0.000 
#
# Total GULP energy -198312.347178 kJ/mol
# GULP energy per Si atom -12394.521699 kJ/mol
# Density = 1.941021 g / cm^3
# Si number density = 19.454493 Si / 1000 Ang^3
#
#
#
# Elastic Constant Matrix: (Units=GPa)
#
#
# Indices 1 2 3 4 5 6 
#
# 1 100.7051 14.1770 37.7197 5.4580 -10.8198 -12.9936
# 2 14.1770 38.1406 24.3366 -1.1518 -3.1998 -14.2386
# 3 37.7197 24.3366 138.2607 5.4849 -17.1681 -9.6008
# 4 5.4580 -1.1518 5.4849 25.1743 4.1856 -3.9806
# 5 -10.8198 -3.1998 -17.1681 4.1856 32.9556 4.6265
# 6 -12.9936 -14.2386 -9.6008 -3.9806 4.6265 16.8320
#
#
#
# Elastic Compliance Matrix: (Units=1/GPa)
#
#
# Indices 1 2 3 4 5 6 
#
# 1 0.012050 -0.000194 -0.002495 -0.001290 0.001832 0.006906
# 2 -0.000194 0.044137 -0.006208 0.010294 -0.005601 0.037620
# 3 -0.002495 -0.006208 0.009416 -0.003121 0.004407 -0.003756
# 4 -0.001290 0.010294 -0.003121 0.045817 -0.009593 0.019403
# 5 0.001832 -0.005601 0.004407 -0.009593 0.035727 -0.012899
# 6 0.006906 0.037620 -0.003756 0.019403 -0.012899 0.102557
#
#
# Mechanical properties :
#
#
# Convention : Reuss Voigt Hill
#
# Bulk Modulus (GPa) = 20.91628 47.73033 34.32331
# Shear Modulus (GPa) = 17.64086 28.38392 23.01239
#
# Velocity S-wave (km/s) = 3.01454 3.82382 3.44304
# Velocity P-wave (km/s) = 4.78449 6.63951 5.78681
#
# Compressibility (1/GPa) = 0.04780965
#
# Stress axis : x y z
#
# Youngs Moduli (GPa) = 82.99042 22.65672 106.19872
#
# Poissons Ratio (x) = 0.00440 0.26496
# Poissons Ratio (y) = 0.01611 0.65923
# Poissons Ratio (z) = 0.20706 0.14064
#
# Static dielectric constant tensor:
#      x y z
#    x 3.637670 0.091170 -0.241050 
#    y 0.091170 3.179120 -0.043900 
#    z -0.241050 -0.043900 3.875890 
# 
# 
# High freq. dielectric constant tensor:
#      x y z
#    x 1.750060 0.005040 -0.009030 
#    y 0.005040 1.708170 0.003990 
#    z -0.009030 0.003990 1.776990 
# 
# From -- ./inp_files/494744.got.cif
#   From: 2010.06.25/outbox.cif.g09.slc.cpg/sg2_248_cif.got.tgz:494744.got - 2010.06.27 13:26:56.
