data_PCOD8038378
_publ_section_title
;
Structure prediction by ZEFSAII (Michael W. Deem and Ramdas Pophale) SiO2 
 PCOD8038378
Probable space group: P -1
;
_chemical_formula_sum "Si O2"
_cell_formula_units_Z 16
_cell_length_a 14.269349
_cell_length_b 27.844601
_cell_length_c 8.563576
_cell_angle_alpha 40.769208
_cell_angle_beta 142.835744
_cell_angle_gamma 159.520441
_cell_volume 718.212512
_symmetry_space_group_name_H-M "P -1"
_symmetry_group_IT_number 2
_symmetry_cell_setting 'triclinic'
loop_
_space_group_symop_operation_xyz
x,y,z
-x,-y,-z
loop_
_atom_site_type_symbol
_atom_site_label
_atom_site_fract_x
_atom_site_fract_y
_atom_site_fract_z
Si Si1 0.613613 0.343317 0.251447
Si Si2 0.763660 0.414560 0.626565
Si Si3 0.425222 0.839858 0.390652
Si Si4 0.203556 0.403575 0.758347
Si Si5 0.172634 0.967525 0.266694
Si Si6 0.290448 0.164379 0.806193
Si Si7 0.092191 0.228463 0.836970
Si Si8 0.920841 0.050900 0.316506
O O1 0.584767 0.334057 0.425601
O O2 0.536748 0.232273 0.356916
O O3 0.922938 0.492816 0.227573
O O4 0.392130 0.314156 0.963370
O O5 0.780526 0.504860 0.485898
O O6 0.625865 0.315691 0.834618
O O7 0.087098 0.726853 0.202120
O O8 0.577678 0.938545 0.501644
O O9 0.583559 0.925150 0.229961
O O10 0.150749 0.336557 0.693621
O O11 0.500000 0.500000 0.000000
O O12 0.847636 0.860092 0.157133
O O13 0.138978 0.876142 0.354048
O O14 0.258114 0.062963 0.013914
O O15 0.112019 0.140224 0.503059
O O16 0.982326 0.139093 0.059861
O O17 0.000000 0.000000 0.500000
#
# Coordination Sequence:
#
# PCOD8038378 Si02
#       8
#     2   2   2   2   2   2   2   2
#     4  10  18  33  59  89 116 149 196 252 286 339
#     4  10  20  35  60  89 119 154 199 250 293 342
#     4  10  22  38  60  90 121 152 199 246 301 355
#     4  11  23  41  59  84 122 162 199 243 294 349
#     4  10  22  35  58  91 122 152 192 249 303 357
#     4  10  17  35  60  89 120 151 197 250 301 342
#     4  12  21  37  61  89 123 157 194 244 304 349
#     4  11  17  32  61  92 118 147 196 256 295 337
#
# _framework density 22.277526999999999
#
# number of rings (size 3 to 8) (size 9 to 14) (size 15 to 20)
#    0.000    1.500    5.000    1.500    0.000    1.000 
#    0.000    6.250    0.000    0.000    0.000    0.000 
#    0.000    0.000    0.000    0.000    0.000    0.000 
#
# Total GULP energy -198225.538275 kJ/mol
# GULP energy per Si atom -12389.096142 kJ/mol
# Density = 2.222682 g / cm^3
# Si number density = 22.277527 Si / 1000 Ang^3
#
#
#
# Elastic Constant Matrix: (Units=GPa)
#
#
# Indices 1 2 3 4 5 6 
#
# 1 115.2691 70.6018 26.9588 -3.8223 9.0072 -17.4899
# 2 70.6018 129.3343 30.8646 0.1139 -7.5518 12.8521
# 3 26.9588 30.8646 34.5268 -1.2954 -2.8407 7.3811
# 4 -3.8223 0.1139 -1.2954 28.9038 5.7996 0.1541
# 5 9.0072 -7.5518 -2.8407 5.7996 25.0217 -3.4690
# 6 -17.4899 12.8521 7.3811 0.1541 -3.4690 62.4197
#
#
#
# Elastic Compliance Matrix: (Units=1/GPa)
#
#
# Indices 1 2 3 4 5 6 
#
# 1 0.018520 -0.009492 -0.008285 0.004160 -0.010392 0.007536
# 2 -0.009492 0.014865 -0.004354 -0.002975 0.007435 -0.004785
# 3 -0.008285 -0.004354 0.041047 -0.000326 0.005577 -0.005968
# 4 0.004160 -0.002975 -0.000326 0.037332 -0.010931 0.001117
# 5 -0.010392 0.007435 0.005577 -0.010931 0.048789 -0.002364
# 6 0.007536 -0.004785 -0.005968 0.001117 -0.002364 0.019689
#
#
# Mechanical properties :
#
#
# Convention : Reuss Voigt Hill
#
# Bulk Modulus (GPa) = 33.14607 59.55341 46.34974
# Shear Modulus (GPa) = 21.31652 33.31604 27.31628
#
# Velocity S-wave (km/s) = 3.09667 3.87136 3.50549
# Velocity P-wave (km/s) = 5.26278 6.83914 6.10208
#
# Compressibility (1/GPa) = 0.03016949
#
# Stress axis : x y z
#
# Youngs Moduli (GPa) = 53.99483 67.27380 24.36259
#
# Poissons Ratio (x) = 0.63856 0.20185
# Poissons Ratio (y) = 0.51252 0.10606
# Poissons Ratio (z) = 0.44737 0.29288
#
# Static dielectric constant tensor:
#      x y z
#    x 4.359150 0.154980 -0.083030 
#    y 0.154980 4.449970 -0.027470 
#    z -0.083030 -0.027470 3.579030 
# 
# 
# High freq. dielectric constant tensor:
#      x y z
#    x 1.886260 0.005020 -0.001340 
#    y 0.005020 1.894890 0.004940 
#    z -0.001340 0.004940 1.817790 
# 
# From -- ./inp_files/321061.got.cif
#   From: 2010.06.25/outbox.cif.g09.slc.cpg/sg2_161_cif.got.tgz:321061.got - 2010.06.27 13:26:56.
