data_PCOD8038685
_publ_section_title
;
Structure prediction by ZEFSAII (Michael W. Deem and Ramdas Pophale) SiO2 
 PCOD8038685
Probable space group: P -1
;
_chemical_formula_sum "Si O2"
_cell_formula_units_Z 16
_cell_length_a 11.502870
_cell_length_b 11.743976
_cell_length_c 9.444676
_cell_angle_alpha 114.510366
_cell_angle_beta 54.858535
_cell_angle_gamma 89.905800
_cell_volume 898.376932
_symmetry_space_group_name_H-M "P -1"
_symmetry_group_IT_number 2
_symmetry_cell_setting 'triclinic'
loop_
_space_group_symop_operation_xyz
x,y,z
-x,-y,-z
loop_
_atom_site_type_symbol
_atom_site_label
_atom_site_fract_x
_atom_site_fract_y
_atom_site_fract_z
Si Si1 0.640468 0.380935 0.689346
Si Si2 0.693458 0.359658 0.207780
Si Si3 0.367299 0.087966 0.538899
Si Si4 0.434936 0.349929 0.597228
Si Si5 0.129163 0.794394 0.767479
Si Si6 0.519469 0.934897 0.106573
Si Si7 0.546573 0.327693 0.021844
Si Si8 0.205267 0.052783 0.889153
O O1 0.505828 0.334638 0.696533
O O2 0.798608 0.306872 0.463523
O O3 0.593264 0.539350 0.780242
O O4 0.649155 0.345057 0.829063
O O5 0.564472 0.350563 0.399036
O O6 0.694962 0.508668 0.255581
O O7 0.850275 0.281376 0.134274
O O8 0.665908 0.291059 0.047523
O O9 0.372331 0.229827 0.557455
O O10 0.220873 0.110216 0.750789
O O11 0.500000 0.000000 0.500000
O O12 0.374731 0.008302 0.345345
O O13 0.214362 0.902267 0.778709
O O14 0.954146 0.860313 0.890054
O O15 0.530127 0.783583 0.005532
O O16 0.668731 0.944432 0.083963
O O17 0.500000 0.000000 0.000000
#
# Coordination Sequence:
#
# PCOD8038685 Si02
#       8
#     2   2   2   2   2   2   2   2
#     4   9  17  30  51  72  97 128 158 202 238 282
#     4   9  17  30  51  73  97 127 159 204 239 280
#     4  10  18  31  51  73  98 127 162 207 242 278
#     4   9  16  29  50  74  95 124 170 204 237 275
#     4  10  19  36  52  69  95 131 171 199 238 290
#     4  11  20  31  50  76 102 123 152 202 252 289
#     4  10  18  29  49  78  99 121 160 197 245 288
#     4  10  21  34  53  72  94 130 168 201 240 294
#
# _framework density 17.809896999999999
#
# number of rings (size 3 to 8) (size 9 to 14) (size 15 to 20)
#    0.000    2.250    0.000    7.500    0.000    0.000 
#    0.000    2.500    0.000    4.500    0.000    0.000 
#    0.000    0.000    0.000    0.000    0.000    0.000 
#
# Total GULP energy -198287.259767 kJ/mol
# GULP energy per Si atom -12392.953735 kJ/mol
# Density = 1.776936 g / cm^3
# Si number density = 17.809897 Si / 1000 Ang^3
#
#
#
# Elastic Constant Matrix: (Units=GPa)
#
#
# Indices 1 2 3 4 5 6 
#
# 1 67.2160 25.1454 38.7188 1.9355 10.4601 -4.5393
# 2 25.1454 95.7953 38.2416 15.0611 2.2363 1.8203
# 3 38.7188 38.2416 109.6311 11.0640 11.4111 -1.7659
# 4 1.9355 15.0611 11.0640 24.4321 -2.2894 9.8164
# 5 10.4601 2.2363 11.4111 -2.2894 26.5194 -2.3337
# 6 -4.5393 1.8203 -1.7659 9.8164 -2.3337 21.0635
#
#
#
# Elastic Compliance Matrix: (Units=1/GPa)
#
#
# Indices 1 2 3 4 5 6 
#
# 1 0.020237 -0.003217 -0.005585 0.001219 -0.004933 0.003056
# 2 -0.003217 0.013543 -0.002928 -0.007231 0.000882 0.001358
# 3 -0.005585 -0.002928 0.012976 -0.004736 -0.003369 0.001971
# 4 0.001219 -0.007231 -0.004736 0.058418 0.004905 -0.026191
# 5 -0.004933 0.000882 -0.003369 0.004905 0.041531 0.000894
# 6 0.003056 0.001358 0.001971 -0.026191 0.000894 0.060487
#
#
# Mechanical properties :
#
#
# Convention : Reuss Voigt Hill
#
# Bulk Modulus (GPa) = 42.92773 52.98380 47.95576
# Shear Modulus (GPa) = 20.97153 25.77208 23.37181
#
# Velocity S-wave (km/s) = 3.43523 3.80816 3.62649
# Velocity P-wave (km/s) = 6.31585 7.01073 6.67234
#
# Compressibility (1/GPa) = 0.02329497
#
# Stress axis : x y z
#
# Youngs Moduli (GPa) = 49.41370 73.84090 77.06607
#
# Poissons Ratio (x) = 0.23754 0.43045
# Poissons Ratio (y) = 0.15896 0.22565
# Poissons Ratio (z) = 0.27600 0.21621
#
# Static dielectric constant tensor:
#      x y z
#    x 3.150210 -0.208720 0.274430 
#    y -0.208720 3.527340 0.003530 
#    z 0.274430 0.003530 3.576380 
# 
# 
# High freq. dielectric constant tensor:
#      x y z
#    x 1.649890 -0.015490 0.026510 
#    y -0.015490 1.702950 0.007930 
#    z 0.026510 0.007930 1.689880 
# 
# From -- ./inp_files/262936.got.cif
#   From: 2010.06.25/outbox.cif.g09.slc.cpg/sg2_132_cif.got.tgz:262936.got - 2010.06.27 13:26:56.
