data_PCOD8038916
_publ_section_title
;
Structure prediction by ZEFSAII (Michael W. Deem and Ramdas Pophale) SiO2 
 PCOD8038916
Probable space group: P -1
;
_chemical_formula_sum "Si O2"
_cell_formula_units_Z 16
_cell_length_a 13.552139
_cell_length_b 7.802319
_cell_length_c 10.978227
_cell_angle_alpha 60.714243
_cell_angle_beta 91.470052
_cell_angle_gamma 125.386141
_cell_volume 769.346478
_symmetry_space_group_name_H-M "P -1"
_symmetry_group_IT_number 2
_symmetry_cell_setting 'triclinic'
loop_
_space_group_symop_operation_xyz
x,y,z
-x,-y,-z
loop_
_atom_site_type_symbol
_atom_site_label
_atom_site_fract_x
_atom_site_fract_y
_atom_site_fract_z
Si Si1 0.560714 0.727108 0.517697
Si Si2 0.285657 0.553775 0.066856
Si Si3 0.864941 0.066051 0.432594
Si Si4 0.508921 0.630018 0.166279
Si Si5 0.300467 0.909875 0.142058
Si Si6 0.523455 0.987529 0.242657
Si Si7 0.965835 0.977305 0.706096
Si Si8 0.982974 0.388662 0.669161
O O1 0.500000 0.500000 0.500000
O O2 0.497262 0.596004 0.694042
O O3 0.713138 0.887329 0.473822
O O4 0.531404 0.911542 0.407090
O O5 0.380222 0.497616 0.128002
O O6 0.276777 0.701209 0.122370
O O7 0.141546 0.286666 0.132172
O O8 0.343824 0.724447 0.886025
O O9 0.918183 0.011662 0.338446
O O10 0.929170 0.367451 0.322381
O O11 0.897845 0.995859 0.582587
O O12 0.509899 0.793925 0.214268
O O13 0.636299 0.821450 0.019760
O O14 0.167366 0.804443 0.232865
O O15 0.398083 0.965975 0.233159
O O16 0.025242 0.214452 0.720106
O O17 0.000000 0.500000 0.500000
#
# Coordination Sequence:
#
# PCOD8038916 Si02
#       8
#     2   2   2   2   2   2   2   2
#     4  10  18  31  54  86 108 143 187 217 271 341
#     4   9  14  30  53  81 107 139 180 227 273 315
#     4  10  20  34  54  84 110 141 180 233 272 317
#     4   8  15  27  51  78 109 139 179 227 267 319
#     4   9  16  32  53  82 109 138 178 230 275 313
#     4   8  17  27  52  83 110 141 180 224 269 331
#     4  10  19  32  58  82 108 143 184 229 273 320
#     4  10  21  33  54  87 110 139 184 234 271 319
#
# _framework density 20.796872
#
# number of rings (size 3 to 8) (size 9 to 14) (size 15 to 20)
#    0.000    2.750    2.500    1.500    0.000    0.000 
#    0.000    3.125    0.000    7.500    0.000    0.000 
#    0.000    0.000    0.000    0.000    0.000    0.000 
#
# Total GULP energy -198263.363741 kJ/mol
# GULP energy per Si atom -12391.460234 kJ/mol
# Density = 2.074954 g / cm^3
# Si number density = 20.796872 Si / 1000 Ang^3
#
#
#
# Elastic Constant Matrix: (Units=GPa)
#
#
# Indices 1 2 3 4 5 6 
#
# 1 61.8843 47.0489 52.6874 -8.7635 -5.6974 -0.5737
# 2 47.0489 69.1100 33.0977 -24.3831 -6.2818 -3.9934
# 3 52.6874 33.0977 160.1526 -25.5925 7.7578 4.3078
# 4 -8.7635 -24.3831 -25.5925 27.8551 5.4775 -2.2174
# 5 -5.6974 -6.2818 7.7578 5.4775 38.7421 -2.4652
# 6 -0.5737 -3.9934 4.3078 -2.2174 -2.4652 26.6021
#
#
#
# Elastic Compliance Matrix: (Units=1/GPa)
#
#
# Indices 1 2 3 4 5 6 
#
# 1 0.063135 -0.048439 -0.017721 -0.041318 0.010470 -0.005514
# 2 -0.048439 0.059256 0.011608 0.049272 -0.006201 0.009503
# 3 -0.017721 0.011608 0.012731 0.017426 -0.005723 0.000221
# 4 -0.041318 0.049272 0.017426 0.085368 -0.013036 0.009591
# 5 0.010470 -0.006201 -0.005723 -0.013036 0.029454 0.001864
# 6 -0.005514 0.009503 0.000221 0.009591 0.001864 0.039835
#
#
# Mechanical properties :
#
#
# Convention : Reuss Voigt Hill
#
# Bulk Modulus (GPa) = 38.43533 61.86832 50.15182
# Shear Modulus (GPa) = 12.26823 29.19407 20.73115
#
# Velocity S-wave (km/s) = 2.43144 3.75076 3.16070
# Velocity P-wave (km/s) = 5.13848 6.96929 6.12270
#
# Compressibility (1/GPa) = 0.02601773
#
# Stress axis : x y z
#
# Youngs Moduli (GPa) = 15.83897 16.87587 78.54842
#
# Poissons Ratio (x) = 0.81745 1.39198
# Poissons Ratio (y) = 0.76722 -0.91178
# Poissons Ratio (z) = 0.28069 -0.19589
#
# Static dielectric constant tensor:
#      x y z
#    x 3.603840 -0.152750 0.269400 
#    y -0.152750 3.832950 -0.326950 
#    z 0.269400 -0.326950 4.369760 
# 
# 
# High freq. dielectric constant tensor:
#      x y z
#    x 1.781890 -0.009680 -0.009510 
#    y -0.009680 1.793040 -0.030120 
#    z -0.009510 -0.030120 1.820350 
# 
# From -- ./inp_files/321015.got.cif
#   From: 2010.06.25/outbox.cif.g09.slc.cpg/sg2_161_cif.got.tgz:321015.got - 2010.06.27 13:26:56.
