data_PCOD8038788
_publ_section_title
;
Structure prediction by ZEFSAII (Michael W. Deem and Ramdas Pophale) SiO2 
 PCOD8038788
Probable space group: P -1
;
_chemical_formula_sum "Si O2"
_cell_formula_units_Z 16
_cell_length_a 11.740833
_cell_length_b 25.106047
_cell_length_c 11.915887
_cell_angle_alpha 21.711529
_cell_angle_beta 141.511071
_cell_angle_gamma 139.317428
_cell_volume 801.243167
_symmetry_space_group_name_H-M "P -1"
_symmetry_group_IT_number 2
_symmetry_cell_setting 'triclinic'
loop_
_space_group_symop_operation_xyz
x,y,z
-x,-y,-z
loop_
_atom_site_type_symbol
_atom_site_label
_atom_site_fract_x
_atom_site_fract_y
_atom_site_fract_z
Si Si1 0.576610 0.106959 0.204292
Si Si2 0.784366 0.153041 0.049326
Si Si3 0.148929 0.141052 0.435629
Si Si4 0.018420 0.225865 0.620721
Si Si5 0.606353 0.201357 0.379701
Si Si6 0.028612 0.927237 0.334003
Si Si7 0.409795 0.338818 0.769028
Si Si8 0.469050 0.833047 0.350330
O O1 0.635049 0.152753 0.033502
O O2 0.756383 0.078756 0.467179
O O3 0.425968 0.962497 0.374198
O O4 0.482306 0.233888 0.938811
O O5 0.988374 0.231117 0.089840
O O6 0.815345 0.986902 0.372983
O O7 0.710833 0.237886 0.720075
O O8 0.093398 0.080815 0.633108
O O9 0.348553 0.240842 0.398411
O O10 0.051871 0.200849 0.562927
O O11 0.187677 0.335001 0.590190
O O12 0.816824 0.279449 0.372079
O O13 0.003699 0.078948 0.965518
O O14 0.562950 0.190958 0.497294
O O15 0.465542 0.293800 0.025783
O O16 0.500000 0.500000 0.500000
O O17 0.500000 0.000000 0.000000
#
# Coordination Sequence:
#
# PCOD8038788 Si02
#       8
#     2   2   2   2   2   2   2   2
#     4  11  19  39  61  87 125 147 197 247 295 349
#     4   9  18  28  50  85 118 150 174 231 289 347
#     4   9  17  29  46  86 132 140 176 227 307 349
#     4  11  22  35  60  87 119 154 196 245 305 350
#     4  12  22  39  63  93 122 151 199 249 296 352
#     4  10  19  32  59  98 121 148 186 253 298 353
#     4  12  28  43  57  82 121 166 203 245 296 349
#     4  10  18  30  53  90 125 144 181 236 300 352
#
# _framework density 19.968971
#
# number of rings (size 3 to 8) (size 9 to 14) (size 15 to 20)
#    0.000    1.500    5.000    3.375    1.750    1.500 
#    0.000    0.000    0.000    0.750    0.000    7.000 
#    0.000    0.000    0.000    0.000    0.000    0.000 
#
# Total GULP energy -198243.490283 kJ/mol
# GULP energy per Si atom -12390.218143 kJ/mol
# Density = 1.992352 g / cm^3
# Si number density = 19.968971 Si / 1000 Ang^3
#
#
#
# Elastic Constant Matrix: (Units=GPa)
#
#
# Indices 1 2 3 4 5 6 
#
# 1 105.9105 42.5973 28.6518 16.4753 -16.0245 2.0856
# 2 42.5973 118.8537 47.3019 39.0210 -8.8584 19.2673
# 3 28.6518 47.3019 55.8541 18.1177 -13.7773 -4.8477
# 4 16.4753 39.0210 18.1177 31.1710 -3.3549 -1.0689
# 5 -16.0245 -8.8584 -13.7773 -3.3549 22.2787 16.5473
# 6 2.0856 19.2673 -4.8477 -1.0689 16.5473 32.7174
#
#
#
# Elastic Compliance Matrix: (Units=1/GPa)
#
#
# Indices 1 2 3 4 5 6 
#
# 1 0.012927 0.000194 -0.002933 -0.004260 0.012883 -0.008028
# 2 0.000194 0.030116 -0.013251 -0.028649 0.023931 -0.032751
# 3 -0.002933 -0.013251 0.032855 -0.000027 0.005421 0.010116
# 4 -0.004260 -0.028649 -0.000027 0.068188 -0.029772 0.034424
# 5 0.012883 0.023931 0.005421 -0.029772 0.118107 -0.074818
# 6 -0.008028 -0.032751 0.010116 0.034424 -0.074818 0.090827
#
#
# Mechanical properties :
#
#
# Convention : Reuss Voigt Hill
#
# Bulk Modulus (GPa) = 22.76967 57.52447 40.14707
# Shear Modulus (GPa) = 12.51125 28.03791 20.27458
#
# Velocity S-wave (km/s) = 2.50578 3.75116 3.18984
# Velocity P-wave (km/s) = 4.44963 6.90153 5.80648
#
# Compressibility (1/GPa) = 0.04391806
#
# Stress axis : x y z
#
# Youngs Moduli (GPa) = 77.35632 33.20447 30.43689
#
# Poissons Ratio (x) = -0.00645 0.08928
# Poissons Ratio (y) = -0.01503 0.40333
# Poissons Ratio (z) = 0.22690 0.44000
#
# Static dielectric constant tensor:
#      x y z
#    x 3.873980 0.393340 0.097670 
#    y 0.393340 4.710430 1.046670 
#    z 0.097670 1.046670 3.491550 
# 
# 
# High freq. dielectric constant tensor:
#      x y z
#    x 1.791640 0.010450 -0.010210 
#    y 0.010450 1.781560 0.065490 
#    z -0.010210 0.065490 1.725320 
# 
# From -- ./inp_files/439448.got.cif
#   From: 2010.06.25/outbox.cif.g09.slc.cpg/sg2_220_cif.got.tgz:439448.got - 2010.06.27 13:26:56.
