data_PCOD8038644
_publ_section_title
;
Structure prediction by ZEFSAII (Michael W. Deem and Ramdas Pophale) SiO2 
 PCOD8038644
Probable space group: P -1
;
_chemical_formula_sum "Si O2"
_cell_formula_units_Z 16
_cell_length_a 12.249728
_cell_length_b 12.864869
_cell_length_c 21.510982
_cell_angle_alpha 30.405852
_cell_angle_beta 122.208483
_cell_angle_gamma 142.769794
_cell_volume 897.808513
_symmetry_space_group_name_H-M "P -1"
_symmetry_group_IT_number 2
_symmetry_cell_setting 'triclinic'
loop_
_space_group_symop_operation_xyz
x,y,z
-x,-y,-z
loop_
_atom_site_type_symbol
_atom_site_label
_atom_site_fract_x
_atom_site_fract_y
_atom_site_fract_z
Si Si1 0.999100 0.930386 0.637568
Si Si2 0.626932 0.848967 0.332738
Si Si3 0.039811 0.616326 0.244892
Si Si4 0.713445 0.062069 0.669798
Si Si5 0.729109 0.473935 0.683397
Si Si6 0.256238 0.215959 0.078378
Si Si7 0.700740 0.312512 0.201991
Si Si8 0.068314 0.751302 0.479660
O O1 0.795988 0.585035 0.718463
O O2 0.129596 0.912481 0.721731
O O3 0.143969 0.212824 0.483689
O O4 0.925573 0.999650 0.631342
O O5 0.500000 0.500000 0.500000
O O6 0.518241 0.783999 0.268001
O O7 0.598051 0.003827 0.290490
O O8 0.226542 0.701710 0.235407
O O9 0.885809 0.451000 0.226505
O O10 0.907189 0.348969 0.398386
O O11 0.140617 0.956938 0.120083
O O12 0.738707 0.060284 0.604583
O O13 0.850488 0.426876 0.546445
O O14 0.803697 0.969280 0.779312
O O15 0.472834 0.804654 0.745033
O O16 0.500000 0.500000 0.000000
O O17 0.202187 0.390204 0.967448
#
# Coordination Sequence:
#
# PCOD8038644 Si02
#       8
#     2   2   2   2   2   2   2   2
#     4   9  16  28  44  69  94 127 159 199 244 291
#     4  10  18  28  47  73 100 127 161 204 252 294
#     4  10  18  30  48  76 105 125 160 208 253 297
#     4   9  18  33  49  69  97 134 167 203 244 297
#     4   9  16  27  44  68  99 124 155 204 247 286
#     4   9  18  32  50  70  94 131 169 203 247 292
#     4  11  19  30  49  77 101 127 167 205 249 297
#     4   9  18  32  49  68 101 133 163 202 249 295
#
# _framework density 17.821171
#
# number of rings (size 3 to 8) (size 9 to 14) (size 15 to 20)
#    0.000    2.500    1.250    4.125    1.750    0.500 
#    0.000    0.000    0.000    0.750    0.000    4.375 
#    0.000    0.000    0.000    0.000    0.000    0.000 
#
# Total GULP energy -198289.073213 kJ/mol
# GULP energy per Si atom -12393.067076 kJ/mol
# Density = 1.778061 g / cm^3
# Si number density = 17.821171 Si / 1000 Ang^3
#
#
#
# Elastic Constant Matrix: (Units=GPa)
#
#
# Indices 1 2 3 4 5 6 
#
# 1 77.2028 42.4978 34.8722 2.7291 20.8835 -4.3404
# 2 42.4978 128.3967 25.7671 -1.2912 15.5322 10.7967
# 3 34.8722 25.7671 58.0313 -2.0131 20.3537 -7.0012
# 4 2.7291 -1.2912 -2.0131 19.3542 0.6794 6.4823
# 5 20.8835 15.5322 20.3537 0.6794 23.5494 -0.8011
# 6 -4.3404 10.7967 -7.0012 6.4823 -0.8011 30.8849
#
#
#
# Elastic Compliance Matrix: (Units=1/GPa)
#
#
# Indices 1 2 3 4 5 6 
#
# 1 0.022063 -0.005063 -0.007336 -0.005234 -0.009596 0.004057
# 2 -0.005063 0.010442 -0.001729 0.003092 -0.001176 -0.005433
# 3 -0.007336 -0.001729 0.029296 0.002855 -0.017581 0.005159
# 4 -0.005234 0.003092 0.002855 0.057424 -0.001974 -0.013273
# 5 -0.009596 -0.001176 -0.017581 -0.001974 0.066907 -0.002773
# 6 0.004057 -0.005433 0.005159 -0.013273 -0.002773 0.038731
#
#
# Mechanical properties :
#
#
# Convention : Reuss Voigt Hill
#
# Bulk Modulus (GPa) = 29.81253 52.21167 41.01210
# Shear Modulus (GPa) = 18.91777 25.45727 22.18752
#
# Velocity S-wave (km/s) = 3.26165 3.78363 3.53230
# Velocity P-wave (km/s) = 5.56323 6.96053 6.30073
#
# Compressibility (1/GPa) = 0.03354295
#
# Stress axis : x y z
#
# Youngs Moduli (GPa) = 45.32572 95.77165 34.13395
#
# Poissons Ratio (x) = 0.48491 0.25041
# Poissons Ratio (y) = 0.22949 0.05903
# Poissons Ratio (z) = 0.33251 0.16563
#
# Static dielectric constant tensor:
#      x y z
#    x 3.228660 0.064820 0.552920 
#    y 0.064820 3.680260 -0.060280 
#    z 0.552920 -0.060280 3.983680 
# 
# 
# High freq. dielectric constant tensor:
#      x y z
#    x 1.663560 0.002550 0.037010 
#    y 0.002550 1.701080 -0.007370 
#    z 0.037010 -0.007370 1.656990 
# 
# From -- ./inp_files/252615.got.cif
#   From: 2010.06.25/outbox.cif.g09.slc.cpg/sg2_127_cif.got.tgz:252615.got - 2010.06.27 13:26:56.
