data_PCOD8038810
_publ_section_title
;
Structure prediction by ZEFSAII (Michael W. Deem and Ramdas Pophale) SiO2 
 PCOD8038810
Probable space group: P -1
;
_chemical_formula_sum "Si O2"
_cell_formula_units_Z 16
_cell_length_a 7.825718
_cell_length_b 8.825715
_cell_length_c 16.108132
_cell_angle_alpha 101.719494
_cell_angle_beta 117.774888
_cell_angle_gamma 49.814825
_cell_volume 744.144447
_symmetry_space_group_name_H-M "P -1"
_symmetry_group_IT_number 2
_symmetry_cell_setting 'triclinic'
loop_
_space_group_symop_operation_xyz
x,y,z
-x,-y,-z
loop_
_atom_site_type_symbol
_atom_site_label
_atom_site_fract_x
_atom_site_fract_y
_atom_site_fract_z
Si Si1 0.737502 0.715010 0.964815
Si Si2 0.904208 0.099805 0.378931
Si Si3 0.030971 0.359306 0.733358
Si Si4 0.409029 0.850967 0.186860
Si Si5 0.714243 0.084472 0.011916
Si Si6 0.211478 0.678850 0.471038
Si Si7 0.028917 0.936619 0.221122
Si Si8 0.391357 0.215252 0.237771
O O1 0.582348 0.757407 0.850716
O O2 0.789065 0.868221 0.003767
O O3 0.575284 0.740225 0.008848
O O4 0.000000 0.500000 0.000000
O O5 0.856050 0.283611 0.440823
O O6 0.650282 0.127120 0.331111
O O7 0.140444 0.887257 0.447031
O O8 0.976369 0.091947 0.298064
O O9 0.949653 0.363409 0.621021
O O10 0.044436 0.195404 0.774231
O O11 0.838512 0.575030 0.753137
O O12 0.296685 0.308677 0.782322
O O13 0.260973 0.865091 0.071310
O O14 0.319204 0.791892 0.238559
O O15 0.335182 0.063208 0.217794
O O16 0.883495 0.072116 0.121216
O O17 0.500000 0.500000 0.500000
#
# Coordination Sequence:
#
# PCOD8038810 Si02
#       8
#     2   2   2   2   2   2   2   2
#     4  10  18  30  56  85 116 155 199 239 287 340
#     4  10  20  36  61  89 114 153 198 238 299 354
#     4  11  22  40  63  86 118 157 196 243 300 353
#     4  11  23  39  58  90 122 156 201 242 291 350
#     4  10  19  34  54  83 119 156 199 236 284 349
#     4  10  19  35  64  90 112 152 197 241 300 362
#     4  11  21  41  61  85 124 160 195 246 292 348
#     4  11  19  37  61  86 120 156 194 246 293 345
#
# _framework density 21.501203
#
# number of rings (size 3 to 8) (size 9 to 14) (size 15 to 20)
#    0.000    1.500    5.000    3.375    0.000    0.000 
#    2.250    0.625    0.000    9.000    0.000    0.000 
#    0.000    0.000    0.000    0.000    0.000    0.000 
#
# Total GULP energy -198249.781046 kJ/mol
# GULP energy per Si atom -12390.611315 kJ/mol
# Density = 2.145227 g / cm^3
# Si number density = 21.501203 Si / 1000 Ang^3
#
#
#
# Elastic Constant Matrix: (Units=GPa)
#
#
# Indices 1 2 3 4 5 6 
#
# 1 67.5606 11.6764 25.3347 3.8936 -14.1219 -27.4293
# 2 11.6764 128.0925 35.9742 11.2072 -8.2297 -27.1805
# 3 25.3347 35.9742 141.0347 21.8019 0.6368 -15.3270
# 4 3.8936 11.2072 21.8019 39.1774 -11.6928 -0.5116
# 5 -14.1219 -8.2297 0.6368 -11.6928 21.2490 10.2003
# 6 -27.4293 -27.1805 -15.3270 -0.5116 10.2003 23.0796
#
#
#
# Elastic Compliance Matrix: (Units=1/GPa)
#
#
# Indices 1 2 3 4 5 6 
#
# 1 0.034305 0.008168 -0.002477 -0.003443 0.000990 0.048231
# 2 0.008168 0.013127 -0.001129 -0.005076 -0.004968 0.026500
# 3 -0.002477 -0.001129 0.009721 -0.007612 -0.009558 0.006239
# 4 -0.003443 -0.005076 -0.007612 0.040738 0.032009 -0.028367
# 5 0.000990 -0.004968 -0.009558 0.032009 0.087130 -0.048820
# 6 0.048231 0.026500 0.006239 -0.028367 -0.048820 0.156949
#
#
# Mechanical properties :
#
#
# Convention : Reuss Voigt Hill
#
# Bulk Modulus (GPa) = 15.08781 53.62873 34.35827
# Shear Modulus (GPa) = 14.08695 34.28138 24.18417
#
# Velocity S-wave (km/s) = 2.56241 3.99732 3.35742
# Velocity P-wave (km/s) = 3.97329 6.80449 5.57172
#
# Compressibility (1/GPa) = 0.06627866
#
# Stress axis : x y z
#
# Youngs Moduli (GPa) = 29.14987 76.17638 102.86999
#
# Poissons Ratio (x) = -0.62217 0.25476
# Poissons Ratio (y) = -0.23808 0.11610
# Poissons Ratio (z) = 0.07219 0.08598
#
# Static dielectric constant tensor:
#      x y z
#    x 3.479940 -0.338760 0.051470 
#    y -0.338760 3.953300 0.276030 
#    z 0.051470 0.276030 6.536950 
# 
# 
# High freq. dielectric constant tensor:
#      x y z
#    x 1.796470 -0.039590 0.007290 
#    y -0.039590 1.848480 0.018810 
#    z 0.007290 0.018810 1.865190 
# 
# From -- ./inp_files/498053.got.cif
#   From: 2010.06.25/outbox.cif.g09.slc.cpg/sg2_250_cif.got.tgz:498053.got - 2010.06.27 13:26:56.
