data_PCOD8038061
_publ_section_title
;
Structure prediction by ZEFSAII (Michael W. Deem and Ramdas Pophale) SiO2 
 PCOD8038061
Probable space group: P -1
;
_chemical_formula_sum "Si O2"
_cell_formula_units_Z 14
_cell_length_a 10.973217
_cell_length_b 22.174649
_cell_length_c 11.262268
_cell_angle_alpha 41.233476
_cell_angle_beta 139.939054
_cell_angle_gamma 157.691348
_cell_volume 658.582553
_symmetry_space_group_name_H-M "P -1"
_symmetry_group_IT_number 2
_symmetry_cell_setting 'triclinic'
loop_
_space_group_symop_operation_xyz
x,y,z
-x,-y,-z
loop_
_atom_site_type_symbol
_atom_site_label
_atom_site_fract_x
_atom_site_fract_y
_atom_site_fract_z
Si Si1 0.271715 0.331202 0.179618
Si Si2 0.722289 0.665847 0.079742
Si Si3 0.306746 0.085200 0.261328
Si Si4 0.790472 0.031484 0.876165
Si Si5 0.160711 0.563780 0.897462
Si Si6 0.887827 0.902314 0.446953
Si Si7 0.707919 0.251479 0.906498
O O1 0.623987 0.521193 0.193806
O O2 0.212919 0.239301 0.379639
O O3 0.285966 0.286383 0.127401
O O4 0.978222 0.288573 0.003025
O O5 0.442569 0.597405 0.057855
O O6 0.081838 0.821791 0.185124
O O7 0.267388 0.985550 0.284707
O O8 0.686770 0.276608 0.264165
O O9 0.180529 0.004626 0.416006
O O10 0.086187 0.079807 0.055540
O O11 0.444104 0.857502 0.928850
O O12 0.869113 0.414873 0.811665
O O13 0.000000 0.500000 0.000000
O O14 0.583615 0.843230 0.262826
O O15 0.000000 0.000000 0.500000
#
# Coordination Sequence:
#
# PCOD8038061 Si02
#       7
#     2   2   2   2   2   2   2
#     4  10  21  42  58  87 124 153 196 246 292 354
#     4   9  20  35  59  82 121 159 191 248 297 341
#     4   9  18  32  55  86 122 149 193 251 286 346
#     4   9  16  32  56  87 112 154 200 235 295 345
#     4  10  17  33  60  89 115 152 202 243 287 351
#     4  11  23  39  60  89 122 155 195 244 296 352
#     4  10  21  36  65  89 113 162 198 236 298 351
#
# _framework density 21.257776
#
# number of rings (size 3 to 8) (size 9 to 14) (size 15 to 20)
#    0.000    2.286    1.429    2.571    2.000    2.286 
#    0.000   14.286    0.000    0.000    0.000    0.000 
#    0.000    0.000    0.000    0.000    0.000    0.000 
#
# Total GULP energy -173454.149069 kJ/mol
# GULP energy per Si atom -12389.582076 kJ/mol
# Density = 2.120939 g / cm^3
# Si number density = 21.257776 Si / 1000 Ang^3
#
#
#
# Elastic Constant Matrix: (Units=GPa)
#
#
# Indices 1 2 3 4 5 6 
#
# 1 112.7981 51.8926 34.7321 -9.4602 -34.6471 -7.7735
# 2 51.8926 143.7959 26.4654 -18.9218 -20.6651 -14.5606
# 3 34.7321 26.4654 74.7913 -16.9155 -20.5887 5.2223
# 4 -9.4602 -18.9218 -16.9155 26.6990 9.3871 -5.7807
# 5 -34.6471 -20.6651 -20.5887 9.3871 31.0166 -1.0802
# 6 -7.7735 -14.5606 5.2223 -5.7807 -1.0802 40.1926
#
#
#
# Elastic Compliance Matrix: (Units=1/GPa)
#
#
# Indices 1 2 3 4 5 6 
#
# 1 0.015529 -0.003205 -0.003037 -0.003237 0.014250 0.002154
# 2 -0.003205 0.009460 -0.000631 0.005731 0.000699 0.003732
# 3 -0.003037 -0.000631 0.018558 0.007658 0.006120 -0.001961
# 4 -0.003237 0.005731 0.007658 0.050222 -0.009655 0.007419
# 5 0.014250 0.000699 0.006120 -0.009655 0.055690 0.002322
# 6 0.002154 0.003732 -0.001961 0.007419 0.002322 0.028033
#
#
# Mechanical properties :
#
#
# Convention : Reuss Voigt Hill
#
# Bulk Modulus (GPa) = 33.55683 61.95174 47.75428
# Shear Modulus (GPa) = 24.85449 34.13465 29.49457
#
# Velocity S-wave (km/s) = 3.42306 4.01153 3.72892
# Velocity P-wave (km/s) = 5.60741 7.11778 6.40726
#
# Compressibility (1/GPa) = 0.02980019
#
# Stress axis : x y z
#
# Youngs Moduli (GPa) = 64.39534 105.71363 53.88571
#
# Poissons Ratio (x) = 0.33881 0.16366
# Poissons Ratio (y) = 0.20639 0.03400
# Poissons Ratio (z) = 0.19558 0.06670
#
# Static dielectric constant tensor:
#      x y z
#    x 4.095670 -0.202500 -0.308530 
#    y -0.202500 4.540180 -0.151350 
#    z -0.308530 -0.151350 3.448530 
# 
# 
# High freq. dielectric constant tensor:
#      x y z
#    x 1.844250 -0.006970 -0.023680 
#    y -0.006970 1.856620 -0.014980 
#    z -0.023680 -0.014980 1.774190 
# 
# From -- ./inp_files/196967.got.cif
#   From: 2010.06.25/outbox.cif.g09.slc.cpg/sg2_99_cif.got.tgz:196967.got - 2010.06.27 13:26:56.
