data_PCOD8038882
_publ_section_title
;
Structure prediction by ZEFSAII (Michael W. Deem and Ramdas Pophale) SiO2 
 PCOD8038882
Probable space group: P -1
;
_chemical_formula_sum "Si O2"
_cell_formula_units_Z 16
_cell_length_a 12.409984
_cell_length_b 13.088746
_cell_length_c 15.421769
_cell_angle_alpha 151.745883
_cell_angle_beta 137.290952
_cell_angle_gamma 53.695760
_cell_volume 792.338410
_symmetry_space_group_name_H-M "P -1"
_symmetry_group_IT_number 2
_symmetry_cell_setting 'triclinic'
loop_
_space_group_symop_operation_xyz
x,y,z
-x,-y,-z
loop_
_atom_site_type_symbol
_atom_site_label
_atom_site_fract_x
_atom_site_fract_y
_atom_site_fract_z
Si Si1 0.953493 0.065899 0.836763
Si Si2 0.752643 0.921354 0.257619
Si Si3 0.305533 0.125294 0.150695
Si Si4 0.961780 0.527436 0.713969
Si Si5 0.069056 0.068846 0.462832
Si Si6 0.199666 0.288001 0.384748
Si Si7 0.436194 0.715941 0.853613
Si Si8 0.621190 0.327017 0.410402
O O1 0.886570 0.045885 0.684625
O O2 0.864406 0.859704 0.682991
O O3 0.146130 0.079131 0.962171
O O4 0.916024 0.293701 0.025632
O O5 0.776721 0.894673 0.355492
O O6 0.698761 0.152684 0.381168
O O7 0.623021 0.720044 0.993444
O O8 0.922328 0.909327 0.302626
O O9 0.267037 0.140586 0.241153
O O10 0.446402 0.338964 0.364530
O O11 0.383663 0.909575 0.023147
O O12 0.948705 0.606787 0.665965
O O13 0.775364 0.529084 0.642325
O O14 0.016378 0.297116 0.576290
O O15 0.337626 0.480177 0.645243
O O16 0.422762 0.765670 0.780935
#
# Coordination Sequence:
#
# PCOD8038882 Si02
#       8
#     2   2   2   2   2   2   2   2
#     4  11  21  34  52  76 104 139 175 207 250 302
#     4   9  18  35  55  80 104 129 170 210 256 312
#     4  10  18  31  52  77 107 131 157 218 263 289
#     4   9  19  34  52  80 106 130 170 211 252 307
#     4  10  20  35  55  75 106 139 164 208 256 304
#     4  10  22  33  50  80 103 132 180 211 246 305
#     4  10  19  34  56  79 103 133 168 212 262 303
#     4   9  17  32  56  83 103 127 168 210 264 315
#
# _framework density 20.193390999999998
#
# number of rings (size 3 to 8) (size 9 to 14) (size 15 to 20)
#    0.000    2.250    0.000    6.000    0.000    8.500 
#    0.000    8.750    0.000    3.750    0.000    0.000 
#    0.000    0.000    0.000    0.000    0.000    0.000 
#
# Total GULP energy -198324.407792 kJ/mol
# GULP energy per Si atom -12395.275487 kJ/mol
# Density = 2.014743 g / cm^3
# Si number density = 20.193391 Si / 1000 Ang^3
#
#
#
# Elastic Constant Matrix: (Units=GPa)
#
#
# Indices 1 2 3 4 5 6 
#
# 1 48.3414 29.3441 21.7126 -9.0399 5.9898 19.7580
# 2 29.3441 63.8706 44.0487 -28.2336 -0.4841 20.3651
# 3 21.7126 44.0487 120.7120 -15.4029 6.4190 23.9794
# 4 -9.0399 -28.2336 -15.4029 24.0618 6.2850 -4.5550
# 5 5.9898 -0.4841 6.4190 6.2850 18.9200 -2.5406
# 6 19.7580 20.3651 23.9794 -4.5550 -2.5406 28.6679
#
#
#
# Elastic Compliance Matrix: (Units=1/GPa)
#
#
# Indices 1 2 3 4 5 6 
#
# 1 0.037660 -0.011014 0.002881 0.003498 -0.017233 -0.021512
# 2 -0.011014 0.058120 -0.006833 0.059924 -0.015274 -0.019813
# 3 0.002881 -0.006833 0.012334 0.001234 -0.006736 -0.007850
# 4 0.003498 0.059924 0.001234 0.119586 -0.043867 -0.030899
# 5 -0.017233 -0.015274 -0.006736 -0.043867 0.078584 0.028356
# 6 -0.021512 -0.019813 -0.007850 -0.030899 0.028356 0.067953
#
#
# Mechanical properties :
#
#
# Convention : Reuss Voigt Hill
#
# Bulk Modulus (GPa) = 12.79057 47.01498 29.90277
# Shear Modulus (GPa) = 11.62169 23.51784 17.56977
#
# Velocity S-wave (km/s) = 2.40160 3.41637 2.95290
# Velocity P-wave (km/s) = 3.74674 6.23659 5.14456
#
# Compressibility (1/GPa) = 0.07818261
#
# Stress axis : x y z
#
# Youngs Moduli (GPa) = 26.55351 17.20578 81.07495
#
# Poissons Ratio (x) = 0.18951 -0.23362
# Poissons Ratio (y) = 0.29247 0.55396
# Poissons Ratio (z) = -0.07651 0.11756
#
# Static dielectric constant tensor:
#      x y z
#    x 3.633040 0.003670 0.206280 
#    y 0.003670 3.400960 -0.036060 
#    z 0.206280 -0.036060 3.970320 
# 
# 
# High freq. dielectric constant tensor:
#      x y z
#    x 1.777200 0.004170 0.002900 
#    y 0.004170 1.759250 0.006570 
#    z 0.002900 0.006570 1.809460 
# 
# From -- ./inp_files/357250.got.cif
#   From: 2010.06.25/outbox.cif.g09.slc.cpg/sg2_179_cif.got.tgz:357250.got - 2010.06.27 13:26:56.
