data_PCOD8038161
_publ_section_title
;
Structure prediction by ZEFSAII (Michael W. Deem and Ramdas Pophale) SiO2 
 PCOD8038161
Probable space group: P -1
;
_chemical_formula_sum "Si O2"
_cell_formula_units_Z 16
_cell_length_a 9.502870
_cell_length_b 15.266073
_cell_length_c 8.004293
_cell_angle_alpha 78.244284
_cell_angle_beta 116.748765
_cell_angle_gamma 128.328130
_cell_volume 808.721984
_symmetry_space_group_name_H-M "P -1"
_symmetry_group_IT_number 2
_symmetry_cell_setting 'triclinic'
loop_
_space_group_symop_operation_xyz
x,y,z
-x,-y,-z
loop_
_atom_site_type_symbol
_atom_site_label
_atom_site_fract_x
_atom_site_fract_y
_atom_site_fract_z
Si Si1 0.626258 0.544130 0.215754
Si Si2 0.338310 0.262763 0.653601
Si Si3 0.563946 0.034446 0.327268
Si Si4 0.615420 0.864283 0.704134
Si Si5 0.072225 0.896993 0.348236
Si Si6 0.393504 0.797483 0.273154
Si Si7 0.975681 0.709800 0.132444
Si Si8 0.335446 0.309820 0.256528
O O1 0.585901 0.621248 0.264589
O O2 0.856250 0.617600 0.253718
O O3 0.549718 0.433555 0.326394
O O4 0.500000 0.500000 0.000000
O O5 0.509463 0.246860 0.770519
O O6 0.279674 0.262735 0.431493
O O7 0.145380 0.156053 0.681447
O O8 0.469306 0.922871 0.206866
O O9 0.500000 0.000000 0.500000
O O10 0.479470 0.105062 0.210525
O O11 0.802636 0.107361 0.431366
O O12 0.454316 0.801117 0.495118
O O13 0.653063 0.775757 0.821437
O O14 0.822354 0.974738 0.701220
O O15 0.068768 0.832023 0.209980
O O16 0.155441 0.709969 0.162621
O O17 0.832445 0.683089 0.910933
#
# Coordination Sequence:
#
# PCOD8038161 Si02
#       8
#     2   2   2   2   2   2   2   2
#     4   9  20  38  57  72  97 139 177 212 252 313
#     4  10  20  33  58  76 105 130 174 215 256 305
#     4   8  13  27  51  76 107 128 177 203 240 300
#     4   9  16  30  53  78 107 134 177 207 242 307
#     4   9  16  31  56  78  97 146 176 198 246 312
#     4   9  16  30  52  80 100 138 168 209 255 299
#     4  10  17  34  57  74 102 136 179 206 253 308
#     4  10  21  32  51  80 108 132 166 220 263 290
#
# _framework density 19.784303000000001
#
# number of rings (size 3 to 8) (size 9 to 14) (size 15 to 20)
#    0.000    3.000    3.750    0.375    0.000    5.000 
#    0.000    5.000   11.000    3.750    0.000    0.000 
#    0.000    0.000    0.000    0.000    0.000    0.000 
#
# Total GULP energy -198229.628395 kJ/mol
# GULP energy per Si atom -12389.351775 kJ/mol
# Density = 1.973927 g / cm^3
# Si number density = 19.784303 Si / 1000 Ang^3
#
#
#
# Elastic Constant Matrix: (Units=GPa)
#
#
# Indices 1 2 3 4 5 6 
#
# 1 159.1389 68.3949 20.8470 5.4838 17.4381 -5.9580
# 2 68.3949 122.8412 15.0253 13.6025 8.7425 -9.5582
# 3 20.8470 15.0253 32.3039 7.0351 6.3430 2.6040
# 4 5.4838 13.6025 7.0351 18.5822 -1.5188 3.0257
# 5 17.4381 8.7425 6.3430 -1.5188 21.6051 10.3440
# 6 -5.9580 -9.5582 2.6040 3.0257 10.3440 17.6800
#
#
#
# Elastic Compliance Matrix: (Units=1/GPa)
#
#
# Indices 1 2 3 4 5 6 
#
# 1 0.009495 -0.003685 -0.003121 -0.000731 -0.008565 0.006803
# 2 -0.003685 0.013242 -0.000527 -0.011380 -0.009491 0.013495
# 3 -0.003121 -0.000527 0.038190 -0.014211 -0.010155 0.001412
# 4 -0.000731 -0.011380 -0.014211 0.076229 0.031995 -0.036071
# 5 -0.008565 -0.009491 -0.010155 0.031995 0.094478 -0.067273
# 6 0.006803 0.013495 0.001412 -0.036071 -0.067273 0.111474
#
#
# Mechanical properties :
#
#
# Convention : Reuss Voigt Hill
#
# Bulk Modulus (GPa) = 21.61648 58.09095 39.85371
# Shear Modulus (GPa) = 13.39780 25.57458 19.48619
#
# Velocity S-wave (km/s) = 2.60512 3.59927 3.14177
# Velocity P-wave (km/s) = 4.47198 6.83366 5.77484
#
# Compressibility (1/GPa) = 0.04626101
#
# Stress axis : x y z
#
# Youngs Moduli (GPa) = 105.32159 75.51542 26.18460
#
# Poissons Ratio (x) = 0.27827 0.08172
# Poissons Ratio (y) = 0.38810 0.01381
# Poissons Ratio (z) = 0.32870 0.03983
#
# Static dielectric constant tensor:
#      x y z
#    x 4.174930 -0.444010 0.233000 
#    y -0.444010 5.033680 0.070890 
#    z 0.233000 0.070890 3.195700 
# 
# 
# High freq. dielectric constant tensor:
#      x y z
#    x 1.769820 -0.003570 0.008950 
#    y -0.003570 1.767170 0.020720 
#    z 0.008950 0.020720 1.728870 
# 
# From -- ./inp_files/202094.got.cif
#   From: 2010.06.25/outbox.cif.g09.slc.cpg/sg2_102_cif.got.tgz:202094.got - 2010.06.27 13:26:56.
