data_PCOD8038805
_publ_section_title
;
Structure prediction by ZEFSAII (Michael W. Deem and Ramdas Pophale) SiO2 
 PCOD8038805
Probable space group: P -1
;
_chemical_formula_sum "Si O2"
_cell_formula_units_Z 14
_cell_length_a 7.578059
_cell_length_b 17.136556
_cell_length_c 9.694916
_cell_angle_alpha 108.668303
_cell_angle_beta 101.754977
_cell_angle_gamma 43.001920
_cell_volume 812.591167
_symmetry_space_group_name_H-M "P -1"
_symmetry_group_IT_number 2
_symmetry_cell_setting 'triclinic'
loop_
_space_group_symop_operation_xyz
x,y,z
-x,-y,-z
loop_
_atom_site_type_symbol
_atom_site_label
_atom_site_fract_x
_atom_site_fract_y
_atom_site_fract_z
Si Si1 0.696652 0.120747 0.647800
Si Si2 0.528852 0.624371 0.633900
Si Si3 0.200922 0.582810 0.639005
Si Si4 0.235785 0.327992 0.844033
Si Si5 0.823971 0.766553 0.454487
Si Si6 0.960753 0.576219 0.846703
Si Si7 0.075272 0.857059 0.544055
O O1 0.545367 0.211100 0.804826
O O2 0.486508 0.141939 0.528842
O O3 0.829619 0.148553 0.595689
O O4 0.909348 0.985637 0.658300
O O5 0.403176 0.591658 0.684273
O O6 0.661320 0.543502 0.472218
O O7 0.734339 0.603442 0.747081
O O8 0.312728 0.760283 0.628668
O O9 0.897602 0.404250 0.216415
O O10 0.955127 0.687037 0.566334
O O11 0.077211 0.318561 0.711327
O O12 0.173718 0.442511 0.860517
O O13 0.161530 0.333868 0.993439
O O14 0.893487 0.838161 0.483840
#
# Coordination Sequence:
#
# PCOD8038805 Si02
#       7
#     2   2   2   2   2   2   2
#     4   9  18  33  49  79  95 132 161 207 242 291
#     4  10  19  31  51  78  97 126 166 210 237 293
#     4  10  19  31  55  74  98 126 170 200 253 279
#     4   9  21  34  50  72 105 130 167 190 257 287
#     4   9  18  34  50  77  97 127 163 214 231 293
#     4  11  19  36  49  73 104 136 153 208 241 304
#     4  10  18  30  56  75  98 124 171 204 248 274
#
# _framework density 17.228838
#
# number of rings (size 3 to 8) (size 9 to 14) (size 15 to 20)
#    0.857    1.429    1.429    2.571    0.000    0.000 
#    2.571    2.143    0.000    3.429    0.000    0.000 
#    0.000    0.000    0.000    0.000    0.000    0.000 
#
# Total GULP energy -173550.155021 kJ/mol
# GULP energy per Si atom -12396.439644 kJ/mol
# Density = 1.718962 g / cm^3
# Si number density = 17.228838 Si / 1000 Ang^3
#
#
#
# Elastic Constant Matrix: (Units=GPa)
#
#
# Indices 1 2 3 4 5 6 
#
# 1 73.6920 33.8789 31.3763 -3.4176 -22.8386 7.0833
# 2 33.8789 102.0815 25.5503 9.7944 -19.5716 -1.1529
# 3 31.3763 25.5503 67.7999 12.0849 -34.6716 8.7157
# 4 -3.4176 9.7944 12.0849 18.0732 -4.0920 -2.3954
# 5 -22.8386 -19.5716 -34.6716 -4.0920 28.8624 -0.3231
# 6 7.0833 -1.1529 8.7157 -2.3954 -0.3231 24.8738
#
#
#
# Elastic Compliance Matrix: (Units=1/GPa)
#
#
# Indices 1 2 3 4 5 6 
#
# 1 0.022032 -0.005462 -0.005149 0.012206 0.009236 -0.003427
# 2 -0.005462 0.012987 0.001684 -0.007857 0.005403 0.000881
# 3 -0.005149 0.001684 0.052071 -0.026562 0.055645 -0.018536
# 4 0.012206 -0.007857 -0.026562 0.077625 -0.016429 0.012729
# 5 0.009236 0.005403 0.055645 -0.016429 0.109888 -0.022032
# 6 -0.003427 0.000881 -0.018536 0.012729 -0.022032 0.048654
#
#
# Mechanical properties :
#
#
# Convention : Reuss Voigt Hill
#
# Bulk Modulus (GPa) = 14.44370 47.24271 30.84321
# Shear Modulus (GPa) = 13.72907 24.54641 19.13774
#
# Velocity S-wave (km/s) = 2.82594 3.77865 3.33648
# Velocity P-wave (km/s) = 4.36458 6.82040 5.72571
#
# Compressibility (1/GPa) = 0.06923432
#
# Stress axis : x y z
#
# Youngs Moduli (GPa) = 45.38954 76.99951 19.20452
#
# Poissons Ratio (x) = 0.42058 0.09889
# Poissons Ratio (y) = 0.24792 -0.03233
# Poissons Ratio (z) = 0.23372 -0.12964
#
# Static dielectric constant tensor:
#      x y z
#    x 3.230430 -0.039080 -0.072160 
#    y -0.039080 3.271640 0.050860 
#    z -0.072160 0.050860 2.930620 
# 
# 
# High freq. dielectric constant tensor:
#      x y z
#    x 1.670480 -0.002040 -0.005490 
#    y -0.002040 1.671160 0.001100 
#    z -0.005490 0.001100 1.629230 
# 
# From -- ./inp_files/264513.got.cif
#   From: 2010.06.25/outbox.cif.g09.slc.cpg/sg2_133_cif.got.tgz:264513.got - 2010.06.27 13:26:56.
