data_PCOD8038633
_publ_section_title
;
Structure prediction by ZEFSAII (Michael W. Deem and Ramdas Pophale) SiO2 
 PCOD8038633
Probable space group: P -1
;
_chemical_formula_sum "Si O2"
_cell_formula_units_Z 16
_cell_length_a 12.143846
_cell_length_b 11.989552
_cell_length_c 13.296234
_cell_angle_alpha 33.744960
_cell_angle_beta 120.109352
_cell_angle_gamma 120.242167
_cell_volume 915.091181
_symmetry_space_group_name_H-M "P -1"
_symmetry_group_IT_number 2
_symmetry_cell_setting 'triclinic'
loop_
_space_group_symop_operation_xyz
x,y,z
-x,-y,-z
loop_
_atom_site_type_symbol
_atom_site_label
_atom_site_fract_x
_atom_site_fract_y
_atom_site_fract_z
Si Si1 0.964120 0.223590 0.408794
Si Si2 0.689116 0.096691 0.606193
Si Si3 0.580869 0.859014 0.541500
Si Si4 0.834754 0.780111 0.653470
Si Si5 0.222144 0.543022 0.960842
Si Si6 0.236226 0.259550 0.989172
Si Si7 0.495898 0.555467 0.071413
Si Si8 0.095642 0.537665 0.607773
O O1 0.864689 0.292353 0.231107
O O2 0.970756 0.346271 0.423496
O O3 0.106858 0.270033 0.389463
O O4 0.922396 0.982411 0.589949
O O5 0.546209 0.064701 0.618971
O O6 0.766369 0.327606 0.461787
O O7 0.662552 0.015717 0.540724
O O8 0.781524 0.973241 0.805306
O O9 0.686695 0.815021 0.541518
O O10 0.512935 0.653197 0.716906
O O11 0.839198 0.592288 0.871752
O O12 0.240721 0.396937 0.986948
O O13 0.370312 0.658134 0.965293
O O14 0.367765 0.298486 0.953222
O O15 0.120970 0.316521 0.824385
O O16 0.500000 0.500000 0.000000
O O17 0.000000 0.500000 0.500000
#
# Coordination Sequence:
#
# PCOD8038633 Si02
#       8
#     2   2   2   2   2   2   2   2
#     4  10  20  31  51  68 103 138 161 194 249 296
#     4  11  19  30  51  76 103 130 157 209 253 290
#     4  10  18  27  50  78 109 121 154 206 254 303
#     4  10  18  32  46  77 105 128 158 194 249 313
#     4   9  17  27  44  73 105 126 153 194 246 306
#     4  10  18  30  48  73 101 130 164 201 252 297
#     4   9  14  25  42  74 103 127 148 195 258 306
#     4  11  23  37  50  71 100 135 177 207 237 286
#
# _framework density 17.484597000000001
#
# number of rings (size 3 to 8) (size 9 to 14) (size 15 to 20)
#    0.000    2.000    6.250    0.375    1.750    0.500 
#    0.000    0.000    0.000    0.750    0.000    0.875 
#    0.000    0.000    0.000    0.000    0.000    0.000 
#
# Total GULP energy -198209.343685 kJ/mol
# GULP energy per Si atom -12388.083980 kJ/mol
# Density = 1.744480 g / cm^3
# Si number density = 17.484597 Si / 1000 Ang^3
#
#
#
# Elastic Constant Matrix: (Units=GPa)
#
#
# Indices 1 2 3 4 5 6 
#
# 1 117.7952 27.3437 27.8617 8.3552 -1.9707 0.8189
# 2 27.3437 40.3707 23.4270 10.6864 2.3133 2.1484
# 3 27.8617 23.4270 71.4381 6.6444 7.1306 -1.4428
# 4 8.3552 10.6864 6.6444 18.3542 4.2222 1.4389
# 5 -1.9707 2.3133 7.1306 4.2222 27.5210 -4.3494
# 6 0.8189 2.1484 -1.4428 1.4389 -4.3494 13.7152
#
#
#
# Elastic Compliance Matrix: (Units=1/GPa)
#
#
# Indices 1 2 3 4 5 6 
#
# 1 0.010450 -0.005564 -0.002334 -0.001227 0.002137 0.000809
# 2 -0.005564 0.038298 -0.009021 -0.016231 0.000456 -0.004769
# 3 -0.002334 -0.009021 0.018257 0.000419 -0.003855 0.002207
# 4 -0.001227 -0.016231 0.000419 0.067331 -0.010378 -0.007695
# 5 0.002137 0.000456 -0.003855 -0.010378 0.041182 0.013544
# 6 0.000809 -0.004769 0.002207 -0.007695 0.013544 0.078945
#
#
# Mechanical properties :
#
#
# Convention : Reuss Voigt Hill
#
# Bulk Modulus (GPa) = 30.15080 42.98542 36.56811
# Shear Modulus (GPa) = 16.70239 21.98286 19.34263
#
# Velocity S-wave (km/s) = 3.09409 3.54965 3.32967
# Velocity P-wave (km/s) = 5.48144 6.43724 5.97847
#
# Compressibility (1/GPa) = 0.03316662
#
# Stress axis : x y z
#
# Youngs Moduli (GPa) = 95.69256 26.11074 54.77338
#
# Poissons Ratio (x) = 0.14529 0.12783
# Poissons Ratio (y) = 0.53247 0.49413
# Poissons Ratio (z) = 0.22332 0.23556
#
# Static dielectric constant tensor:
#      x y z
#    x 3.706950 0.197230 0.176460 
#    y 0.197230 2.638930 -0.162820 
#    z 0.176460 -0.162820 3.527460 
# 
# 
# High freq. dielectric constant tensor:
#      x y z
#    x 1.690790 0.020180 0.006360 
#    y 0.020180 1.591560 -0.026280 
#    z 0.006360 -0.026280 1.687920 
# 
# From -- ./inp_files/268342.got.cif
#   From: 2010.06.25/outbox.cif.g09.slc.cpg/sg2_135_cif.got.tgz:268342.got - 2010.06.27 13:26:56.
