data_PCOD8038192
_publ_section_title
;
Structure prediction by ZEFSAII (Michael W. Deem and Ramdas Pophale) SiO2 
 PCOD8038192
Probable space group: P -1
;
_chemical_formula_sum "Si O2"
_cell_formula_units_Z 14
_cell_length_a 18.106554
_cell_length_b 12.339906
_cell_length_c 7.656689
_cell_angle_alpha 126.838805
_cell_angle_beta 51.888153
_cell_angle_gamma 150.395576
_cell_volume 656.179300
_symmetry_space_group_name_H-M "P -1"
_symmetry_group_IT_number 2
_symmetry_cell_setting 'triclinic'
loop_
_space_group_symop_operation_xyz
x,y,z
-x,-y,-z
loop_
_atom_site_type_symbol
_atom_site_label
_atom_site_fract_x
_atom_site_fract_y
_atom_site_fract_z
Si Si1 0.415697 0.534568 0.722635
Si Si2 0.623755 0.005315 0.982388
Si Si3 0.329404 0.339200 0.032920
Si Si4 0.451948 0.026441 0.428251
Si Si5 0.094747 0.506553 0.981208
Si Si6 0.273937 0.471960 0.541041
Si Si7 0.789797 0.089899 0.174095
O O1 0.500000 0.500000 0.500000
O O2 0.278933 0.408690 0.664211
O O3 0.339085 0.431528 0.925348
O O4 0.547463 0.801844 0.780924
O O5 0.484222 0.954934 0.160095
O O6 0.758208 0.243185 0.913926
O O7 0.697835 0.022034 0.064061
O O8 0.236811 0.323307 0.296507
O O9 0.500000 0.500000 0.000000
O O10 0.236444 0.094449 0.909324
O O11 0.557081 0.279584 0.508452
O O12 0.500000 0.000000 0.500000
O O13 0.276643 0.881867 0.555254
O O14 0.148402 0.447789 0.714597
O O15 0.000000 0.500000 0.000000
O O16 0.975512 0.316881 0.117699
#
# Coordination Sequence:
#
# PCOD8038192 Si02
#       7
#     2   2   2   2   2   2   2
#     4  12  22  36  62  94 121 151 202 257 296 350
#     4   9  18  33  56  85 115 153 200 248 302 349
#     4  12  20  37  62  91 118 158 199 247 301 349
#     4   9  16  30  56  83 112 149 196 246 287 339
#     4   9  21  37  59  88 122 161 200 242 301 366
#     4  11  22  38  60  92 122 156 202 250 298 352
#     4  10  17  34  58  87 120 157 200 243 293 361
#
# _framework density 21.335633999999999
#
# number of rings (size 3 to 8) (size 9 to 14) (size 15 to 20)
#    0.000    1.714    4.286    1.714    0.000    2.857 
#    0.000    0.714    0.000   13.714    0.000    0.000 
#    0.000    0.000    0.000    0.000    0.000    0.000 
#
# Total GULP energy -173466.880494 kJ/mol
# GULP energy per Si atom -12390.491464 kJ/mol
# Density = 2.128707 g / cm^3
# Si number density = 21.335634 Si / 1000 Ang^3
#
#
#
# Elastic Constant Matrix: (Units=GPa)
#
#
# Indices 1 2 3 4 5 6 
#
# 1 74.4157 21.8052 52.6913 -6.6873 -1.2930 -9.7410
# 2 21.8052 139.6733 70.9440 -7.7245 -14.5977 -12.2396
# 3 52.6913 70.9440 156.8690 -1.5968 -26.6910 5.3324
# 4 -6.6873 -7.7245 -1.5968 36.8072 -2.2971 -7.1182
# 5 -1.2930 -14.5977 -26.6910 -2.2971 40.5021 -4.1367
# 6 -9.7410 -12.2396 5.3324 -7.1182 -4.1367 22.1708
#
#
#
# Elastic Compliance Matrix: (Units=1/GPa)
#
#
# Indices 1 2 3 4 5 6 
#
# 1 0.021954 0.002889 -0.009573 0.006975 -0.002609 0.015295
# 2 0.002889 0.011149 -0.006077 0.004759 0.001467 0.010687
# 3 -0.009573 -0.006077 0.013534 -0.004290 0.005030 -0.011255
# 4 0.006975 0.004759 -0.004290 0.032864 0.002792 0.017796
# 5 -0.002609 0.001467 0.005030 0.002792 0.029096 0.004779
# 6 0.015295 0.010687 -0.011255 0.017796 0.004779 0.067037
#
#
# Mechanical properties :
#
#
# Convention : Reuss Voigt Hill
#
# Bulk Modulus (GPa) = 47.36749 73.53767 60.45258
# Shear Modulus (GPa) = 24.01591 34.93053 29.47322
#
# Velocity S-wave (km/s) = 3.35867 4.05061 3.72076
# Velocity P-wave (km/s) = 6.10657 7.51123 6.84502
#
# Compressibility (1/GPa) = 0.02111153
#
# Stress axis : x y z
#
# Youngs Moduli (GPa) = 45.55014 89.69791 73.88985
#
# Poissons Ratio (x) = -0.25911 0.70738
# Poissons Ratio (y) = -0.13158 0.44906
# Poissons Ratio (z) = 0.43607 0.54514
#
# Static dielectric constant tensor:
#      x y z
#    x 3.797180 -0.295100 -0.229660 
#    y -0.295100 4.700280 -0.549780 
#    z -0.229660 -0.549780 4.439460 
# 
# 
# High freq. dielectric constant tensor:
#      x y z
#    x 1.825200 -0.029920 -0.021530 
#    y -0.029920 1.822860 -0.004770 
#    z -0.021530 -0.004770 1.841030 
# 
# From -- ./inp_files/333700.got.cif
#   From: 2010.06.25/outbox.cif.g09.slc.cpg/sg2_167_cif.got.tgz:333700.got - 2010.06.27 13:26:56.
