data_PCOD8038356
_publ_section_title
;
Structure prediction by ZEFSAII (Michael W. Deem and Ramdas Pophale) SiO2 
 PCOD8038356
Probable space group: P -1
;
_chemical_formula_sum "Si O2"
_cell_formula_units_Z 12
_cell_length_a 11.238489
_cell_length_b 14.910924
_cell_length_c 11.416553
_cell_angle_alpha 28.851666
_cell_angle_beta 33.822056
_cell_angle_gamma 51.474996
_cell_volume 473.130262
_symmetry_space_group_name_H-M "P -1"
_symmetry_group_IT_number 2
_symmetry_cell_setting 'triclinic'
loop_
_space_group_symop_operation_xyz
x,y,z
-x,-y,-z
loop_
_atom_site_type_symbol
_atom_site_label
_atom_site_fract_x
_atom_site_fract_y
_atom_site_fract_z
Si Si1 0.812195 0.727215 0.074012
Si Si2 0.615103 0.668886 0.062400
Si Si3 0.619145 0.157677 0.119573
Si Si4 0.263627 0.128690 0.794721
Si Si5 0.206747 0.588809 0.931314
Si Si6 0.234938 0.457279 0.296926
O O1 0.724535 0.792898 0.949752
O O2 0.637083 0.504596 0.509846
O O3 0.831598 0.893103 0.968768
O O4 0.058486 0.713636 0.867074
O O5 0.586487 0.816581 0.817894
O O6 0.788407 0.565471 0.996748
O O7 0.500000 0.000000 0.500000
O O8 0.779374 0.084837 0.986809
O O9 0.785454 0.370589 0.796950
O O10 0.133296 0.243657 0.693103
O O11 0.538763 0.250844 0.430558
O O12 0.101031 0.459362 0.283779
O O13 0.500000 0.500000 0.000000
#
# Coordination Sequence:
#
# PCOD8038356 Si02
#       6
#     2   2   2   2   2   2
#     4  10  21  38  59  84 120 150 194 235 279 350
#     4  10  21  38  59  87 113 156 192 232 291 334
#     4  12  19  36  65  84 114 155 190 235 290 342
#     4  10  21  37  59  87 116 153 187 236 290 335
#     4  10  18  36  61  84 113 154 193 233 285 337
#     4  10  17  35  58  86 112 150 190 228 292 330
#
# _framework density 25.362994
#
# number of rings (size 3 to 8) (size 9 to 14) (size 15 to 20)
#    0.000    1.667    8.333    0.500    0.000    1.333 
#    0.000    3.333    0.000    0.000    0.000    0.000 
#    0.000    0.000    0.000    0.000    0.000    0.000 
#
# Total GULP energy -148808.854826 kJ/mol
# GULP energy per Si atom -12400.737902 kJ/mol
# Density = 2.530527 g / cm^3
# Si number density = 25.362994 Si / 1000 Ang^3
#
#
#
# Elastic Constant Matrix: (Units=GPa)
#
#
# Indices 1 2 3 4 5 6 
#
# 1 127.2362 35.0944 26.0074 -0.5954 29.7152 9.2897
# 2 35.0944 177.7210 22.3623 -17.0335 4.9728 19.8610
# 3 26.0074 22.3623 34.8081 -8.4650 13.8607 2.4905
# 4 -0.5954 -17.0335 -8.4650 31.9314 3.8102 0.1412
# 5 29.7152 4.9728 13.8607 3.8102 29.6548 0.4804
# 6 9.2897 19.8610 2.4905 0.1412 0.4804 46.5484
#
#
#
# Elastic Compliance Matrix: (Units=1/GPa)
#
#
# Indices 1 2 3 4 5 6 
#
# 1 0.011272 -0.001370 -0.003910 -0.000458 -0.009157 -0.001360
# 2 -0.001370 0.006772 -0.003057 0.002624 0.001369 -0.002474
# 3 -0.003910 -0.003057 0.043441 0.011889 -0.017400 -0.000096
# 4 -0.000458 0.002624 0.011889 0.037094 -0.010277 -0.001671
# 5 -0.009157 0.001369 -0.017400 -0.010277 0.052094 0.001668
# 6 -0.001360 -0.002474 -0.000096 -0.001671 0.001668 0.022803
#
#
# Mechanical properties :
#
#
# Convention : Reuss Voigt Hill
#
# Bulk Modulus (GPa) = 22.31551 56.29928 39.30739
# Shear Modulus (GPa) = 24.38000 38.71366 31.54683
#
# Velocity S-wave (km/s) = 3.10376 3.91113 3.53060
# Velocity P-wave (km/s) = 4.65424 6.53005 5.67025
#
# Compressibility (1/GPa) = 0.04481188
#
# Stress axis : x y z
#
# Youngs Moduli (GPa) = 88.71477 147.67510 23.01960
#
# Poissons Ratio (x) = 0.20226 0.09001
# Poissons Ratio (y) = 0.12150 0.07037
# Poissons Ratio (z) = 0.34688 0.45142
#
# Static dielectric constant tensor:
#      x y z
#    x 4.761900 0.241260 0.273530 
#    y 0.241260 4.878520 0.013650 
#    z 0.273530 0.013650 4.133600 
# 
# 
# High freq. dielectric constant tensor:
#      x y z
#    x 2.020100 0.004490 0.007480 
#    y 0.004490 2.026990 0.009580 
#    z 0.007480 0.009580 1.977880 
# 
# From -- ./inp_files/248421.got.cif
#   From: 2010.06.25/outbox.cif.g09.slc.cpg/sg2_125_cif.got.tgz:248421.got - 2010.06.27 13:26:56.
