data_PCOD8038229
_publ_section_title
;
Structure prediction by ZEFSAII (Michael W. Deem and Ramdas Pophale) SiO2 
 PCOD8038229
Probable space group: P -1
;
_chemical_formula_sum "Si O2"
_cell_formula_units_Z 16
_cell_length_a 15.000000
_cell_length_b 12.000000
_cell_length_c 9.000000
_cell_angle_alpha 110.000000
_cell_angle_beta 30.000000
_cell_angle_gamma 110.000000
_cell_volume 757.522634
_symmetry_space_group_name_H-M "P -1"
_symmetry_group_IT_number 2
_symmetry_cell_setting 'triclinic'
loop_
_space_group_symop_operation_xyz
x,y,z
-x,-y,-z
loop_
_atom_site_type_symbol
_atom_site_label
_atom_site_fract_x
_atom_site_fract_y
_atom_site_fract_z
Si Si1 0.538249 0.362196 0.540783
Si Si2 0.791056 0.779160 0.533773
Si Si3 0.128148 0.731835 0.850467
Si Si4 0.541676 0.368744 0.193130
Si Si5 0.177628 0.998436 0.844250
Si Si6 0.788087 0.779001 0.894194
Si Si7 0.142486 0.724164 0.478341
Si Si8 0.688323 0.007620 0.651474
O O1 0.738379 0.349084 0.299011
O O2 0.530203 0.326452 0.362069
O O3 0.497804 0.495540 0.692892
O O4 0.402706 0.278142 0.798682
O O5 0.599487 0.714724 0.736444
O O6 0.800781 0.783360 0.699834
O O7 0.811304 0.915379 0.509044
O O8 0.940727 0.709514 0.201399
O O9 0.119462 0.692538 0.671948
O O10 0.197098 0.870684 0.830278
O O11 0.732261 0.358511 0.831985
O O12 0.336802 0.024678 0.503353
O O13 0.184460 0.090584 0.011198
O O14 0.000000 0.000000 0.000000
O O15 0.943458 0.700262 0.687817
O O16 0.213481 0.861150 0.412125
O O17 0.500000 0.000000 0.000000
#
# Coordination Sequence:
#
# PCOD8038229 Si02
#       8
#     2   2   2   2   2   2   2   2
#     4  11  27  45  67  96 125 173 226 272 322 382
#     4  12  24  41  68  97 135 174 213 268 324 389
#     4  11  23  43  68  98 133 173 213 270 321 386
#     4  11  25  47  68  92 129 171 224 276 323 379
#     4  11  21  43  65  96 135 171 211 263 319 390
#     4  12  25  41  66 101 132 172 216 262 327 389
#     4  11  22  41  70  96 133 171 214 268 326 384
#     4  11  21  38  66  98 129 175 208 264 329 381
#
# _framework density 21.121480999999999
#
# number of rings (size 3 to 8) (size 9 to 14) (size 15 to 20)
#    0.000    0.750    5.000    3.000    1.750    6.500 
#    0.000    0.000    0.000    0.000    0.000    0.000 
#    0.000    0.000    0.000    0.000    0.000    0.000 
#
# Total GULP energy -198392.250303 kJ/mol
# GULP energy per Si atom -12399.515644 kJ/mol
# Density = 2.107341 g / cm^3
# Si number density = 21.121481 Si / 1000 Ang^3
#
#
#
# Elastic Constant Matrix: (Units=GPa)
#
#
# Indices 1 2 3 4 5 6 
#
# 1 128.5721 22.1420 36.1335 14.2147 28.1310 0.8829
# 2 22.1420 47.3139 2.8118 18.1388 10.3902 -1.9000
# 3 36.1335 2.8118 151.0697 21.3269 24.8027 -3.6245
# 4 14.2147 18.1388 21.3269 37.5371 -2.3052 1.9041
# 5 28.1310 10.3902 24.8027 -2.3052 52.1462 3.1513
# 6 0.8829 -1.9000 -3.6245 1.9041 3.1513 24.1056
#
#
#
# Elastic Compliance Matrix: (Units=1/GPa)
#
#
# Indices 1 2 3 4 5 6 
#
# 1 0.009755 -0.002912 -0.001359 -0.001761 -0.004107 -0.000115
# 2 -0.002912 0.030412 0.003788 -0.016467 -0.007341 0.005334
# 3 -0.001359 0.003788 0.008631 -0.006642 -0.004588 0.002771
# 4 -0.001761 -0.016467 -0.006642 0.039962 0.009558 -0.006638
# 5 -0.004107 -0.007341 -0.004588 0.009558 0.025777 -0.005243
# 6 -0.000115 0.005334 0.002771 -0.006638 -0.005243 0.043535
#
#
# Mechanical properties :
#
#
# Convention : Reuss Voigt Hill
#
# Bulk Modulus (GPa) = 20.90576 49.90337 35.40457
# Shear Modulus (GPa) = 28.57426 40.48236 34.52831
#
# Velocity S-wave (km/s) = 3.68211 4.38270 4.04759
# Velocity P-wave (km/s) = 5.29118 7.02060 6.21633
#
# Compressibility (1/GPa) = 0.04783370
#
# Stress axis : x y z
#
# Youngs Moduli (GPa) = 102.50906 32.88149 115.85504
#
# Poissons Ratio (x) = 0.09575 0.15744
# Poissons Ratio (y) = 0.29851 -0.43890
# Poissons Ratio (z) = 0.13930 -0.12457
#
# Static dielectric constant tensor:
#      x y z
#    x 3.883640 -0.062420 0.265640 
#    y -0.062420 3.744660 0.121860 
#    z 0.265640 0.121860 4.558370 
# 
# 
# High freq. dielectric constant tensor:
#      x y z
#    x 1.829160 -0.005380 0.018410 
#    y -0.005380 1.818890 0.009650 
#    z 0.018410 0.009650 1.869140 
# 
# From -- ./inp_files/221663.got.cif
#   From: 2010.06.25/outbox.ucp.g09.slc.cvg/sg2_111_cif.got.tgz:221663.got - 2010.06.28 11:54:26.
