data_PCOD8038293
_publ_section_title
;
Structure prediction by ZEFSAII (Michael W. Deem and Ramdas Pophale) SiO2 
 PCOD8038293
Probable space group: P -1
;
_chemical_formula_sum "Si O2"
_cell_formula_units_Z 16
_cell_length_a 12.081244
_cell_length_b 8.485728
_cell_length_c 13.570022
_cell_angle_alpha 78.536055
_cell_angle_beta 117.243331
_cell_angle_gamma 143.887480
_cell_volume 689.026997
_symmetry_space_group_name_H-M "P -1"
_symmetry_group_IT_number 2
_symmetry_cell_setting 'triclinic'
loop_
_space_group_symop_operation_xyz
x,y,z
-x,-y,-z
loop_
_atom_site_type_symbol
_atom_site_label
_atom_site_fract_x
_atom_site_fract_y
_atom_site_fract_z
Si Si1 0.092185 0.679664 0.227554
Si Si2 0.566903 0.764998 0.338344
Si Si3 0.344589 0.979203 0.473743
Si Si4 0.614964 0.727544 0.151463
Si Si5 0.475591 0.721667 0.765493
Si Si6 0.619237 0.271806 0.068132
Si Si7 0.304200 0.443901 0.535990
Si Si8 0.905969 0.691886 0.723142
O O1 0.080524 0.480251 0.221531
O O2 0.876368 0.537206 0.117851
O O3 0.118953 0.728421 0.351987
O O4 0.289924 0.974702 0.215783
O O5 0.669032 0.023871 0.411681
O O6 0.600564 0.832486 0.227489
O O7 0.709547 0.759727 0.424897
O O8 0.306688 0.460977 0.290102
O O9 0.464761 0.274603 0.458947
O O10 0.500000 0.000000 0.500000
O O11 0.508464 0.443920 0.168211
O O12 0.474193 0.657050 0.015618
O O13 0.870293 0.983883 0.190489
O O14 0.409712 0.770925 0.820356
O O15 0.299532 0.537808 0.626411
O O16 0.500000 0.000000 0.000000
O O17 0.109442 0.297213 0.403438
#
# Coordination Sequence:
#
# PCOD8038293 Si02
#       8
#     2   2   2   2   2   2   2   2
#     4  11  24  42  68  99 129 177 211 263 337 379
#     4  10  22  39  66  97 135 170 211 263 324 392
#     4  10  17  34  63  95 129 163 207 257 317 387
#     4  11  26  45  65  99 128 174 224 268 315 384
#     4  10  26  45  68  94 134 166 217 278 320 381
#     4  12  27  46  67  96 129 168 232 271 316 384
#     4   9  20  39  64 100 129 169 212 258 326 397
#     4  11  21  40  70  97 138 170 208 264 332 379
#
# _framework density 23.221150000000002
#
# number of rings (size 3 to 8) (size 9 to 14) (size 15 to 20)
#    0.000    1.500    3.750    1.875    1.750    9.000 
#    0.000    1.250    0.000    0.000    0.000    0.000 
#    0.000    0.000    0.000    0.000    0.000    0.000 
#
# Total GULP energy -198329.918604 kJ/mol
# GULP energy per Si atom -12395.619913 kJ/mol
# Density = 2.316830 g / cm^3
# Si number density = 23.221150 Si / 1000 Ang^3
#
#
#
# Elastic Constant Matrix: (Units=GPa)
#
#
# Indices 1 2 3 4 5 6 
#
# 1 67.6945 17.6782 16.2806 6.6157 -13.5360 -5.3172
# 2 17.6782 85.1419 22.3696 10.2823 15.3232 5.7722
# 3 16.2806 22.3696 96.4480 8.3834 15.2175 3.9010
# 4 6.6157 10.2823 8.3834 23.7588 2.2524 -4.6041
# 5 -13.5360 15.3232 15.2175 2.2524 47.5068 -1.5205
# 6 -5.3172 5.7722 3.9010 -4.6041 -1.5205 16.8575
#
#
#
# Elastic Compliance Matrix: (Units=1/GPa)
#
#
# Indices 1 2 3 4 5 6 
#
# 1 0.019637 -0.005198 -0.003806 -0.000890 0.008834 0.009408
# 2 -0.005198 0.015513 -0.000845 -0.006121 -0.006211 -0.008988
# 3 -0.003806 -0.000845 0.012483 -0.003530 -0.004809 -0.005198
# 4 -0.000890 -0.006121 -0.003530 0.049270 0.001034 0.016182
# 5 0.008834 -0.006211 -0.004809 0.001034 0.027343 0.008775
# 6 0.009408 -0.008988 -0.005198 0.016182 0.008775 0.071780
#
#
# Mechanical properties :
#
#
# Convention : Reuss Voigt Hill
#
# Bulk Modulus (GPa) = 35.79752 40.21568 38.00660
# Shear Modulus (GPa) = 22.21878 30.48837 26.35358
#
# Velocity S-wave (km/s) = 3.09663 3.62741 3.37248
# Velocity P-wave (km/s) = 5.31365 5.90764 5.61850
#
# Compressibility (1/GPa) = 0.02793490
#
# Stress axis : x y z
#
# Youngs Moduli (GPa) = 50.92300 64.46349 80.11073
#
# Poissons Ratio (x) = 0.33506 0.30493
# Poissons Ratio (y) = 0.26468 0.06769
# Poissons Ratio (z) = 0.19383 0.05447
#
# Static dielectric constant tensor:
#      x y z
#    x 4.052040 -0.064940 -0.263910 
#    y -0.064940 4.112380 -0.078020 
#    z -0.263910 -0.078020 4.561600 
# 
# 
# High freq. dielectric constant tensor:
#      x y z
#    x 1.903920 -0.012120 -0.007910 
#    y -0.012120 1.907940 -0.002220 
#    z -0.007910 -0.002220 1.922740 
# 
# From -- ./inp_files/515540.got.cif
#   From: 2010.06.25/outbox.cif.g09.slc.cpg/sg2_258_cif.got.tgz:515540.got - 2010.06.27 13:26:56.
