data_PCOD8038583
_publ_section_title
;
Structure prediction by ZEFSAII (Michael W. Deem and Ramdas Pophale) SiO2 
 PCOD8038583
Probable space group: P -1
;
_chemical_formula_sum "Si O2"
_cell_formula_units_Z 16
_cell_length_a 9.489115
_cell_length_b 8.852829
_cell_length_c 20.690154
_cell_angle_alpha 67.784136
_cell_angle_beta 44.906300
_cell_angle_gamma 43.685388
_cell_volume 814.817694
_symmetry_space_group_name_H-M "P -1"
_symmetry_group_IT_number 2
_symmetry_cell_setting 'triclinic'
loop_
_space_group_symop_operation_xyz
x,y,z
-x,-y,-z
loop_
_atom_site_type_symbol
_atom_site_label
_atom_site_fract_x
_atom_site_fract_y
_atom_site_fract_z
Si Si1 0.509799 0.077632 0.748077
Si Si2 0.088571 0.001849 0.770619
Si Si3 0.289308 0.252181 0.373001
Si Si4 0.680838 0.996402 0.492682
Si Si5 0.190769 0.947073 0.888659
Si Si6 0.724799 0.599496 0.340188
Si Si7 0.794293 0.478119 0.748419
Si Si8 0.976379 0.123240 0.311891
O O1 0.387410 0.298493 0.711792
O O2 0.718573 0.856794 0.670227
O O3 0.261013 0.099704 0.849060
O O4 0.697788 0.033175 0.753482
O O5 0.864091 0.250365 0.771299
O O6 0.393137 0.907799 0.681139
O O7 0.024719 0.004401 0.866272
O O8 0.064514 0.856182 0.756299
O O9 0.154385 0.496737 0.348927
O O10 0.145734 0.237236 0.481740
O O11 0.485192 0.217981 0.566301
O O12 0.893990 0.994600 0.388848
O O13 0.500000 0.000000 0.500000
O O14 0.473510 0.682524 0.838705
O O15 0.000000 0.000000 0.000000
O O16 0.773250 0.377952 0.365305
O O17 0.018937 0.523041 0.263417
#
# Coordination Sequence:
#
# PCOD8038583 Si02
#       8
#     2   2   2   2   2   2   2   2
#     4   9  20  37  58  82 118 149 196 236 297 347
#     4  10  20  38  59  86 121 153 193 239 296 352
#     4   9  18  35  57  77 116 156 198 237 276 341
#     4  11  21  38  56  86 124 158 211 245 273 339
#     4  10  21  39  67  93 112 146 198 243 293 375
#     4  11  20  38  59  83 121 165 195 238 295 342
#     4  10  17  38  64  79 117 158 190 237 302 345
#     4  12  22  37  59  85 121 163 194 248 291 333
#
# _framework density 19.636293999999999
#
# number of rings (size 3 to 8) (size 9 to 14) (size 15 to 20)
#    0.000    2.000    7.500    0.375    0.000    4.500 
#    2.250    1.875    0.000    1.500    0.000    0.000 
#    0.000    0.000    0.000    0.000    0.000    0.000 
#
# Total GULP energy -198251.421686 kJ/mol
# GULP energy per Si atom -12390.713855 kJ/mol
# Density = 1.959160 g / cm^3
# Si number density = 19.636294 Si / 1000 Ang^3
#
#
#
# Elastic Constant Matrix: (Units=GPa)
#
#
# Indices 1 2 3 4 5 6 
#
# 1 122.5579 33.5908 51.6158 -3.3664 13.8319 -4.0208
# 2 33.5908 66.7293 8.9651 -8.6499 9.0030 -17.7971
# 3 51.6158 8.9651 100.4905 -16.6491 14.2402 -4.3778
# 4 -3.3664 -8.6499 -16.6491 17.2715 -3.1883 1.2799
# 5 13.8319 9.0030 14.2402 -3.1883 23.1738 -3.0628
# 6 -4.0208 -17.7971 -4.3778 1.2799 -3.0628 28.0146
#
#
#
# Elastic Compliance Matrix: (Units=1/GPa)
#
#
# Indices 1 2 3 4 5 6 
#
# 1 0.013194 -0.007484 -0.007368 -0.008381 -0.002103 -0.003859
# 2 -0.007484 0.024163 0.005206 0.013819 -0.004371 0.013981
# 3 -0.007368 0.005206 0.016856 0.016180 -0.005285 0.003567
# 4 -0.008381 0.013819 0.016180 0.078543 0.001379 0.006666
# 5 -0.002103 -0.004371 -0.005285 0.001379 0.049737 0.001470
# 6 -0.003859 0.013981 0.003567 0.006666 0.001470 0.044437
#
#
# Mechanical properties :
#
#
# Convention : Reuss Voigt Hill
#
# Bulk Modulus (GPa) = 28.63480 53.12456 40.87968
# Shear Modulus (GPa) = 19.39004 26.73238 23.06121
#
# Velocity S-wave (km/s) = 3.14580 3.69369 3.43070
# Velocity P-wave (km/s) = 5.27342 6.73083 6.04620
#
# Compressibility (1/GPa) = 0.03492254
#
# Stress axis : x y z
#
# Youngs Moduli (GPa) = 75.79072 41.38481 59.32500
#
# Poissons Ratio (x) = 0.30972 0.43711
# Poissons Ratio (y) = 0.56720 -0.30885
# Poissons Ratio (z) = 0.55843 -0.21545
#
# Static dielectric constant tensor:
#      x y z
#    x 3.715360 -0.104550 0.177460 
#    y -0.104550 3.815530 -0.249110 
#    z 0.177460 -0.249110 3.234600 
# 
# 
# High freq. dielectric constant tensor:
#      x y z
#    x 1.768810 -0.012280 0.011240 
#    y -0.012280 1.770000 -0.018740 
#    z 0.011240 -0.018740 1.719230 
# 
# From -- ./inp_files/586157.got.cif
#   From: 2010.06.25/outbox.cif.g09.slc.cpg/sg2_294_cif.got.tgz:586157.got - 2010.06.27 13:26:56.
