data_PCOD8038684
_publ_section_title
;
Structure prediction by ZEFSAII (Michael W. Deem and Ramdas Pophale) SiO2 
 PCOD8038684
Probable space group: P -1
;
_chemical_formula_sum "Si O2"
_cell_formula_units_Z 16
_cell_length_a 20.551842
_cell_length_b 12.730155
_cell_length_c 11.784988
_cell_angle_alpha 61.605503
_cell_angle_beta 31.862521
_cell_angle_gamma 38.923621
_cell_volume 848.288377
_symmetry_space_group_name_H-M "P -1"
_symmetry_group_IT_number 2
_symmetry_cell_setting 'triclinic'
loop_
_space_group_symop_operation_xyz
x,y,z
-x,-y,-z
loop_
_atom_site_type_symbol
_atom_site_label
_atom_site_fract_x
_atom_site_fract_y
_atom_site_fract_z
Si Si1 0.389213 0.961835 0.989217
Si Si2 0.626229 0.068366 0.215526
Si Si3 0.884166 0.940760 0.097993
Si Si4 0.417793 0.850338 0.247445
Si Si5 0.767421 0.687324 0.202210
Si Si6 0.308202 0.721598 0.620790
Si Si7 0.196416 0.350569 0.088675
Si Si8 0.208186 0.194003 0.531990
O O1 0.421524 0.851085 0.105451
O O2 0.199535 0.203252 0.168223
O O3 0.358158 0.902567 0.954617
O O4 0.585934 0.891947 0.706224
O O5 0.391258 0.267609 0.509743
O O6 0.788111 0.020703 0.072996
O O7 0.693657 0.879465 0.215178
O O8 0.837369 0.846654 0.266603
O O9 0.775862 0.128832 0.232697
O O10 0.131784 0.767344 0.816605
O O11 0.376065 0.747228 0.398958
O O12 0.237698 0.080022 0.441619
O O13 0.637553 0.721196 0.036228
O O14 0.758136 0.643091 0.110770
O O15 0.000000 0.500000 0.000000
O O16 0.500000 0.500000 0.500000
O O17 0.974626 0.571229 0.345914
#
# Coordination Sequence:
#
# PCOD8038684 Si02
#       8
#     2   2   2   2   2   2   2   2
#     4  10  21  33  48  76 111 142 165 196 249 314
#     4  10  19  32  48  73 108 137 167 206 250 306
#     4  10  20  34  55  78  99 131 171 218 265 294
#     4  10  21  35  51  74 104 137 174 211 252 301
#     4  10  18  29  49  77 108 139 169 204 251 304
#     4  10  21  38  57  75  95 125 175 228 263 295
#     4  10  18  30  52  78 104 138 170 204 254 303
#     4  10  18  32  53  79 107 132 167 211 252 301
#
# _framework density 18.861509999999999
#
# number of rings (size 3 to 8) (size 9 to 14) (size 15 to 20)
#    0.000    2.000    0.000    7.500    0.000    3.000 
#    0.000    0.625    0.000    0.750    0.000    0.000 
#    0.000    0.000    0.000    0.000    0.000    0.000 
#
# Total GULP energy -198389.485561 kJ/mol
# GULP energy per Si atom -12399.342848 kJ/mol
# Density = 1.881858 g / cm^3
# Si number density = 18.861510 Si / 1000 Ang^3
#
#
#
# Elastic Constant Matrix: (Units=GPa)
#
#
# Indices 1 2 3 4 5 6 
#
# 1 139.0375 35.1605 52.5571 -10.8599 8.0549 -31.7844
# 2 35.1605 79.7858 46.9601 8.4975 -2.2664 -18.4832
# 3 52.5571 46.9601 66.9679 4.1872 -10.5795 -15.4789
# 4 -10.8599 8.4975 4.1872 37.1730 -8.6394 -0.9073
# 5 8.0549 -2.2664 -10.5795 -8.6394 22.9398 -4.7361
# 6 -31.7844 -18.4832 -15.4789 -0.9073 -4.7361 24.7043
#
#
#
# Elastic Compliance Matrix: (Units=1/GPa)
#
#
# Indices 1 2 3 4 5 6 
#
# 1 0.014280 0.002731 -0.011515 0.003713 -0.006146 0.012159
# 2 0.002731 0.024091 -0.017692 -0.003972 -0.006358 0.009088
# 3 -0.011515 -0.017692 0.039940 0.001180 0.021390 0.001117
# 4 0.003713 -0.003972 0.001180 0.031704 0.012030 0.006015
# 5 -0.006146 -0.006358 0.021390 0.012030 0.062224 0.013108
# 6 0.012159 0.009088 0.001117 0.006015 0.013108 0.066356
#
#
# Mechanical properties :
#
#
# Convention : Reuss Voigt Hill
#
# Bulk Modulus (GPa) = 39.43469 61.68294 50.55882
# Shear Modulus (GPa) = 16.66666 27.03764 21.85215
#
# Velocity S-wave (km/s) = 2.97582 3.79024 3.40745
# Velocity P-wave (km/s) = 5.72366 7.20615 6.50726
#
# Compressibility (1/GPa) = 0.02535838
#
# Stress axis : x y z
#
# Youngs Moduli (GPa) = 70.02753 41.50904 25.03775
#
# Poissons Ratio (x) = -0.11337 0.28831
# Poissons Ratio (y) = -0.19126 0.44298
# Poissons Ratio (z) = 0.80637 0.73440
#
# Static dielectric constant tensor:
#      x y z
#    x 3.630390 -0.104090 0.095790 
#    y -0.104090 3.378470 0.201900 
#    z 0.095790 0.201900 3.548640 
# 
# 
# High freq. dielectric constant tensor:
#      x y z
#    x 1.731870 -0.013240 0.005320 
#    y -0.013240 1.711560 0.023520 
#    z 0.005320 0.023520 1.722050 
# 
# From -- ./inp_files/438596.got.cif
#   From: 2010.06.25/outbox.cif.g09.slc.cpg/sg2_220_cif.got.tgz:438596.got - 2010.06.27 13:26:56.
