data_PCOD8038701
_publ_section_title
;
Structure prediction by ZEFSAII (Michael W. Deem and Ramdas Pophale) SiO2 
 PCOD8038701
Probable space group: P -1
;
_chemical_formula_sum "Si O2"
_cell_formula_units_Z 16
_cell_length_a 10.159038
_cell_length_b 15.803189
_cell_length_c 15.849940
_cell_angle_alpha 39.597252
_cell_angle_beta 146.115929
_cell_angle_gamma 136.327019
_cell_volume 878.853588
_symmetry_space_group_name_H-M "P -1"
_symmetry_group_IT_number 2
_symmetry_cell_setting 'triclinic'
loop_
_space_group_symop_operation_xyz
x,y,z
-x,-y,-z
loop_
_atom_site_type_symbol
_atom_site_label
_atom_site_fract_x
_atom_site_fract_y
_atom_site_fract_z
Si Si1 0.898011 0.053310 0.488698
Si Si2 0.487397 0.818320 0.060151
Si Si3 0.200374 0.536531 0.149779
Si Si4 0.892856 0.041715 0.167434
Si Si5 0.258688 0.337828 0.465224
Si Si6 0.015846 0.166532 0.960587
Si Si7 0.796983 0.389374 0.730946
Si Si8 0.598088 0.931938 0.851917
O O1 0.611060 0.039862 0.341513
O O2 0.037587 0.209374 0.456324
O O3 0.000000 0.000000 0.500000
O O4 0.930037 0.963880 0.655931
O O5 0.434871 0.653026 0.154465
O O6 0.751792 0.886043 0.187551
O O7 0.291592 0.866719 0.976597
O O8 0.467635 0.869498 0.915553
O O9 0.273086 0.399910 0.328871
O O10 0.092377 0.604700 0.119870
O O11 0.000000 0.500000 0.000000
O O12 0.039455 0.110452 0.110539
O O13 0.515153 0.299288 0.651142
O O14 0.214555 0.454519 0.419109
O O15 0.964100 0.318656 0.815824
O O16 0.792620 0.072782 0.863302
O O17 0.267599 0.174242 0.040184
#
# Coordination Sequence:
#
# PCOD8038701 Si02
#       8
#     2   2   2   2   2   2   2   2
#     4  12  21  32  53  87 112 130 174 239 265 299
#     4  10  18  34  52  82 101 141 177 221 259 315
#     4  10  18  29  52  76 109 130 174 223 258 308
#     4  10  20  30  58  76 108 136 182 214 267 321
#     4   9  20  32  51  83 103 139 172 219 267 308
#     4  10  20  40  54  78 105 156 174 208 274 328
#     4   9  18  34  55  73 106 144 175 212 255 332
#     4  10  22  34  56  81 112 136 183 219 268 319
#
# _framework density 18.205535000000001
#
# number of rings (size 3 to 8) (size 9 to 14) (size 15 to 20)
#    0.750    1.250    2.500    2.250    1.750    0.500 
#    0.000    0.625    0.000    0.750    0.000    0.000 
#    0.000    0.000    0.000    0.000    0.000    0.000 
#
# Total GULP energy -198237.557270 kJ/mol
# GULP energy per Si atom -12389.847329 kJ/mol
# Density = 1.816410 g / cm^3
# Si number density = 18.205535 Si / 1000 Ang^3
#
#
#
# Elastic Constant Matrix: (Units=GPa)
#
#
# Indices 1 2 3 4 5 6 
#
# 1 49.2836 18.9657 15.8443 6.9684 10.2931 -17.6656
# 2 18.9657 60.6774 26.5086 1.0551 4.6535 -6.4023
# 3 15.8443 26.5086 94.0382 17.9533 0.4776 -15.8817
# 4 6.9684 1.0551 17.9533 26.3209 -6.4710 -1.1384
# 5 10.2931 4.6535 0.4776 -6.4710 29.3972 -4.5187
# 6 -17.6656 -6.4023 -15.8817 -1.1384 -4.5187 23.1835
#
#
#
# Elastic Compliance Matrix: (Units=1/GPa)
#
#
# Indices 1 2 3 4 5 6 
#
# 1 0.035087 -0.008785 0.003008 -0.012422 -0.010018 0.023808
# 2 -0.008785 0.021420 -0.006481 0.005753 0.000307 -0.004876
# 3 0.003008 -0.006481 0.015890 -0.011190 -0.001116 0.010620
# 4 -0.012422 0.005753 -0.011190 0.051518 0.013361 -0.010409
# 5 -0.010018 0.000307 -0.001116 0.013361 0.040471 0.000231
# 6 0.023808 -0.004876 0.010620 -0.010409 0.000231 0.066738
#
#
# Mechanical properties :
#
#
# Convention : Reuss Voigt Hill
#
# Bulk Modulus (GPa) = 20.88540 36.29294 28.58917
# Shear Modulus (GPa) = 18.40945 25.29236 21.85091
#
# Velocity S-wave (km/s) = 3.18339 3.73133 3.46820
# Velocity P-wave (km/s) = 5.00089 6.20823 5.63698
#
# Compressibility (1/GPa) = 0.04788034
#
# Stress axis : x y z
#
# Youngs Moduli (GPa) = 28.50065 46.68576 62.93336
#
# Poissons Ratio (x) = 0.41012 -0.18929
# Poissons Ratio (y) = 0.25037 0.40789
# Poissons Ratio (z) = -0.08572 0.30258
#
# Static dielectric constant tensor:
#      x y z
#    x 3.140460 -0.138730 -0.103770 
#    y -0.138730 3.429620 0.049050 
#    z -0.103770 0.049050 3.335290 
# 
# 
# High freq. dielectric constant tensor:
#      x y z
#    x 1.667130 -0.012030 -0.016570 
#    y -0.012030 1.706130 0.002390 
#    z -0.016570 0.002390 1.703240 
# 
# From -- ./inp_files/502861.got.cif
#   From: 2010.06.25/outbox.cif.g09.slc.cpg/sg2_252_cif.got.tgz:502861.got - 2010.06.27 13:26:56.
