data_PCOD8038768
_publ_section_title
;
Structure prediction by ZEFSAII (Michael W. Deem and Ramdas Pophale) SiO2 
 PCOD8038768
Probable space group: P -1
;
_chemical_formula_sum "Si O2"
_cell_formula_units_Z 16
_cell_length_a 11.279819
_cell_length_b 11.411170
_cell_length_c 11.729243
_cell_angle_alpha 112.823221
_cell_angle_beta 44.348440
_cell_angle_gamma 127.123391
_cell_volume 838.871114
_symmetry_space_group_name_H-M "P -1"
_symmetry_group_IT_number 2
_symmetry_cell_setting 'triclinic'
loop_
_space_group_symop_operation_xyz
x,y,z
-x,-y,-z
loop_
_atom_site_type_symbol
_atom_site_label
_atom_site_fract_x
_atom_site_fract_y
_atom_site_fract_z
Si Si1 0.158412 0.179224 0.368118
Si Si2 0.475016 0.843202 0.942743
Si Si3 0.101382 0.130520 0.644788
Si Si4 0.422693 0.497222 0.224619
Si Si5 0.504178 0.380114 0.534587
Si Si6 0.084047 0.556787 0.782398
Si Si7 0.922389 0.289609 0.948717
Si Si8 0.312333 0.592006 0.123431
O O1 0.087333 0.184545 0.547109
O O2 0.232258 0.335008 0.315406
O O3 0.334173 0.143709 0.242320
O O4 0.980858 0.045756 0.368303
O O5 0.296605 0.747127 0.944190
O O6 0.425914 0.762256 0.069091
O O7 0.500000 0.000000 0.000000
O O8 0.324507 0.217496 0.568237
O O9 0.963175 0.159396 0.836507
O O10 0.518943 0.581033 0.306199
O O11 0.347201 0.585292 0.231640
O O12 0.599583 0.492701 0.038797
O O13 0.500000 0.500000 0.500000
O O14 0.700428 0.369842 0.392052
O O15 0.075483 0.434493 0.828757
O O16 0.920850 0.486494 0.769234
O O17 0.053528 0.676438 0.919730
#
# Coordination Sequence:
#
# PCOD8038768 Si02
#       8
#     2   2   2   2   2   2   2   2
#     4  10  20  33  54  80 115 147 181 230 280 334
#     4  10  18  32  54  82 111 141 182 230 277 328
#     4  11  20  32  51  84 111 141 184 231 283 321
#     4  10  20  39  59  80 114 149 188 229 278 337
#     4  12  21  33  56  84 112 148 190 235 273 325
#     4  10  20  32  53  82 110 141 183 232 282 323
#     4  10  18  30  52  81 110 134 178 237 278 328
#     4   9  21  36  59  82 110 147 187 227 279 339
#
# _framework density 19.073250999999999
#
# number of rings (size 3 to 8) (size 9 to 14) (size 15 to 20)
#    0.000    1.750    3.750    1.500    3.500    0.500 
#    0.000    0.000    2.750    3.750    0.000    0.000 
#    0.000    0.000    0.000    0.000    0.000    0.000 
#
# Total GULP energy -198390.598619 kJ/mol
# GULP energy per Si atom -12399.412414 kJ/mol
# Density = 1.902984 g / cm^3
# Si number density = 19.073251 Si / 1000 Ang^3
#
#
#
# Elastic Constant Matrix: (Units=GPa)
#
#
# Indices 1 2 3 4 5 6 
#
# 1 91.7462 37.2600 28.2427 -4.5344 6.2316 7.4985
# 2 37.2600 95.6845 19.7149 -2.2107 3.0906 16.1258
# 3 28.2427 19.7149 70.5863 3.2289 -3.0120 8.3280
# 4 -4.5344 -2.2107 3.2289 28.0850 9.4593 -3.7195
# 5 6.2316 3.0906 -3.0120 9.4593 31.8576 -3.4320
# 6 7.4985 16.1258 8.3280 -3.7195 -3.4320 31.2283
#
#
#
# Elastic Compliance Matrix: (Units=1/GPa)
#
#
# Indices 1 2 3 4 5 6 
#
# 1 0.014736 -0.004507 -0.005013 0.003999 -0.004090 0.000152
# 2 -0.004507 0.013476 -0.001355 0.000149 -0.001205 -0.005630
# 3 -0.005013 -0.001355 0.017254 -0.004550 0.003790 -0.002824
# 4 0.003999 0.000149 -0.004550 0.041728 -0.013219 0.003694
# 5 -0.004090 -0.001205 0.003790 -0.013219 0.036922 0.003077
# 6 0.000152 -0.005630 -0.002824 0.003694 0.003077 0.036424
#
#
# Mechanical properties :
#
#
# Convention : Reuss Voigt Hill
#
# Bulk Modulus (GPa) = 42.16193 47.60579 44.88386
# Shear Modulus (GPa) = 26.28889 29.75412 28.02151
#
# Velocity S-wave (km/s) = 3.71659 3.95396 3.83711
# Velocity P-wave (km/s) = 6.36951 6.77190 6.57379
#
# Compressibility (1/GPa) = 0.02371808
#
# Stress axis : x y z
#
# Youngs Moduli (GPa) = 67.86119 74.20461 57.95707
#
# Poissons Ratio (x) = 0.33441 0.29053
# Poissons Ratio (y) = 0.30582 0.07852
# Poissons Ratio (z) = 0.34018 0.10053
#
# Static dielectric constant tensor:
#      x y z
#    x 3.404500 0.257180 -0.069680 
#    y 0.257180 3.534290 -0.078540 
#    z -0.069680 -0.078540 3.587680 
# 
# 
# High freq. dielectric constant tensor:
#      x y z
#    x 1.714340 0.028870 -0.010260 
#    y 0.028870 1.727820 0.000270 
#    z -0.010260 0.000270 1.747250 
# 
# From -- ./inp_files/252679.got.cif
#   From: 2010.06.25/outbox.cif.g09.slc.cpg/sg2_127_cif.got.tgz:252679.got - 2010.06.27 13:26:56.
