data_PCOD8038697
_publ_section_title
;
Structure prediction by ZEFSAII (Michael W. Deem and Ramdas Pophale) SiO2 
 PCOD8038697
Probable space group: P -1
;
_chemical_formula_sum "Si O2"
_cell_formula_units_Z 16
_cell_length_a 15.606990
_cell_length_b 16.148737
_cell_length_c 12.024155
_cell_angle_alpha 129.997820
_cell_angle_beta 152.697815
_cell_angle_gamma 40.333939
_cell_volume 893.553548
_symmetry_space_group_name_H-M "P -1"
_symmetry_group_IT_number 2
_symmetry_cell_setting 'triclinic'
loop_
_space_group_symop_operation_xyz
x,y,z
-x,-y,-z
loop_
_atom_site_type_symbol
_atom_site_label
_atom_site_fract_x
_atom_site_fract_y
_atom_site_fract_z
Si Si1 0.655656 0.196794 0.499940
Si Si2 0.307205 0.127505 0.447896
Si Si3 0.673202 0.089028 0.206705
Si Si4 0.908070 0.917614 0.638160
Si Si5 0.059571 0.211025 0.021324
Si Si6 0.183159 0.165062 0.749843
Si Si7 0.692333 0.084081 0.977431
Si Si8 0.860343 0.651338 0.958887
O O1 0.704236 0.176853 0.406005
O O2 0.397092 0.300591 0.313071
O O3 0.713095 0.060682 0.498310
O O4 0.808872 0.241991 0.768900
O O5 0.151369 0.104937 0.328014
O O6 0.141444 0.229519 0.252448
O O7 0.440673 0.173652 0.716190
O O8 0.500000 0.000000 0.500000
O O9 0.847107 0.936980 0.302367
O O10 0.435430 0.109211 0.961392
O O11 0.705251 0.128607 0.154956
O O12 0.936463 0.812686 0.488864
O O13 0.143621 0.905127 0.907490
O O14 0.057346 0.311546 0.022492
O O15 0.231885 0.064861 0.053154
O O16 0.089559 0.293488 0.825465
O O17 0.000000 0.500000 0.000000
#
# Coordination Sequence:
#
# PCOD8038697 Si02
#       8
#     2   2   2   2   2   2   2   2
#     4   9  20  32  51  80 105 132 167 210 257 311
#     4  10  20  32  48  75 115 142 165 196 249 319
#     4   9  15  28  51  78 108 132 157 210 262 309
#     4  10  19  30  53  83 105 137 164 204 258 314
#     4  10  21  33  51  72 108 141 166 204 254 303
#     4   9  17  30  52  74 107 130 169 211 259 306
#     4  10  18  29  51  82 110 135 166 199 257 315
#     4  11  22  36  53  74 101 137 176 217 258 294
#
# _framework density 17.906033999999998
#
# number of rings (size 3 to 8) (size 9 to 14) (size 15 to 20)
#    0.000    2.250    2.500    2.250    1.750    7.500 
#    0.000    0.000    0.000    0.750    0.000    1.750 
#    0.000    0.000    0.000    0.000    0.000    0.000 
#
# Total GULP energy -198307.794514 kJ/mol
# GULP energy per Si atom -12394.237157 kJ/mol
# Density = 1.786528 g / cm^3
# Si number density = 17.906034 Si / 1000 Ang^3
#
#
#
# Elastic Constant Matrix: (Units=GPa)
#
#
# Indices 1 2 3 4 5 6 
#
# 1 122.2128 30.6997 36.3355 1.0195 -2.8039 11.8651
# 2 30.6997 67.8198 31.6601 -0.0885 1.3362 3.6236
# 3 36.3355 31.6601 97.0089 -4.5027 0.8595 7.8065
# 4 1.0195 -0.0885 -4.5027 10.9662 -3.2197 0.4509
# 5 -2.8039 1.3362 0.8595 -3.2197 26.2731 -0.8240
# 6 11.8651 3.6236 7.8065 0.4509 -0.8240 14.7016
#
#
#
# Elastic Compliance Matrix: (Units=1/GPa)
#
#
# Indices 1 2 3 4 5 6 
#
# 1 0.010346 -0.003259 -0.002389 -0.001428 0.000979 -0.006179
# 2 -0.003259 0.018524 -0.004961 -0.002010 -0.001352 0.000685
# 3 -0.002389 -0.004961 0.013430 0.005912 0.000152 -0.004153
# 4 -0.001428 -0.002010 0.005912 0.097284 0.011558 -0.003827
# 5 0.000979 -0.001352 0.000152 0.011558 0.039688 0.001332
# 6 -0.006179 0.000685 -0.004153 -0.003827 0.001332 0.075235
#
#
# Mechanical properties :
#
#
# Convention : Reuss Voigt Hill
#
# Bulk Modulus (GPa) = 47.43732 53.82579 50.63156
# Shear Modulus (GPa) = 17.68338 22.94460 20.31399
#
# Velocity S-wave (km/s) = 3.14596 3.58353 3.37185
# Velocity P-wave (km/s) = 6.30444 6.87369 6.59521
#
# Compressibility (1/GPa) = 0.02108045
#
# Stress axis : x y z
#
# Youngs Moduli (GPa) = 96.65885 53.98535 74.46237
#
# Poissons Ratio (x) = 0.17593 0.17791
# Poissons Ratio (y) = 0.31499 0.36942
# Poissons Ratio (z) = 0.23094 0.26783
#
# Static dielectric constant tensor:
#      x y z
#    x 3.379710 -0.032620 -0.198170 
#    y -0.032620 2.682610 0.072000 
#    z -0.198170 0.072000 3.768170 
# 
# 
# High freq. dielectric constant tensor:
#      x y z
#    x 1.703610 -0.002480 0.001910 
#    y -0.002480 1.606750 0.009290 
#    z 0.001910 0.009290 1.713140 
# 
# From -- ./inp_files/426309.got.cif
#   From: 2010.06.25/outbox.cif.g09.slc.cpg/sg2_214_cif.got.tgz:426309.got - 2010.06.27 13:26:56.
