data_PCOD8038959
_publ_section_title
;
Structure prediction by ZEFSAII (Michael W. Deem and Ramdas Pophale) SiO2 
 PCOD8038959
Probable space group: P -1
;
_chemical_formula_sum "Si O2"
_cell_formula_units_Z 16
_cell_length_a 12.675443
_cell_length_b 12.020928
_cell_length_c 11.373182
_cell_angle_alpha 51.234583
_cell_angle_beta 115.828588
_cell_angle_gamma 73.662095
_cell_volume 746.440877
_symmetry_space_group_name_H-M "P -1"
_symmetry_group_IT_number 2
_symmetry_cell_setting 'triclinic'
loop_
_space_group_symop_operation_xyz
x,y,z
-x,-y,-z
loop_
_atom_site_type_symbol
_atom_site_label
_atom_site_fract_x
_atom_site_fract_y
_atom_site_fract_z
Si Si1 0.346153 0.451571 0.314963
Si Si2 0.564037 0.860857 0.804889
Si Si3 0.036116 0.757515 0.128656
Si Si4 0.259180 0.858928 0.950497
Si Si5 0.222310 0.318054 0.203490
Si Si6 0.524895 0.590233 0.053090
Si Si7 0.128338 0.836055 0.345465
Si Si8 0.325615 0.992326 0.104032
O O1 0.323971 0.641906 0.171351
O O2 0.282766 0.425561 0.185048
O O3 0.565226 0.212240 0.612888
O O4 0.212489 0.509927 0.314440
O O5 0.724490 0.758970 0.856224
O O6 0.351146 0.089791 0.498555
O O7 0.591813 0.926731 0.895183
O O8 0.600970 0.661981 0.986339
O O9 0.133114 0.769628 0.260903
O O10 0.922991 0.948578 0.841672
O O11 0.896068 0.787016 0.110809
O O12 0.327683 0.812834 0.879921
O O13 0.347844 0.901517 0.045563
O O14 0.029734 0.086615 0.697656
O O15 0.000000 0.500000 0.000000
O O16 0.667269 0.383245 0.352688
O O17 0.500000 0.500000 0.000000
#
# Coordination Sequence:
#
# PCOD8038959 Si02
#       8
#     2   2   2   2   2   2   2   2
#     4  10  18  31  58  88 111 142 188 233 282 337
#     4  10  24  39  55  84 113 148 195 231 280 346
#     4   9  17  34  60  88 114 142 185 241 282 324
#     4  10  21  36  57  84 111 147 187 229 282 336
#     4  10  21  39  60  82 113 151 190 236 282 331
#     4  12  25  40  57  80 118 158 188 231 282 336
#     4   9  20  36  57  87 116 146 190 232 279 336
#     4  10  19  35  57  82 113 144 183 239 287 328
#
# _framework density 21.435053
#
# number of rings (size 3 to 8) (size 9 to 14) (size 15 to 20)
#    0.000    2.000    0.000    4.125    0.000    6.000 
#    0.000    2.500    0.000    0.000    0.000    0.000 
#    0.000    0.000    0.000    0.000    0.000    0.000 
#
# Total GULP energy -198300.983963 kJ/mol
# GULP energy per Si atom -12393.811498 kJ/mol
# Density = 2.138627 g / cm^3
# Si number density = 21.435053 Si / 1000 Ang^3
#
#
#
# Elastic Constant Matrix: (Units=GPa)
#
#
# Indices 1 2 3 4 5 6 
#
# 1 63.6256 32.3698 16.6932 -0.1537 1.3332 -5.4354
# 2 32.3698 129.5120 16.5937 5.4879 -0.2829 3.5335
# 3 16.6932 16.5937 63.7256 2.1296 5.6743 -2.8354
# 4 -0.1537 5.4879 2.1296 23.1168 -2.8473 3.1198
# 5 1.3332 -0.2829 5.6743 -2.8473 28.6157 -9.5618
# 6 -5.4354 3.5335 -2.8354 3.1198 -9.5618 38.8645
#
#
#
# Elastic Compliance Matrix: (Units=1/GPa)
#
#
# Indices 1 2 3 4 5 6 
#
# 1 0.019227 -0.004441 -0.003875 0.001258 0.000936 0.002939
# 2 -0.004441 0.009103 -0.001195 -0.001905 -0.000128 -0.001415
# 3 -0.003875 -0.001195 0.017388 -0.001783 -0.003410 0.000139
# 4 0.001258 -0.001905 -0.001783 0.044691 0.003920 -0.002404
# 5 0.000936 -0.000128 -0.003410 0.003920 0.039036 0.009183
# 6 0.002939 -0.001415 0.000139 -0.002404 0.009183 0.028733
#
#
# Mechanical properties :
#
#
# Convention : Reuss Voigt Hill
#
# Bulk Modulus (GPa) = 37.45683 43.13074 40.29379
# Shear Modulus (GPa) = 26.86761 30.86651 28.86706
#
# Velocity S-wave (km/s) = 3.54424 3.79885 3.67375
# Velocity P-wave (km/s) = 5.85332 6.27750 6.06912
#
# Compressibility (1/GPa) = 0.02669740
#
# Stress axis : x y z
#
# Youngs Moduli (GPa) = 52.00943 109.85002 57.51113
#
# Poissons Ratio (x) = 0.48780 0.22285
# Poissons Ratio (y) = 0.23095 0.06873
# Poissons Ratio (z) = 0.20153 0.13128
#
# Static dielectric constant tensor:
#      x y z
#    x 3.720630 -0.174120 0.225440 
#    y -0.174120 4.118340 -0.105390 
#    z 0.225440 -0.105390 3.741040 
# 
# 
# High freq. dielectric constant tensor:
#      x y z
#    x 1.819980 -0.005170 0.027240 
#    y -0.005170 1.857240 -0.007200 
#    z 0.027240 -0.007200 1.818920 
# 
# From -- ./inp_files/427631.got.cif
#   From: 2010.06.25/outbox.cif.g09.slc.cpg/sg2_214_cif.got.tgz:427631.got - 2010.06.27 13:26:56.
