data_PCOD8038942
_publ_section_title
;
Structure prediction by ZEFSAII (Michael W. Deem and Ramdas Pophale) SiO2 
 PCOD8038942
Probable space group: P -1
;
_chemical_formula_sum "Si O2"
_cell_formula_units_Z 16
_cell_length_a 10.816806
_cell_length_b 7.876619
_cell_length_c 18.021818
_cell_angle_alpha 90.844223
_cell_angle_beta 55.975630
_cell_angle_gamma 45.653260
_cell_volume 663.215489
_symmetry_space_group_name_H-M "P -1"
_symmetry_group_IT_number 2
_symmetry_cell_setting 'triclinic'
loop_
_space_group_symop_operation_xyz
x,y,z
-x,-y,-z
loop_
_atom_site_type_symbol
_atom_site_label
_atom_site_fract_x
_atom_site_fract_y
_atom_site_fract_z
Si Si1 0.626929 0.769927 0.139091
Si Si2 0.320261 0.947033 0.938238
Si Si3 0.285115 0.671831 0.853128
Si Si4 0.969851 0.119209 0.827843
Si Si5 0.603123 0.180038 0.920830
Si Si6 0.049258 0.001240 0.399233
Si Si7 0.014969 0.721198 0.317493
Si Si8 0.051621 0.379326 0.400842
O O1 0.830000 0.413268 0.095159
O O2 0.420024 0.933859 0.137437
O O3 0.813059 0.756391 0.055465
O O4 0.398108 0.037025 0.280803
O O5 0.183086 0.897848 0.956953
O O6 0.642239 0.618288 0.798736
O O7 0.301982 0.989953 0.033119
O O8 0.621911 0.313777 0.739602
O O9 0.219864 0.810797 0.795074
O O10 0.838774 0.094753 0.820224
O O11 0.087373 0.152587 0.733258
O O12 0.712281 0.432592 0.968108
O O13 0.894792 0.001564 0.404705
O O14 0.921673 0.315598 0.431233
O O15 0.000000 0.000000 0.500000
O O16 0.909590 0.646856 0.389507
O O17 0.000000 0.500000 0.500000
#
# Coordination Sequence:
#
# PCOD8038942 Si02
#       8
#     2   2   2   2   2   2   2   2
#     4  10  20  35  56  85 112 143 191 231 277 332
#     4   9  19  35  56  83 112 146 185 230 275 327
#     4  10  21  36  54  83 119 146 180 231 281 329
#     4  10  20  36  57  80 117 154 180 227 280 328
#     4  10  19  35  59  81 108 151 195 224 271 336
#     4  10  18  33  59  83 104 141 189 227 273 329
#     4   9  18  34  54  80 110 142 183 225 273 330
#     4  10  18  31  56  84 103 137 183 232 273 321
#
# _framework density 24.124887999999999
#
# number of rings (size 3 to 8) (size 9 to 14) (size 15 to 20)
#    0.000    2.250    1.250    4.125    0.000    2.000 
#    0.000    8.125    0.000    0.750    0.000    0.000 
#    0.000    0.000    0.000    0.000    0.000    0.000 
#
# Total GULP energy -198312.122936 kJ/mol
# GULP energy per Si atom -12394.507684 kJ/mol
# Density = 2.406998 g / cm^3
# Si number density = 24.124888 Si / 1000 Ang^3
#
#
#
# Elastic Constant Matrix: (Units=GPa)
#
#
# Indices 1 2 3 4 5 6 
#
# 1 79.9643 55.6420 26.6590 -9.6702 10.3993 31.2801
# 2 55.6420 180.1557 50.2889 -40.9095 12.1486 38.1452
# 3 26.6590 50.2889 86.0238 -15.2728 15.6795 20.0962
# 4 -9.6702 -40.9095 -15.2728 44.3041 8.1768 -5.0238
# 5 10.3993 12.1486 15.6795 8.1768 28.0842 -7.9048
# 6 31.2801 38.1452 20.0962 -5.0238 -7.9048 45.4626
#
#
#
# Elastic Compliance Matrix: (Units=1/GPa)
#
#
# Indices 1 2 3 4 5 6 
#
# 1 0.021951 -0.001839 0.001306 0.004274 -0.013830 -0.016070
# 2 -0.001839 0.010908 -0.000423 0.010278 -0.009086 -0.008144
# 3 0.001306 -0.000423 0.018150 0.007859 -0.015655 -0.010420
# 4 0.004274 0.010278 0.007859 0.038771 -0.026004 -0.015276
# 5 -0.013830 -0.009086 -0.015655 -0.026004 0.070377 0.033422
# 6 -0.016070 -0.008144 -0.010420 -0.015276 0.033422 0.048616
#
#
# Mechanical properties :
#
#
# Convention : Reuss Voigt Hill
#
# Bulk Modulus (GPa) = 20.36771 67.92485 44.14628
# Shear Modulus (GPa) = 22.02138 37.80710 29.91424
#
# Velocity S-wave (km/s) = 3.02455 3.96301 3.52515
# Velocity P-wave (km/s) = 4.54512 7.01122 5.90827
#
# Compressibility (1/GPa) = 0.04909731
#
# Stress axis : x y z
#
# Youngs Moduli (GPa) = 45.55549 91.67667 55.09535
#
# Poissons Ratio (x) = 0.16855 -0.07194
# Poissons Ratio (y) = 0.08375 0.02332
# Poissons Ratio (z) = -0.05948 0.03881
#
# Static dielectric constant tensor:
#      x y z
#    x 4.564220 0.671540 -0.113460 
#    y 0.671540 4.561360 -0.162710 
#    z -0.113460 -0.162710 4.365140 
# 
# 
# High freq. dielectric constant tensor:
#      x y z
#    x 1.939960 0.034270 0.001770 
#    y 0.034270 1.968500 -0.014140 
#    z 0.001770 -0.014140 1.958890 
# 
# From -- ./inp_files/515647.got.cif
#   From: 2010.06.25/outbox.cif.g09.slc.cpg/sg2_258_cif.got.tgz:515647.got - 2010.06.27 13:26:56.
