data_PCOD8038736
_publ_section_title
;
Structure prediction by ZEFSAII (Michael W. Deem and Ramdas Pophale) SiO2 
 PCOD8038736
Probable space group: P -1
;
_chemical_formula_sum "Si O2"
_cell_formula_units_Z 12
_cell_length_a 9.549450
_cell_length_b 18.714250
_cell_length_c 9.549382
_cell_angle_alpha 141.456741
_cell_angle_beta 119.550680
_cell_angle_gamma 38.543758
_cell_volume 630.965532
_symmetry_space_group_name_H-M "P -1"
_symmetry_group_IT_number 2
_symmetry_cell_setting 'triclinic'
loop_
_space_group_symop_operation_xyz
x,y,z
-x,-y,-z
loop_
_atom_site_type_symbol
_atom_site_label
_atom_site_fract_x
_atom_site_fract_y
_atom_site_fract_z
Si Si1 0.041507 0.563816 0.830781
Si Si2 0.669204 0.063821 0.458504
Si Si3 0.230624 0.141627 0.045521
Si Si4 0.135627 0.263631 0.476368
Si Si5 0.023633 0.763633 0.364372
Si Si6 0.545524 0.358369 0.730621
O O1 0.999019 0.455847 0.691864
O O2 0.292135 0.442248 0.682836
O O3 0.836197 0.708682 0.845134
O O4 0.046141 0.639846 0.088152
O O5 0.411842 0.139842 0.453862
O O6 0.654842 0.208692 0.663819
O O7 0.808124 0.955852 0.500993
O O8 0.817149 0.942255 0.207877
O O9 0.091283 0.214514 0.235893
O O10 0.500000 0.000000 0.000000
O O11 0.019854 0.250010 0.519878
O O12 0.264093 0.714532 0.408732
O O13 0.500000 0.500000 0.000000
#
# Coordination Sequence:
#
# PCOD8038736 Si02
#       6
#     2   2   2   2   2   2
#     4   9  18  32  50  69  96 127 157 189 231 283
#     4   9  18  32  50  69  96 127 157 189 231 283
#     4   9  18  32  50  70  93 127 160 188 231 286
#     4  10  18  30  49  75  97 120 156 199 233 267
#     4  10  18  30  49  75  97 120 156 199 233 267
#     4   9  18  32  50  70  93 127 160 188 231 286
#
# _framework density 19.018471000000002
#
# number of rings (size 3 to 8) (size 9 to 14) (size 15 to 20)
#    0.000    2.667    0.000    2.000    0.000    0.000 
#    0.000    1.667    0.000    0.000    0.000    0.000 
#    0.000    0.000    0.000    0.000    0.000    0.000 
#
# Total GULP energy -148690.470697 kJ/mol
# GULP energy per Si atom -12390.872558 kJ/mol
# Density = 1.897518 g / cm^3
# Si number density = 19.018471 Si / 1000 Ang^3
#
#
#
# Elastic Constant Matrix: (Units=GPa)
#
#
# Indices 1 2 3 4 5 6 
#
# 1 89.3386 39.8400 24.5386 7.4465 -8.5790 30.6781
# 2 39.8400 124.4925 46.8212 19.0999 -4.6697 26.0202
# 3 24.5386 46.8212 64.0558 16.3479 -2.8893 22.2059
# 4 7.4465 19.0999 16.3479 34.8386 9.3342 -2.3951
# 5 -8.5790 -4.6697 -2.8893 9.3342 24.0718 -1.3798
# 6 30.6781 26.0202 22.2059 -2.3951 -1.3798 26.5498
#
#
#
# Elastic Compliance Matrix: (Units=1/GPa)
#
#
# Indices 1 2 3 4 5 6 
#
# 1 0.022858 -0.000719 0.006680 -0.013042 0.012040 -0.031846
# 2 -0.000719 0.012779 -0.004341 -0.006386 0.003694 -0.008447
# 3 0.006680 -0.004341 0.032942 -0.019749 0.011305 -0.032211
# 4 -0.013042 -0.006386 -0.019749 0.054323 -0.026952 0.041346
# 5 0.012040 0.003694 0.011305 -0.026952 0.056841 -0.026465
# 6 -0.031846 -0.008447 -0.032211 0.041346 -0.026465 0.112037
#
#
# Mechanical properties :
#
#
# Convention : Reuss Voigt Hill
#
# Bulk Modulus (GPa) = 13.92364 55.58740 34.75552
# Shear Modulus (GPa) = 16.00110 28.20450 22.10280
#
# Velocity S-wave (km/s) = 2.90374 3.85516 3.41277
# Velocity P-wave (km/s) = 4.31037 7.00770 5.81753
#
# Compressibility (1/GPa) = 0.07182029
#
# Stress axis : x y z
#
# Youngs Moduli (GPa) = 43.74870 78.25360 30.35658
#
# Poissons Ratio (x) = 0.05625 -0.20279
# Poissons Ratio (y) = 0.03145 0.13177
# Poissons Ratio (z) = -0.29226 0.33967
#
# Static dielectric constant tensor:
#      x y z
#    x 3.539360 -0.113820 -0.059930 
#    y -0.113820 3.621700 0.171690 
#    z -0.059930 0.171690 3.825140 
# 
# 
# High freq. dielectric constant tensor:
#      x y z
#    x 1.711040 0.003590 -0.002840 
#    y 0.003590 1.739440 0.029280 
#    z -0.002840 0.029280 1.738010 
# 
# From -- ./inp_files/146246.got.cif
#   From: 2010.06.25/outbox.cif.g09.slc.cpg/sg2_74_cif.got.tgz:146246.got - 2010.06.27 13:26:56.
