data_PCOD8038574
_publ_section_title
;
Structure prediction by ZEFSAII (Michael W. Deem and Ramdas Pophale) SiO2 
 PCOD8038574
Probable space group: P -1
;
_chemical_formula_sum "Si O2"
_cell_formula_units_Z 14
_cell_length_a 9.925924
_cell_length_b 8.876160
_cell_length_c 9.650305
_cell_angle_alpha 130.186492
_cell_angle_beta 90.338615
_cell_angle_gamma 85.165844
_cell_volume 645.908885
_symmetry_space_group_name_H-M "P -1"
_symmetry_group_IT_number 2
_symmetry_cell_setting 'triclinic'
loop_
_space_group_symop_operation_xyz
x,y,z
-x,-y,-z
loop_
_atom_site_type_symbol
_atom_site_label
_atom_site_fract_x
_atom_site_fract_y
_atom_site_fract_z
Si Si1 0.682729 0.825772 0.626725
Si Si2 0.554475 0.172764 0.187912
Si Si3 0.404563 0.843532 0.351760
Si Si4 0.110816 0.381581 0.833356
Si Si5 0.627750 0.529640 0.215770
Si Si6 0.971873 0.691397 0.522729
Si Si7 0.216509 0.939660 0.654358
O O1 0.577670 0.732357 0.672616
O O2 0.677107 0.702656 0.413219
O O3 0.837827 0.802547 0.661130
O O4 0.645907 0.063823 0.741899
O O5 0.606637 0.334198 0.183658
O O6 0.673062 0.083108 0.236563
O O7 0.500000 0.000000 0.000000
O O8 0.486679 0.625424 0.199858
O O9 0.280817 0.836900 0.454045
O O10 0.500000 0.000000 0.500000
O O11 0.242824 0.508771 0.908810
O O12 0.044023 0.357818 0.668403
O O13 0.162031 0.167892 0.770077
O O14 0.000000 0.500000 0.000000
O O15 0.000000 0.500000 0.500000
O O16 0.091046 0.826014 0.628613
#
# Coordination Sequence:
#
# PCOD8038574 Si02
#       7
#     2   2   2   2   2   2   2
#     4  10  20  41  66  95 126 171 224 265 326 405
#     4  12  26  41  64 100 138 172 219 283 345 383
#     4  10  17  37  72  92 118 162 233 273 309 380
#     4  11  24  44  68 102 139 175 219 277 342 395
#     4  10  20  41  67  96 125 174 223 272 320 398
#     4  11  25  42  69 101 133 178 231 262 329 408
#     4  12  22  44  69  95 131 179 224 273 324 405
#
# _framework density 21.674883999999999
#
# number of rings (size 3 to 8) (size 9 to 14) (size 15 to 20)
#    0.000    1.143    7.143    2.571    2.000    2.286 
#    0.000    3.571    0.000    0.000    0.000    0.000 
#    0.000    0.000    0.000    0.000    0.000    0.000 
#
# Total GULP energy -173501.011329 kJ/mol
# GULP energy per Si atom -12392.929381 kJ/mol
# Density = 2.162555 g / cm^3
# Si number density = 21.674884 Si / 1000 Ang^3
#
#
#
# Elastic Constant Matrix: (Units=GPa)
#
#
# Indices 1 2 3 4 5 6 
#
# 1 205.4555 90.1764 49.3521 -3.2263 -21.5208 5.8365
# 2 90.1764 179.7668 40.0282 -9.8318 -10.3529 7.7291
# 3 49.3521 40.0282 50.4928 -0.0613 -10.3648 -7.9494
# 4 -3.2263 -9.8318 -0.0613 9.5881 -1.8567 -0.9504
# 5 -21.5208 -10.3529 -10.3648 -1.8567 36.3737 2.7571
# 6 5.8365 7.7291 -7.9494 -0.9504 2.7571 40.2518
#
#
#
# Elastic Compliance Matrix: (Units=1/GPa)
#
#
# Indices 1 2 3 4 5 6 
#
# 1 0.007461 -0.002342 -0.005227 0.000363 0.002415 -0.001821
# 2 -0.002342 0.008247 -0.004508 0.007485 0.000209 -0.001972
# 3 -0.005227 -0.004508 0.030338 -0.004794 0.003474 0.007264
# 4 0.000363 0.007485 -0.004794 0.113354 0.006783 -0.000225
# 5 0.002415 0.000209 0.003474 0.006783 0.030440 -0.001629
# 6 -0.001821 -0.001972 0.007264 -0.000225 -0.001629 0.027027
#
#
# Mechanical properties :
#
#
# Convention : Reuss Voigt Hill
#
# Bulk Modulus (GPa) = 45.67461 88.31427 66.99444
# Shear Modulus (GPa) = 20.13547 34.31995 27.22771
#
# Velocity S-wave (km/s) = 3.05122 3.98351 3.54812
# Velocity P-wave (km/s) = 5.79065 7.87345 6.91096
#
# Compressibility (1/GPa) = 0.02189400
#
# Stress axis : x y z
#
# Youngs Moduli (GPa) = 134.03338 121.25160 32.96212
#
# Poissons Ratio (x) = 0.28391 0.17228
# Poissons Ratio (y) = 0.31384 0.14859
# Poissons Ratio (z) = 0.70053 0.54659
#
# Static dielectric constant tensor:
#      x y z
#    x 4.477160 -0.649130 -0.131690 
#    y -0.649130 3.931560 0.372820 
#    z -0.131690 0.372820 3.472070 
# 
# 
# High freq. dielectric constant tensor:
#      x y z
#    x 1.877700 -0.000880 -0.009060 
#    y -0.000880 1.867290 -0.005060 
#    z -0.009060 -0.005060 1.814820 
# 
# From -- ./inp_files/160223.got.cif
#   From: 2010.06.25/outbox.cif.g09.slc.cpg/sg2_81_cif.got.tgz:160223.got - 2010.06.27 13:26:56.
