data_PCOD8038131
_publ_section_title
;
Structure prediction by ZEFSAII (Michael W. Deem and Ramdas Pophale) SiO2 
 PCOD8038131
Probable space group: P -1
;
_chemical_formula_sum "Si O2"
_cell_formula_units_Z 16
_cell_length_a 12.000000
_cell_length_b 18.000000
_cell_length_c 15.000000
_cell_angle_alpha 150.000000
_cell_angle_beta 30.000000
_cell_angle_gamma 130.000000
_cell_volume 731.734496
_symmetry_space_group_name_H-M "P -1"
_symmetry_group_IT_number 2
_symmetry_cell_setting 'triclinic'
loop_
_space_group_symop_operation_xyz
x,y,z
-x,-y,-z
loop_
_atom_site_type_symbol
_atom_site_label
_atom_site_fract_x
_atom_site_fract_y
_atom_site_fract_z
Si Si1 0.284980 0.317881 0.861995
Si Si2 0.856312 0.939431 0.677136
Si Si3 0.143880 0.714929 0.952779
Si Si4 0.261466 0.002923 0.837729
Si Si5 0.451587 0.082932 0.972190
Si Si6 0.493350 0.415169 0.281134
Si Si7 0.662620 0.381614 0.945413
Si Si8 0.214996 0.341053 0.138649
O O1 0.555249 0.166022 0.513546
O O2 0.257509 0.498128 0.040973
O O3 0.167145 0.342837 0.068075
O O4 0.134381 0.262587 0.837492
O O5 0.126740 0.789198 0.338642
O O6 0.734591 0.963878 0.686128
O O7 0.703584 0.889431 0.801908
O O8 0.855827 0.110323 0.887745
O O9 0.292099 0.574113 0.632678
O O10 0.252028 0.653879 0.912008
O O11 0.350728 0.006522 0.882597
O O12 0.238181 0.168578 0.979988
O O13 0.000000 0.000000 0.000000
O O14 0.415337 0.266111 0.161944
O O15 0.526272 0.482273 0.232221
O O16 0.479778 0.342108 0.968318
O O17 0.000000 0.500000 0.500000
#
# Coordination Sequence:
#
# PCOD8038131 Si02
#       8
#     2   2   2   2   2   2   2   2
#     4  12  28  44  67 105 138 179 231 284 338 405
#     4  10  24  41  73 100 139 178 222 284 334 419
#     4  10  23  42  68 101 138 176 226 280 334 406
#     4  12  28  46  73 100 138 180 230 286 338 406
#     4  10  23  45  69 100 138 182 227 268 354 401
#     4  10  22  43  68  99 138 181 220 276 345 403
#     4  12  25  43  71 102 137 179 226 282 341 410
#     4  12  27  49  73  96 133 184 233 286 344 404
#
# _framework density 21.865853999999999
#
# number of rings (size 3 to 8) (size 9 to 14) (size 15 to 20)
#    0.000    1.000    1.250    3.750    8.750    2.500 
#    0.000    0.000    0.000    0.000    0.000    0.000 
#    0.000    0.000    0.000    0.000    0.000    0.000 
#
# Total GULP energy -198330.567099 kJ/mol
# GULP energy per Si atom -12395.660444 kJ/mol
# Density = 2.181609 g / cm^3
# Si number density = 21.865854 Si / 1000 Ang^3
#
#
#
# Elastic Constant Matrix: (Units=GPa)
#
#
# Indices 1 2 3 4 5 6 
#
# 1 143.7019 50.4863 30.6931 3.3162 -3.0152 16.2667
# 2 50.4863 104.8234 28.6533 14.2863 -9.1942 1.3636
# 3 30.6931 28.6533 112.5368 24.5196 -9.2114 6.6759
# 4 3.3162 14.2863 24.5196 35.1835 -0.4653 -6.2378
# 5 -3.0152 -9.1942 -9.2114 -0.4653 41.8012 -6.2592
# 6 16.2667 1.3636 6.6759 -6.2378 -6.2592 45.4956
#
#
#
# Elastic Compliance Matrix: (Units=1/GPa)
#
#
# Indices 1 2 3 4 5 6 
#
# 1 0.009031 -0.004155 -0.001644 0.001471 -0.001028 -0.002803
# 2 -0.004155 0.012543 -0.001130 -0.003690 0.002332 0.001090
# 3 -0.001644 -0.001130 0.011574 -0.007764 0.001814 -0.001892
# 4 0.001471 -0.003690 -0.007764 0.036155 -0.001188 0.005518
# 5 -0.001028 0.002332 0.001814 -0.001188 0.025249 0.003342
# 6 -0.002803 0.001090 -0.001892 0.005518 0.003342 0.024444
#
#
# Mechanical properties :
#
#
# Convention : Reuss Voigt Hill
#
# Bulk Modulus (GPa) = 51.83650 64.52527 58.18088
# Shear Modulus (GPa) = 35.89792 41.24467 38.57130
#
# Velocity S-wave (km/s) = 4.05623 4.34782 4.20455
# Velocity P-wave (km/s) = 6.75984 7.40124 7.08780
#
# Compressibility (1/GPa) = 0.01929143
#
# Stress axis : x y z
#
# Youngs Moduli (GPa) = 110.72540 79.72529 86.39820
#
# Poissons Ratio (x) = 0.33123 0.14201
# Poissons Ratio (y) = 0.46002 0.09766
# Poissons Ratio (z) = 0.18199 0.09012
#
# Static dielectric constant tensor:
#      x y z
#    x 4.382550 0.101110 -0.182790 
#    y 0.101110 4.006550 0.168610 
#    z -0.182790 0.168610 4.133550 
# 
# 
# High freq. dielectric constant tensor:
#      x y z
#    x 1.889510 0.002280 -0.008320 
#    y 0.002280 1.865140 0.015890 
#    z -0.008320 0.015890 1.877080 
# 
# From -- ./inp_files/187045.got.cif
#   From: 2010.06.25/outbox.ucp.g09.slc.cvg/sg2_94_cif.got.tgz:187045.got - 2010.06.28 11:54:26.
