data_PCOD8038605
_publ_section_title
;
Structure prediction by ZEFSAII (Michael W. Deem and Ramdas Pophale) SiO2 
 PCOD8038605
Probable space group: P -1
;
_chemical_formula_sum "Si O2"
_cell_formula_units_Z 12
_cell_length_a 18.200725
_cell_length_b 12.098106
_cell_length_c 9.049129
_cell_angle_alpha 142.600112
_cell_angle_beta 139.415994
_cell_angle_gamma 27.481766
_cell_volume 547.750872
_symmetry_space_group_name_H-M "P -1"
_symmetry_group_IT_number 2
_symmetry_cell_setting 'triclinic'
loop_
_space_group_symop_operation_xyz
x,y,z
-x,-y,-z
loop_
_atom_site_type_symbol
_atom_site_label
_atom_site_fract_x
_atom_site_fract_y
_atom_site_fract_z
Si Si1 0.186336 0.958196 0.057431
Si Si2 0.777243 0.977128 0.493761
Si Si3 0.501378 0.182615 0.106256
Si Si4 0.836783 0.489562 0.140748
Si Si5 0.359640 0.066733 0.263847
Si Si6 0.123689 0.630986 0.584392
O O1 0.232069 0.897536 0.236370
O O2 0.308322 0.943922 0.140009
O O3 0.001360 0.236651 0.045160
O O4 0.204132 0.733362 0.783960
O O5 0.801028 0.739193 0.316766
O O6 0.930046 0.864684 0.507795
O O7 0.611289 0.200157 0.383711
O O8 0.313423 0.462784 0.095991
O O9 0.500000 0.000000 0.000000
O O10 0.580539 0.058245 0.936867
O O11 0.851693 0.458981 0.305640
O O12 0.210117 0.380624 0.348127
O O13 0.500000 0.000000 0.500000
#
# Coordination Sequence:
#
# PCOD8038605 Si02
#       6
#     2   2   2   2   2   2
#     4  11  22  39  69  91 119 162 210 248 295 369
#     4  10  18  38  64  94 122 163 200 250 306 359
#     4  10  22  38  66  91 120 166 202 247 317 357
#     4  10  17  39  63  91 122 163 201 246 300 366
#     4  12  22  42  66  88 124 160 206 258 297 361
#     4  11  21  38  66  95 119 162 209 246 302 363
#
# _framework density 21.907771
#
# number of rings (size 3 to 8) (size 9 to 14) (size 15 to 20)
#    0.000    1.333    5.000    4.000    0.000    1.333 
#    0.000    4.167    7.333    0.000    0.000    0.000 
#    0.000    0.000    0.000    0.000    0.000    0.000 
#
# Total GULP energy -148791.301586 kJ/mol
# GULP energy per Si atom -12399.275132 kJ/mol
# Density = 2.185791 g / cm^3
# Si number density = 21.907771 Si / 1000 Ang^3
#
#
#
# Elastic Constant Matrix: (Units=GPa)
#
#
# Indices 1 2 3 4 5 6 
#
# 1 111.8023 26.9967 26.3427 -7.0485 16.0289 -23.2181
# 2 26.9967 56.3796 26.7009 -34.7659 1.2236 -15.9389
# 3 26.3427 26.7009 71.4466 -25.9945 26.2780 -5.4680
# 4 -7.0485 -34.7659 -25.9945 45.1489 0.8098 13.1624
# 5 16.0289 1.2236 26.2780 0.8098 33.9494 -3.5235
# 6 -23.2181 -15.9389 -5.4680 13.1624 -3.5235 20.8673
#
#
#
# Elastic Compliance Matrix: (Units=1/GPa)
#
#
# Indices 1 2 3 4 5 6 
#
# 1 0.014547 -0.006103 -0.005396 -0.010352 -0.000507 0.016555
# 2 -0.006103 0.040729 -0.005559 0.024680 0.005990 0.008307
# 3 -0.005396 -0.005559 0.033144 0.019744 -0.025275 -0.018287
# 4 -0.010352 0.024680 0.019744 0.059186 -0.015545 -0.027451
# 5 -0.000507 0.005990 -0.025275 -0.015545 0.051055 0.015815
# 6 0.016555 0.008307 -0.018287 -0.027451 0.015815 0.087881
#
#
# Mechanical properties :
#
#
# Convention : Reuss Voigt Hill
#
# Bulk Modulus (GPa) = 18.41480 44.41213 31.41346
# Shear Modulus (GPa) = 14.75980 30.63236 22.69608
#
# Velocity S-wave (km/s) = 2.59844 3.74336 3.22216
# Velocity P-wave (km/s) = 4.17449 6.24500 5.31161
#
# Compressibility (1/GPa) = 0.05430415
#
# Stress axis : x y z
#
# Youngs Moduli (GPa) = 68.74106 24.55272 30.17172
#
# Poissons Ratio (x) = 0.14983 0.16281
# Poissons Ratio (y) = 0.41950 0.16773
# Poissons Ratio (z) = 0.37094 0.13649
#
# Static dielectric constant tensor:
#      x y z
#    x 3.322110 -0.898870 0.553100 
#    y -0.898870 4.220770 -0.382950 
#    z 0.553100 -0.382950 4.134140 
# 
# 
# High freq. dielectric constant tensor:
#      x y z
#    x 1.855510 -0.012230 0.026210 
#    y -0.012230 1.862250 -0.012390 
#    z 0.026210 -0.012390 1.852170 
# 
# From -- ./inp_files/167117.got.cif
#   From: 2010.06.25/outbox.cif.g09.slc.cpg/sg2_84_cif.got.tgz:167117.got - 2010.06.27 13:26:56.
