data_PCOD8038292
_publ_section_title
;
Structure prediction by ZEFSAII (Michael W. Deem and Ramdas Pophale) SiO2 
 PCOD8038292
Probable space group: P -1
;
_chemical_formula_sum "Si O2"
_cell_formula_units_Z 16
_cell_length_a 12.000000
_cell_length_b 9.000000
_cell_length_c 18.000000
_cell_angle_alpha 140.000000
_cell_angle_beta 140.000000
_cell_angle_gamma 40.000000
_cell_volume 723.717541
_symmetry_space_group_name_H-M "P -1"
_symmetry_group_IT_number 2
_symmetry_cell_setting 'triclinic'
loop_
_space_group_symop_operation_xyz
x,y,z
-x,-y,-z
loop_
_atom_site_type_symbol
_atom_site_label
_atom_site_fract_x
_atom_site_fract_y
_atom_site_fract_z
Si Si1 0.278351 0.018404 0.985261
Si Si2 0.644883 0.556127 0.044804
Si Si3 0.308361 0.645798 0.411691
Si Si4 0.108663 0.885459 0.114581
Si Si5 0.029689 0.464638 0.275249
Si Si6 0.103817 0.243761 0.538766
Si Si7 0.354575 0.508489 0.212620
Si Si8 0.769699 0.351434 0.296684
O O1 0.116437 0.071288 0.988151
O O2 0.199963 0.886902 0.832522
O O3 0.283404 0.288052 0.072234
O O4 0.503054 0.826477 0.039384
O O5 0.804718 0.597239 0.189099
O O6 0.500000 0.500000 0.000000
O O7 0.758328 0.323035 0.957217
O O8 0.500000 0.500000 0.500000
O O9 0.152358 0.538391 0.307751
O O10 0.356679 0.576707 0.324804
O O11 0.237577 0.945843 0.509548
O O12 0.202717 0.769812 0.197219
O O13 0.114731 0.156894 0.208332
O O14 0.039072 0.603104 0.409077
O O15 0.238547 0.391296 0.648545
O O16 0.962289 0.245360 0.402329
O O17 0.571366 0.428125 0.266996
#
# Coordination Sequence:
#
# PCOD8038292 Si02
#       8
#     2   2   2   2   2   2   2   2
#     4  12  25  48  75 114 156 197 252 314 388 444
#     4  12  26  44  76 114 155 203 246 311 385 462
#     4  12  30  48  75 113 153 202 258 321 382 456
#     4  12  26  48  75 114 151 201 254 306 385 453
#     4  12  27  48  76 107 155 202 255 315 382 458
#     4  11  26  49  76 103 151 200 262 308 380 456
#     4  12  28  46  78 112 156 194 256 323 375 458
#     4  11  24  48  77 110 144 206 253 315 378 449
#
# _framework density 22.108073000000001
#
# number of rings (size 3 to 8) (size 9 to 14) (size 15 to 20)
#    0.000    0.250    3.750    3.750    8.750    0.500 
#    0.000    0.000    0.000    0.000    0.000    0.000 
#    0.000    0.000    0.000    0.000    0.000    0.000 
#
# Total GULP energy -198346.140602 kJ/mol
# GULP energy per Si atom -12396.633788 kJ/mol
# Density = 2.205775 g / cm^3
# Si number density = 22.108073 Si / 1000 Ang^3
#
#
#
# Elastic Constant Matrix: (Units=GPa)
#
#
# Indices 1 2 3 4 5 6 
#
# 1 138.9534 46.9992 39.4114 6.8900 14.5352 -18.0639
# 2 46.9992 152.1733 47.9182 14.2793 -2.5156 -10.7334
# 3 39.4114 47.9182 110.2388 3.0139 11.4945 4.4819
# 4 6.8900 14.2793 3.0139 46.3088 1.7735 2.1947
# 5 14.5352 -2.5156 11.4945 1.7735 43.3828 -0.7867
# 6 -18.0639 -10.7334 4.4819 2.1947 -0.7867 40.8626
#
#
#
# Elastic Compliance Matrix: (Units=1/GPa)
#
#
# Indices 1 2 3 4 5 6 
#
# 1 0.009296 -0.001805 -0.002418 -0.000759 -0.002477 0.003894
# 2 -0.001805 0.008566 -0.003315 -0.002332 0.002111 0.001982
# 3 -0.002418 -0.003315 0.011759 0.000874 -0.002594 -0.003326
# 4 -0.000759 -0.002332 0.000874 0.022518 -0.001074 -0.002274
# 5 -0.002477 0.002111 -0.002594 -0.001074 0.024739 0.000278
# 6 0.003894 0.001982 -0.003326 -0.002274 0.000278 0.027206
#
#
# Mechanical properties :
#
#
# Convention : Reuss Voigt Hill
#
# Bulk Modulus (GPa) = 68.75514 74.44702 71.60108
# Shear Modulus (GPa) = 40.31971 43.91329 42.11650
#
# Velocity S-wave (km/s) = 4.27518 4.46163 4.36940
# Velocity P-wave (km/s) = 7.45229 7.76458 7.61004
#
# Compressibility (1/GPa) = 0.01454437
#
# Stress axis : x y z
#
# Youngs Moduli (GPa) = 107.57514 116.73639 85.04404
#
# Poissons Ratio (x) = 0.21067 0.20565
# Poissons Ratio (y) = 0.19414 0.28195
# Poissons Ratio (z) = 0.26014 0.38702
#
# Static dielectric constant tensor:
#      x y z
#    x 4.243010 -0.023250 0.080820 
#    y -0.023250 4.406730 0.033690 
#    z 0.080820 0.033690 4.202400 
# 
# 
# High freq. dielectric constant tensor:
#      x y z
#    x 1.891630 -0.012870 0.006070 
#    y -0.012870 1.893430 0.009460 
#    z 0.006070 0.009460 1.889140 
# 
# From -- ./inp_files/278875.got.cif
#   From: 2010.06.25/outbox.ucp.g09.slc.cvg/sg2_140_cif.got.tgz:278875.got - 2010.06.28 11:54:26.
