data_PCOD8038204
_publ_section_title
;
Structure prediction by ZEFSAII (Michael W. Deem and Ramdas Pophale) SiO2 
 PCOD8038204
Probable space group: P -1
;
_chemical_formula_sum "Si O2"
_cell_formula_units_Z 12
_cell_length_a 6.747562
_cell_length_b 7.190052
_cell_length_c 11.376471
_cell_angle_alpha 91.059372
_cell_angle_beta 112.524447
_cell_angle_gamma 94.339649
_cell_volume 507.692136
_symmetry_space_group_name_H-M "P -1"
_symmetry_group_IT_number 2
_symmetry_cell_setting 'triclinic'
loop_
_space_group_symop_operation_xyz
x,y,z
-x,-y,-z
loop_
_atom_site_type_symbol
_atom_site_label
_atom_site_fract_x
_atom_site_fract_y
_atom_site_fract_z
Si Si1 0.542109 0.956636 0.853620
Si Si2 0.750200 0.575846 0.543126
Si Si3 0.072790 0.305735 0.658806
Si Si4 0.101465 0.887335 0.661689
Si Si5 0.466800 0.842627 0.587258
Si Si6 0.598127 0.701124 0.066267
O O1 0.611855 0.917289 0.734492
O O2 0.568275 0.178949 0.895022
O O3 0.666905 0.828954 0.968918
O O4 0.280895 0.899006 0.806474
O O5 0.775371 0.593232 0.407864
O O6 0.516880 0.634369 0.545638
O O7 0.842536 0.392427 0.617021
O O8 0.892858 0.750332 0.639795
O O9 0.194244 0.336306 0.810515
O O10 0.027761 0.088837 0.616571
O O11 0.781938 0.191017 0.429392
O O12 0.500000 0.000000 0.500000
O O13 0.500000 0.500000 0.000000
#
# Coordination Sequence:
#
# PCOD8038204 Si02
#       6
#     2   2   2   2   2   2
#     4   8  19  34  56  86 107 145 198 221 271 349
#     4  11  20  37  58  85 120 142 180 243 284 330
#     4  10  21  33  56  89 110 147 196 224 279 346
#     4   9  19  37  58  81 113 151 178 228 293 327
#     4  10  19  36  59  88 115 145 188 231 282 347
#     4  10  17  34  59  78 111 154 188 230 273 328
#
# _framework density 23.636371
#
# number of rings (size 3 to 8) (size 9 to 14) (size 15 to 20)
#    1.000    1.333    1.667    1.500    0.000    0.000 
#    0.000    7.500    0.000   14.000    0.000    0.000 
#    0.000    0.000    0.000    0.000    0.000    0.000 
#
# Total GULP energy -148696.169106 kJ/mol
# GULP energy per Si atom -12391.347425 kJ/mol
# Density = 2.358257 g / cm^3
# Si number density = 23.636371 Si / 1000 Ang^3
#
#
#
# Elastic Constant Matrix: (Units=GPa)
#
#
# Indices 1 2 3 4 5 6 
#
# 1 83.1910 42.7429 35.3006 -4.2001 4.9312 -27.2487
# 2 42.7429 220.1150 72.1147 13.5441 1.2599 -31.6518
# 3 35.3006 72.1147 159.4869 -5.8605 -4.2357 -19.4068
# 4 -4.2001 13.5441 -5.8605 45.6384 -8.7967 0.5485
# 5 4.9312 1.2599 -4.2357 -8.7967 35.0089 0.2790
# 6 -27.2487 -31.6518 -19.4068 0.5485 0.2790 34.1577
#
#
#
# Elastic Compliance Matrix: (Units=1/GPa)
#
#
# Indices 1 2 3 4 5 6 
#
# 1 0.017493 -0.001106 -0.001960 0.001065 -0.002488 0.011819
# 2 -0.001106 0.006160 -0.002217 -0.002446 -0.000978 0.003613
# 3 -0.001960 -0.002217 0.007922 0.001825 0.001766 0.000840
# 4 0.001065 -0.002446 0.001825 0.024183 0.006242 -0.000820
# 5 -0.002488 -0.000978 0.001766 0.006242 0.030750 -0.002238
# 6 0.011819 0.003613 0.000840 -0.000820 -0.002238 0.042561
#
#
# Mechanical properties :
#
#
# Convention : Reuss Voigt Hill
#
# Bulk Modulus (GPa) = 47.59891 84.78994 66.19442
# Shear Modulus (GPa) = 34.09733 43.80331 38.95032
#
# Velocity S-wave (km/s) = 3.80225 4.30957 4.06383
# Velocity P-wave (km/s) = 6.28155 7.79190 7.07713
#
# Compressibility (1/GPa) = 0.02100889
#
# Stress axis : x y z
#
# Youngs Moduli (GPa) = 57.16429 162.34249 126.22394
#
# Poissons Ratio (x) = 0.17961 0.24746
# Poissons Ratio (y) = 0.06325 0.27978
# Poissons Ratio (z) = 0.11207 0.35984
#
# Static dielectric constant tensor:
#      x y z
#    x 3.980870 -0.268050 0.166480 
#    y -0.268050 4.636590 0.180100 
#    z 0.166480 0.180100 4.452100 
# 
# 
# High freq. dielectric constant tensor:
#      x y z
#    x 1.889190 -0.014300 0.017640 
#    y -0.014300 1.975960 0.015780 
#    z 0.017640 0.015780 1.954440 
# 
# From -- ./inp_files/379727.got.cif
#   From: 2010.06.25/outbox.cif.g09.slc.cpg/sg2_190_cif.got.tgz:379727.got - 2010.06.27 13:26:56.
