data_PCOD8038923
_publ_section_title
;
Structure prediction by ZEFSAII (Michael W. Deem and Ramdas Pophale) SiO2 
 PCOD8038923
Probable space group: P -1
;
_chemical_formula_sum "Si O2"
_cell_formula_units_Z 16
_cell_length_a 11.738063
_cell_length_b 20.516658
_cell_length_c 15.087308
_cell_angle_alpha 29.881619
_cell_angle_beta 34.962186
_cell_angle_gamma 28.854538
_cell_volume 845.828339
_symmetry_space_group_name_H-M "P -1"
_symmetry_group_IT_number 2
_symmetry_cell_setting 'triclinic'
loop_
_space_group_symop_operation_xyz
x,y,z
-x,-y,-z
loop_
_atom_site_type_symbol
_atom_site_label
_atom_site_fract_x
_atom_site_fract_y
_atom_site_fract_z
Si Si1 0.483854 0.992159 0.156476
Si Si2 0.231282 0.832156 0.465637
Si Si3 0.130865 0.421372 0.099746
Si Si4 0.758650 0.358996 0.468862
Si Si5 0.388035 0.916354 0.861130
Si Si6 0.037418 0.093308 0.139990
Si Si7 0.951398 0.273304 0.137806
Si Si8 0.001087 0.071581 0.789756
O O1 0.448746 0.849333 0.333636
O O2 0.549598 0.991839 0.218385
O O3 0.245376 0.170517 0.077485
O O4 0.689578 0.964799 0.990578
O O5 0.305910 0.677353 0.543111
O O6 0.114413 0.821426 0.642773
O O7 0.045354 0.980557 0.345416
O O8 0.376075 0.246921 0.133963
O O9 0.941484 0.410801 0.290041
O O10 0.000000 0.500000 0.000000
O O11 0.183203 0.539802 0.974843
O O12 0.500000 0.500000 0.500000
O O13 0.886851 0.212881 0.626693
O O14 0.238874 0.034503 0.733448
O O15 0.212802 0.877073 0.064902
O O16 0.887582 0.265053 0.084199
O O17 0.912561 0.088492 0.135099
#
# Coordination Sequence:
#
# PCOD8038923 Si02
#       8
#     2   2   2   2   2   2   2   2
#     4  10  18  31  55  79 108 144 184 225 265 324
#     4  10  19  31  50  80 109 143 176 225 273 320
#     4  12  22  35  54  85 116 146 180 229 282 326
#     4  11  23  35  57  86 114 141 181 231 280 329
#     4  10  20  39  59  81 111 148 187 222 278 329
#     4   9  19  32  53  79 108 144 184 224 268 321
#     4  11  20  32  51  80 114 142 176 227 279 320
#     4   9  21  39  60  80 109 149 187 228 266 332
#
# _framework density 18.916369
#
# number of rings (size 3 to 8) (size 9 to 14) (size 15 to 20)
#    0.000    1.750    2.500    3.750    5.250    1.500 
#    0.000    0.625    0.000    0.750    0.000    0.000 
#    0.000    0.000    0.000    0.000    0.000    0.000 
#
# Total GULP energy -198222.320295 kJ/mol
# GULP energy per Si atom -12388.895018 kJ/mol
# Density = 1.887331 g / cm^3
# Si number density = 18.916369 Si / 1000 Ang^3
#
#
#
# Elastic Constant Matrix: (Units=GPa)
#
#
# Indices 1 2 3 4 5 6 
#
# 1 103.8141 39.5068 21.4225 -0.1429 2.4143 9.4744
# 2 39.5068 88.6294 29.9847 9.2614 5.6422 15.2584
# 3 21.4225 29.9847 74.0310 6.0879 -2.6969 5.4271
# 4 -0.1429 9.2614 6.0879 21.1521 8.8344 0.0931
# 5 2.4143 5.6422 -2.6969 8.8344 23.5352 -1.0199
# 6 9.4744 15.2584 5.4271 0.0931 -1.0199 32.6700
#
#
#
# Elastic Compliance Matrix: (Units=1/GPa)
#
#
# Indices 1 2 3 4 5 6 
#
# 1 0.011962 -0.004813 -0.001774 0.003364 -0.001582 -0.000985
# 2 -0.004813 0.016635 -0.004609 -0.004960 -0.002406 -0.005669
# 3 -0.001774 -0.004609 0.016458 -0.004813 0.004984 0.000103
# 4 0.003364 -0.004960 -0.004813 0.060133 -0.022224 0.001275
# 5 -0.001582 -0.002406 0.004984 -0.022224 0.052248 0.002449
# 6 -0.000985 -0.005669 0.000103 0.001275 0.002449 0.033598
#
#
# Mechanical properties :
#
#
# Convention : Reuss Voigt Hill
#
# Bulk Modulus (GPa) = 44.12610 49.81139 46.96875
# Shear Modulus (GPa) = 22.62649 27.17550 24.90099
#
# Velocity S-wave (km/s) = 3.46227 3.79438 3.63212
# Velocity P-wave (km/s) = 6.27381 6.75174 6.51716
#
# Compressibility (1/GPa) = 0.02266232
#
# Stress axis : x y z
#
# Youngs Moduli (GPa) = 83.60105 60.11391 60.76115
#
# Poissons Ratio (x) = 0.28932 0.10779
# Poissons Ratio (y) = 0.40236 0.28006
# Poissons Ratio (z) = 0.14831 0.27708
#
# Static dielectric constant tensor:
#      x y z
#    x 4.367290 1.720200 -0.872060 
#    y 1.720200 8.275670 -2.847950 
#    z -0.872060 -2.847950 5.182290 
# 
# 
# High freq. dielectric constant tensor:
#      x y z
#    x 1.736920 0.037820 -0.002870 
#    y 0.037820 1.714970 0.018420 
#    z -0.002870 0.018420 1.733160 
# 
# From -- ./inp_files/254469.got.cif
#   From: 2010.06.25/outbox.cif.g09.slc.cpg/sg2_128_cif.got.tgz:254469.got - 2010.06.27 13:26:56.
