data_PCOD8038873
_publ_section_title
;
Structure prediction by ZEFSAII (Michael W. Deem and Ramdas Pophale) SiO2 
 PCOD8038873
Probable space group: P -1
;
_chemical_formula_sum "Si O2"
_cell_formula_units_Z 14
_cell_length_a 11.252350
_cell_length_b 12.287118
_cell_length_c 10.613287
_cell_angle_alpha 61.425584
_cell_angle_beta 55.140638
_cell_angle_gamma 41.227763
_cell_volume 790.359561
_symmetry_space_group_name_H-M "P -1"
_symmetry_group_IT_number 2
_symmetry_cell_setting 'triclinic'
loop_
_space_group_symop_operation_xyz
x,y,z
-x,-y,-z
loop_
_atom_site_type_symbol
_atom_site_label
_atom_site_fract_x
_atom_site_fract_y
_atom_site_fract_z
Si Si1 0.679933 0.502479 0.519100
Si Si2 0.695633 0.325162 0.843796
Si Si3 0.030594 0.496892 0.779197
Si Si4 0.130276 0.978869 0.249659
Si Si5 0.259195 0.537150 0.028014
Si Si6 0.727043 0.232832 0.484888
Si Si7 0.059415 0.281245 0.067400
O O1 0.689405 0.444024 0.685911
O O2 0.832535 0.529072 0.399707
O O3 0.735589 0.368098 0.456059
O O4 0.467912 0.678861 0.524160
O O5 0.843419 0.135045 0.815286
O O6 0.767931 0.334808 0.928475
O O7 0.484028 0.383392 0.951004
O O8 0.844316 0.529101 0.817599
O O9 0.955667 0.654447 0.820033
O O10 0.150962 0.332094 0.888501
O O11 0.269002 0.863713 0.345797
O O12 0.187555 0.083511 0.107670
O O13 0.906648 0.104094 0.356568
O O14 0.154984 0.632822 0.906005
#
# Coordination Sequence:
#
# PCOD8038873 Si02
#       7
#     2   2   2   2   2   2   2
#     4  10  18  33  56  77 101 141 173 214 251 316
#     4  10  21  33  57  78 102 140 180 210 254 303
#     4   9  19  33  58  74 105 139 174 207 266 306
#     4  10  18  31  51  83 105 131 169 226 261 291
#     4   9  20  38  51  78 103 142 181 202 251 326
#     4   9  19  29  52  81 107 126 178 215 262 298
#     4   9  18  33  55  73 108 135 168 216 259 308
#
# _framework density 17.713457999999999
#
# number of rings (size 3 to 8) (size 9 to 14) (size 15 to 20)
#    0.857    1.714    1.429    0.857    4.000    1.143 
#    0.000    2.857    0.000    0.857    0.000    0.000 
#    0.000    0.000    0.000    0.000    0.000    0.000 
#
# Total GULP energy -173501.321067 kJ/mol
# GULP energy per Si atom -12392.951505 kJ/mol
# Density = 1.767314 g / cm^3
# Si number density = 17.713458 Si / 1000 Ang^3
#
#
#
# Elastic Constant Matrix: (Units=GPa)
#
#
# Indices 1 2 3 4 5 6 
#
# 1 61.4210 28.5697 14.8460 2.3041 -8.8063 8.4646
# 2 28.5697 104.9037 28.7356 -1.5738 -1.0704 8.6905
# 3 14.8460 28.7356 74.5519 -4.6423 -23.6324 5.2182
# 4 2.3041 -1.5738 -4.6423 31.3320 5.6704 2.3811
# 5 -8.8063 -1.0704 -23.6324 5.6704 24.3713 4.7493
# 6 8.4646 8.6905 5.2182 2.3811 4.7493 16.4963
#
#
#
# Elastic Compliance Matrix: (Units=1/GPa)
#
#
# Indices 1 2 3 4 5 6 
#
# 1 0.022032 -0.005617 0.002790 -0.002983 0.013590 -0.012710
# 2 -0.005617 0.012682 -0.006179 0.001542 -0.007862 0.000197
# 3 0.002790 -0.006179 0.025019 -0.000795 0.027913 -0.014012
# 4 -0.002983 0.001542 -0.000795 0.033894 -0.009432 -0.001207
# 5 0.013590 -0.007862 0.027913 -0.009432 0.081434 -0.033744
# 6 -0.012710 0.000197 -0.014012 -0.001207 -0.033744 0.081359
#
#
# Mechanical properties :
#
#
# Convention : Reuss Voigt Hill
#
# Bulk Modulus (GPa) = 23.97031 42.79768 33.38400
# Shear Modulus (GPa) = 17.34065 25.68827 21.51446
#
# Velocity S-wave (km/s) = 3.13222 3.81230 3.48887
# Velocity P-wave (km/s) = 5.16165 6.60240 5.92598
#
# Compressibility (1/GPa) = 0.04171828
#
# Stress axis : x y z
#
# Youngs Moduli (GPa) = 45.38907 78.85367 39.96951
#
# Poissons Ratio (x) = 0.44296 -0.11151
# Poissons Ratio (y) = 0.25497 0.24699
# Poissons Ratio (z) = -0.12663 0.48727
#
# Static dielectric constant tensor:
#      x y z
#    x 3.049980 0.047120 -0.047190 
#    y 0.047120 3.204480 -0.120800 
#    z -0.047190 -0.120800 3.263850 
# 
# 
# High freq. dielectric constant tensor:
#      x y z
#    x 1.661620 0.005300 -0.002100 
#    y 0.005300 1.670440 -0.006690 
#    z -0.002100 -0.006690 1.684390 
# 
# From -- ./inp_files/247338.got.cif
#   From: 2010.06.25/outbox.cif.g09.slc.cpg/sg2_124_cif.got.tgz:247338.got - 2010.06.27 13:26:56.
