data_PCOD8038202
_publ_section_title
;
Structure prediction by ZEFSAII (Michael W. Deem and Ramdas Pophale) SiO2 
 PCOD8038202
Probable space group: P -1
;
_chemical_formula_sum "Si O2"
_cell_formula_units_Z 16
_cell_length_a 18.023565
_cell_length_b 15.433624
_cell_length_c 16.697064
_cell_angle_alpha 147.703575
_cell_angle_beta 147.674802
_cell_angle_gamma 23.440757
_cell_volume 932.930877
_symmetry_space_group_name_H-M "P -1"
_symmetry_group_IT_number 2
_symmetry_cell_setting 'triclinic'
loop_
_space_group_symop_operation_xyz
x,y,z
-x,-y,-z
loop_
_atom_site_type_symbol
_atom_site_label
_atom_site_fract_x
_atom_site_fract_y
_atom_site_fract_z
Si Si1 0.766909 0.012959 0.020206
Si Si2 0.500378 0.957570 0.758074
Si Si3 0.139868 0.202499 0.222568
Si Si4 0.101704 0.394322 0.094567
Si Si5 0.053701 0.338204 0.681631
Si Si6 0.483769 0.147519 0.485818
Si Si7 0.934039 0.739653 0.626895
Si Si8 0.189821 0.656535 0.654252
O O1 0.755113 0.201179 0.192054
O O2 0.550990 0.105454 0.899840
O O3 0.838066 0.956417 0.947870
O O4 0.919841 0.774097 0.024819
O O5 0.663493 0.758422 0.815764
O O6 0.534748 0.824459 0.605210
O O7 0.285845 0.114264 0.719934
O O8 0.353067 0.103677 0.362671
O O9 0.047770 0.206966 0.223831
O O10 0.999113 0.460959 0.262202
O O11 0.005490 0.596148 0.228686
O O12 0.000000 0.500000 0.000000
O O13 0.945715 0.275871 0.492789
O O14 0.393918 0.386237 0.628732
O O15 0.709738 0.937842 0.549192
O O16 0.000000 0.500000 0.500000
O O17 0.073192 0.726628 0.685552
#
# Coordination Sequence:
#
# PCOD8038202 Si02
#       8
#     2   2   2   2   2   2   2   2
#     4   8  20  37  51  75 115 134 168 220 280 300
#     4   9  17  35  56  76 101 143 175 207 259 328
#     4   9  18  34  51  74 107 145 177 221 253 310
#     4   9  19  37  60  81 104 136 174 214 259 327
#     4  10  17  34  59  77 102 142 181 209 255 320
#     4  10  18  33  53  76 103 141 185 216 254 307
#     4  12  20  30  56  80 100 143 195 215 247 310
#     4  11  20  34  52  80 105 142 173 225 265 301
#
# _framework density 17.150252999999999
#
# number of rings (size 3 to 8) (size 9 to 14) (size 15 to 20)
#    0.750    1.500    6.250    0.375    0.000    1.000 
#    4.500    1.250    0.000    0.750    0.000    0.000 
#    0.000    0.000    0.000    0.000    0.000    0.000 
#
# Total GULP energy -198242.988747 kJ/mol
# GULP energy per Si atom -12390.186797 kJ/mol
# Density = 1.711122 g / cm^3
# Si number density = 17.150253 Si / 1000 Ang^3
#
#
#
# Elastic Constant Matrix: (Units=GPa)
#
#
# Indices 1 2 3 4 5 6 
#
# 1 51.4635 28.2697 35.0680 0.9217 -13.9864 -0.2651
# 2 28.2697 104.5469 43.1622 -5.6443 -3.6525 -15.5162
# 3 35.0680 43.1622 99.1400 14.2031 -12.6258 3.4768
# 4 0.9217 -5.6443 14.2031 24.1172 6.4164 -4.3844
# 5 -13.9864 -3.6525 -12.6258 6.4164 21.7573 -4.2033
# 6 -0.2651 -15.5162 3.4768 -4.3844 -4.2033 24.6726
#
#
#
# Elastic Compliance Matrix: (Units=1/GPa)
#
#
# Indices 1 2 3 4 5 6 
#
# 1 0.031138 -0.005567 -0.005987 -0.003399 0.016591 -0.000100
# 2 -0.005567 0.017199 -0.008909 0.013854 -0.007394 0.013214
# 3 -0.005987 -0.008909 0.020316 -0.018286 0.009888 -0.010095
# 4 -0.003399 0.013854 -0.018286 0.065979 -0.026357 0.018487
# 5 0.016591 -0.007394 0.009888 -0.026357 0.069134 0.001229
# 6 -0.000100 0.013214 -0.010095 0.018487 0.001229 0.053757
#
#
# Mechanical properties :
#
#
# Convention : Reuss Voigt Hill
#
# Bulk Modulus (GPa) = 36.06443 52.01670 44.04056
# Shear Modulus (GPa) = 16.25007 24.01944 20.13475
#
# Velocity S-wave (km/s) = 3.08151 3.74643 3.43012
# Velocity P-wave (km/s) = 5.80819 7.00786 6.43604
#
# Compressibility (1/GPa) = 0.02772815
#
# Stress axis : x y z
#
# Youngs Moduli (GPa) = 32.11474 58.14303 49.22196
#
# Poissons Ratio (x) = 0.32366 0.29472
# Poissons Ratio (y) = 0.17877 0.43849
# Poissons Ratio (z) = 0.19229 0.51797
#
# Static dielectric constant tensor:
#      x y z
#    x 3.001040 -0.209570 -0.240200 
#    y -0.209570 3.157490 -0.021480 
#    z -0.240200 -0.021480 3.084490 
# 
# 
# High freq. dielectric constant tensor:
#      x y z
#    x 1.634670 -0.018790 -0.026690 
#    y -0.018790 1.660010 -0.002340 
#    z -0.026690 -0.002340 1.647760 
# 
# From -- ./inp_files/578373.got.cif
#   From: 2010.06.25/outbox.cif.g09.slc.cpg/sg2_290_cif.got.tgz:578373.got - 2010.06.27 13:26:56.
