data_PCOD8038333
_publ_section_title
;
Structure prediction by ZEFSAII (Michael W. Deem and Ramdas Pophale) SiO2 
 PCOD8038333
Probable space group: P -1
;
_chemical_formula_sum "Si O2"
_cell_formula_units_Z 14
_cell_length_a 12.816973
_cell_length_b 12.248941
_cell_length_c 9.668570
_cell_angle_alpha 118.220630
_cell_angle_beta 146.227603
_cell_angle_gamma 60.059015
_cell_volume 725.869346
_symmetry_space_group_name_H-M "P -1"
_symmetry_group_IT_number 2
_symmetry_cell_setting 'triclinic'
loop_
_space_group_symop_operation_xyz
x,y,z
-x,-y,-z
loop_
_atom_site_type_symbol
_atom_site_label
_atom_site_fract_x
_atom_site_fract_y
_atom_site_fract_z
Si Si1 0.897334 0.664388 0.697329
Si Si2 0.436662 0.913961 0.564212
Si Si3 0.640934 0.127323 0.865311
Si Si4 0.944100 0.917859 0.768781
Si Si5 0.373015 0.354538 0.363945
Si Si6 0.690869 0.496169 0.889384
Si Si7 0.606515 0.609718 0.146342
O O1 0.864095 0.804504 0.681069
O O2 0.795397 0.668544 0.735757
O O3 0.803323 0.582714 0.435812
O O4 0.122134 0.609647 0.930459
O O5 0.409994 0.871119 0.351551
O O6 0.510359 0.781829 0.647359
O O7 0.592851 0.001029 0.803050
O O8 0.235636 0.992483 0.455326
O O9 0.521541 0.252906 0.879967
O O10 0.866441 0.126522 0.143327
O O11 0.000000 0.000000 0.000000
O O12 0.513000 0.427078 0.644117
O O13 0.276524 0.437119 0.177971
O O14 0.653853 0.602705 0.031408
O O15 0.500000 0.500000 0.000000
#
# Coordination Sequence:
#
# PCOD8038333 Si02
#       7
#     2   2   2   2   2   2   2
#     4  12  21  38  62  89 114 152 200 241 288 341
#     4  10  17  35  55  84 112 151 190 238 285 336
#     4  10  19  33  56  86 116 143 195 242 287 330
#     4  10  19  30  59  92 111 142 195 247 285 333
#     4  11  22  41  59  83 122 157 194 236 288 355
#     4  11  25  38  58  88 119 158 192 236 296 349
#     4  12  21  39  60  87 121 152 192 247 292 336
#
# _framework density 19.287217999999999
#
# number of rings (size 3 to 8) (size 9 to 14) (size 15 to 20)
#    0.000    1.143    4.286    5.143    0.000    0.000 
#    0.000    0.714    0.000    0.857    0.000    0.000 
#    0.000    0.000    0.000    0.000    0.000    0.000 
#
# Total GULP energy -173586.060340 kJ/mol
# GULP energy per Si atom -12399.004310 kJ/mol
# Density = 1.924332 g / cm^3
# Si number density = 19.287218 Si / 1000 Ang^3
#
#
#
# Elastic Constant Matrix: (Units=GPa)
#
#
# Indices 1 2 3 4 5 6 
#
# 1 69.1413 20.5609 30.8785 1.1746 9.5755 -17.6985
# 2 20.5609 102.0628 22.2807 6.7658 -3.5500 -10.7544
# 3 30.8785 22.2807 70.5087 5.0461 1.8382 -2.3898
# 4 1.1746 6.7658 5.0461 26.7480 0.0770 10.0569
# 5 9.5755 -3.5500 1.8382 0.0770 23.2463 1.7062
# 6 -17.6985 -10.7544 -2.3898 10.0569 1.7062 30.4300
#
#
#
# Elastic Compliance Matrix: (Units=1/GPa)
#
#
# Indices 1 2 3 4 5 6 
#
# 1 0.024355 -0.001390 -0.009106 -0.004642 -0.010616 0.015088
# 2 -0.001390 0.011433 -0.002640 -0.003916 0.002233 0.004194
# 3 -0.009106 -0.002640 0.018845 -0.000756 0.002199 -0.004623
# 4 -0.004642 -0.003916 -0.000756 0.046051 0.002653 -0.019512
# 5 -0.010616 0.002233 0.002199 0.002653 0.048194 -0.008792
# 6 0.015088 0.004194 -0.004623 -0.019512 -0.008792 0.049698
#
#
# Mechanical properties :
#
#
# Convention : Reuss Voigt Hill
#
# Bulk Modulus (GPa) = 35.26031 43.23921 39.24976
# Shear Modulus (GPa) = 21.33988 27.28437 24.31213
#
# Velocity S-wave (km/s) = 3.32991 3.76524 3.55425
# Velocity P-wave (km/s) = 5.75376 6.43195 6.10228
#
# Compressibility (1/GPa) = 0.02836050
#
# Stress axis : x y z
#
# Youngs Moduli (GPa) = 41.05990 87.46281 53.06480
#
# Poissons Ratio (x) = 0.12158 0.48322
# Poissons Ratio (y) = 0.05708 0.14009
# Poissons Ratio (z) = 0.37390 0.23090
#
# Static dielectric constant tensor:
#      x y z
#    x 3.624060 -0.249710 0.365550 
#    y -0.249710 3.800520 0.001790 
#    z 0.365550 0.001790 3.716170 
# 
# 
# High freq. dielectric constant tensor:
#      x y z
#    x 1.731650 -0.008580 0.035330 
#    y -0.008580 1.764150 0.008290 
#    z 0.035330 0.008290 1.738270 
# 
# From -- ./inp_files/260415.got.cif
#   From: 2010.06.25/outbox.cif.g09.slc.cpg/sg2_131_cif.got.tgz:260415.got - 2010.06.27 13:26:56.
