data_PCOD8038434
_publ_section_title
;
Structure prediction by ZEFSAII (Michael W. Deem and Ramdas Pophale) SiO2 
 PCOD8038434
Probable space group: P -1
;
_chemical_formula_sum "Si O2"
_cell_formula_units_Z 16
_cell_length_a 9.923445
_cell_length_b 12.601572
_cell_length_c 20.901006
_cell_angle_alpha 37.922762
_cell_angle_beta 67.130934
_cell_angle_gamma 38.059787
_cell_volume 781.971161
_symmetry_space_group_name_H-M "P -1"
_symmetry_group_IT_number 2
_symmetry_cell_setting 'triclinic'
loop_
_space_group_symop_operation_xyz
x,y,z
-x,-y,-z
loop_
_atom_site_type_symbol
_atom_site_label
_atom_site_fract_x
_atom_site_fract_y
_atom_site_fract_z
Si Si1 0.061408 0.326194 0.271259
Si Si2 0.286238 0.390262 0.682879
Si Si3 0.263018 0.619674 0.011524
Si Si4 0.697581 0.258755 0.457434
Si Si5 0.583962 0.719539 0.729884
Si Si6 0.759917 0.375481 0.734204
Si Si7 0.795391 0.713260 0.545104
Si Si8 0.172557 0.349037 0.103212
O O1 0.183667 0.365318 0.268901
O O2 0.017544 0.421352 0.159474
O O3 0.777291 0.569138 0.247666
O O4 0.275924 0.948945 0.410713
O O5 0.380383 0.494972 0.602400
O O6 0.007356 0.624570 0.584792
O O7 0.524512 0.031174 0.782511
O O8 0.393575 0.424224 0.145897
O O9 0.204579 0.520476 0.022759
O O10 0.500000 0.500000 0.000000
O O11 0.983156 0.007301 0.884628
O O12 0.470739 0.469594 0.343732
O O13 0.000000 0.000000 0.500000
O O14 0.618973 0.559826 0.739330
O O15 0.282346 0.117453 0.589185
O O16 0.901191 0.409251 0.662606
O O17 0.500000 0.000000 0.500000
O O18 0.000000 0.500000 0.000000
#
# Coordination Sequence:
#
# PCOD8038434 Si02
#       8
#     2   2   2   2   2   2   2   2
#     4  10  20  40  65  91 122 162 205 258 306 370
#     4  11  21  40  66  92 124 162 203 259 312 358
#     4  11  25  42  56  90 129 158 207 257 297 366
#     4  10  20  36  64  98 121 148 213 258 301 368
#     4  10  19  38  64  90 125 158 202 252 312 369
#     4  11  19  37  66  89 120 163 198 254 310 360
#     4  10  17  35  68  92 120 158 202 253 309 368
#     4  11  26  46  60  85 130 168 210 251 305 376
#
# _framework density 20.461113000000001
#
# number of rings (size 3 to 8) (size 9 to 14) (size 15 to 20)
#    0.000    1.500    3.750    4.125    0.000    1.000 
#    9.000    1.875    0.000    0.000    0.000    0.000 
#    0.000    0.000    0.000    0.000    0.000    0.000 
#
# Total GULP energy -198239.684259 kJ/mol
# GULP energy per Si atom -12389.980266 kJ/mol
# Density = 2.041454 g / cm^3
# Si number density = 20.461113 Si / 1000 Ang^3
#
#
#
# Elastic Constant Matrix: (Units=GPa)
#
#
# Indices 1 2 3 4 5 6 
#
# 1 133.9968 20.5283 55.9737 16.8645 -5.6564 9.3224
# 2 20.5283 46.5023 35.1795 3.8863 -3.7428 1.1099
# 3 55.9737 35.1795 132.0614 19.0251 -6.9738 6.5342
# 4 16.8645 3.8863 19.0251 25.4773 6.5930 -4.2020
# 5 -5.6564 -3.7428 -6.9738 6.5930 46.3873 0.3702
# 6 9.3224 1.1099 6.5342 -4.2020 0.3702 25.0810
#
#
#
# Elastic Compliance Matrix: (Units=1/GPa)
#
#
# Indices 1 2 3 4 5 6 
#
# 1 0.009828 -0.001644 -0.002713 -0.005220 0.001430 -0.003769
# 2 -0.001644 0.027309 -0.006939 0.002199 0.000635 0.001569
# 3 -0.002713 -0.006939 0.011818 -0.006949 0.001897 -0.002956
# 4 -0.005220 0.002199 -0.006949 0.051945 -0.008986 0.012489
# 5 0.001430 0.000635 0.001897 -0.008986 0.023369 -0.002904
# 6 -0.003769 0.001569 -0.002956 0.012489 -0.002904 0.044107
#
#
# Mechanical properties :
#
#
# Convention : Reuss Voigt Hill
#
# Bulk Modulus (GPa) = 37.93328 59.54707 48.74017
# Shear Modulus (GPa) = 25.03035 32.78103 28.90569
#
# Velocity S-wave (km/s) = 3.50138 4.00698 3.76269
# Velocity P-wave (km/s) = 5.90980 7.11151 6.53832
#
# Compressibility (1/GPa) = 0.02636208
#
# Stress axis : x y z
#
# Youngs Moduli (GPa) = 101.75216 36.61749 84.61487
#
# Poissons Ratio (x) = 0.06022 0.22960
# Poissons Ratio (y) = 0.16733 0.58712
# Poissons Ratio (z) = 0.27610 0.25408
#
# Static dielectric constant tensor:
#      x y z
#    x 4.200600 -0.045340 -0.643000 
#    y -0.045340 3.662910 0.440720 
#    z -0.643000 0.440720 4.362310 
# 
# 
# High freq. dielectric constant tensor:
#      x y z
#    x 1.815790 0.008610 -0.012330 
#    y 0.008610 1.767920 0.002570 
#    z -0.012330 0.002570 1.815230 
# 
# From -- ./inp_files/589473.got.cif
#   From: 2010.06.25/outbox.cif.g09.slc.cpg/sg2_295_cif.got.tgz:589473.got - 2010.06.27 13:26:56.
