data_PCOD8038019
_publ_section_title
;
Structure prediction by ZEFSAII (Michael W. Deem and Ramdas Pophale) SiO2 
 PCOD8038019
Probable space group: P -1
;
_chemical_formula_sum "Si O2"
_cell_formula_units_Z 16
_cell_length_a 11.866873
_cell_length_b 15.502256
_cell_length_c 13.966667
_cell_angle_alpha 50.059308
_cell_angle_beta 141.215134
_cell_angle_gamma 152.570456
_cell_volume 730.240785
_symmetry_space_group_name_H-M "P -1"
_symmetry_group_IT_number 2
_symmetry_cell_setting 'triclinic'
loop_
_space_group_symop_operation_xyz
x,y,z
-x,-y,-z
loop_
_atom_site_type_symbol
_atom_site_label
_atom_site_fract_x
_atom_site_fract_y
_atom_site_fract_z
Si Si1 0.702379 0.848879 0.287076
Si Si2 0.768690 0.208902 0.570994
Si Si3 0.324764 0.508980 0.931974
Si Si4 0.839115 0.082770 0.369104
Si Si5 0.074427 0.511537 0.410167
Si Si6 0.870257 0.543087 0.719924
Si Si7 0.466624 0.216049 0.990759
Si Si8 0.763838 0.108344 0.830547
O O1 0.397691 0.626235 0.266307
O O2 0.708474 0.874774 0.160192
O O3 0.009226 0.937291 0.452563
O O4 0.709984 0.970167 0.263406
O O5 0.992783 0.358006 0.526657
O O6 0.901482 0.192817 0.753081
O O7 0.692694 0.290482 0.517019
O O8 0.500000 0.000000 0.500000
O O9 0.229775 0.567160 0.758820
O O10 0.017566 0.300894 0.924951
O O11 0.500000 0.500000 0.000000
O O12 0.532582 0.660397 0.048428
O O13 0.096315 0.305698 0.360476
O O14 0.562222 0.995728 0.307075
O O15 0.223396 0.545076 0.386087
O O16 0.187252 0.649851 0.888705
O O17 0.272344 0.038371 0.059321
#
# Coordination Sequence:
#
# PCOD8038019 Si02
#       8
#     2   2   2   2   2   2   2   2
#     4  11  22  38  60  93 124 156 204 250 302 363
#     4  10  17  33  58  84 114 152 197 244 294 352
#     4  10  21  41  61  83 125 163 200 256 303 349
#     4  10  22  39  60  88 125 160 196 252 309 358
#     4   9  20  35  57  90 113 153 210 237 299 365
#     4  10  20  39  64  84 123 163 199 254 297 358
#     4  10  22  39  61  92 120 161 210 241 301 368
#     4  10  22  41  62  86 123 161 198 253 303 361
#
# _framework density 21.910581000000001
#
# number of rings (size 3 to 8) (size 9 to 14) (size 15 to 20)
#    0.000    2.000    0.000    5.250    0.000    3.500 
#   13.500    0.000    0.000    0.000    0.000    0.000 
#    0.000    0.000    0.000    0.000    0.000    0.000 
#
# Total GULP energy -198260.685473 kJ/mol
# GULP energy per Si atom -12391.292842 kJ/mol
# Density = 2.186071 g / cm^3
# Si number density = 21.910581 Si / 1000 Ang^3
#
#
#
# Elastic Constant Matrix: (Units=GPa)
#
#
# Indices 1 2 3 4 5 6 
#
# 1 61.8575 29.1738 43.2173 -4.0868 -14.1043 -11.3401
# 2 29.1738 150.6530 33.2298 -5.8508 -16.7287 -13.4531
# 3 43.2173 33.2298 71.5085 -2.8132 -17.1299 -5.6766
# 4 -4.0868 -5.8508 -2.8132 25.0942 -3.8180 -9.9998
# 5 -14.1043 -16.7287 -17.1299 -3.8180 29.8251 4.5947
# 6 -11.3401 -13.4531 -5.6766 -9.9998 4.5947 40.1701
#
#
#
# Elastic Compliance Matrix: (Units=1/GPa)
#
#
# Indices 1 2 3 4 5 6 
#
# 1 0.030707 -0.000992 -0.016228 0.006466 0.004370 0.007153
# 2 -0.000992 0.007935 -0.002121 0.002855 0.002748 0.002474
# 3 -0.016228 -0.002121 0.026137 -0.000169 0.006493 -0.002383
# 4 0.006466 0.002855 -0.000169 0.048365 0.008625 0.013811
# 5 0.004370 0.002748 0.006493 0.008625 0.041905 0.000426
# 6 0.007153 0.002474 -0.002383 0.013811 0.000426 0.030795
#
#
# Mechanical properties :
#
#
# Convention : Reuss Voigt Hill
#
# Bulk Modulus (GPa) = 38.31856 55.02898 46.67377
# Shear Modulus (GPa) = 21.43859 30.91107 26.17483
#
# Velocity S-wave (km/s) = 3.13143 3.76011 3.46008
# Velocity P-wave (km/s) = 5.53182 6.63484 6.10828
#
# Compressibility (1/GPa) = 0.02609702
#
# Stress axis : x y z
#
# Youngs Moduli (GPa) = 32.56593 126.03186 38.25924
#
# Poissons Ratio (x) = 0.12499 0.62088
# Poissons Ratio (y) = 0.03230 0.08114
# Poissons Ratio (z) = 0.52849 0.26730
#
# Static dielectric constant tensor:
#      x y z
#    x 3.808470 -0.276430 -0.238380 
#    y -0.276430 4.429260 0.001900 
#    z -0.238380 0.001900 3.882440 
# 
# 
# High freq. dielectric constant tensor:
#      x y z
#    x 1.842020 -0.019740 -0.014570 
#    y -0.019740 1.884860 -0.003060 
#    z -0.014570 -0.003060 1.837090 
# 
# From -- ./inp_files/521564.got.cif
#   From: 2010.06.25/outbox.cif.g09.slc.cpg/sg2_261_cif.got.tgz:521564.got - 2010.06.27 13:26:56.
