data_PCOD8038283
_publ_section_title
;
Structure prediction by ZEFSAII (Michael W. Deem and Ramdas Pophale) SiO2 
 PCOD8038283
Probable space group: P -1
;
_chemical_formula_sum "Si O2"
_cell_formula_units_Z 16
_cell_length_a 15.000000
_cell_length_b 15.000000
_cell_length_c 12.000000
_cell_angle_alpha 30.000000
_cell_angle_beta 60.000000
_cell_angle_gamma 40.000000
_cell_volume 747.221570
_symmetry_space_group_name_H-M "P -1"
_symmetry_group_IT_number 2
_symmetry_cell_setting 'triclinic'
loop_
_space_group_symop_operation_xyz
x,y,z
-x,-y,-z
loop_
_atom_site_type_symbol
_atom_site_label
_atom_site_fract_x
_atom_site_fract_y
_atom_site_fract_z
Si Si1 0.618272 0.973808 0.798314
Si Si2 0.282801 0.586364 0.036374
Si Si3 0.389237 0.799710 0.649523
Si Si4 0.379833 0.980186 0.866616
Si Si5 0.865755 0.613630 0.234023
Si Si6 0.773769 0.735854 0.581259
Si Si7 0.056400 0.891326 0.208356
Si Si8 0.594557 0.425871 0.632914
O O1 0.688889 0.987125 0.633962
O O2 0.530475 0.907986 0.883782
O O3 0.481001 0.284737 0.597562
O O4 0.772389 0.732730 0.043317
O O5 0.331010 0.669998 0.822043
O O6 0.414701 0.441492 0.210334
O O7 0.289464 0.373613 0.216467
O O8 0.098829 0.855590 0.895492
O O9 0.323305 0.975644 0.613329
O O10 0.256925 0.128541 0.885468
O O11 0.276832 0.185000 0.603197
O O12 0.439059 0.693496 0.129341
O O13 0.900478 0.370772 0.518192
O O14 0.035211 0.496783 0.258910
O O15 0.210836 0.802879 0.247419
O O16 0.000000 0.000000 0.000000
O O17 0.500000 0.500000 0.500000
#
# Coordination Sequence:
#
# PCOD8038283 Si02
#       8
#     2   2   2   2   2   2   2   2
#     4  12  26  46  67 101 143 184 220 277 343 412
#     4  11  24  44  69  99 134 176 233 288 328 394
#     4  11  26  46  70  97 138 185 231 280 337 400
#     4  12  24  43  72 102 134 178 227 285 342 402
#     4  12  24  45  68 102 144 172 223 286 348 403
#     4  12  25  44  72 103 130 179 234 282 336 403
#     4  12  23  43  72 104 135 176 225 287 346 394
#     4  12  25  43  71 101 141 179 221 274 351 413
#
# _framework density 21.412658
#
# number of rings (size 3 to 8) (size 9 to 14) (size 15 to 20)
#    0.000    0.250    5.000    4.875    3.500    0.500 
#    0.000    0.625    0.000    0.000    0.000    0.000 
#    0.000    0.000    0.000    0.000    0.000    0.000 
#
# Total GULP energy -198295.368690 kJ/mol
# GULP energy per Si atom -12393.460543 kJ/mol
# Density = 2.136392 g / cm^3
# Si number density = 21.412658 Si / 1000 Ang^3
#
#
#
# Elastic Constant Matrix: (Units=GPa)
#
#
# Indices 1 2 3 4 5 6 
#
# 1 176.5445 35.1559 65.5048 17.7117 21.8629 -41.0898
# 2 35.1559 59.9745 23.7461 9.3012 15.1217 -16.4458
# 3 65.5048 23.7461 151.0611 18.9300 8.4541 -18.8980
# 4 17.7117 9.3012 18.9300 36.6686 -6.7887 0.9073
# 5 21.8629 15.1217 8.4541 -6.7887 63.5600 3.7331
# 6 -41.0898 -16.4458 -18.8980 0.9073 3.7331 38.7276
#
#
#
# Elastic Compliance Matrix: (Units=1/GPa)
#
#
# Indices 1 2 3 4 5 6 
#
# 1 0.009723 -0.000555 -0.002166 -0.004404 -0.003953 0.009507
# 2 -0.000555 0.022471 -0.001001 -0.006298 -0.006236 0.009214
# 3 -0.002166 -0.001001 0.008323 -0.003133 -0.000544 0.001464
# 4 -0.004404 -0.006298 -0.003133 0.034298 0.007705 -0.010422
# 5 -0.003953 -0.006236 -0.000544 0.007705 0.020013 -0.009218
# 6 0.009507 0.009214 0.001464 -0.010422 -0.009218 0.041668
#
#
# Mechanical properties :
#
#
# Convention : Reuss Voigt Hill
#
# Bulk Modulus (GPa) = 30.23678 70.71039 50.47358
# Shear Modulus (GPa) = 32.26558 45.33613 38.80086
#
# Velocity S-wave (km/s) = 3.88602 4.60636 4.26144
# Velocity P-wave (km/s) = 5.85547 7.83491 6.91637
#
# Compressibility (1/GPa) = 0.03307231
#
# Stress axis : x y z
#
# Youngs Moduli (GPa) = 102.85193 44.50216 120.15208
#
# Poissons Ratio (x) = 0.02469 0.26029
# Poissons Ratio (y) = 0.05706 0.12026
# Poissons Ratio (z) = 0.22281 0.04454
#
# Static dielectric constant tensor:
#      x y z
#    x 4.419120 -0.206010 -0.051760 
#    y -0.206010 3.816270 -0.027520 
#    z -0.051760 -0.027520 4.447930 
# 
# 
# High freq. dielectric constant tensor:
#      x y z
#    x 1.876610 -0.018380 -0.005970 
#    y -0.018380 1.826070 -0.003130 
#    z -0.005970 -0.003130 1.877780 
# 
# From -- ./inp_files/455379.got.cif
#   From: 2010.06.25/outbox.ucp.g09.slc.cvg/sg2_228_cif.got.tgz:455379.got - 2010.06.28 11:54:26.
