data_PCOD8038189
_publ_section_title
;
Structure prediction by ZEFSAII (Michael W. Deem and Ramdas Pophale) SiO2 
 PCOD8038189
Probable space group: P -1
;
_chemical_formula_sum "Si O2"
_cell_formula_units_Z 14
_cell_length_a 9.382605
_cell_length_b 10.898776
_cell_length_c 11.943083
_cell_angle_alpha 51.434799
_cell_angle_beta 131.637116
_cell_angle_gamma 112.576854
_cell_volume 712.720434
_symmetry_space_group_name_H-M "P -1"
_symmetry_group_IT_number 2
_symmetry_cell_setting 'triclinic'
loop_
_space_group_symop_operation_xyz
x,y,z
-x,-y,-z
loop_
_atom_site_type_symbol
_atom_site_label
_atom_site_fract_x
_atom_site_fract_y
_atom_site_fract_z
Si Si1 0.260653 0.932719 0.150041
Si Si2 0.303506 0.708209 0.818734
Si Si3 0.954917 0.769752 0.186293
Si Si4 0.019453 0.833705 0.422901
Si Si5 0.306207 0.363323 0.052099
Si Si6 0.382757 0.016366 0.816756
Si Si7 0.287799 0.066730 0.328262
O O1 0.140819 0.778162 0.195855
O O2 0.479262 0.895502 0.248632
O O3 0.241382 0.025800 0.201679
O O4 0.151061 0.058068 0.938821
O O5 0.114473 0.737148 0.629408
O O6 0.285894 0.546245 0.971328
O O7 0.332576 0.845258 0.844796
O O8 0.477779 0.691847 0.832980
O O9 0.816920 0.654793 0.116719
O O10 0.018328 0.722300 0.373666
O O11 0.139068 0.991089 0.378025
O O12 0.806642 0.875915 0.329282
O O13 0.257662 0.258312 0.196668
O O14 0.500000 0.000000 0.000000
O O15 0.500000 0.000000 0.500000
#
# Coordination Sequence:
#
# PCOD8038189 Si02
#       7
#     2   2   2   2   2   2   2
#     4   9  17  31  55  79 110 135 192 223 272 312
#     4  11  22  36  53  89 113 149 174 238 286 321
#     4   9  17  34  56  84 102 148 181 232 271 323
#     4  11  21  33  60  87 111 139 199 226 270 331
#     4  10  20  36  58  78 125 137 183 229 288 328
#     4  12  21  36  56  83 113 151 187 229 274 339
#     4  10  17  34  58  87 105 143 190 232 265 327
#
# _framework density 19.643045999999998
#
# number of rings (size 3 to 8) (size 9 to 14) (size 15 to 20)
#    0.000    1.714    5.714    1.286    0.000    0.571 
#    0.000    0.714    0.000    0.857    0.000    0.000 
#    0.000    0.000    0.000    0.000    0.000    0.000 
#
# Total GULP energy -173456.151796 kJ/mol
# GULP energy per Si atom -12389.725128 kJ/mol
# Density = 1.959834 g / cm^3
# Si number density = 19.643046 Si / 1000 Ang^3
#
#
#
# Elastic Constant Matrix: (Units=GPa)
#
#
# Indices 1 2 3 4 5 6 
#
# 1 95.3124 15.8209 13.2622 -2.9793 22.8984 19.3356
# 2 15.8209 63.3049 35.1719 6.3577 10.5735 1.2941
# 3 13.2622 35.1719 86.3581 8.9612 9.3380 5.1352
# 4 -2.9793 6.3577 8.9612 25.4633 10.2559 -3.0475
# 5 22.8984 10.5735 9.3380 10.2559 25.2432 8.3038
# 6 19.3356 1.2941 5.1352 -3.0475 8.3038 23.0450
#
#
#
# Elastic Compliance Matrix: (Units=1/GPa)
#
#
# Indices 1 2 3 4 5 6 
#
# 1 0.015946 -0.001962 -0.000463 0.007357 -0.014124 -0.007104
# 2 -0.001962 0.021693 -0.008177 0.000055 -0.005725 0.004320
# 3 -0.000463 -0.008177 0.015530 -0.004314 0.001022 -0.003551
# 4 0.007357 0.000055 -0.004314 0.056468 -0.032654 0.014019
# 5 -0.014124 -0.005725 0.001022 -0.032654 0.073973 -0.019029
# 6 -0.007104 0.004320 -0.003551 0.014019 -0.019029 0.058613
#
#
# Mechanical properties :
#
#
# Convention : Reuss Voigt Hill
#
# Bulk Modulus (GPa) = 31.28662 41.49838 36.39250
# Shear Modulus (GPa) = 18.24272 26.79835 22.52053
#
# Velocity S-wave (km/s) = 3.05078 3.69760 3.38966
# Velocity P-wave (km/s) = 5.32652 6.27709 5.82124
#
# Compressibility (1/GPa) = 0.03196254
#
# Stress axis : x y z
#
# Youngs Moduli (GPa) = 62.71026 46.09885 64.39313
#
# Poissons Ratio (x) = 0.09046 0.02984
# Poissons Ratio (y) = 0.12306 0.52655
# Poissons Ratio (z) = 0.02906 0.37696
#
# Static dielectric constant tensor:
#      x y z
#    x 4.431140 1.596280 1.061260 
#    y 1.596280 5.721990 2.252860 
#    z 1.061260 2.252860 5.837460 
# 
# 
# High freq. dielectric constant tensor:
#      x y z
#    x 1.751140 0.028650 0.004850 
#    y 0.028650 1.740610 0.028720 
#    z 0.004850 0.028720 1.766140 
# 
# From -- ./inp_files/190038.got.cif
#   From: 2010.06.25/outbox.cif.g09.slc.cpg/sg2_96_cif.got.tgz:190038.got - 2010.06.27 13:26:56.
