data_PCOD8038220
_publ_section_title
;
Structure prediction by ZEFSAII (Michael W. Deem and Ramdas Pophale) SiO2 
 PCOD8038220
Probable space group: P -1
;
_chemical_formula_sum "Si O2"
_cell_formula_units_Z 16
_cell_length_a 15.831955
_cell_length_b 9.326742
_cell_length_c 19.474735
_cell_angle_alpha 28.179902
_cell_angle_beta 150.799204
_cell_angle_gamma 137.521910
_cell_volume 656.144390
_symmetry_space_group_name_H-M "P -1"
_symmetry_group_IT_number 2
_symmetry_cell_setting 'triclinic'
loop_
_space_group_symop_operation_xyz
x,y,z
-x,-y,-z
loop_
_atom_site_type_symbol
_atom_site_label
_atom_site_fract_x
_atom_site_fract_y
_atom_site_fract_z
Si Si1 0.841607 0.815728 0.963537
Si Si2 0.916150 0.649535 0.745464
Si Si3 0.651244 0.042287 0.291868
Si Si4 0.185652 0.394275 0.818669
Si Si5 0.412230 0.777996 0.484684
Si Si6 0.385221 0.644436 0.295198
Si Si7 0.101351 0.160848 0.719512
Si Si8 0.203114 0.282534 0.599006
O O1 0.682814 0.018640 0.728789
O O2 0.777998 0.784373 0.009021
O O3 0.905262 0.498059 0.103159
O O4 0.000000 0.000000 0.000000
O O5 0.778950 0.801151 0.528777
O O6 0.820733 0.383034 0.827431
O O7 0.971788 0.901496 0.731807
O O8 0.447986 0.983014 0.183795
O O9 0.713093 0.978610 0.283948
O O10 0.664297 0.388531 0.177842
O O11 0.191217 0.143452 0.866139
O O12 0.005046 0.629623 0.596223
O O13 0.564412 0.539703 0.661022
O O14 0.283616 0.598795 0.513760
O O15 0.500000 0.000000 0.500000
O O16 0.500000 0.500000 0.500000
O O17 0.236606 0.137655 0.760778
O O18 0.000000 0.500000 0.500000
#
# Coordination Sequence:
#
# PCOD8038220 Si02
#       8
#     2   2   2   2   2   2   2   2
#     4  12  23  41  67  99 132 172 225 277 319 388
#     4  11  20  37  65  95 134 169 220 271 324 388
#     4  10  17  34  59  97 125 173 215 268 322 403
#     4  11  20  34  64  94 132 164 225 266 327 378
#     4  11  25  42  66  92 133 178 215 266 338 396
#     4   9  21  37  62  93 129 170 214 260 329 396
#     4  10  21  33  61 101 127 166 214 272 321 384
#     4  10  18  35  61  92 122 170 220 259 314 390
#
# _framework density 24.384876999999999
#
# number of rings (size 3 to 8) (size 9 to 14) (size 15 to 20)
#    0.000    1.500    5.000    2.625    3.500    0.000 
#    0.000    3.750    0.000   20.250    0.000    0.000 
#    0.000    0.000    0.000    0.000    0.000    0.250 
#
# Total GULP energy -198334.859885 kJ/mol
# GULP energy per Si atom -12395.928743 kJ/mol
# Density = 2.432938 g / cm^3
# Si number density = 24.384877 Si / 1000 Ang^3
#
#
#
# Elastic Constant Matrix: (Units=GPa)
#
#
# Indices 1 2 3 4 5 6 
#
# 1 164.2944 86.0748 27.8442 5.3985 -7.9333 6.6524
# 2 86.0748 198.7159 25.5293 -14.4833 -7.2155 5.2599
# 3 27.8442 25.5293 41.1101 4.2639 -4.9839 6.8579
# 4 5.3985 -14.4833 4.2639 28.7562 -0.5975 -4.0631
# 5 -7.9333 -7.2155 -4.9839 -0.5975 33.6850 -7.4949
# 6 6.6524 5.2599 6.8579 -4.0631 -7.4949 40.1441
#
#
#
# Elastic Compliance Matrix: (Units=1/GPa)
#
#
# Indices 1 2 3 4 5 6 
#
# 1 0.008611 -0.003501 -0.003171 -0.002984 0.000620 -0.000613
# 2 -0.003501 0.007245 -0.002671 0.004811 0.000569 0.000680
# 3 -0.003171 -0.002671 0.029704 -0.005736 0.001993 -0.004407
# 4 -0.002984 0.004811 -0.005736 0.039352 0.001305 0.005071
# 5 0.000620 0.000569 0.001993 0.001305 0.031495 0.005495
# 6 -0.000613 0.000680 -0.004407 0.005071 0.005495 0.027215
#
#
# Mechanical properties :
#
#
# Convention : Reuss Voigt Hill
#
# Bulk Modulus (GPa) = 37.21332 75.89077 56.55204
# Shear Modulus (GPa) = 29.19408 38.16188 33.67798
#
# Velocity S-wave (km/s) = 3.46384 3.96028 3.72035
# Velocity P-wave (km/s) = 5.59388 7.21813 6.45728
#
# Compressibility (1/GPa) = 0.02687210
#
# Stress axis : x y z
#
# Youngs Moduli (GPa) = 116.12753 138.01915 33.66596
#
# Poissons Ratio (x) = 0.48325 0.10677
# Poissons Ratio (y) = 0.40660 0.08993
# Poissons Ratio (z) = 0.36828 0.36870
#
# Static dielectric constant tensor:
#      x y z
#    x 5.365420 0.011710 0.035400 
#    y 0.011710 4.665960 -0.042940 
#    z 0.035400 -0.042940 4.273600 
# 
# 
# High freq. dielectric constant tensor:
#      x y z
#    x 1.984320 0.001700 0.000350 
#    y 0.001700 1.980150 -0.015190 
#    z 0.000350 -0.015190 1.954000 
# 
# From -- ./inp_files/599330.got.cif
#   From: 2010.06.25/outbox.cif.g09.slc.cpg/sg2_300_cif.got.tgz:599330.got - 2010.06.27 13:26:56.
