data_PCOD8038437
_publ_section_title
;
Structure prediction by ZEFSAII (Michael W. Deem and Ramdas Pophale) SiO2 
 PCOD8038437
Probable space group: P -1
;
_chemical_formula_sum "Si O2"
_cell_formula_units_Z 16
_cell_length_a 8.988211
_cell_length_b 15.102785
_cell_length_c 11.758143
_cell_angle_alpha 120.397042
_cell_angle_beta 94.138555
_cell_angle_gamma 46.479009
_cell_volume 895.629329
_symmetry_space_group_name_H-M "P -1"
_symmetry_group_IT_number 2
_symmetry_cell_setting 'triclinic'
loop_
_space_group_symop_operation_xyz
x,y,z
-x,-y,-z
loop_
_atom_site_type_symbol
_atom_site_label
_atom_site_fract_x
_atom_site_fract_y
_atom_site_fract_z
Si Si1 0.458909 0.159550 0.312228
Si Si2 0.213120 0.355171 0.846288
Si Si3 0.668514 0.427083 0.291539
Si Si4 0.866051 0.744802 0.817822
Si Si5 0.658006 0.490464 0.077264
Si Si6 0.607921 0.590149 0.614723
Si Si7 0.807507 0.813264 0.110408
Si Si8 0.927018 0.586165 0.374775
O O1 0.324240 0.147390 0.219079
O O2 0.495909 0.241787 0.292385
O O3 0.312236 0.262761 0.481477
O O4 0.699417 0.981246 0.242691
O O5 0.382495 0.365741 0.853944
O O6 0.315291 0.203993 0.821507
O O7 0.114914 0.368032 0.729084
O O8 0.000000 0.500000 0.000000
O O9 0.592528 0.507573 0.216161
O O10 0.589111 0.546686 0.463061
O O11 0.548187 0.381787 0.280279
O O12 0.943797 0.266122 0.199973
O O13 0.014469 0.562854 0.697549
O O14 0.746129 0.813767 0.978404
O O15 0.500000 0.500000 0.000000
O O16 0.918588 0.324520 0.952591
O O17 0.868869 0.452585 0.585711
#
# Coordination Sequence:
#
# PCOD8038437 Si02
#       8
#     2   2   2   2   2   2   2   2
#     4  11  20  34  54  85 113 138 175 233 275 316
#     4  10  19  36  57  78 105 142 191 225 257 322
#     4  10  18  34  53  85 104 141 188 219 265 314
#     4  10  17  36  54  80 108 146 177 221 267 327
#     4  10  21  36  58  78 108 147 187 220 258 329
#     4  10  20  31  58  82 110 141 184 221 271 323
#     4  10  22  35  55  82 112 141 180 224 279 313
#     4  11  18  34  60  80 105 144 189 225 260 319
#
# _framework density 17.864533999999999
#
# number of rings (size 3 to 8) (size 9 to 14) (size 15 to 20)
#    0.000    1.750    6.250    1.125    3.500    0.500 
#    0.000    3.750    0.000    1.500    0.000    0.000 
#    0.000    0.000    0.000    0.000    0.000    0.000 
#
# Total GULP energy -198304.456547 kJ/mol
# GULP energy per Si atom -12394.028534 kJ/mol
# Density = 1.782387 g / cm^3
# Si number density = 17.864534 Si / 1000 Ang^3
#
#
#
# Elastic Constant Matrix: (Units=GPa)
#
#
# Indices 1 2 3 4 5 6 
#
# 1 102.0734 30.5999 41.5800 -8.6545 -9.5111 19.2202
# 2 30.5999 59.0538 51.0306 1.5562 -7.3600 16.5495
# 3 41.5800 51.0306 89.5910 -8.7782 -2.6668 3.6955
# 4 -8.6545 1.5562 -8.7782 36.4685 1.5017 0.1178
# 5 -9.5111 -7.3600 -2.6668 1.5017 24.3394 -9.2760
# 6 19.2202 16.5495 3.6955 0.1178 -9.2760 23.7613
#
#
#
# Elastic Compliance Matrix: (Units=1/GPa)
#
#
# Indices 1 2 3 4 5 6 
#
# 1 0.014578 0.002150 -0.007319 0.001605 0.000954 -0.011787
# 2 0.002150 0.050227 -0.029104 -0.008590 0.001311 -0.031641
# 3 -0.007319 -0.029104 0.030924 0.006908 -0.000662 0.021089
# 4 0.001605 -0.008590 0.006908 0.029907 -0.002043 0.002665
# 5 0.000954 0.001311 -0.000662 -0.002043 0.048530 0.017374
# 6 -0.011787 -0.031641 0.021089 0.002665 0.017374 0.077147
#
#
# Mechanical properties :
#
#
# Convention : Reuss Voigt Hill
#
# Bulk Modulus (GPa) = 36.78825 55.23767 46.01296
# Shear Modulus (GPa) = 15.20138 25.41436 20.30787
#
# Velocity S-wave (km/s) = 2.92023 3.77585 3.37526
# Velocity P-wave (km/s) = 5.65755 7.07084 6.40331
#
# Compressibility (1/GPa) = 0.02718260
#
# Stress axis : x y z
#
# Youngs Moduli (GPa) = 68.59645 19.90977 32.33785
#
# Poissons Ratio (x) = -0.04282 0.23668
# Poissons Ratio (y) = -0.14751 0.94117
# Poissons Ratio (z) = 0.50205 0.57946
#
# Static dielectric constant tensor:
#      x y z
#    x 3.223680 -0.168850 0.071800 
#    y -0.168850 3.005440 -0.126590 
#    z 0.071800 -0.126590 3.282850 
# 
# 
# High freq. dielectric constant tensor:
#      x y z
#    x 1.687180 0.008070 -0.002450 
#    y 0.008070 1.670290 -0.023870 
#    z -0.002450 -0.023870 1.691670 
# 
# From -- ./inp_files/197949.got.cif
#   From: 2010.06.25/outbox.cif.g09.slc.cpg/sg2_99_cif.got.tgz:197949.got - 2010.06.27 13:26:56.
