data_PCOD8038416
_publ_section_title
;
Structure prediction by ZEFSAII (Michael W. Deem and Ramdas Pophale) SiO2 
 PCOD8038416
Probable space group: P -1
;
_chemical_formula_sum "Si O2"
_cell_formula_units_Z 16
_cell_length_a 19.582960
_cell_length_b 8.455755
_cell_length_c 11.215619
_cell_angle_alpha 94.219075
_cell_angle_beta 133.270164
_cell_angle_gamma 50.155380
_cell_volume 785.464219
_symmetry_space_group_name_H-M "P -1"
_symmetry_group_IT_number 2
_symmetry_cell_setting 'triclinic'
loop_
_space_group_symop_operation_xyz
x,y,z
-x,-y,-z
loop_
_atom_site_type_symbol
_atom_site_label
_atom_site_fract_x
_atom_site_fract_y
_atom_site_fract_z
Si Si1 0.698740 0.944275 0.968961
Si Si2 0.891873 0.337527 0.580689
Si Si3 0.328750 0.152189 0.815889
Si Si4 0.355849 0.521979 0.565476
Si Si5 0.083572 0.292648 0.983619
Si Si6 0.684806 0.294064 0.714558
Si Si7 0.530921 0.349267 0.141196
Si Si8 0.769922 0.214649 0.070106
O O1 0.724172 0.801250 0.107884
O O2 0.819463 0.724522 0.994155
O O3 0.738172 0.072800 0.048595
O O4 0.511327 0.194239 0.721400
O O5 0.814201 0.550387 0.396145
O O6 0.762411 0.392631 0.476825
O O7 0.952546 0.367739 0.760873
O O8 0.039705 0.026217 0.688682
O O9 0.345150 0.960755 0.757733
O O10 0.500000 0.000000 0.000000
O O11 0.273938 0.648723 0.344489
O O12 0.399316 0.640288 0.667419
O O13 0.000000 0.500000 0.000000
O O14 0.212608 0.006223 0.188537
O O15 0.500000 0.500000 0.500000
O O16 0.729426 0.322452 0.892039
O O17 0.500000 0.500000 0.000000
O O18 0.354100 0.519878 0.977878
#
# Coordination Sequence:
#
# PCOD8038416 Si02
#       8
#     2   2   2   2   2   2   2   2
#     4   9  18  38  61  81 121 157 200 237 296 358
#     4  10  23  39  61  88 130 151 190 259 300 339
#     4  12  22  39  64  89 119 163 199 243 300 352
#     4  11  19  38  64  88 112 161 205 241 290 353
#     4  10  23  39  59  93 124 151 197 249 304 356
#     4  10  17  35  65  81 111 160 200 236 291 354
#     4  11  20  37  63  86 114 155 209 237 280 369
#     4   9  20  37  58  90 118 152 198 247 296 343
#
# _framework density 20.370118999999999
#
# number of rings (size 3 to 8) (size 9 to 14) (size 15 to 20)
#    0.000    2.000    7.500    0.000    1.750    4.000 
#    0.000    5.625    0.000    0.000    0.000    0.000 
#    0.000    0.000    0.000    0.000    0.000    0.000 
#
# Total GULP energy -198291.929479 kJ/mol
# GULP energy per Si atom -12393.245592 kJ/mol
# Density = 2.032376 g / cm^3
# Si number density = 20.370119 Si / 1000 Ang^3
#
#
#
# Elastic Constant Matrix: (Units=GPa)
#
#
# Indices 1 2 3 4 5 6 
#
# 1 136.7527 33.4601 48.1106 -13.1475 -16.3742 -26.1861
# 2 33.4601 65.7152 30.6394 -11.7500 -3.7340 -29.4819
# 3 48.1106 30.6394 120.7660 -22.1931 -15.3552 -8.5661
# 4 -13.1475 -11.7500 -22.1931 23.6295 -2.1203 6.2846
# 5 -16.3742 -3.7340 -15.3552 -2.1203 47.8759 -2.9268
# 6 -26.1861 -29.4819 -8.5661 6.2846 -2.9268 34.1845
#
#
#
# Elastic Compliance Matrix: (Units=1/GPa)
#
#
# Indices 1 2 3 4 5 6 
#
# 1 0.010197 -0.000439 -0.002862 0.001243 0.003003 0.006744
# 2 -0.000439 0.028463 -0.004444 0.003932 0.002198 0.022563
# 3 -0.002862 -0.004444 0.012263 0.009131 0.002743 -0.004396
# 4 0.001243 0.003932 0.009131 0.054856 0.005909 -0.002948
# 5 0.003003 0.002198 0.002743 0.005909 0.023583 0.005816
# 6 0.006744 0.022563 -0.004396 -0.002948 0.005816 0.053816
#
#
# Mechanical properties :
#
#
# Convention : Reuss Voigt Hill
#
# Bulk Modulus (GPa) = 28.22284 60.85044 44.53664
# Shear Modulus (GPa) = 23.75510 35.20624 29.48067
#
# Velocity S-wave (km/s) = 3.41863 4.16183 3.80840
# Velocity P-wave (km/s) = 5.42843 7.28228 6.42260
#
# Compressibility (1/GPa) = 0.03543229
#
# Stress axis : x y z
#
# Youngs Moduli (GPa) = 98.06503 35.13329 81.54484
#
# Poissons Ratio (x) = 0.01543 0.23342
# Poissons Ratio (y) = 0.04307 0.36238
# Poissons Ratio (z) = 0.28071 0.15613
#
# Static dielectric constant tensor:
#      x y z
#    x 4.086440 -0.402370 -0.108420 
#    y -0.402370 3.770590 -0.199840 
#    z -0.108420 -0.199840 4.249790 
# 
# 
# High freq. dielectric constant tensor:
#      x y z
#    x 1.805660 -0.026060 -0.005950 
#    y -0.026060 1.761970 -0.014940 
#    z -0.005950 -0.014940 1.800300 
# 
# From -- ./inp_files/469408.got.cif
#   From: 2010.06.25/outbox.cif.g09.slc.cpg/sg2_235_cif.got.tgz:469408.got - 2010.06.27 13:26:56.
