data_PCOD8038247
_publ_section_title
;
Structure prediction by ZEFSAII (Michael W. Deem and Ramdas Pophale) SiO2 
 PCOD8038247
Probable space group: P -1
;
_chemical_formula_sum "Si O2"
_cell_formula_units_Z 16
_cell_length_a 12.000000
_cell_length_b 9.000000
_cell_length_c 15.000000
_cell_angle_alpha 110.000000
_cell_angle_beta 110.000000
_cell_angle_gamma 130.000000
_cell_volume 728.972637
_symmetry_space_group_name_H-M "P -1"
_symmetry_group_IT_number 2
_symmetry_cell_setting 'triclinic'
loop_
_space_group_symop_operation_xyz
x,y,z
-x,-y,-z
loop_
_atom_site_type_symbol
_atom_site_label
_atom_site_fract_x
_atom_site_fract_y
_atom_site_fract_z
Si Si1 0.110648 0.587828 0.223709
Si Si2 0.633579 0.189742 0.981981
Si Si3 0.619154 0.242837 0.444462
Si Si4 0.857873 0.707481 0.756989
Si Si5 0.463658 0.503699 0.241960
Si Si6 0.327500 0.595026 0.690572
Si Si7 0.847327 0.192048 0.534449
Si Si8 0.319603 0.398430 0.982021
O O1 0.044661 0.326132 0.163483
O O2 0.144542 0.729588 0.349545
O O3 0.350138 0.878446 0.293857
O O4 0.887918 0.409149 0.080567
O O5 0.484528 0.930626 0.813916
O O6 0.656191 0.401357 0.013656
O O7 0.500000 0.000000 0.000000
O O8 0.673013 0.403296 0.581481
O O9 0.679489 0.437838 0.424083
O O10 0.783984 0.277301 0.477764
O O11 0.745834 0.718179 0.789320
O O12 0.062922 0.027701 0.822782
O O13 0.565747 0.442940 0.245989
O O14 0.653689 0.838692 0.400563
O O15 0.377046 0.466555 0.115849
O O16 0.078146 0.357594 0.611229
O O17 0.500000 0.500000 0.000000
#
# Coordination Sequence:
#
# PCOD8038247 Si02
#       8
#     2   2   2   2   2   2   2   2
#     4  11  22  45  76  97 142 184 234 285 347 415
#     4  12  26  48  71 102 140 179 235 290 347 417
#     4  11  24  44  72 107 135 188 234 287 349 409
#     4  11  24  47  70 102 146 186 229 287 349 417
#     4  12  25  47  68 104 147 183 232 285 353 414
#     4  12  27  41  71 104 143 183 237 288 343 414
#     4  11  22  45  72 100 137 185 232 294 345 410
#     4  12  29  45  73 103 138 187 235 288 354 413
#
# _framework density 21.948698
#
# number of rings (size 3 to 8) (size 9 to 14) (size 15 to 20)
#    0.000    0.500    3.750    4.875    5.250    2.000 
#    0.000    0.000    0.000    0.000    0.000    0.000 
#    0.000    0.000    0.000    0.000    0.000    0.000 
#
# Total GULP energy -198293.927408 kJ/mol
# GULP energy per Si atom -12393.370463 kJ/mol
# Density = 2.189874 g / cm^3
# Si number density = 21.948698 Si / 1000 Ang^3
#
#
#
# Elastic Constant Matrix: (Units=GPa)
#
#
# Indices 1 2 3 4 5 6 
#
# 1 149.2208 45.7725 36.2003 6.0359 10.9807 -0.7662
# 2 45.7725 112.5616 18.8237 11.0760 7.8629 -5.0704
# 3 36.2003 18.8237 81.3246 25.6075 9.2359 -8.1115
# 4 6.0359 11.0760 25.6075 36.3964 -5.8587 -2.3783
# 5 10.9807 7.8629 9.2359 -5.8587 39.2791 7.5714
# 6 -0.7662 -5.0704 -8.1115 -2.3783 7.5714 52.4639
#
#
#
# Elastic Compliance Matrix: (Units=1/GPa)
#
#
# Indices 1 2 3 4 5 6 
#
# 1 0.008479 -0.003017 -0.003711 0.002007 -0.000482 -0.000581
# 2 -0.003017 0.010574 0.000224 -0.003124 -0.002016 0.001162
# 3 -0.003711 0.000224 0.019269 -0.013800 -0.006217 0.003218
# 4 0.002007 -0.003124 -0.013800 0.039208 0.009544 -0.002006
# 5 -0.000482 -0.002016 -0.006217 0.009544 0.029854 -0.005039
# 6 -0.000581 0.001162 0.003218 -0.002006 -0.005039 0.020298
#
#
# Mechanical properties :
#
#
# Convention : Reuss Voigt Hill
#
# Bulk Modulus (GPa) = 39.50554 60.52222 50.01388
# Shear Modulus (GPa) = 33.52841 41.78191 37.65516
#
# Velocity S-wave (km/s) = 3.91267 4.36778 4.14647
# Velocity P-wave (km/s) = 6.20081 7.28498 6.76465
#
# Compressibility (1/GPa) = 0.02531290
#
# Stress axis : x y z
#
# Youngs Moduli (GPa) = 117.94460 94.57159 51.89701
#
# Poissons Ratio (x) = 0.28534 0.19259
# Poissons Ratio (y) = 0.35586 -0.01162
# Poissons Ratio (z) = 0.43769 -0.02117
#
# Static dielectric constant tensor:
#      x y z
#    x 4.350940 -0.022560 0.045680 
#    y -0.022560 3.948820 0.070970 
#    z 0.045680 0.070970 3.885260 
# 
# 
# High freq. dielectric constant tensor:
#      x y z
#    x 1.892460 0.000970 0.000790 
#    y 0.000970 1.861180 0.012480 
#    z 0.000790 0.012480 1.870630 
# 
# From -- ./inp_files/209260.got.cif
#   From: 2010.06.25/outbox.ucp.g09.slc.cvg/sg2_105_cif.got.tgz:209260.got - 2010.06.28 11:54:26.
