data_PCOD8038838
_publ_section_title
;
Structure prediction by ZEFSAII (Michael W. Deem and Ramdas Pophale) SiO2 
 PCOD8038838
Probable space group: P -1
;
_chemical_formula_sum "Si O2"
_cell_formula_units_Z 16
_cell_length_a 10.880127
_cell_length_b 14.531961
_cell_length_c 11.587329
_cell_angle_alpha 91.603831
_cell_angle_beta 25.455617
_cell_angle_gamma 97.518364
_cell_volume 763.002620
_symmetry_space_group_name_H-M "P -1"
_symmetry_group_IT_number 2
_symmetry_cell_setting 'triclinic'
loop_
_space_group_symop_operation_xyz
x,y,z
-x,-y,-z
loop_
_atom_site_type_symbol
_atom_site_label
_atom_site_fract_x
_atom_site_fract_y
_atom_site_fract_z
Si Si1 0.289278 0.861533 0.612137
Si Si2 0.628464 0.769544 0.148234
Si Si3 0.565601 0.937040 0.608239
Si Si4 0.167560 0.598072 0.482322
Si Si5 0.608876 0.860658 0.928643
Si Si6 0.187869 0.300529 0.352806
Si Si7 0.187947 0.595191 0.209203
Si Si8 0.172428 0.934987 0.161369
O O1 0.546684 0.831883 0.322624
O O2 0.370634 0.866415 0.678362
O O3 0.265078 0.964231 0.591779
O O4 0.980237 0.784564 0.852567
O O5 0.454582 0.659280 0.309629
O O6 0.516185 0.800198 0.121334
O O7 0.825118 0.890040 0.432452
O O8 0.355242 0.955173 0.888610
O O9 0.930700 0.662484 0.665150
O O10 0.014999 0.501482 0.678956
O O11 0.270233 0.567135 0.268740
O O12 0.798826 0.808575 0.682204
O O13 0.806990 0.965493 0.787061
O O14 0.300788 0.864325 0.129943
O O15 0.983097 0.319220 0.633179
O O16 0.514246 0.363801 0.111447
#
# Coordination Sequence:
#
# PCOD8038838 Si02
#       8
#     2   2   2   2   2   2   2   2
#     4  11  23  36  58  74 102 138 191 221 270 309
#     4  12  21  34  54  82 110 140 172 219 269 325
#     4  11  22  42  54  74  98 146 187 234 260 302
#     4   9  20  29  50  74 110 143 167 206 262 321
#     4  11  22  36  51  85 109 147 174 217 267 322
#     4  10  18  31  48  69 109 145 172 200 246 327
#     4   9  19  29  48  72 107 151 166 198 254 331
#     4  11  25  36  57  73 113 141 187 222 261 310
#
# _framework density 20.969785000000002
#
# number of rings (size 3 to 8) (size 9 to 14) (size 15 to 20)
#    0.750    0.750    3.750    1.875    0.000    8.000 
#    0.000    0.000    0.000    0.000    0.000    0.000 
#    0.000   20.000    0.000    0.000    0.000    0.000 
#
# Total GULP energy -198335.055088 kJ/mol
# GULP energy per Si atom -12395.940943 kJ/mol
# Density = 2.092206 g / cm^3
# Si number density = 20.969785 Si / 1000 Ang^3
#
#
#
# Elastic Constant Matrix: (Units=GPa)
#
#
# Indices 1 2 3 4 5 6 
#
# 1 72.1085 29.2821 14.2797 -2.2642 -14.3068 11.1957
# 2 29.2821 80.3257 14.1563 -0.2240 -13.2171 13.4193
# 3 14.2797 14.1563 85.7037 -2.9075 -20.3822 4.0542
# 4 -2.2642 -0.2240 -2.9075 28.2828 2.5687 -10.9877
# 5 -14.3068 -13.2171 -20.3822 2.5687 22.3337 -2.7600
# 6 11.1957 13.4193 4.0542 -10.9877 -2.7600 17.9724
#
#
#
# Elastic Compliance Matrix: (Units=1/GPa)
#
#
# Indices 1 2 3 4 5 6 
#
# 1 0.018469 -0.003771 -0.000035 -0.002887 0.008775 -0.009099
# 2 -0.003771 0.017080 -0.000218 -0.005792 0.006567 -0.012887
# 3 -0.000035 -0.000218 0.014937 -0.000160 0.013346 -0.001233
# 4 -0.002887 -0.005792 -0.000160 0.049399 -0.006740 0.035325
# 5 0.008775 0.006567 0.013346 -0.006740 0.066335 -0.007314
# 6 -0.009099 -0.012887 -0.001233 0.035325 -0.007314 0.091683
#
#
# Mechanical properties :
#
#
# Convention : Reuss Voigt Hill
#
# Bulk Modulus (GPa) = 23.56344 39.28601 31.42473
# Shear Modulus (GPa) = 17.85101 25.74578 21.79839
#
# Velocity S-wave (km/s) = 2.92082 3.50774 3.22765
# Velocity P-wave (km/s) = 4.75775 5.93135 5.37667
#
# Compressibility (1/GPa) = 0.04243862
#
# Stress axis : x y z
#
# Youngs Moduli (GPa) = 54.14378 58.54924 66.94821
#
# Poissons Ratio (x) = 0.22077 0.00234
# Poissons Ratio (y) = 0.20416 0.01459
# Poissons Ratio (z) = 0.00189 0.01276
#
# Static dielectric constant tensor:
#      x y z
#    x 3.451710 0.159980 -0.150530 
#    y 0.159980 3.722520 0.068300 
#    z -0.150530 0.068300 3.671330 
# 
# 
# High freq. dielectric constant tensor:
#      x y z
#    x 1.757710 0.022120 -0.020010 
#    y 0.022120 1.813170 0.002740 
#    z -0.020010 0.002740 1.834420 
# 
# From -- ./inp_files/434111.got.cif
#   From: 2010.06.25/outbox.cif.g09.slc.cpg/sg2_218_cif.got.tgz:434111.got - 2010.06.27 13:26:56.
