data_PCOD8038127
_publ_section_title
;
Structure prediction by ZEFSAII (Michael W. Deem and Ramdas Pophale) SiO2 
 PCOD8038127
Probable space group: P -1
;
_chemical_formula_sum "Si O2"
_cell_formula_units_Z 16
_cell_length_a 15.000000
_cell_length_b 9.000000
_cell_length_c 27.000000
_cell_angle_alpha 140.000000
_cell_angle_beta 160.000000
_cell_angle_gamma 50.000000
_cell_volume 750.501489
_symmetry_space_group_name_H-M "P -1"
_symmetry_group_IT_number 2
_symmetry_cell_setting 'triclinic'
loop_
_space_group_symop_operation_xyz
x,y,z
-x,-y,-z
loop_
_atom_site_type_symbol
_atom_site_label
_atom_site_fract_x
_atom_site_fract_y
_atom_site_fract_z
Si Si1 0.951123 0.117399 0.774445
Si Si2 0.709416 0.359245 0.338003
Si Si3 0.485479 0.648510 0.607613
Si Si4 0.651538 0.569228 0.011487
Si Si5 0.509682 0.698445 0.387729
Si Si6 0.325129 0.908729 0.972509
Si Si7 0.060727 0.410916 0.238729
Si Si8 0.301483 0.996914 0.668636
O O1 0.782065 0.247766 0.754560
O O2 0.751649 0.966913 0.587289
O O3 0.055033 0.914847 0.803416
O O4 0.232037 0.325260 0.954439
O O5 0.562907 0.550926 0.330128
O O6 0.000000 0.500000 0.500000
O O7 0.741684 0.183479 0.353371
O O8 0.533422 0.188661 0.158388
O O9 0.485484 0.452172 0.598794
O O10 0.240146 0.537945 0.412159
O O11 0.777155 0.704231 0.744833
O O12 0.446918 0.891894 0.673582
O O13 0.467197 0.724378 0.975889
O O14 0.482156 0.279466 0.845994
O O15 0.934384 0.608248 0.200426
O O16 0.211021 0.814974 0.943523
O O17 0.000000 0.000000 0.500000
#
# Coordination Sequence:
#
# PCOD8038127 Si02
#       8
#     2   2   2   2   2   2   2   2
#     4  11  24  43  68  93 128 175 215 263 324 379
#     4  11  26  45  65  95 131 170 213 270 322 379
#     4  10  22  42  70  95 130 168 213 267 321 384
#     4  12  25  42  67  97 130 172 219 262 320 387
#     4  10  22  45  67  95 131 169 216 262 322 386
#     4  12  25  42  65  97 132 170 217 270 313 382
#     4  11  22  42  66  98 128 166 216 264 320 377
#     4  11  26  43  66  95 132 170 212 267 325 381
#
# _framework density 21.319078000000001
#
# number of rings (size 3 to 8) (size 9 to 14) (size 15 to 20)
#    0.000    1.000    3.750    2.250    5.250    2.000 
#    2.250    0.000    0.000    0.000    0.000    0.000 
#    0.000    0.000    0.000    0.000    0.000    0.000 
#
# Total GULP energy -198292.839678 kJ/mol
# GULP energy per Si atom -12393.302480 kJ/mol
# Density = 2.127056 g / cm^3
# Si number density = 21.319078 Si / 1000 Ang^3
#
#
#
# Elastic Constant Matrix: (Units=GPa)
#
#
# Indices 1 2 3 4 5 6 
#
# 1 137.0921 73.0338 53.4213 3.1978 22.9917 -40.0820
# 2 73.0338 174.1910 55.0201 -15.9021 9.1648 -48.6673
# 3 53.4213 55.0201 94.3493 3.8848 13.6707 -23.8906
# 4 3.1978 -15.9021 3.8848 50.5312 -2.6731 2.3806
# 5 22.9917 9.1648 13.6707 -2.6731 37.5116 -1.8627
# 6 -40.0820 -48.6673 -23.8906 2.3806 -1.8627 51.2504
#
#
#
# Elastic Compliance Matrix: (Units=1/GPa)
#
#
# Indices 1 2 3 4 5 6 
#
# 1 0.012632 -0.002487 -0.003304 -0.001910 -0.005776 0.005856
# 2 -0.002487 0.009538 -0.002979 0.003165 0.000783 0.005605
# 3 -0.003304 -0.002979 0.015116 -0.002117 -0.002826 0.001630
# 4 -0.001910 0.003165 -0.002117 0.021227 0.002663 -0.000364
# 5 -0.005776 0.000783 -0.002826 0.002663 0.031024 -0.004087
# 6 0.005856 0.005605 0.001630 -0.000364 -0.004087 0.030043
#
#
# Mechanical properties :
#
#
# Convention : Reuss Voigt Hill
#
# Bulk Modulus (GPa) = 50.63873 85.39809 68.01841
# Shear Modulus (GPa) = 34.79425 42.80246 38.79835
#
# Velocity S-wave (km/s) = 4.04427 4.48561 4.27064
# Velocity P-wave (km/s) = 6.75370 8.18362 7.50280
#
# Compressibility (1/GPa) = 0.01974773
#
# Stress axis : x y z
#
# Youngs Moduli (GPa) = 79.16291 104.84121 66.15637
#
# Poissons Ratio (x) = 0.26075 0.21855
# Poissons Ratio (y) = 0.19688 0.19705
# Poissons Ratio (z) = 0.26152 0.31227
#
# Static dielectric constant tensor:
#      x y z
#    x 3.965830 -0.190840 0.132850 
#    y -0.190840 4.249090 -0.135890 
#    z 0.132850 -0.135890 3.889510 
# 
# 
# High freq. dielectric constant tensor:
#      x y z
#    x 1.840550 -0.012590 0.015770 
#    y -0.012590 1.865860 -0.008720 
#    z 0.015770 -0.008720 1.838990 
# 
# From -- ./inp_files/175304.got.cif
#   From: 2010.06.25/outbox.ucp.g09.slc.cvg/sg2_88_cif.got.tgz:175304.got - 2010.06.28 11:54:26.
