data_PCOD8038125
_publ_section_title
;
Structure prediction by ZEFSAII (Michael W. Deem and Ramdas Pophale) SiO2 
 PCOD8038125
Probable space group: P -1
;
_chemical_formula_sum "Si O2"
_cell_formula_units_Z 16
_cell_length_a 15.000000
_cell_length_b 9.000000
_cell_length_c 27.000000
_cell_angle_alpha 140.000000
_cell_angle_beta 20.000000
_cell_angle_gamma 130.000000
_cell_volume 750.501489
_symmetry_space_group_name_H-M "P -1"
_symmetry_group_IT_number 2
_symmetry_cell_setting 'triclinic'
loop_
_space_group_symop_operation_xyz
x,y,z
-x,-y,-z
loop_
_atom_site_type_symbol
_atom_site_label
_atom_site_fract_x
_atom_site_fract_y
_atom_site_fract_z
Si Si1 0.184226 0.369107 0.608348
Si Si2 0.002038 0.032270 0.686502
Si Si3 0.070853 0.713553 0.376289
Si Si4 0.286965 0.272276 0.284881
Si Si5 0.032785 0.676687 0.934232
Si Si6 0.356644 0.488955 0.396577
Si Si7 0.825842 0.195042 0.210880
Si Si8 0.369827 0.602221 0.947940
O O1 0.491019 0.286378 0.402968
O O2 0.100606 0.654626 0.743507
O O3 0.172964 0.193579 0.615381
O O4 0.962645 0.334202 0.676450
O O5 0.787970 0.976346 0.745066
O O6 0.829052 0.170592 0.859083
O O7 0.218512 0.770543 0.523646
O O8 0.394316 0.586222 0.188869
O O9 0.865484 0.590019 0.476599
O O10 0.000000 0.000000 0.500000
O O11 0.458505 0.282554 0.247078
O O12 0.467233 0.294286 0.149952
O O13 0.000000 0.500000 0.500000
O O14 0.360446 0.517020 0.726412
O O15 0.004262 0.767628 0.915808
O O16 0.824692 0.524888 0.010868
O O17 0.935322 0.897070 0.082485
#
# Coordination Sequence:
#
# PCOD8038125 Si02
#       8
#     2   2   2   2   2   2   2   2
#     4  11  23  44  71 102 134 184 224 277 346 402
#     4  11  24  44  69  99 141 173 224 285 339 401
#     4  12  25  41  74 101 135 180 229 274 340 405
#     4  10  22  42  67  95 133 176 221 271 340 400
#     4  11  24  45  68  99 138 179 230 281 336 400
#     4  11  25  45  69  98 135 186 224 275 339 409
#     4  10  23  44  69  96 142 179 225 286 334 402
#     4  12  25  44  70 101 137 178 222 288 339 393
#
# _framework density 21.319078000000001
#
# number of rings (size 3 to 8) (size 9 to 14) (size 15 to 20)
#    0.000    1.000    5.000    1.875    7.000    2.500 
#    0.000    0.000    0.000    0.000    0.000    0.000 
#    0.000    0.000    0.000    0.000    0.000    0.000 
#
# Total GULP energy -198280.499856 kJ/mol
# GULP energy per Si atom -12392.531241 kJ/mol
# Density = 2.127056 g / cm^3
# Si number density = 21.319078 Si / 1000 Ang^3
#
#
#
# Elastic Constant Matrix: (Units=GPa)
#
#
# Indices 1 2 3 4 5 6 
#
# 1 83.6497 28.9150 33.2408 8.6214 2.6776 28.4814
# 2 28.9150 121.9004 40.0847 -2.9799 4.5105 29.2479
# 3 33.2408 40.0847 101.9265 -0.0546 8.8461 17.8906
# 4 8.6214 -2.9799 -0.0546 43.6759 8.2926 8.6304
# 5 2.6776 4.5105 8.8461 8.2926 43.9956 -5.0593
# 6 28.4814 29.2479 17.8906 8.6304 -5.0593 42.5031
#
#
#
# Elastic Compliance Matrix: (Units=1/GPa)
#
#
# Indices 1 2 3 4 5 6 
#
# 1 0.016906 -0.000612 -0.003555 -0.001351 -0.001062 -0.009263
# 2 -0.000612 0.011006 -0.002795 0.002532 -0.001778 -0.006713
# 3 -0.003555 -0.002795 0.012551 0.001293 -0.002440 -0.001530
# 4 -0.001351 0.002532 0.001293 0.025971 -0.006182 -0.007391
# 5 -0.001062 -0.001778 -0.002440 -0.006182 0.025466 0.007249
# 6 -0.009263 -0.006713 -0.001530 -0.007391 0.007249 0.037362
#
#
# Mechanical properties :
#
#
# Convention : Reuss Voigt Hill
#
# Bulk Modulus (GPa) = 37.68181 56.88419 47.28300
# Shear Modulus (GPa) = 32.88761 39.71734 36.30248
#
# Velocity S-wave (km/s) = 3.93190 4.32093 4.13100
# Velocity P-wave (km/s) = 6.19085 7.18569 6.70674
#
# Compressibility (1/GPa) = 0.02653800
#
# Stress axis : x y z
#
# Youngs Moduli (GPa) = 59.14944 90.85979 79.67731
#
# Poissons Ratio (x) = 0.05564 0.28329
# Poissons Ratio (y) = 0.03622 0.22267
# Poissons Ratio (z) = 0.21030 0.25392
#
# Static dielectric constant tensor:
#      x y z
#    x 4.188640 0.393400 0.160480 
#    y 0.393400 4.113390 -0.024560 
#    z 0.160480 -0.024560 3.925910 
# 
# 
# High freq. dielectric constant tensor:
#      x y z
#    x 1.830460 0.025890 0.015210 
#    y 0.025890 1.855160 -0.012560 
#    z 0.015210 -0.012560 1.846450 
# 
# From -- ./inp_files/619282.got.cif
#   From: 2010.06.25/outbox.ucp.g09.slc.cvg/sg2_310_cif.got.tgz:619282.got - 2010.06.28 11:54:26.
