data_PCOD8038747
_publ_section_title
;
Structure prediction by ZEFSAII (Michael W. Deem and Ramdas Pophale) SiO2 
 PCOD8038747
Probable space group: P -1
;
_chemical_formula_sum "Si O2"
_cell_formula_units_Z 16
_cell_length_a 21.115521
_cell_length_b 15.119029
_cell_length_c 13.305912
_cell_angle_alpha 153.764958
_cell_angle_beta 29.718794
_cell_angle_gamma 151.690453
_cell_volume 825.272178
_symmetry_space_group_name_H-M "P -1"
_symmetry_group_IT_number 2
_symmetry_cell_setting 'triclinic'
loop_
_space_group_symop_operation_xyz
x,y,z
-x,-y,-z
loop_
_atom_site_type_symbol
_atom_site_label
_atom_site_fract_x
_atom_site_fract_y
_atom_site_fract_z
Si Si1 0.227699 0.082135 0.256184
Si Si2 0.965885 0.919737 0.302325
Si Si3 0.614546 0.163796 0.144238
Si Si4 0.808126 0.776310 0.059619
Si Si5 0.993797 0.184025 0.338022
Si Si6 0.091128 0.452162 0.156988
Si Si7 0.384559 0.676903 0.902018
Si Si8 0.507515 0.537696 0.317710
O O1 0.171187 0.139098 0.496182
O O2 0.371591 0.297044 0.235879
O O3 0.111245 0.020335 0.267515
O O4 0.254362 0.861500 0.010107
O O5 0.977285 0.106543 0.397019
O O6 0.947873 0.697993 0.043283
O O7 0.661314 0.346661 0.175583
O O8 0.535744 0.260199 0.426058
O O9 0.515808 0.917477 0.987107
O O10 0.637474 0.606566 0.128118
O O11 0.851603 0.017145 0.299103
O O12 0.909418 0.688352 0.888095
O O13 0.860920 0.806143 0.901621
O O14 0.014700 0.438694 0.568851
O O15 0.250911 0.657839 0.131947
O O16 0.427148 0.481901 0.682435
#
# Coordination Sequence:
#
# PCOD8038747 Si02
#       8
#     2   2   2   2   2   2   2   2
#     4  10  22  37  51  74 105 137 177 215 250 299
#     4  10  22  37  52  74 104 137 176 217 251 297
#     4  10  18  30  50  73 102 136 167 204 259 313
#     4   9  20  34  54  83 108 130 166 214 260 307
#     4  10  19  35  56  79 106 136 169 210 259 307
#     4  10  18  32  55  78 103 135 169 208 259 309
#     4   9  18  28  46  78 104 127 163 209 257 312
#     4  10  19  33  52  74 104 135 166 210 259 305
#
# _framework density 19.387543000000001
#
# number of rings (size 3 to 8) (size 9 to 14) (size 15 to 20)
#    0.000    2.250    0.000    3.000    0.000    8.000 
#    0.000    3.750    0.000    1.500    0.000    0.000 
#    0.000    0.000    0.000    0.000    0.000    0.000 
#
# Total GULP energy -198274.156953 kJ/mol
# GULP energy per Si atom -12392.134810 kJ/mol
# Density = 1.934342 g / cm^3
# Si number density = 19.387543 Si / 1000 Ang^3
#
#
#
# Elastic Constant Matrix: (Units=GPa)
#
#
# Indices 1 2 3 4 5 6 
#
# 1 46.9721 17.6280 34.0004 -0.6166 -2.0505 5.9501
# 2 17.6280 83.6742 32.1770 -16.4188 -3.3536 1.4012
# 3 34.0004 32.1770 105.7413 9.9695 -14.9106 -2.5432
# 4 -0.6166 -16.4188 9.9695 32.3718 -7.7720 -7.3002
# 5 -2.0505 -3.3536 -14.9106 -7.7720 24.1206 -4.4042
# 6 5.9501 1.4012 -2.5432 -7.3002 -4.4042 14.9884
#
#
#
# Elastic Compliance Matrix: (Units=1/GPa)
#
#
# Indices 1 2 3 4 5 6 
#
# 1 0.032329 -0.003668 -0.010626 -0.004547 -0.009309 -0.019244
# 2 -0.003668 0.016895 -0.004333 0.012392 0.004540 0.006511
# 3 -0.010626 -0.004333 0.015945 -0.003331 0.008792 0.008290
# 4 -0.004547 0.012392 -0.003331 0.050067 0.021004 0.030639
# 5 -0.009309 0.004540 0.008792 0.021004 0.059427 0.032455
# 6 -0.019244 0.006511 0.008290 0.030639 0.032455 0.099614
#
#
# Mechanical properties :
#
#
# Convention : Reuss Voigt Hill
#
# Bulk Modulus (GPa) = 35.82261 44.88872 40.35567
# Shear Modulus (GPa) = 15.58430 24.46832 20.02631
#
# Velocity S-wave (km/s) = 2.83827 3.55641 3.21744
# Velocity P-wave (km/s) = 5.40909 6.32991 5.88753
#
# Compressibility (1/GPa) = 0.02791533
#
# Stress axis : x y z
#
# Youngs Moduli (GPa) = 30.93228 59.19033 62.71378
#
# Poissons Ratio (x) = 0.21709 0.66639
# Poissons Ratio (y) = 0.11345 0.27176
# Poissons Ratio (z) = 0.32868 0.25649
#
# Static dielectric constant tensor:
#      x y z
#    x 3.415910 -0.206930 -0.219940 
#    y -0.206930 3.554770 -0.035700 
#    z -0.219940 -0.035700 3.474960 
# 
# 
# High freq. dielectric constant tensor:
#      x y z
#    x 1.721920 -0.015240 -0.015040 
#    y -0.015240 1.759080 -0.002450 
#    z -0.015040 -0.002450 1.749670 
# 
# From -- ./inp_files/71350.got.cif
#   From: 2010.06.25/outbox.cif.g09.slc.cpg/sg2_36_cif.got.tgz:71350.got - 2010.06.27 13:26:56.
