data_PCOD8038205
_publ_section_title
;
Structure prediction by ZEFSAII (Michael W. Deem and Ramdas Pophale) SiO2 
 PCOD8038205
Probable space group: P -1
;
_chemical_formula_sum "Si O2"
_cell_formula_units_Z 16
_cell_length_a 9.000000
_cell_length_b 12.000000
_cell_length_c 18.000000
_cell_angle_alpha 50.000000
_cell_angle_beta 140.000000
_cell_angle_gamma 100.000000
_cell_volume 729.599496
_symmetry_space_group_name_H-M "P -1"
_symmetry_group_IT_number 2
_symmetry_cell_setting 'triclinic'
loop_
_space_group_symop_operation_xyz
x,y,z
-x,-y,-z
loop_
_atom_site_type_symbol
_atom_site_label
_atom_site_fract_x
_atom_site_fract_y
_atom_site_fract_z
Si Si1 0.187214 0.049167 0.005698
Si Si2 0.872749 0.592030 0.195920
Si Si3 0.360693 0.641496 0.057473
Si Si4 0.316765 0.922826 0.621275
Si Si5 0.932077 0.052752 0.767144
Si Si6 0.549511 0.304052 0.373147
Si Si7 0.859400 0.516860 0.062961
Si Si8 0.594925 0.813161 0.388895
O O1 0.512102 0.909867 0.233102
O O2 0.071795 0.264756 0.872419
O O3 0.206141 0.014463 0.937866
O O4 0.000000 0.000000 0.000000
O O5 0.570483 0.688046 0.087731
O O6 0.853963 0.497056 0.157190
O O7 0.149519 0.414452 0.426396
O O8 0.542839 0.467926 0.262268
O O9 0.250664 0.586774 0.971498
O O10 0.053779 0.842640 0.883677
O O11 0.332829 0.867997 0.564702
O O12 0.309434 0.098775 0.554718
O O13 0.620134 0.740534 0.855319
O O14 0.000000 0.000000 0.500000
O O15 0.787618 0.200412 0.578391
O O16 0.681539 0.154119 0.691527
O O17 0.201159 0.415761 0.212520
#
# Coordination Sequence:
#
# PCOD8038205 Si02
#       8
#     2   2   2   2   2   2   2   2
#     4  10  26  47  71  97 135 179 234 288 328 399
#     4  12  25  43  70 104 133 178 229 280 345 401
#     4  11  26  41  66 103 145 174 214 288 345 400
#     4  11  23  39  68 101 143 181 214 276 347 405
#     4  11  25  43  70  94 132 185 235 270 339 399
#     4  11  24  43  66 102 141 182 225 274 335 408
#     4  11  22  44  68 100 145 176 225 275 338 411
#     4  11  22  43  70 101 132 177 231 277 335 403
#
# _framework density 21.929839999999999
#
# number of rings (size 3 to 8) (size 9 to 14) (size 15 to 20)
#    0.000    1.000    2.500    4.875    5.250    5.500 
#    0.000    1.250    0.000    0.000    0.000    0.000 
#    0.000    0.000    0.000    0.000    0.000    0.000 
#
# Total GULP energy -198218.586858 kJ/mol
# GULP energy per Si atom -12388.661679 kJ/mol
# Density = 2.187993 g / cm^3
# Si number density = 21.929840 Si / 1000 Ang^3
#
#
#
# Elastic Constant Matrix: (Units=GPa)
#
#
# Indices 1 2 3 4 5 6 
#
# 1 97.8121 30.0651 49.3105 8.0978 -9.3847 0.9027
# 2 30.0651 96.2007 60.9099 -2.9596 -21.3261 4.6742
# 3 49.3105 60.9099 162.0710 -6.8414 -34.7641 -10.3518
# 4 8.0978 -2.9596 -6.8414 35.5541 -7.1376 -15.4532
# 5 -9.3847 -21.3261 -34.7641 -7.1376 44.7941 -0.2986
# 6 0.9027 4.6742 -10.3518 -15.4532 -0.2986 35.6116
#
#
#
# Elastic Compliance Matrix: (Units=1/GPa)
#
#
# Indices 1 2 3 4 5 6 
#
# 1 0.013375 -0.001945 -0.004436 -0.006400 -0.002614 -0.004172
# 2 -0.001945 0.014661 -0.004444 0.000085 0.003116 -0.003104
# 3 -0.004436 -0.004444 0.011502 0.007475 0.007121 0.007342
# 4 -0.006400 0.000085 0.007475 0.042355 0.011388 0.020799
# 5 -0.002614 0.003116 0.007121 0.011388 0.030648 0.006926
# 6 -0.004172 -0.003104 0.007342 0.020799 0.006926 0.039812
#
#
# Mechanical properties :
#
#
# Convention : Reuss Voigt Hill
#
# Bulk Modulus (GPa) = 55.90475 70.73944 63.32210
# Shear Modulus (GPa) = 27.78285 37.57849 32.68067
#
# Velocity S-wave (km/s) = 3.56321 4.14403 3.86455
# Velocity P-wave (km/s) = 6.51740 7.43132 6.98931
#
# Compressibility (1/GPa) = 0.01788757
#
# Stress axis : x y z
#
# Youngs Moduli (GPa) = 74.76400 68.20778 86.94093
#
# Poissons Ratio (x) = 0.13268 0.38565
# Poissons Ratio (y) = 0.14544 0.38640
# Poissons Ratio (z) = 0.33164 0.30314
#
# Static dielectric constant tensor:
#      x y z
#    x 3.947300 -0.153520 -0.200340 
#    y -0.153520 4.365460 0.297060 
#    z -0.200340 0.297060 4.546370 
# 
# 
# High freq. dielectric constant tensor:
#      x y z
#    x 1.857720 -0.005400 -0.013550 
#    y -0.005400 1.866250 -0.000100 
#    z -0.013550 -0.000100 1.892770 
# 
# From -- ./inp_files/559815.got.cif
#   From: 2010.06.25/outbox.ucp.g09.slc.cvg/sg2_280_cif.got.tgz:559815.got - 2010.06.28 11:54:26.
