data_PCOD8038963
_publ_section_title
;
Structure prediction by ZEFSAII (Michael W. Deem and Ramdas Pophale) SiO2 
 PCOD8038963
Probable space group: P -1
;
_chemical_formula_sum "Si O2"
_cell_formula_units_Z 12
_cell_length_a 8.980627
_cell_length_b 20.207401
_cell_length_c 20.749334
_cell_angle_alpha 158.998711
_cell_angle_beta 40.041954
_cell_angle_gamma 150.430623
_cell_volume 642.614369
_symmetry_space_group_name_H-M "P -1"
_symmetry_group_IT_number 2
_symmetry_cell_setting 'triclinic'
loop_
_space_group_symop_operation_xyz
x,y,z
-x,-y,-z
loop_
_atom_site_type_symbol
_atom_site_label
_atom_site_fract_x
_atom_site_fract_y
_atom_site_fract_z
Si Si1 0.710463 0.024141 0.322954
Si Si2 0.801416 0.955698 0.465234
Si Si3 0.553832 0.542346 0.944911
Si Si4 0.804316 0.286167 0.153877
Si Si5 0.718038 0.516414 0.494701
Si Si6 0.148548 0.309468 0.557755
O O1 0.969672 0.192182 0.332771
O O2 0.892799 0.104407 0.403801
O O3 0.495862 0.089188 0.453920
O O4 0.508993 0.732252 0.111629
O O5 0.009725 0.202340 0.576550
O O6 0.698817 0.718807 0.244796
O O7 0.000000 0.000000 0.500000
O O8 0.903623 0.679345 0.932497
O O9 0.500000 0.500000 0.000000
O O10 0.842511 0.391717 0.309230
O O11 0.774348 0.432528 0.243457
O O12 0.500000 0.000000 0.000000
O O13 0.500000 0.500000 0.500000
O O14 0.481728 0.373068 0.503226
#
# Coordination Sequence:
#
# PCOD8038963 Si02
#       6
#     2   2   2   2   2   2
#     4  10  19  38  60  84 113 150 202 244 285 342
#     4  12  25  40  56  86 127 159 189 240 295 343
#     4  12  21  34  64  87 112 156 200 237 289 346
#     4  10  18  31  58  96 114 139 195 253 290 331
#     4   8  16  31  55  83 114 141 187 251 283 325
#     4  10  18  36  59  87 118 150 194 243 285 347
#
# _framework density 18.673718999999998
#
# number of rings (size 3 to 8) (size 9 to 14) (size 15 to 20)
#    0.000    2.000    5.000    4.500    0.000    0.667 
#    0.000    0.833    0.000    2.000    0.000    0.000 
#    0.000    0.000    0.000    0.000    0.000    0.000 
#
# Total GULP energy -148670.937495 kJ/mol
# GULP energy per Si atom -12389.244791 kJ/mol
# Density = 1.863122 g / cm^3
# Si number density = 18.673719 Si / 1000 Ang^3
#
#
#
# Elastic Constant Matrix: (Units=GPa)
#
#
# Indices 1 2 3 4 5 6 
#
# 1 66.0949 37.2596 34.4269 5.2120 3.5623 0.1754
# 2 37.2596 116.4599 26.5535 8.5831 1.5716 7.5034
# 3 34.4269 26.5535 122.1010 17.9906 -9.8349 1.1494
# 4 5.2120 8.5831 17.9906 36.3647 -1.3447 -11.4862
# 5 3.5623 1.5716 -9.8349 -1.3447 18.2004 0.7451
# 6 0.1754 7.5034 1.1494 -11.4862 0.7451 11.2840
#
#
#
# Elastic Compliance Matrix: (Units=1/GPa)
#
#
# Indices 1 2 3 4 5 6 
#
# 1 0.021932 -0.006419 -0.006022 0.003938 -0.007071 0.009016
# 2 -0.006419 0.012002 0.000380 -0.006771 0.000533 -0.014847
# 3 -0.006022 0.000380 0.011630 -0.007793 0.007254 -0.009756
# 4 0.003938 -0.006771 -0.007793 0.050103 -0.003006 0.056434
# 5 -0.007071 0.000533 0.007254 -0.003006 0.060308 -0.008025
# 6 0.009016 -0.014847 -0.009756 0.056434 -0.008025 0.157323
#
#
# Mechanical properties :
#
#
# Convention : Reuss Voigt Hill
#
# Bulk Modulus (GPa) = 46.64015 55.68175 51.16095
# Shear Modulus (GPa) = 14.51093 26.93087 20.72090
#
# Velocity S-wave (km/s) = 2.79064 3.80173 3.33472
# Velocity P-wave (km/s) = 5.95098 7.01098 6.50261
#
# Compressibility (1/GPa) = 0.02144075
#
# Stress axis : x y z
#
# Youngs Moduli (GPa) = 45.59520 83.31827 85.98659
#
# Poissons Ratio (x) = 0.53485 0.51785
# Poissons Ratio (y) = 0.29269 -0.03269
# Poissons Ratio (z) = 0.27459 -0.03168
#
# Static dielectric constant tensor:
#      x y z
#    x 2.908260 0.015810 -0.183450 
#    y 0.015810 4.357530 -0.112650 
#    z -0.183450 -0.112650 3.696380 
# 
# 
# High freq. dielectric constant tensor:
#      x y z
#    x 1.653590 0.006260 -0.024970 
#    y 0.006260 1.760610 0.005360 
#    z -0.024970 0.005360 1.727190 
# 
# From -- ./inp_files/156854.got.cif
#   From: 2010.06.25/outbox.cif.g09.slc.cpg/sg2_79_cif.got.tgz:156854.got - 2010.06.27 13:26:56.
