data_PCOD8038510
_publ_section_title
;
Structure prediction by ZEFSAII (Michael W. Deem and Ramdas Pophale) SiO2 
 PCOD8038510
Probable space group: P -1
;
_chemical_formula_sum "Si O2"
_cell_formula_units_Z 16
_cell_length_a 10.747687
_cell_length_b 11.438576
_cell_length_c 9.054773
_cell_angle_alpha 127.178405
_cell_angle_beta 60.767002
_cell_angle_gamma 95.079086
_cell_volume 739.020340
_symmetry_space_group_name_H-M "P -1"
_symmetry_group_IT_number 2
_symmetry_cell_setting 'triclinic'
loop_
_space_group_symop_operation_xyz
x,y,z
-x,-y,-z
loop_
_atom_site_type_symbol
_atom_site_label
_atom_site_fract_x
_atom_site_fract_y
_atom_site_fract_z
Si Si1 0.037935 0.191850 0.264810
Si Si2 0.926864 0.971359 0.370145
Si Si3 0.049880 0.685760 0.899974
Si Si4 0.334336 0.228675 0.115458
Si Si5 0.363125 0.491357 0.476888
Si Si6 0.371953 0.619222 0.247958
Si Si7 0.124845 0.507461 0.269043
Si Si8 0.417834 0.925173 0.371045
O O1 0.218221 0.129652 0.140264
O O2 0.993815 0.194013 0.120280
O O3 0.997939 0.376806 0.465291
O O4 0.950777 0.092883 0.328149
O O5 0.752741 0.977302 0.494483
O O6 0.000000 0.000000 0.500000
O O7 0.014785 0.795107 0.145334
O O8 0.219181 0.580390 0.722814
O O9 0.952702 0.564688 0.868031
O O10 0.375269 0.311259 0.301315
O O11 0.250336 0.366664 0.161892
O O12 0.483902 0.117287 0.868263
O O13 0.500000 0.500000 0.500000
O O14 0.356915 0.581856 0.398235
O O15 0.220231 0.621086 0.246799
O O16 0.403941 0.778457 0.351275
O O17 0.500000 0.500000 0.000000
O O18 0.500000 0.000000 0.500000
#
# Coordination Sequence:
#
# PCOD8038510 Si02
#       8
#     2   2   2   2   2   2   2   2
#     4  11  19  42  71  92 121 169 219 259 316 387
#     4  12  29  44  61  95 140 173 208 269 330 378
#     4  11  21  41  68  94 122 167 222 259 307 396
#     4  10  20  38  67  96 121 158 215 273 309 374
#     4  11  22  37  63  99 128 161 207 269 327 371
#     4  11  21  38  67  95 125 165 214 269 315 371
#     4  10  17  36  68  98 114 151 224 268 301 363
#     4  12  24  43  66  95 132 173 218 260 319 393
#
# _framework density 21.650285
#
# number of rings (size 3 to 8) (size 9 to 14) (size 15 to 20)
#    0.000    1.000    7.500    2.625    1.750    1.000 
#    2.250    1.250    0.000    0.000    0.000    0.000 
#    0.000    0.000    0.000    0.000    0.000    0.000 
#
# Total GULP energy -198229.763289 kJ/mol
# GULP energy per Si atom -12389.360206 kJ/mol
# Density = 2.160101 g / cm^3
# Si number density = 21.650285 Si / 1000 Ang^3
#
#
#
# Elastic Constant Matrix: (Units=GPa)
#
#
# Indices 1 2 3 4 5 6 
#
# 1 182.6030 25.7010 81.5773 3.4863 -1.2436 36.0355
# 2 25.7010 44.9887 14.3582 6.4917 -2.9483 21.4771
# 3 81.5773 14.3582 172.1309 15.5980 -8.2428 15.5436
# 4 3.4863 6.4917 15.5980 24.1701 10.6652 -1.0692
# 5 -1.2436 -2.9483 -8.2428 10.6652 41.6835 -1.7484
# 6 36.0355 21.4771 15.5436 -1.0692 -1.7484 25.5706
#
#
#
# Elastic Compliance Matrix: (Units=1/GPa)
#
#
# Indices 1 2 3 4 5 6 
#
# 1 0.009204 0.001586 -0.003462 0.000335 -0.000897 -0.012245
# 2 0.001586 0.042159 0.000981 -0.016457 0.005818 -0.038531
# 3 -0.003462 0.000981 0.008202 -0.006519 0.003215 -0.000984
# 4 0.000335 -0.016457 -0.006519 0.058065 -0.016519 0.018612
# 5 -0.000897 0.005818 0.003215 -0.016519 0.029058 -0.004280
# 6 -0.012245 -0.038531 -0.000984 0.018612 -0.004280 0.089811
#
#
# Mechanical properties :
#
#
# Convention : Reuss Voigt Hill
#
# Bulk Modulus (GPa) = 17.30853 71.44395 44.37624
# Shear Modulus (GPa) = 19.41397 36.82393 28.11895
#
# Velocity S-wave (km/s) = 2.99776 4.12861 3.60777
# Velocity P-wave (km/s) = 4.47147 7.46980 6.15597
#
# Compressibility (1/GPa) = 0.05777499
#
# Stress axis : x y z
#
# Youngs Moduli (GPa) = 108.65219 23.71956 121.92402
#
# Poissons Ratio (x) = -0.03761 0.42206
# Poissons Ratio (y) = -0.17228 -0.11963
# Poissons Ratio (z) = 0.37612 -0.02327
#
# Static dielectric constant tensor:
#      x y z
#    x 4.334230 0.643590 -0.247680 
#    y 0.643590 3.723130 0.117470 
#    z -0.247680 0.117470 4.175450 
# 
# 
# High freq. dielectric constant tensor:
#      x y z
#    x 1.856720 0.041150 -0.013740 
#    y 0.041150 1.819420 0.014970 
#    z -0.013740 0.014970 1.861300 
# 
# From -- ./inp_files/263336.got.cif
#   From: 2010.06.25/outbox.cif.g09.slc.cpg/sg2_132_cif.got.tgz:263336.got - 2010.06.27 13:26:56.
