data_PCOD8038420
_publ_section_title
;
Structure prediction by ZEFSAII (Michael W. Deem and Ramdas Pophale) SiO2 
 PCOD8038420
Probable space group: P -1
;
_chemical_formula_sum "Si O2"
_cell_formula_units_Z 14
_cell_length_a 11.050166
_cell_length_b 24.075861
_cell_length_c 9.284856
_cell_angle_alpha 31.137818
_cell_angle_beta 57.331408
_cell_angle_gamma 37.325803
_cell_volume 691.946117
_symmetry_space_group_name_H-M "P -1"
_symmetry_group_IT_number 2
_symmetry_cell_setting 'triclinic'
loop_
_space_group_symop_operation_xyz
x,y,z
-x,-y,-z
loop_
_atom_site_type_symbol
_atom_site_label
_atom_site_fract_x
_atom_site_fract_y
_atom_site_fract_z
Si Si1 0.392265 0.179578 0.684576
Si Si2 0.823967 0.190322 0.712277
Si Si3 0.352825 0.357292 0.567290
Si Si4 0.261270 0.683434 0.210263
Si Si5 0.290941 0.560374 0.935924
Si Si6 0.539165 0.680086 0.887235
Si Si7 0.123046 0.535268 0.596370
O O1 0.428104 0.208049 0.759922
O O2 0.510358 0.184095 0.474638
O O3 0.128647 0.338582 0.469256
O O4 0.500000 0.000000 0.000000
O O5 0.572366 0.289963 0.637743
O O6 0.868113 0.210367 0.798291
O O7 0.882434 0.247377 0.426436
O O8 0.000000 0.000000 0.000000
O O9 0.186310 0.429411 0.647797
O O10 0.210436 0.517087 0.196998
O O11 0.500000 0.500000 0.500000
O O12 0.134016 0.656207 0.278333
O O13 0.299674 0.767480 0.899689
O O14 0.500000 0.500000 0.000000
O O15 0.348841 0.473444 0.941163
O O16 0.707842 0.602980 0.082722
#
# Coordination Sequence:
#
# PCOD8038420 Si02
#       7
#     2   2   2   2   2   2   2
#     4  11  26  41  57  87 128 157 193 252 306 339
#     4  11  20  33  59  95 123 146 192 255 302 338
#     4  10  21  39  61  82 120 161 200 238 293 363
#     4  10  17  35  65  89 112 145 204 244 282 347
#     4   9  17  33  56  86 117 154 187 234 295 356
#     4  10  19  39  66  84 112 163 206 234 286 365
#     4  11  20  40  66  87 113 161 209 233 284 372
#
# _framework density 20.232790000000001
#
# number of rings (size 3 to 8) (size 9 to 14) (size 15 to 20)
#    0.000    1.714    5.714    1.714    2.000    0.000 
#    2.571    1.429    0.000    0.000    0.000    0.000 
#    0.000    0.000    0.000    0.000    0.000    0.000 
#
# Total GULP energy -173437.073778 kJ/mol
# GULP energy per Si atom -12388.362413 kJ/mol
# Density = 2.018674 g / cm^3
# Si number density = 20.232790 Si / 1000 Ang^3
#
#
#
# Elastic Constant Matrix: (Units=GPa)
#
#
# Indices 1 2 3 4 5 6 
#
# 1 64.2023 18.6240 16.5845 9.0378 -12.4634 22.4942
# 2 18.6240 88.8440 48.9561 8.3012 -4.0476 26.1582
# 3 16.5845 48.9561 121.4700 2.6684 -21.0150 18.1220
# 4 9.0378 8.3012 2.6684 29.6899 3.0238 -3.6647
# 5 -12.4634 -4.0476 -21.0150 3.0238 26.7664 1.9520
# 6 22.4942 26.1582 18.1220 -3.6647 1.9520 39.7573
#
#
#
# Elastic Compliance Matrix: (Units=1/GPa)
#
#
# Indices 1 2 3 4 5 6 
#
# 1 0.026128 0.000629 0.001999 -0.012220 0.016527 -0.018046
# 2 0.000629 0.017700 -0.005609 -0.005864 -0.000044 -0.009983
# 3 0.001999 -0.005609 0.012653 -0.001726 0.010495 -0.003883
# 4 -0.012220 -0.005864 -0.001726 0.042610 -0.013924 0.016170
# 5 0.016527 -0.000044 0.010495 -0.013924 0.056186 -0.018148
# 6 -0.018046 -0.009983 -0.003883 0.016170 -0.018148 0.046083
#
#
# Mechanical properties :
#
#
# Convention : Reuss Voigt Hill
#
# Bulk Modulus (GPa) = 19.79412 49.20508 34.49960
# Shear Modulus (GPa) = 22.30553 31.93284 27.11918
#
# Velocity S-wave (km/s) = 3.32391 3.97706 3.66506
# Velocity P-wave (km/s) = 4.95334 6.74252 5.91596
#
# Compressibility (1/GPa) = 0.05052005
#
# Stress axis : x y z
#
# Youngs Moduli (GPa) = 38.27292 56.49812 79.03363
#
# Poissons Ratio (x) = -0.03555 -0.15800
# Poissons Ratio (y) = -0.02409 0.44328
# Poissons Ratio (z) = -0.07651 0.31688
#
# Static dielectric constant tensor:
#      x y z
#    x 3.991340 -0.162530 -0.360830 
#    y -0.162530 3.611530 0.362250 
#    z -0.360830 0.362250 3.854690 
# 
# 
# High freq. dielectric constant tensor:
#      x y z
#    x 1.794040 0.020180 -0.013800 
#    y 0.020180 1.779170 0.021760 
#    z -0.013800 0.021760 1.770580 
# 
# From -- ./inp_files/180769.got.cif
#   From: 2010.06.25/outbox.cif.g09.slc.cpg/sg2_91_cif.got.tgz:180769.got - 2010.06.27 13:26:56.
