data_PCOD8038209
_publ_section_title
;
Structure prediction by ZEFSAII (Michael W. Deem and Ramdas Pophale) SiO2 
 PCOD8038209
Probable space group: P -1
;
_chemical_formula_sum "Si O2"
_cell_formula_units_Z 16
_cell_length_a 8.914428
_cell_length_b 22.911862
_cell_length_c 12.498120
_cell_angle_alpha 152.039773
_cell_angle_beta 59.834147
_cell_angle_gamma 131.983331
_cell_volume 860.620373
_symmetry_space_group_name_H-M "P -1"
_symmetry_group_IT_number 2
_symmetry_cell_setting 'triclinic'
loop_
_space_group_symop_operation_xyz
x,y,z
-x,-y,-z
loop_
_atom_site_type_symbol
_atom_site_label
_atom_site_fract_x
_atom_site_fract_y
_atom_site_fract_z
Si Si1 0.596782 0.687000 0.592659
Si Si2 0.423085 0.604447 0.163761
Si Si3 0.929483 0.130673 0.321533
Si Si4 0.832121 0.109502 0.090965
Si Si5 0.559380 0.397578 0.098182
Si Si6 0.527188 0.194738 0.350875
Si Si7 0.741006 0.823278 0.988158
Si Si8 0.024769 0.568711 0.215462
O O1 0.487751 0.509734 0.329046
O O2 0.455342 0.725216 0.637681
O O3 0.823111 0.778884 0.603880
O O4 0.605961 0.726153 0.777181
O O5 0.542043 0.749490 0.432247
O O6 0.179566 0.536173 0.170837
O O7 0.500000 0.500000 0.000000
O O8 0.456117 0.641011 0.084920
O O9 0.860111 0.049936 0.098896
O O10 0.868880 0.252192 0.547708
O O11 0.816044 0.997263 0.232715
O O12 0.755799 0.220393 0.322457
O O13 0.061106 0.190962 0.087508
O O14 0.657956 0.979675 0.868411
O O15 0.790642 0.479547 0.202251
O O16 0.404978 0.241404 0.960399
O O17 0.000000 0.500000 0.000000
#
# Coordination Sequence:
#
# PCOD8038209 Si02
#       8
#     2   2   2   2   2   2   2   2
#     4  10  18  34  57  83 107 151 190 225 272 330
#     4  11  21  37  61  79 110 150 194 225 271 347
#     4  10  17  34  59  81 107 146 194 227 263 331
#     4  10  20  33  58  85 115 145 191 234 270 335
#     4  10  22  37  57  84 115 147 183 239 285 322
#     4  11  19  34  58  86 108 146 198 230 271 321
#     4  11  20  36  57  88 115 145 185 235 287 325
#     4   9  20  37  58  81 106 146 196 226 265 333
#
# _framework density 18.591239999999999
#
# number of rings (size 3 to 8) (size 9 to 14) (size 15 to 20)
#    0.000    1.750    5.000    1.125    0.000    0.000 
#    0.000    5.000    0.000    0.000    0.000    0.000 
#    0.000    0.000    0.000    0.000    0.000    0.000 
#
# Total GULP energy -198260.922216 kJ/mol
# GULP energy per Si atom -12391.307638 kJ/mol
# Density = 1.854893 g / cm^3
# Si number density = 18.591240 Si / 1000 Ang^3
#
#
#
# Elastic Constant Matrix: (Units=GPa)
#
#
# Indices 1 2 3 4 5 6 
#
# 1 111.7065 42.2525 31.0070 0.9808 -18.0005 -3.6671
# 2 42.2525 107.2568 34.5906 8.6645 -4.1562 0.3513
# 3 31.0070 34.5906 98.4510 -3.0529 -3.8554 1.3129
# 4 0.9808 8.6645 -3.0529 24.7662 -4.2428 3.1388
# 5 -18.0005 -4.1562 -3.8554 -4.2428 31.6724 -4.9983
# 6 -3.6671 0.3513 1.3129 3.1388 -4.9983 15.6231
#
#
#
# Elastic Compliance Matrix: (Units=1/GPa)
#
#
# Indices 1 2 3 4 5 6 
#
# 1 0.012423 -0.003999 -0.002256 0.001203 0.007254 0.005274
# 2 -0.003999 0.012269 -0.003262 -0.004772 -0.001787 -0.000553
# 3 -0.002256 -0.003262 0.012127 0.002965 -0.000172 -0.002126
# 4 0.001203 -0.004772 0.002965 0.044154 0.005219 -0.007061
# 5 0.007254 -0.001787 -0.000172 0.005219 0.038179 0.012924
# 6 0.005274 -0.000553 -0.002126 -0.007061 0.012924 0.070990
#
#
# Mechanical properties :
#
#
# Convention : Reuss Voigt Hill
#
# Bulk Modulus (GPa) = 56.22907 59.23494 57.73200
# Shear Modulus (GPa) = 23.24446 28.38330 25.81388
#
# Velocity S-wave (km/s) = 3.53978 3.91154 3.73030
# Velocity P-wave (km/s) = 6.85692 7.23403 7.04799
#
# Compressibility (1/GPa) = 0.01778440
#
# Stress axis : x y z
#
# Youngs Moduli (GPa) = 80.49818 81.50693 82.45762
#
# Poissons Ratio (x) = 0.32599 0.18604
# Poissons Ratio (y) = 0.32195 0.26894
# Poissons Ratio (z) = 0.18162 0.26584
#
# Static dielectric constant tensor:
#      x y z
#    x 4.159370 0.227220 0.092970 
#    y 0.227220 3.022950 -0.012960 
#    z 0.092970 -0.012960 3.601400 
# 
# 
# High freq. dielectric constant tensor:
#      x y z
#    x 1.735310 -0.002200 -0.001450 
#    y -0.002200 1.664670 -0.006990 
#    z -0.001450 -0.006990 1.735240 
# 
# From -- ./inp_files/177855.got.cif
#   From: 2010.06.25/outbox.cif.g09.slc.cpg/sg2_89_cif.got.tgz:177855.got - 2010.06.27 13:26:56.
