data_PCOD8038528
_publ_section_title
;
Structure prediction by ZEFSAII (Michael W. Deem and Ramdas Pophale) SiO2 
 PCOD8038528
Probable space group: P -1
;
_chemical_formula_sum "Si O2"
_cell_formula_units_Z 14
_cell_length_a 11.547049
_cell_length_b 8.783097
_cell_length_c 12.329245
_cell_angle_alpha 47.861975
_cell_angle_beta 100.466899
_cell_angle_gamma 127.779961
_cell_volume 674.401203
_symmetry_space_group_name_H-M "P -1"
_symmetry_group_IT_number 2
_symmetry_cell_setting 'triclinic'
loop_
_space_group_symop_operation_xyz
x,y,z
-x,-y,-z
loop_
_atom_site_type_symbol
_atom_site_label
_atom_site_fract_x
_atom_site_fract_y
_atom_site_fract_z
Si Si1 0.309952 0.104705 0.682785
Si Si2 0.329896 0.864733 0.579453
Si Si3 0.955581 0.750869 0.845645
Si Si4 0.846181 0.979233 0.585616
Si Si5 0.366105 0.542441 0.347240
Si Si6 0.931776 0.698195 0.111190
Si Si7 0.115917 0.519264 0.248444
O O1 0.334854 0.375429 0.530728
O O2 0.443207 0.196215 0.751422
O O3 0.331825 0.991759 0.632564
O O4 0.137861 0.886989 0.811311
O O5 0.228647 0.536728 0.736117
O O6 0.500000 0.000000 0.500000
O O7 0.243186 0.910443 0.453113
O O8 0.930713 0.964661 0.708699
O O9 0.858099 0.492819 0.869253
O O10 0.886746 0.624962 0.012400
O O11 0.708996 0.667237 0.666666
O O12 0.978630 0.191870 0.415335
O O13 0.275645 0.657516 0.278689
O O14 0.065414 0.693272 0.175804
O O15 0.000000 0.000000 0.000000
#
# Coordination Sequence:
#
# PCOD8038528 Si02
#       7
#     2   2   2   2   2   2   2
#     4  10  18  31  62  93 115 148 202 254 304 343
#     4  10  22  42  59  82 127 168 199 244 310 367
#     4  11  18  37  66  88 115 155 205 254 301 354
#     4   9  17  35  62  90 114 155 205 250 297 360
#     4   9  16  29  56  94 115 141 199 258 285 350
#     4  11  25  39  59  90 125 164 203 251 305 356
#     4  10  17  37  60  86 122 156 204 244 296 369
#
# _framework density 20.759156000000001
#
# number of rings (size 3 to 8) (size 9 to 14) (size 15 to 20)
#    0.000    2.000    5.714    1.286    0.000    3.429 
#    2.571    2.857    0.000    0.000    0.000    0.000 
#    0.000    0.000    0.000    0.000    0.000    0.000 
#
# Total GULP energy -173454.568288 kJ/mol
# GULP energy per Si atom -12389.612021 kJ/mol
# Density = 2.071191 g / cm^3
# Si number density = 20.759156 Si / 1000 Ang^3
#
#
#
# Elastic Constant Matrix: (Units=GPa)
#
#
# Indices 1 2 3 4 5 6 
#
# 1 156.2727 51.6637 70.7915 -3.4715 13.3497 27.3629
# 2 51.6637 58.8690 23.3145 -11.1283 7.5039 22.0142
# 3 70.7915 23.3145 83.7210 -6.9154 12.0010 3.6962
# 4 -3.4715 -11.1283 -6.9154 22.6298 -2.8418 6.0021
# 5 13.3497 7.5039 12.0010 -2.8418 33.4797 0.3362
# 6 27.3629 22.0142 3.6962 6.0021 0.3362 36.3294
#
#
#
# Elastic Compliance Matrix: (Units=1/GPa)
#
#
# Indices 1 2 3 4 5 6 
#
# 1 0.014036 -0.007210 -0.009824 -0.003245 -0.000688 -0.004661
# 2 -0.007210 0.034963 -0.000701 0.020580 -0.002772 -0.019059
# 3 -0.009824 -0.000701 0.020903 0.002730 -0.003240 0.005277
# 4 -0.003245 0.020580 0.002730 0.060144 0.001011 -0.020250
# 5 -0.000688 -0.002772 -0.003240 0.001011 0.031991 0.002064
# 6 -0.004661 -0.019059 0.005277 -0.020250 0.002064 0.045375
#
#
# Mechanical properties :
#
#
# Convention : Reuss Voigt Hill
#
# Bulk Modulus (GPa) = 29.04317 65.60025 47.32171
# Shear Modulus (GPa) = 19.65729 28.69398 24.17564
#
# Velocity S-wave (km/s) = 3.08055 3.72187 3.41629
# Velocity P-wave (km/s) = 5.16468 7.08089 6.19730
#
# Compressibility (1/GPa) = 0.03443151
#
# Stress axis : x y z
#
# Youngs Moduli (GPa) = 71.24731 28.60191 47.83914
#
# Poissons Ratio (x) = 0.20622 0.46997
# Poissons Ratio (y) = 0.51369 0.03355
# Poissons Ratio (z) = 0.69992 0.02006
#
# Static dielectric constant tensor:
#      x y z
#    x 4.133250 0.356340 0.406530 
#    y 0.356340 3.529430 0.031650 
#    z 0.406530 0.031650 3.705170 
# 
# 
# High freq. dielectric constant tensor:
#      x y z
#    x 1.816400 0.024800 0.028750 
#    y 0.024800 1.777860 -0.005380 
#    z 0.028750 -0.005380 1.796900 
# 
# From -- ./inp_files/188553.got.cif
#   From: 2010.06.25/outbox.cif.g09.slc.cpg/sg2_95_cif.got.tgz:188553.got - 2010.06.27 13:26:56.
