data_PCOD8038777
_publ_section_title
;
Structure prediction by ZEFSAII (Michael W. Deem and Ramdas Pophale) SiO2 
 PCOD8038777
Probable space group: P -1
;
_chemical_formula_sum "Si O2"
_cell_formula_units_Z 12
_cell_length_a 7.786227
_cell_length_b 14.249951
_cell_length_c 10.731185
_cell_angle_alpha 38.482014
_cell_angle_beta 74.451291
_cell_angle_gamma 102.017944
_cell_volume 511.604228
_symmetry_space_group_name_H-M "P -1"
_symmetry_group_IT_number 2
_symmetry_cell_setting 'triclinic'
loop_
_space_group_symop_operation_xyz
x,y,z
-x,-y,-z
loop_
_atom_site_type_symbol
_atom_site_label
_atom_site_fract_x
_atom_site_fract_y
_atom_site_fract_z
Si Si1 0.279258 0.403690 0.949267
Si Si2 0.215894 0.934505 0.504924
Si Si3 0.634121 0.379766 0.524391
Si Si4 0.729485 0.610916 0.503551
Si Si5 0.696060 0.340035 0.112425
Si Si6 0.878839 0.241559 0.548478
O O1 0.192732 0.438713 0.803183
O O2 0.524952 0.450172 0.819108
O O3 0.361609 0.570190 0.865618
O O4 0.052715 0.163142 0.290338
O O5 0.222005 0.764802 0.726561
O O6 0.222207 0.933820 0.353540
O O7 0.438590 0.166321 0.269310
O O8 0.732625 0.479165 0.538792
O O9 0.351475 0.277743 0.662962
O O10 0.651561 0.209292 0.680303
O O11 0.999891 0.782915 0.336345
O O12 0.911572 0.521131 0.790436
#
# Coordination Sequence:
#
# PCOD8038777 Si02
#       6
#     2   2   2   2   2   2
#     4   9  16  35  50  73 103 130 166 205 248 300
#     4  10  18  30  53  78 103 134 164 207 257 298
#     4   9  17  34  54  76  99 135 172 202 250 301
#     4   9  19  31  56  76  98 137 170 205 249 294
#     4  10  18  30  53  78 103 134 164 207 257 298
#     4  11  18  34  55  77 101 132 169 207 250 300
#
# _framework density 23.455631
#
# number of rings (size 3 to 8) (size 9 to 14) (size 15 to 20)
#    1.000    1.333    3.333    1.500    0.000    2.667 
#    0.000    3.333    0.000   12.000    0.000    0.000 
#    0.000    0.000    0.000    0.000    0.000    0.000 
#
# Total GULP energy -148687.457489 kJ/mol
# GULP energy per Si atom -12390.621457 kJ/mol
# Density = 2.340224 g / cm^3
# Si number density = 23.455631 Si / 1000 Ang^3
#
#
#
# Elastic Constant Matrix: (Units=GPa)
#
#
# Indices 1 2 3 4 5 6 
#
# 1 66.1333 28.0195 12.0538 5.5845 -22.2045 19.3784
# 2 28.0195 165.2378 33.8117 -0.3699 -12.7881 8.6585
# 3 12.0538 33.8117 34.3348 -22.5346 4.2816 -9.8133
# 4 5.5845 -0.3699 -22.5346 22.3775 -0.7505 -15.7710
# 5 -22.2045 -12.7881 4.2816 -0.7505 23.3911 1.5148
# 6 19.3784 8.6585 -9.8133 -15.7710 1.5148 33.6368
#
#
#
# Elastic Compliance Matrix: (Units=1/GPa)
#
#
# Indices 1 2 3 4 5 6 
#
# 1 0.011575 -0.005483 0.016954 0.020736 0.004957 0.009189
# 2 -0.005483 0.006348 0.001170 0.005919 -0.002066 0.004735
# 3 0.016954 0.001170 -0.006346 -0.028331 0.018673 -0.026044
# 4 0.020736 0.005919 -0.028331 -0.006250 0.029589 -0.025998
# 5 0.004957 -0.002066 0.018673 0.029589 0.042883 0.015066
# 6 0.009189 0.004735 -0.026044 -0.025998 0.015066 0.002751
#
#
# Mechanical properties :
#
#
# Convention : Reuss Voigt Hill
#
# Bulk Modulus (GPa) = 27.13111 45.94176 36.53643
# Shear Modulus (GPa) = 131.70060 28.66914 80.18487
#
# Velocity S-wave (km/s) = 7.50138 3.49989 5.85320
# Velocity P-wave (km/s) = 9.30697 5.99679 7.82883
#
# Compressibility (1/GPa) = 0.03685806
#
# Stress axis : x y z
#
# Youngs Moduli (GPa) = 86.39489 157.54064 -157.58454
#
# Poissons Ratio (x) = 0.86387 2.67172
# Poissons Ratio (y) = 0.47374 0.18438
# Poissons Ratio (z) = -1.46476 -0.18432
#
# Static dielectric constant tensor:
#      x y z
#    x 4.298620 0.091840 -0.257670 
#    y 0.091840 4.195070 0.223330 
#    z -0.257670 0.223330 3.701610 
# 
# 
# High freq. dielectric constant tensor:
#      x y z
#    x 1.940190 0.004240 -0.013760 
#    y 0.004240 1.934730 0.016680 
#    z -0.013760 0.016680 1.880810 
# 
# From -- ./inp_files/182009.got.cif
#   From: 2010.06.25/outbox.cif.g09.slc.cpg/sg2_92_cif.got.tgz:182009.got - 2010.06.27 13:26:56.
