data_PCOD8038340
_publ_section_title
;
Structure prediction by ZEFSAII (Michael W. Deem and Ramdas Pophale) SiO2 
 PCOD8038340
Probable space group: P -1
;
_chemical_formula_sum "Si O2"
_cell_formula_units_Z 16
_cell_length_a 8.819562
_cell_length_b 14.186954
_cell_length_c 9.528243
_cell_angle_alpha 107.669450
_cell_angle_beta 90.353748
_cell_angle_gamma 55.318413
_cell_volume 912.783352
_symmetry_space_group_name_H-M "P -1"
_symmetry_group_IT_number 2
_symmetry_cell_setting 'triclinic'
loop_
_space_group_symop_operation_xyz
x,y,z
-x,-y,-z
loop_
_atom_site_type_symbol
_atom_site_label
_atom_site_fract_x
_atom_site_fract_y
_atom_site_fract_z
Si Si1 0.283431 0.954269 0.722826
Si Si2 0.352435 0.155596 0.800019
Si Si3 0.931091 0.350705 0.919048
Si Si4 0.622155 0.534123 0.180414
Si Si5 0.415658 0.831127 0.964688
Si Si6 0.858956 0.147316 0.804624
Si Si7 0.552795 0.211355 0.611153
Si Si8 0.597026 0.565205 0.881590
O O1 0.348454 0.910009 0.860604
O O2 0.399449 0.837971 0.568334
O O3 0.328438 0.049428 0.726596
O O4 0.062763 0.016370 0.732989
O O5 0.447327 0.162502 0.664973
O O6 0.151537 0.288501 0.882912
O O7 0.479196 0.126988 0.923771
O O8 0.889112 0.251762 0.865855
O O9 0.819901 0.449842 0.835412
O O10 0.844016 0.426003 0.100738
O O11 0.588626 0.639167 0.331451
O O12 0.521218 0.475302 0.215398
O O13 0.520578 0.602740 0.060948
O O14 0.559334 0.685038 0.862360
O O15 0.236309 0.857512 0.057531
O O16 0.743739 0.165791 0.672619
#
# Coordination Sequence:
#
# PCOD8038340 Si02
#       8
#     2   2   2   2   2   2   2   2
#     4  11  24  32  49  78 107 136 165 204 251 312
#     4  10  21  34  54  73 101 137 173 212 233 301
#     4   9  15  30  57  86  89 122 183 217 241 269
#     4   9  14  29  56  79 100 118 167 223 239 291
#     4  11  19  35  52  76 103 136 165 205 262 289
#     4  10  17  35  57  74  98 128 177 215 241 290
#     4  11  19  35  52  76 103 136 165 205 262 289
#     4   9  14  29  56  79 100 118 167 223 239 291
#
# _framework density 17.528804999999998
#
# number of rings (size 3 to 8) (size 9 to 14) (size 15 to 20)
#    0.750    1.250    5.000    1.500    0.000    2.000 
#    0.000    0.625    0.000    3.000    0.000    0.000 
#    0.000    0.000    0.000    0.000    0.000    0.000 
#
# Total GULP energy -198314.950191 kJ/mol
# GULP energy per Si atom -12394.684387 kJ/mol
# Density = 1.748891 g / cm^3
# Si number density = 17.528805 Si / 1000 Ang^3
#
#
#
# Elastic Constant Matrix: (Units=GPa)
#
#
# Indices 1 2 3 4 5 6 
#
# 1 76.4323 15.9718 25.7906 5.7554 -5.4381 -8.6977
# 2 15.9718 44.0146 18.1992 21.1464 -4.4609 -2.9247
# 3 25.7906 18.1992 73.4606 15.8521 -3.9810 -4.2728
# 4 5.7554 21.1464 15.8521 24.6713 -0.5182 0.1996
# 5 -5.4381 -4.4609 -3.9810 -0.5182 13.4220 6.2331
# 6 -8.6977 -2.9247 -4.2728 0.1996 6.2331 24.1665
#
#
#
# Elastic Compliance Matrix: (Units=1/GPa)
#
#
# Indices 1 2 3 4 5 6 
#
# 1 0.016091 -0.005273 -0.004870 0.003900 0.001698 0.003822
# 2 -0.005273 0.042656 -0.000627 -0.034723 0.010130 0.000828
# 3 -0.004870 -0.000627 0.017740 -0.009682 0.002342 0.000784
# 4 0.003900 -0.034723 -0.009682 0.075450 -0.008560 -0.002926
# 5 0.001698 0.010130 0.002342 -0.008560 0.088438 -0.020488
# 6 0.003822 0.000828 0.000784 -0.002926 -0.020488 0.048302
#
#
# Mechanical properties :
#
#
# Convention : Reuss Voigt Hill
#
# Bulk Modulus (GPa) = 18.19909 34.87008 26.53459
# Shear Modulus (GPa) = 15.21925 21.38170 18.30047
#
# Velocity S-wave (km/s) = 2.94979 3.49636 3.23464
# Velocity P-wave (km/s) = 4.69112 6.01960 5.39640
#
# Compressibility (1/GPa) = 0.05494779
#
# Stress axis : x y z
#
# Youngs Moduli (GPa) = 62.14781 23.44329 56.37109
#
# Poissons Ratio (x) = 0.12361 0.27453
# Poissons Ratio (y) = 0.32769 0.03532
# Poissons Ratio (z) = 0.30266 0.01469
#
# Static dielectric constant tensor:
#      x y z
#    x 3.305050 -0.082910 -0.053350 
#    y -0.082910 3.248280 0.265980 
#    z -0.053350 0.265980 2.876100 
# 
# 
# High freq. dielectric constant tensor:
#      x y z
#    x 1.681400 0.002860 -0.000710 
#    y 0.002860 1.676000 0.029290 
#    z -0.000710 0.029290 1.635880 
# 
# From -- ./inp_files/203118.got.cif
#   From: 2010.06.25/outbox.cif.g09.slc.cpg/sg2_102_cif.got.tgz:203118.got - 2010.06.27 13:26:56.
