data_PCOD8038869
_publ_section_title
;
Structure prediction by ZEFSAII (Michael W. Deem and Ramdas Pophale) SiO2 
 PCOD8038869
Probable space group: P -1
;
_chemical_formula_sum "Si O2"
_cell_formula_units_Z 16
_cell_length_a 17.992780
_cell_length_b 10.882950
_cell_length_c 15.656954
_cell_angle_alpha 50.459910
_cell_angle_beta 21.400849
_cell_angle_gamma 59.204900
_cell_volume 826.432641
_symmetry_space_group_name_H-M "P -1"
_symmetry_group_IT_number 2
_symmetry_cell_setting 'triclinic'
loop_
_space_group_symop_operation_xyz
x,y,z
-x,-y,-z
loop_
_atom_site_type_symbol
_atom_site_label
_atom_site_fract_x
_atom_site_fract_y
_atom_site_fract_z
Si Si1 0.494340 0.380986 0.640603
Si Si2 0.235498 0.476154 0.163685
Si Si3 0.069483 0.660799 0.797599
Si Si4 0.703605 0.638789 0.550133
Si Si5 0.505937 0.699343 0.575509
Si Si6 0.067845 0.506827 0.153505
Si Si7 0.000708 0.743842 0.340244
Si Si8 0.800520 0.875085 0.031520
O O1 0.500000 0.500000 0.500000
O O2 0.679260 0.294445 0.496125
O O3 0.490452 0.501388 0.670728
O O4 0.298911 0.216254 0.909397
O O5 0.137122 0.419424 0.200787
O O6 0.164853 0.637924 0.195335
O O7 0.146565 0.325305 0.390462
O O8 0.491189 0.516348 0.873619
O O9 0.953933 0.617458 0.848351
O O10 0.000000 0.500000 0.000000
O O11 0.008362 0.809232 0.848402
O O12 0.628819 0.755747 0.509025
O O13 0.841318 0.537908 0.397611
O O14 0.850403 0.747711 0.418297
O O15 0.630517 0.819756 0.315189
O O16 0.253250 0.685052 0.858407
O O17 0.140084 0.929382 0.129052
#
# Coordination Sequence:
#
# PCOD8038869 Si02
#       8
#     2   2   2   2   2   2   2   2
#     4  10  18  31  51  79 115 152 180 212 266 333
#     4   9  21  41  63  78 106 149 198 246 279 327
#     4  12  18  32  56  83 117 153 186 217 275 344
#     4  10  19  36  62  82 107 149 191 239 279 340
#     4  10  18  33  54  86 117 148 185 223 277 339
#     4  10  19  33  59  87 107 149 197 224 277 337
#     4  10  22  40  59  85 108 149 195 237 291 327
#     4  11  22  34  55  87 124 149 183 231 279 339
#
# _framework density 19.360320999999999
#
# number of rings (size 3 to 8) (size 9 to 14) (size 15 to 20)
#    0.000    1.750    5.000    1.125    0.000    1.500 
#    0.000    6.250    0.000    1.500    0.000    0.000 
#    0.000    0.000    0.000    0.000    0.000    0.000 
#
# Total GULP energy -198218.799653 kJ/mol
# GULP energy per Si atom -12388.674978 kJ/mol
# Density = 1.931626 g / cm^3
# Si number density = 19.360321 Si / 1000 Ang^3
#
#
#
# Elastic Constant Matrix: (Units=GPa)
#
#
# Indices 1 2 3 4 5 6 
#
# 1 69.6863 36.3444 25.3573 -7.2183 -5.2944 9.6557
# 2 36.3444 67.4212 59.5359 -11.0743 5.8670 1.6884
# 3 25.3573 59.5359 121.8444 5.5846 -0.8940 -0.9485
# 4 -7.2183 -11.0743 5.5846 36.3612 -0.4088 -4.3445
# 5 -5.2944 5.8670 -0.8940 -0.4088 33.4788 6.9150
# 6 9.6557 1.6884 -0.9485 -4.3445 6.9150 18.5437
#
#
#
# Elastic Compliance Matrix: (Units=1/GPa)
#
#
# Indices 1 2 3 4 5 6 
#
# 1 0.024792 -0.017229 0.003331 -0.002585 0.010216 -0.015585
# 2 -0.017229 0.043337 -0.018228 0.013895 -0.013168 0.012259
# 3 0.003331 -0.018228 0.016788 -0.007747 0.004646 -0.002763
# 4 -0.002585 0.013895 -0.007747 0.033461 -0.004546 0.009219
# 5 0.010216 -0.013168 0.004646 -0.004546 0.037795 -0.019042
# 6 -0.015585 0.012259 -0.002763 0.009219 -0.019042 0.070045
#
#
# Mechanical properties :
#
#
# Convention : Reuss Voigt Hill
#
# Bulk Modulus (GPa) = 48.39095 55.71413 52.05254
# Shear Modulus (GPa) = 16.81481 26.85767 21.83624
#
# Velocity S-wave (km/s) = 2.95026 3.72863 3.36205
# Velocity P-wave (km/s) = 6.05430 6.88308 6.48195
#
# Compressibility (1/GPa) = 0.02066502
#
# Stress axis : x y z
#
# Youngs Moduli (GPa) = 40.33635 23.07496 59.56603
#
# Poissons Ratio (x) = 0.39756 -0.19843
# Poissons Ratio (y) = 0.69496 1.08576
# Poissons Ratio (z) = -0.13437 0.42061
#
# Static dielectric constant tensor:
#      x y z
#    x 3.623460 0.403290 0.118310 
#    y 0.403290 3.485320 0.425860 
#    z 0.118310 0.425860 3.581180 
# 
# 
# High freq. dielectric constant tensor:
#      x y z
#    x 1.760860 0.014040 -0.015070 
#    y 0.014040 1.714650 0.039250 
#    z -0.015070 0.039250 1.755580 
# 
# From -- ./inp_files/577693.got.cif
#   From: 2010.06.25/outbox.cif.g09.slc.cpg/sg2_289_cif.got.tgz:577693.got - 2010.06.27 13:26:56.
