data_PCOD8038612
_publ_section_title
;
Structure prediction by ZEFSAII (Michael W. Deem and Ramdas Pophale) SiO2 
 PCOD8038612
Probable space group: P -1
;
_chemical_formula_sum "Si O2"
_cell_formula_units_Z 14
_cell_length_a 8.812004
_cell_length_b 11.297420
_cell_length_c 16.969243
_cell_angle_alpha 28.069300
_cell_angle_beta 115.758750
_cell_angle_gamma 106.038666
_cell_volume 692.636504
_symmetry_space_group_name_H-M "P -1"
_symmetry_group_IT_number 2
_symmetry_cell_setting 'triclinic'
loop_
_space_group_symop_operation_xyz
x,y,z
-x,-y,-z
loop_
_atom_site_type_symbol
_atom_site_label
_atom_site_fract_x
_atom_site_fract_y
_atom_site_fract_z
Si Si1 0.324472 0.224509 0.319677
Si Si2 0.492153 0.392782 0.474617
Si Si3 0.876987 0.023754 0.091332
Si Si4 0.818604 0.056375 0.676547
Si Si5 0.148345 0.470555 0.702360
Si Si6 0.472074 0.674478 0.140244
Si Si7 0.144676 0.431786 0.307246
O O1 0.387452 0.487600 0.177088
O O2 0.187527 0.251251 0.345451
O O3 0.500000 0.000000 0.500000
O O4 0.219228 0.176050 0.247754
O O5 0.500000 0.500000 0.500000
O O6 0.656857 0.144102 0.648766
O O7 0.501966 0.584720 0.291030
O O8 0.306457 0.321302 0.468195
O O9 0.944156 0.737646 0.236267
O O10 0.674734 0.049840 0.058351
O O11 0.873719 0.260810 0.892189
O O12 0.002074 0.055116 0.172272
O O13 0.840220 0.296791 0.488269
O O14 0.344612 0.315298 0.863560
O O15 0.035153 0.594826 0.679379
#
# Coordination Sequence:
#
# PCOD8038612 Si02
#       7
#     2   2   2   2   2   2   2
#     4  10  17  40  59  78 110 147 196 216 276 333
#     4   9  17  32  52  79 106 141 185 219 267 325
#     4  10  21  37  55  83 115 148 183 221 286 330
#     4  11  21  35  61  82 110 149 182 237 267 328
#     4  11  20  36  56  85 114 144 186 226 280 326
#     4   9  21  36  59  78 111 157 178 229 277 328
#     4  10  22  35  57  83 111 150 181 231 274 331
#
# _framework density 20.212624000000002
#
# number of rings (size 3 to 8) (size 9 to 14) (size 15 to 20)
#    0.000    2.286    4.286    2.143    0.000    5.143 
#    0.000    1.429    0.000    1.714    0.000    0.000 
#    0.000    0.000    0.000    0.000    0.000    0.000 
#
# Total GULP energy -173452.852371 kJ/mol
# GULP energy per Si atom -12389.489455 kJ/mol
# Density = 2.016662 g / cm^3
# Si number density = 20.212624 Si / 1000 Ang^3
#
#
#
# Elastic Constant Matrix: (Units=GPa)
#
#
# Indices 1 2 3 4 5 6 
#
# 1 153.8170 48.1003 25.5444 13.1920 31.5973 -13.7618
# 2 48.1003 142.7381 16.2292 10.2346 7.0372 -16.5228
# 3 25.5444 16.2292 41.7345 1.8298 12.3397 0.7398
# 4 13.1920 10.2346 1.8298 30.7888 11.1116 12.2977
# 5 31.5973 7.0372 12.3397 11.1116 28.2492 -3.6610
# 6 -13.7618 -16.5228 0.7398 12.2977 -3.6610 27.3374
#
#
#
# Elastic Compliance Matrix: (Units=1/GPa)
#
#
# Indices 1 2 3 4 5 6 
#
# 1 0.009701 -0.002023 -0.002781 -0.001849 -0.007951 0.003503
# 2 -0.002023 0.009469 -0.004012 -0.007822 0.005915 0.009124
# 3 -0.002781 -0.004012 0.031519 0.010874 -0.015443 -0.011638
# 4 -0.001849 -0.007822 0.010874 0.060708 -0.029434 -0.037203
# 5 -0.007951 0.005915 -0.015443 -0.029434 0.063967 0.021798
# 6 0.003503 0.009124 -0.011638 -0.037203 0.021798 0.063828
#
#
# Mechanical properties :
#
#
# Convention : Reuss Voigt Hill
#
# Bulk Modulus (GPa) = 30.25067 57.55972 43.90520
# Shear Modulus (GPa) = 18.66770 33.83613 26.25192
#
# Velocity S-wave (km/s) = 3.04232 4.09590 3.60778
# Velocity P-wave (km/s) = 5.22874 7.13495 6.25489
#
# Compressibility (1/GPa) = 0.03305712
#
# Stress axis : x y z
#
# Youngs Moduli (GPa) = 103.08364 105.60803 31.72683
#
# Poissons Ratio (x) = 0.21362 0.08824
# Poissons Ratio (y) = 0.20851 0.12728
# Poissons Ratio (z) = 0.28670 0.42368
#
# Static dielectric constant tensor:
#      x y z
#    x 4.084950 0.037660 0.576910 
#    y 0.037660 3.904530 -0.126150 
#    z 0.576910 -0.126150 3.515890 
# 
# 
# High freq. dielectric constant tensor:
#      x y z
#    x 1.796120 0.001870 0.038540 
#    y 0.001870 1.787500 -0.006430 
#    z 0.038540 -0.006430 1.758930 
# 
# From -- ./inp_files/210116.got.cif
#   From: 2010.06.25/outbox.cif.g09.slc.cpg/sg2_106_cif.got.tgz:210116.got - 2010.06.27 13:26:56.
