data_PCOD8038225
_publ_section_title
;
Structure prediction by ZEFSAII (Michael W. Deem and Ramdas Pophale) SiO2 
 PCOD8038225
Probable space group: P -1
;
_chemical_formula_sum "Si O2"
_cell_formula_units_Z 16
_cell_length_a 11.983455
_cell_length_b 11.671812
_cell_length_c 10.052376
_cell_angle_alpha 73.236896
_cell_angle_beta 50.646366
_cell_angle_gamma 104.574173
_cell_volume 842.866617
_symmetry_space_group_name_H-M "P -1"
_symmetry_group_IT_number 2
_symmetry_cell_setting 'triclinic'
loop_
_space_group_symop_operation_xyz
x,y,z
-x,-y,-z
loop_
_atom_site_type_symbol
_atom_site_label
_atom_site_fract_x
_atom_site_fract_y
_atom_site_fract_z
Si Si1 0.099927 0.575589 0.536181
Si Si2 0.779306 0.947983 0.918027
Si Si3 0.165561 0.216494 0.518288
Si Si4 0.120857 0.315856 0.254884
Si Si5 0.282281 0.444558 0.564788
Si Si6 0.217304 0.005571 0.403402
Si Si7 0.686683 0.652218 0.151539
Si Si8 0.433360 0.898936 0.210294
O O1 0.134162 0.468540 0.624292
O O2 0.289400 0.732919 0.321796
O O3 0.000000 0.500000 0.500000
O O4 0.974314 0.601720 0.708080
O O5 0.737986 0.917800 0.801172
O O6 0.803921 0.829919 0.004060
O O7 0.609596 0.924402 0.131459
O O8 0.955980 0.112214 0.748964
O O9 0.201978 0.330439 0.334937
O O10 0.266144 0.312551 0.540042
O O11 0.240187 0.121433 0.455827
O O12 0.986264 0.139212 0.389932
O O13 0.275429 0.396369 0.000403
O O14 0.480701 0.589612 0.340849
O O15 0.251104 0.402865 0.757513
O O16 0.345631 0.954800 0.357484
O O17 0.500000 0.000000 0.000000
#
# Coordination Sequence:
#
# PCOD8038225 Si02
#       8
#     2   2   2   2   2   2   2   2
#     4  11  21  38  58  87 119 144 188 245 284 326
#     4  10  17  34  60  81 112 150 192 229 278 341
#     4  11  19  36  59  90 111 139 198 247 273 323
#     4  10  19  36  63  83 112 151 192 235 284 336
#     4  11  26  38  56  85 123 151 186 238 287 345
#     4   9  17  32  57  88 112 138 192 243 277 325
#     4  11  22  42  56  82 116 163 191 218 295 352
#     4   9  19  32  56  85 111 150 181 232 290 336
#
# _framework density 18.982838999999998
#
# number of rings (size 3 to 8) (size 9 to 14) (size 15 to 20)
#    0.000    1.750    5.000    1.500    0.000    1.500 
#    4.500    0.000    0.000    0.750    0.000    0.000 
#    0.000    0.000    0.000    0.000    0.000    0.000 
#
# Total GULP energy -198328.989703 kJ/mol
# GULP energy per Si atom -12395.561856 kJ/mol
# Density = 1.893963 g / cm^3
# Si number density = 18.982839 Si / 1000 Ang^3
#
#
#
# Elastic Constant Matrix: (Units=GPa)
#
#
# Indices 1 2 3 4 5 6 
#
# 1 86.1697 26.9177 37.6588 3.5424 3.3322 -14.4769
# 2 26.9177 81.0268 21.5188 -2.7136 4.3969 -9.2346
# 3 37.6588 21.5188 94.2027 5.5058 5.0695 -3.1688
# 4 3.5424 -2.7136 5.5058 17.9061 -6.5149 -1.8810
# 5 3.3322 4.3969 5.0695 -6.5149 16.2781 2.2156
# 6 -14.4769 -9.2346 -3.1688 -1.8810 2.2156 28.4364
#
#
#
# Elastic Compliance Matrix: (Units=1/GPa)
#
#
# Indices 1 2 3 4 5 6 
#
# 1 0.016213 -0.003161 -0.005253 -0.002342 -0.002678 0.006696
# 2 -0.003161 0.014500 -0.002024 0.003118 -0.001830 0.003223
# 3 -0.005253 -0.002024 0.013670 -0.005302 -0.004511 -0.001808
# 4 -0.002342 0.003118 -0.005302 0.069018 0.028699 0.001559
# 5 -0.002678 -0.001830 -0.004511 0.028699 0.076251 -0.006503
# 6 0.006696 0.003223 -0.001808 0.001559 -0.006503 0.040030
#
#
# Mechanical properties :
#
#
# Convention : Reuss Voigt Hill
#
# Bulk Modulus (GPa) = 42.54099 48.17663 45.35881
# Shear Modulus (GPa) = 19.35031 24.21105 21.78068
#
# Velocity S-wave (km/s) = 3.19620 3.57517 3.39099
# Velocity P-wave (km/s) = 6.00665 6.51741 6.26723
#
# Compressibility (1/GPa) = 0.02350674
#
# Stress axis : x y z
#
# Youngs Moduli (GPa) = 61.67920 68.96419 73.15530
#
# Poissons Ratio (x) = 0.21799 0.38429
# Poissons Ratio (y) = 0.19497 0.14807
# Poissons Ratio (z) = 0.32400 0.13958
#
# Static dielectric constant tensor:
#      x y z
#    x 2.026820 0.100770 0.636300 
#    y 0.100770 3.333090 -0.237370 
#    z 0.636300 -0.237370 2.938570 
# 
# 
# High freq. dielectric constant tensor:
#      x y z
#    x 1.717940 -0.029250 -0.016400 
#    y -0.029250 1.729280 -0.007660 
#    z -0.016400 -0.007660 1.730190 
# 
# From -- ./inp_files/205172.got.cif
#   From: 2010.06.25/outbox.cif.g09.slc.cpg/sg2_103_cif.got.tgz:205172.got - 2010.06.27 13:26:56.
