data_PCOD8038274
_publ_section_title
;
Structure prediction by ZEFSAII (Michael W. Deem and Ramdas Pophale) SiO2 
 PCOD8038274
Probable space group: P -1
;
_chemical_formula_sum "Si O2"
_cell_formula_units_Z 14
_cell_length_a 9.036502
_cell_length_b 23.650451
_cell_length_c 20.807225
_cell_angle_alpha 17.548315
_cell_angle_beta 141.076041
_cell_angle_gamma 150.738928
_cell_volume 610.089141
_symmetry_space_group_name_H-M "P -1"
_symmetry_group_IT_number 2
_symmetry_cell_setting 'triclinic'
loop_
_space_group_symop_operation_xyz
x,y,z
-x,-y,-z
loop_
_atom_site_type_symbol
_atom_site_label
_atom_site_fract_x
_atom_site_fract_y
_atom_site_fract_z
Si Si1 0.652817 0.311863 0.869586
Si Si2 0.210062 0.839188 0.150032
Si Si3 0.747710 0.864423 0.503943
Si Si4 0.734374 0.724920 0.014352
Si Si5 0.839099 0.703251 0.929309
Si Si6 0.289247 0.465342 0.572938
Si Si7 0.282399 0.941173 0.265731
O O1 0.618896 0.519665 0.627961
O O2 0.018165 0.431100 0.869292
O O3 0.491039 0.138522 0.938537
O O4 0.456711 0.141324 0.050074
O O5 0.387528 0.736140 0.314782
O O6 0.052093 0.804587 0.066379
O O7 0.929503 0.693848 0.266007
O O8 0.591689 0.573839 0.755300
O O9 0.454141 0.840530 0.450435
O O10 0.000000 0.000000 0.500000
O O11 0.914258 0.027408 0.318107
O O12 0.781682 0.767164 0.908754
O O13 0.696905 0.915718 0.820261
O O14 0.500000 0.500000 0.000000
O O15 0.087699 0.304857 0.614098
#
# Coordination Sequence:
#
# PCOD8038274 Si02
#       7
#     2   2   2   2   2   2   2
#     4  10  20  38  64  94 137 171 216 266 326 392
#     4  10  19  33  68 101 129 172 212 268 332 388
#     4  11  24  46  71  91 129 181 221 266 337 388
#     4  12  22  43  72  96 135 169 218 277 331 381
#     4  11  26  46  66  97 133 176 222 275 322 391
#     4  10  17  34  62 103 132 167 220 259 327 402
#     4  10  20  37  67 102 128 172 219 269 330 394
#
# _framework density 22.947465999999999
#
# number of rings (size 3 to 8) (size 9 to 14) (size 15 to 20)
#    0.000    1.429    5.714    0.857    2.000    1.143 
#    0.000    5.714    0.000    0.000    0.000    0.000 
#    0.000    0.000    0.000    0.000    0.000    0.000 
#
# Total GULP energy -173595.646168 kJ/mol
# GULP energy per Si atom -12399.689012 kJ/mol
# Density = 2.289524 g / cm^3
# Si number density = 22.947466 Si / 1000 Ang^3
#
#
#
# Elastic Constant Matrix: (Units=GPa)
#
#
# Indices 1 2 3 4 5 6 
#
# 1 126.1239 49.4535 48.1796 -3.8460 15.1545 -17.3871
# 2 49.4535 136.7615 18.0153 14.8823 7.3157 -6.8293
# 3 48.1796 18.0153 62.1836 -3.6801 9.5475 -1.3111
# 4 -3.8460 14.8823 -3.6801 13.5265 -1.3349 -0.9887
# 5 15.1545 7.3157 9.5475 -1.3349 40.3440 5.2303
# 6 -17.3871 -6.8293 -1.3111 -0.9887 5.2303 39.1016
#
#
#
# Elastic Compliance Matrix: (Units=1/GPa)
#
#
# Indices 1 2 3 4 5 6 
#
# 1 0.014408 -0.004279 -0.008942 0.006502 -0.003075 0.005935
# 2 -0.004279 0.010301 -0.000345 -0.012725 -0.000553 -0.000363
# 3 -0.008942 -0.000345 0.023528 0.003862 -0.001639 -0.002931
# 4 0.006502 -0.012725 0.003862 0.091198 0.001594 0.002891
# 5 -0.003075 -0.000553 -0.001639 0.001594 0.027145 -0.005109
# 6 0.005935 -0.000363 -0.002931 0.002891 -0.005109 0.028808
#
#
# Mechanical properties :
#
#
# Convention : Reuss Voigt Hill
#
# Bulk Modulus (GPa) = 47.38027 61.81842 54.59935
# Shear Modulus (GPa) = 21.78136 32.55579 27.16858
#
# Velocity S-wave (km/s) = 3.08423 3.77066 3.44459
# Velocity P-wave (km/s) = 5.77714 6.77900 6.29802
#
# Compressibility (1/GPa) = 0.02110583
#
# Stress axis : x y z
#
# Youngs Moduli (GPa) = 69.40519 97.07927 42.50296
#
# Poissons Ratio (x) = 0.41539 0.38005
# Poissons Ratio (y) = 0.29698 0.01466
# Poissons Ratio (z) = 0.62060 0.03348
#
# Static dielectric constant tensor:
#      x y z
#    x 4.229530 -0.012770 0.185910 
#    y -0.012770 4.252930 0.149050 
#    z 0.185910 0.149050 4.124060 
# 
# 
# High freq. dielectric constant tensor:
#      x y z
#    x 1.911510 -0.006170 0.005100 
#    y -0.006170 1.901530 0.011030 
#    z 0.005100 0.011030 1.896950 
# 
# From -- ./inp_files/492620.got.cif
#   From: 2010.06.25/outbox.cif.g09.slc.cpg/sg2_247_cif.got.tgz:492620.got - 2010.06.27 13:26:56.
