data_PCOD8038694
_publ_section_title
;
Structure prediction by ZEFSAII (Michael W. Deem and Ramdas Pophale) SiO2 
 PCOD8038694
Probable space group: P -1
;
_chemical_formula_sum "Si O2"
_cell_formula_units_Z 16
_cell_length_a 13.914247
_cell_length_b 9.347501
_cell_length_c 5.420643
_cell_angle_alpha 64.728602
_cell_angle_beta 94.568612
_cell_angle_gamma 76.596894
_cell_volume 607.269866
_symmetry_space_group_name_H-M "P -1"
_symmetry_group_IT_number 2
_symmetry_cell_setting 'triclinic'
loop_
_space_group_symop_operation_xyz
x,y,z
-x,-y,-z
loop_
_atom_site_type_symbol
_atom_site_label
_atom_site_fract_x
_atom_site_fract_y
_atom_site_fract_z
Si Si1 0.093500 0.731982 0.915251
Si Si2 0.941138 0.367938 0.527588
Si Si3 0.865470 0.931530 0.270174
Si Si4 0.855903 0.807271 0.858075
Si Si5 0.344643 0.501988 0.387198
Si Si6 0.261780 0.415443 0.949566
Si Si7 0.430472 0.102385 0.205480
Si Si8 0.461893 0.760665 0.246610
O O1 0.128110 0.618796 0.751837
O O2 0.973489 0.788335 0.860038
O O3 0.136948 0.884455 0.798629
O O4 0.131621 0.630071 0.253296
O O5 0.000000 0.500000 0.500000
O O6 0.019846 0.187412 0.644174
O O7 0.807344 0.876638 0.529327
O O8 0.812175 0.926737 0.997613
O O9 0.847441 0.623589 0.053302
O O10 0.275537 0.526106 0.106390
O O11 0.374836 0.671596 0.287839
O O12 0.446213 0.346159 0.478507
O O13 0.287782 0.475370 0.644149
O O14 0.323109 0.223376 0.174247
O O15 0.500000 0.000000 0.500000
O O16 0.412334 0.956145 0.142085
O O17 0.484954 0.232653 0.009436
#
# Coordination Sequence:
#
# PCOD8038694 Si02
#       8
#     2   2   2   2   2   2   2   2
#     4  10  19  34  56  80 103 139 182 226 259 313
#     4  10  18  29  50  81 107 127 166 218 272 304
#     4  10  19  35  58  78 103 137 185 225 260 312
#     4  10  19  33  54  80 105 140 179 223 266 312
#     4  10  21  35  55  81 104 142 183 220 265 315
#     4  11  22  35  55  79 111 144 182 221 269 328
#     4  10  19  34  56  83 109 137 179 224 274 311
#     4   9  20  34  55  81 108 136 180 229 262 315
#
# _framework density 26.347429999999999
#
# number of rings (size 3 to 8) (size 9 to 14) (size 15 to 20)
#    0.000    2.000    1.250    4.875    1.750    1.500 
#    0.000    0.000    0.000   24.000    0.000    0.000 
#    0.000    0.000    0.000    0.000    0.000    0.000 
#
# Total GULP energy -198225.493252 kJ/mol
# GULP energy per Si atom -12389.093328 kJ/mol
# Density = 2.628746 g / cm^3
# Si number density = 26.347430 Si / 1000 Ang^3
#
#
#
# Elastic Constant Matrix: (Units=GPa)
#
#
# Indices 1 2 3 4 5 6 
#
# 1 40.4738 33.6541 46.0705 5.4681 -4.0585 10.3719
# 2 33.6541 167.0543 89.1164 7.1406 -16.0674 4.9684
# 3 46.0705 89.1164 186.6844 29.2698 -13.5253 14.0361
# 4 5.4681 7.1406 29.2698 66.4239 10.4615 -1.0056
# 5 -4.0585 -16.0674 -13.5253 10.4615 49.5076 -5.5237
# 6 10.3719 4.9684 14.0361 -1.0056 -5.5237 42.9610
#
#
#
# Elastic Compliance Matrix: (Units=1/GPa)
#
#
# Indices 1 2 3 4 5 6 
#
# 1 0.037330 -0.003625 -0.007148 0.000510 -0.000886 -0.006360
# 2 -0.003625 0.008542 -0.003245 0.000576 0.001597 0.001166
# 3 -0.007148 -0.003245 0.009389 -0.003459 0.001562 -0.000847
# 4 0.000510 0.000576 -0.003459 0.017157 -0.004253 0.000795
# 5 -0.000886 0.001597 0.001562 -0.004253 0.022224 0.002277
# 6 -0.006360 0.001166 -0.000847 0.000795 0.002277 0.025265
#
#
# Mechanical properties :
#
#
# Convention : Reuss Voigt Hill
#
# Bulk Modulus (GPa) = 36.73210 81.32161 59.02686
# Shear Modulus (GPa) = 31.84336 46.80326 39.32331
#
# Velocity S-wave (km/s) = 3.48026 4.21929 3.86747
# Velocity P-wave (km/s) = 5.48829 7.39383 6.51114
#
# Compressibility (1/GPa) = 0.02722414
#
# Stress axis : x y z
#
# Youngs Moduli (GPa) = 26.78808 117.07006 106.50814
#
# Poissons Ratio (x) = 0.42440 0.76130
# Poissons Ratio (y) = 0.09711 0.34566
# Poissons Ratio (z) = 0.19148 0.37993
#
# Static dielectric constant tensor:
#      x y z
#    x 4.414380 0.402410 0.081610 
#    y 0.402410 4.439280 1.011120 
#    z 0.081610 1.011120 7.463580 
# 
# 
# High freq. dielectric constant tensor:
#      x y z
#    x 2.055330 -0.008420 0.008330 
#    y -0.008420 2.070780 -0.002880 
#    z 0.008330 -0.002880 2.081290 
# 
# From -- ./inp_files/43626.got.cif
#   From: 2010.06.25/outbox.cif.g09.slc.cpg/sg2_22_cif.got.tgz:43626.got - 2010.06.27 13:26:56.
