data_PCOD8038101
_publ_section_title
;
Structure prediction by ZEFSAII (Michael W. Deem and Ramdas Pophale) SiO2 
 PCOD8038101
Probable space group: P -1
;
_chemical_formula_sum "Si O2"
_cell_formula_units_Z 16
_cell_length_a 12.000000
_cell_length_b 9.000000
_cell_length_c 21.000000
_cell_angle_alpha 40.000000
_cell_angle_beta 140.000000
_cell_angle_gamma 110.000000
_cell_volume 754.890988
_symmetry_space_group_name_H-M "P -1"
_symmetry_group_IT_number 2
_symmetry_cell_setting 'triclinic'
loop_
_space_group_symop_operation_xyz
x,y,z
-x,-y,-z
loop_
_atom_site_type_symbol
_atom_site_label
_atom_site_fract_x
_atom_site_fract_y
_atom_site_fract_z
Si Si1 0.154828 0.228138 0.395952
Si Si2 0.646834 0.191756 0.799039
Si Si3 0.005024 0.170571 0.719210
Si Si4 0.921422 0.202674 0.814140
Si Si5 0.242991 0.195505 0.586852
Si Si6 0.500782 0.274892 0.906467
Si Si7 0.666617 0.313545 0.422936
Si Si8 0.291570 0.652620 0.815354
O O1 0.166431 0.487007 0.298105
O O2 0.265847 0.113062 0.550427
O O3 0.903872 0.349246 0.243933
O O4 0.310351 0.960534 0.505313
O O5 0.779135 0.122087 0.814238
O O6 0.466138 0.134259 0.730297
O O7 0.520770 0.521061 0.659959
O O8 0.822642 0.998762 0.993798
O O9 0.885595 0.193049 0.726041
O O10 0.970833 0.477908 0.602010
O O11 0.892623 0.174273 0.604205
O O12 0.244262 0.874899 0.923344
O O13 0.198273 0.986115 0.668502
O O14 0.397424 0.447070 0.738262
O O15 0.361823 0.504542 0.825533
O O16 0.500000 0.000000 0.000000
O O17 0.500000 0.500000 0.000000
#
# Coordination Sequence:
#
# PCOD8038101 Si02
#       8
#     2   2   2   2   2   2   2   2
#     4  11  23  41  61  92 129 167 208 264 314 377
#     4  10  22  42  69  95 123 169 214 264 318 379
#     4  10  23  40  64  92 125 165 214 261 311 380
#     4  10  21  43  69  92 127 165 216 264 316 381
#     4  10  22  39  63  90 127 166 213 253 315 383
#     4  12  25  40  62  91 131 168 212 263 313 374
#     4  11  24  41  63  94 129 164 213 262 319 375
#     4  12  25  40  64  92 130 172 209 259 319 381
#
# _framework density 21.195112999999999
#
# number of rings (size 3 to 8) (size 9 to 14) (size 15 to 20)
#    0.000    1.250    2.500    3.375    5.250    5.500 
#    0.000    0.000    0.000    3.750    0.000    0.000 
#    0.000    0.000    0.000    0.000    0.000    0.000 
#
# Total GULP energy -198242.011760 kJ/mol
# GULP energy per Si atom -12390.125735 kJ/mol
# Density = 2.114687 g / cm^3
# Si number density = 21.195113 Si / 1000 Ang^3
#
#
#
# Elastic Constant Matrix: (Units=GPa)
#
#
# Indices 1 2 3 4 5 6 
#
# 1 42.9458 5.3094 9.7262 4.8875 1.8699 -5.3185
# 2 5.3094 84.1761 19.7466 1.8754 -1.0470 -16.1539
# 3 9.7262 19.7466 108.2901 13.3102 -6.6134 -9.7460
# 4 4.8875 1.8754 13.3102 47.1399 -7.0080 0.0770
# 5 1.8699 -1.0470 -6.6134 -7.0080 33.4228 -2.1224
# 6 -5.3185 -16.1539 -9.7460 0.0770 -2.1224 34.2846
#
#
#
# Elastic Compliance Matrix: (Units=1/GPa)
#
#
# Indices 1 2 3 4 5 6 
#
# 1 0.024450 -0.000561 -0.001664 -0.002348 -0.002021 0.002936
# 2 -0.000561 0.013462 -0.001872 0.000112 0.000472 0.005753
# 3 -0.001664 -0.001872 0.010295 -0.002412 0.001686 0.001896
# 4 -0.002348 0.000112 -0.002412 0.022787 0.004386 -0.000777
# 5 -0.002021 0.000472 0.001686 0.004386 0.031449 0.002325
# 6 0.002936 0.005753 0.001896 -0.000777 0.002325 0.033018
#
#
# Mechanical properties :
#
#
# Convention : Reuss Voigt Hill
#
# Bulk Modulus (GPa) = 24.99182 33.88626 29.43904
# Shear Modulus (GPa) = 31.84863 36.34478 34.09671
#
# Velocity S-wave (km/s) = 3.88060 4.14547 4.01522
# Velocity P-wave (km/s) = 5.64762 6.23985 5.95111
#
# Compressibility (1/GPa) = 0.04001309
#
# Stress axis : x y z
#
# Youngs Moduli (GPa) = 40.89945 74.28535 97.13103
#
# Poissons Ratio (x) = 0.04169 0.16165
# Poissons Ratio (y) = 0.02295 0.18178
# Poissons Ratio (z) = 0.06807 0.13903
#
# Static dielectric constant tensor:
#      x y z
#    x 3.627120 -0.212080 -0.038600 
#    y -0.212080 4.026270 -0.056290 
#    z -0.038600 -0.056290 4.432640 
# 
# 
# High freq. dielectric constant tensor:
#      x y z
#    x 1.813870 -0.023560 0.003330 
#    y -0.023560 1.833730 0.004940 
#    z 0.003330 0.004940 1.865040 
# 
# From -- ./inp_files/185743.got.cif
#   From: 2010.06.25/outbox.ucp.g09.slc.cvg/sg2_93_cif.got.tgz:185743.got - 2010.06.28 11:54:26.
