data_PCOD8038141
_publ_section_title
;
Structure prediction by ZEFSAII (Michael W. Deem and Ramdas Pophale) SiO2 
 PCOD8038141
Probable space group: P -1
;
_chemical_formula_sum "Si O2"
_cell_formula_units_Z 12
_cell_length_a 9.000000
_cell_length_b 12.000000
_cell_length_c 12.000000
_cell_angle_alpha 140.000000
_cell_angle_beta 60.000000
_cell_angle_gamma 140.000000
_cell_volume 523.519695
_symmetry_space_group_name_H-M "P -1"
_symmetry_group_IT_number 2
_symmetry_cell_setting 'triclinic'
loop_
_space_group_symop_operation_xyz
x,y,z
-x,-y,-z
loop_
_atom_site_type_symbol
_atom_site_label
_atom_site_fract_x
_atom_site_fract_y
_atom_site_fract_z
Si Si1 0.633648 0.831753 0.033738
Si Si2 0.853351 0.297780 0.641505
Si Si3 0.132630 0.442186 0.975303
Si Si4 0.711180 0.534797 0.494430
Si Si5 0.033291 0.969200 0.135684
Si Si6 0.563745 0.141943 0.417879
O O1 0.789641 0.812416 0.037615
O O2 0.584096 0.985722 0.217565
O O3 0.375999 0.560470 0.911364
O O4 0.751798 0.947168 0.957975
O O5 0.774384 0.287481 0.538716
O O6 0.135674 0.452955 0.651080
O O7 0.692349 0.034112 0.557313
O O8 0.811379 0.444543 0.836955
O O9 0.985604 0.164726 0.848153
O O10 0.000000 0.500000 0.000000
O O11 0.500000 0.500000 0.500000
O O12 0.593459 0.327749 0.470509
O O13 0.909934 0.794962 0.672682
#
# Coordination Sequence:
#
# PCOD8038141 Si02
#       6
#     2   2   2   2   2   2
#     4  10  23  44  70  93 126 170 215 264 308 388
#     4  10  23  44  68  90 126 175 215 258 314 386
#     4  11  26  43  67  94 132 170 210 266 322 376
#     4  12  27  40  66  99 133 164 209 272 321 376
#     4  11  25  42  66  98 127 168 216 261 318 380
#     4  10  22  45  68  92 125 174 217 256 317 378
#
# _framework density 22.921773999999999
#
# number of rings (size 3 to 8) (size 9 to 14) (size 15 to 20)
#    0.000    1.333    1.667    2.000   11.667    2.667 
#    0.000    0.000    0.000    0.000    0.000    0.000 
#    0.000    0.000    0.000    0.000    0.000    0.000 
#
# Total GULP energy -148748.954712 kJ/mol
# GULP energy per Si atom -12395.746226 kJ/mol
# Density = 2.286960 g / cm^3
# Si number density = 22.921774 Si / 1000 Ang^3
#
#
#
# Elastic Constant Matrix: (Units=GPa)
#
#
# Indices 1 2 3 4 5 6 
#
# 1 114.7601 96.4683 0.0447 0.6539 -19.0347 -9.9767
# 2 96.4683 196.1789 16.0021 1.5911 -13.7835 -8.5291
# 3 0.0447 16.0021 37.9646 3.1573 -5.9370 -10.6310
# 4 0.6539 1.5911 3.1573 25.1612 -2.2697 -11.1663
# 5 -19.0347 -13.7835 -5.9370 -2.2697 19.6386 7.6748
# 6 -9.9767 -8.5291 -10.6310 -11.1663 7.6748 56.6607
#
#
#
# Elastic Compliance Matrix: (Units=1/GPa)
#
#
# Indices 1 2 3 4 5 6 
#
# 1 0.018012 -0.008372 0.005846 0.001152 0.012901 0.001488
# 2 -0.008372 0.009368 -0.004504 -0.000323 -0.002702 -0.000607
# 3 0.005846 -0.004504 0.031176 -0.000796 0.010005 0.004689
# 4 0.001152 -0.000323 -0.000796 0.043735 0.002464 0.008290
# 5 0.012901 -0.002702 0.010005 0.002464 0.066718 -0.004809
# 6 0.001488 -0.000607 0.004689 0.008290 -0.004809 0.020984
#
#
# Mechanical properties :
#
#
# Convention : Reuss Voigt Hill
#
# Bulk Modulus (GPa) = 22.47460 63.77042 43.12251
# Shear Modulus (GPa) = 22.84293 36.05132 29.44712
#
# Velocity S-wave (km/s) = 3.16026 3.97015 3.58813
# Velocity P-wave (km/s) = 4.81067 6.99267 6.00167
#
# Compressibility (1/GPa) = 0.04449466
#
# Stress axis : x y z
#
# Youngs Moduli (GPa) = 55.51878 106.74456 32.07615
#
# Poissons Ratio (x) = 0.89369 -0.18752
# Poissons Ratio (y) = 0.46482 0.14448
# Poissons Ratio (z) = -0.32456 0.48082
#
# Static dielectric constant tensor:
#      x y z
#    x 4.023590 0.013200 -0.278230 
#    y 0.013200 4.975540 0.113490 
#    z -0.278230 0.113490 4.472900 
# 
# 
# High freq. dielectric constant tensor:
#      x y z
#    x 1.896520 0.003470 -0.006700 
#    y 0.003470 1.937340 -0.002920 
#    z -0.006700 -0.002920 1.882770 
# 
# From -- ./inp_files/161332.got.cif
#   From: 2010.06.25/outbox.ucp.g09.slc.cvg/sg2_81_cif.got.tgz:161332.got - 2010.06.28 11:54:26.
