data_PCOD8038551
_publ_section_title
;
Structure prediction by ZEFSAII (Michael W. Deem and Ramdas Pophale) SiO2 
 PCOD8038551
Probable space group: P -1
;
_chemical_formula_sum "Si O2"
_cell_formula_units_Z 14
_cell_length_a 19.865586
_cell_length_b 8.744480
_cell_length_c 9.418252
_cell_angle_alpha 87.190326
_cell_angle_beta 51.409521
_cell_angle_gamma 46.772929
_cell_volume 696.708003
_symmetry_space_group_name_H-M "P -1"
_symmetry_group_IT_number 2
_symmetry_cell_setting 'triclinic'
loop_
_space_group_symop_operation_xyz
x,y,z
-x,-y,-z
loop_
_atom_site_type_symbol
_atom_site_label
_atom_site_fract_x
_atom_site_fract_y
_atom_site_fract_z
Si Si1 0.901488 0.811236 0.024058
Si Si2 0.943294 0.973046 0.200111
Si Si3 0.412849 0.466971 0.274180
Si Si4 0.398765 0.267969 0.530922
Si Si5 0.219224 0.709579 0.974798
Si Si6 0.516275 0.653282 0.138168
Si Si7 0.764111 0.765881 0.367850
O O1 0.065620 0.493379 0.764964
O O2 0.840510 0.027665 0.983213
O O3 0.772349 0.868809 0.215670
O O4 0.931890 0.825300 0.146595
O O5 0.775842 0.265579 0.475159
O O6 0.074673 0.800827 0.160466
O O7 0.000000 0.000000 0.000000
O O8 0.490089 0.221802 0.286220
O O9 0.472694 0.544343 0.239285
O O10 0.465447 0.349693 0.052316
O O11 0.258867 0.374409 0.645661
O O12 0.500000 0.000000 0.500000
O O13 0.334749 0.499472 0.702343
O O14 0.316832 0.552623 0.999062
O O15 0.377329 0.973767 0.354630
#
# Coordination Sequence:
#
# PCOD8038551 Si02
#       7
#     2   2   2   2   2   2   2
#     4  10  20  35  65  88 127 161 207 259 301 373
#     4  10  17  37  64  86 116 165 204 256 294 362
#     4  11  24  44  63  86 133 171 203 245 324 380
#     4  12  22  35  62  94 122 154 208 266 300 350
#     4  11  21  39  63  96 119 162 215 257 304 362
#     4  11  25  41  65  93 126 169 203 255 313 376
#     4  11  21  36  59  99 120 162 205 252 321 354
#
# _framework density 20.094501000000001
#
# number of rings (size 3 to 8) (size 9 to 14) (size 15 to 20)
#    0.000    1.143    7.143    0.857    2.000    2.286 
#    0.000    0.000    0.000    1.714    0.000    0.000 
#    0.000    0.000    0.000    0.000    0.000    0.000 
#
# Total GULP energy -173494.042428 kJ/mol
# GULP energy per Si atom -12392.431602 kJ/mol
# Density = 2.004877 g / cm^3
# Si number density = 20.094501 Si / 1000 Ang^3
#
#
#
# Elastic Constant Matrix: (Units=GPa)
#
#
# Indices 1 2 3 4 5 6 
#
# 1 74.3626 22.3616 17.1211 -5.4796 -0.3073 -3.3920
# 2 22.3616 112.2654 36.2858 0.6734 3.3269 -1.4746
# 3 17.1211 36.2858 73.9256 7.8535 -10.0895 -11.5942
# 4 -5.4796 0.6734 7.8535 34.1797 3.2344 -8.0888
# 5 -0.3073 3.3269 -10.0895 3.2344 20.6359 0.9046
# 6 -3.3920 -1.4746 -11.5942 -8.0888 0.9046 25.5370
#
#
#
# Elastic Compliance Matrix: (Units=1/GPa)
#
#
# Indices 1 2 3 4 5 6 
#
# 1 0.015053 -0.002055 -0.002778 0.003663 -0.001457 0.001831
# 2 -0.002055 0.011444 -0.006224 0.000876 -0.004969 -0.001984
# 3 -0.002778 -0.006224 0.020287 -0.004475 0.011290 0.006665
# 4 0.003663 0.000876 -0.004475 0.033864 -0.008000 0.009515
# 5 -0.001457 -0.004969 0.011290 -0.008000 0.056007 0.000128
# 6 0.001831 -0.001984 0.006665 0.009515 0.000128 0.045323
#
#
# Mechanical properties :
#
#
# Convention : Reuss Voigt Hill
#
# Bulk Modulus (GPa) = 40.53550 45.78782 43.16166
# Shear Modulus (GPa) = 23.54979 28.38954 25.96967
#
# Velocity S-wave (km/s) = 3.42709 3.76280 3.59886
# Velocity P-wave (km/s) = 5.98967 6.45863 6.22857
#
# Compressibility (1/GPa) = 0.02466974
#
# Stress axis : x y z
#
# Youngs Moduli (GPa) = 66.43315 87.37919 49.29220
#
# Poissons Ratio (x) = 0.17956 0.13695
# Poissons Ratio (y) = 0.13652 0.30679
# Poissons Ratio (z) = 0.18458 0.54384
#
# Static dielectric constant tensor:
#      x y z
#    x 4.266960 -0.030240 -0.395000 
#    y -0.030240 4.142380 0.309090 
#    z -0.395000 0.309090 3.643290 
# 
# 
# High freq. dielectric constant tensor:
#      x y z
#    x 1.784110 0.020140 -0.020190 
#    y 0.020140 1.778500 0.018190 
#    z -0.020190 0.018190 1.767970 
# 
# From -- ./inp_files/207860.got.cif
#   From: 2010.06.25/outbox.cif.g09.slc.cpg/sg2_104_cif.got.tgz:207860.got - 2010.06.27 13:26:56.
