data_PCOD8038381
_publ_section_title
;
Structure prediction by ZEFSAII (Michael W. Deem and Ramdas Pophale) SiO2 
 PCOD8038381
Probable space group: P -1
;
_chemical_formula_sum "Si O2"
_cell_formula_units_Z 16
_cell_length_a 11.001756
_cell_length_b 14.226947
_cell_length_c 9.226888
_cell_angle_alpha 65.422982
_cell_angle_beta 92.369095
_cell_angle_gamma 137.274551
_cell_volume 805.276616
_symmetry_space_group_name_H-M "P -1"
_symmetry_group_IT_number 2
_symmetry_cell_setting 'triclinic'
loop_
_space_group_symop_operation_xyz
x,y,z
-x,-y,-z
loop_
_atom_site_type_symbol
_atom_site_label
_atom_site_fract_x
_atom_site_fract_y
_atom_site_fract_z
Si Si1 0.966494 0.696425 0.505293
Si Si2 0.133483 0.024315 0.383850
Si Si3 0.235588 0.886405 0.148568
Si Si4 0.357291 0.908739 0.841200
Si Si5 0.549944 0.821098 0.472156
Si Si6 0.294153 0.795187 0.624693
Si Si7 0.481290 0.602273 0.372546
Si Si8 0.794535 0.893327 0.987630
O O1 0.095982 0.712674 0.606226
O O2 0.735914 0.515988 0.623181
O O3 0.000756 0.838293 0.453096
O O4 0.031736 0.722596 0.324645
O O5 0.331733 0.127002 0.410341
O O6 0.195337 0.123978 0.173526
O O7 0.000000 0.000000 0.500000
O O8 0.412597 0.966422 0.209182
O O9 0.258880 0.023793 0.035153
O O10 0.239308 0.823927 0.040525
O O11 0.256488 0.760079 0.819057
O O12 0.338849 0.013652 0.715339
O O13 0.336095 0.717073 0.589985
O O14 0.532076 0.711713 0.437260
O O15 0.500000 0.000000 0.500000
O O16 0.500000 0.500000 0.500000
O O17 0.626344 0.711604 0.172572
O O18 0.000000 0.000000 0.000000
#
# Coordination Sequence:
#
# PCOD8038381 Si02
#       8
#     2   2   2   2   2   2   2   2
#     4  11  21  38  63  93 127 161 206 263 322 368
#     4  11  22  39  68  95 117 169 223 257 311 383
#     4  10  19  35  62  97 118 163 214 256 310 377
#     4  10  18  34  65  94 125 153 217 261 299 371
#     4  11  20  40  63  91 128 169 207 259 313 386
#     4  10  17  35  60  93 121 163 201 256 309 376
#     4  12  26  44  60  91 134 169 210 268 320 370
#     4  11  23  41  65  91 125 167 218 261 309 384
#
# _framework density 19.868946999999999
#
# number of rings (size 3 to 8) (size 9 to 14) (size 15 to 20)
#    0.000    1.250    6.250    3.750    0.000    0.500 
#    0.000    3.750    0.000    2.250    0.000    0.000 
#    0.000    0.000    0.000    0.000    0.000    0.000 
#
# Total GULP energy -198330.466741 kJ/mol
# GULP energy per Si atom -12395.654171 kJ/mol
# Density = 1.982372 g / cm^3
# Si number density = 19.868947 Si / 1000 Ang^3
#
#
#
# Elastic Constant Matrix: (Units=GPa)
#
#
# Indices 1 2 3 4 5 6 
#
# 1 103.8832 28.6566 55.8882 7.7567 -7.1426 13.6088
# 2 28.6566 72.9873 53.6860 11.7319 -7.6181 15.4213
# 3 55.8882 53.6860 135.4326 16.1380 -14.4892 11.8593
# 4 7.7567 11.7319 16.1380 32.8002 1.4139 -5.8050
# 5 -7.1426 -7.6181 -14.4892 1.4139 37.5558 7.5659
# 6 13.6088 15.4213 11.8593 -5.8050 7.5659 44.6030
#
#
#
# Elastic Compliance Matrix: (Units=1/GPa)
#
#
# Indices 1 2 3 4 5 6 
#
# 1 0.012771 -0.000888 -0.004431 -0.001056 0.001131 -0.002741
# 2 -0.000888 0.021534 -0.006573 -0.005583 0.003223 -0.006700
# 3 -0.004431 -0.006573 0.012536 -0.002998 0.002892 -0.000589
# 4 -0.001056 -0.005583 -0.002998 0.035987 -0.005594 0.008682
# 5 0.001131 0.003223 0.002892 -0.005594 0.030459 -0.008123
# 6 -0.002741 -0.006700 -0.000589 0.008682 -0.008123 0.028237
#
#
# Mechanical properties :
#
#
# Convention : Reuss Voigt Hill
#
# Bulk Modulus (GPa) = 43.37135 65.41828 54.39481
# Shear Modulus (GPa) = 28.90287 34.59663 31.74975
#
# Velocity S-wave (km/s) = 3.81816 4.17735 4.00178
# Velocity P-wave (km/s) = 6.42759 7.50089 6.98488
#
# Compressibility (1/GPa) = 0.02305670
#
# Stress axis : x y z
#
# Youngs Moduli (GPa) = 78.30411 46.43868 79.76933
#
# Poissons Ratio (x) = 0.04123 0.35348
# Poissons Ratio (y) = 0.06952 0.52432
# Poissons Ratio (z) = 0.34699 0.30524
#
# Static dielectric constant tensor:
#      x y z
#    x 3.977840 0.049370 0.148600 
#    y 0.049370 3.585930 0.714330 
#    z 0.148600 0.714330 4.787300 
# 
# 
# High freq. dielectric constant tensor:
#      x y z
#    x 1.795600 0.007140 -0.009750 
#    y 0.007140 1.748270 0.037680 
#    z -0.009750 0.037680 1.772200 
# 
# From -- ./inp_files/272530.got.cif
#   From: 2010.06.25/outbox.cif.g09.slc.cpg/sg2_137_cif.got.tgz:272530.got - 2010.06.27 13:26:56.
