data_PCOD8038937
_publ_section_title
;
Structure prediction by ZEFSAII (Michael W. Deem and Ramdas Pophale) SiO2 
 PCOD8038937
Probable space group: P -1
;
_chemical_formula_sum "Si O2"
_cell_formula_units_Z 16
_cell_length_a 12.726842
_cell_length_b 11.710437
_cell_length_c 15.730684
_cell_angle_alpha 77.346569
_cell_angle_beta 26.856145
_cell_angle_gamma 62.440742
_cell_volume 821.798625
_symmetry_space_group_name_H-M "P -1"
_symmetry_group_IT_number 2
_symmetry_cell_setting 'triclinic'
loop_
_space_group_symop_operation_xyz
x,y,z
-x,-y,-z
loop_
_atom_site_type_symbol
_atom_site_label
_atom_site_fract_x
_atom_site_fract_y
_atom_site_fract_z
Si Si1 0.093336 0.722452 0.233524
Si Si2 0.618645 0.281690 0.443707
Si Si3 0.821445 0.306597 0.550134
Si Si4 0.923648 0.029256 0.853559
Si Si5 0.867438 0.423149 0.329734
Si Si6 0.319247 0.130050 0.343738
Si Si7 0.216029 0.899567 0.496988
Si Si8 0.611634 0.583179 0.010160
O O1 0.024343 0.846898 0.195063
O O2 0.159675 0.584270 0.158069
O O3 0.811334 0.784272 0.486435
O O4 0.373685 0.681067 0.092901
O O5 0.823036 0.333507 0.307542
O O6 0.326649 0.405649 0.584960
O O7 0.538158 0.240779 0.598153
O O8 0.810487 0.130852 0.273384
O O9 0.764281 0.412653 0.497970
O O10 0.856727 0.161084 0.519595
O O11 0.119978 0.243209 0.394224
O O12 0.547697 0.411530 0.791400
O O13 0.637969 0.081496 0.102999
O O14 0.930830 0.002589 0.749039
O O15 0.206255 0.356702 0.104742
O O16 0.328925 0.986374 0.363037
#
# Coordination Sequence:
#
# PCOD8038937 Si02
#       8
#     2   2   2   2   2   2   2   2
#     4   9  20  38  51  81 109 134 188 218 251 331
#     4   8  19  37  53  76 112 138 178 219 250 322
#     4  10  20  31  50  85 107 131 179 219 259 333
#     4   9  18  34  54  75 104 144 167 221 266 300
#     4  10  19  38  52  78 111 142 175 216 263 314
#     4  10  18  31  56  78 104 141 172 216 278 309
#     4   8  18  32  47  80 110 128 173 219 255 326
#     4  10  21  35  57  75 109 148 170 221 272 301
#
# _framework density 19.469491000000001
#
# number of rings (size 3 to 8) (size 9 to 14) (size 15 to 20)
#    0.750    2.000    0.000    1.125    1.750    1.500 
#    2.250    6.250    0.000    1.500    0.000    0.000 
#    0.000    0.000    0.000    0.000    0.000    0.000 
#
# Total GULP energy -198215.070117 kJ/mol
# GULP energy per Si atom -12388.441882 kJ/mol
# Density = 1.942518 g / cm^3
# Si number density = 19.469491 Si / 1000 Ang^3
#
#
#
# Elastic Constant Matrix: (Units=GPa)
#
#
# Indices 1 2 3 4 5 6 
#
# 1 27.0156 9.5639 10.7837 -2.6438 0.2018 -8.3426
# 2 9.5639 85.5741 15.3123 8.3589 9.4815 -14.4078
# 3 10.7837 15.3123 62.2858 -2.1369 11.2842 -8.2801
# 4 -2.6438 8.3589 -2.1369 23.8097 3.7296 4.6282
# 5 0.2018 9.4815 11.2842 3.7296 20.0460 -0.0121
# 6 -8.3426 -14.4078 -8.2801 4.6282 -0.0121 20.7886
#
#
#
# Elastic Compliance Matrix: (Units=1/GPa)
#
#
# Indices 1 2 3 4 5 6 
#
# 1 0.044519 -0.002231 -0.005945 0.002005 0.003589 0.013507
# 2 -0.002231 0.015212 -0.001232 -0.006969 -0.005176 0.010706
# 3 -0.005945 -0.001232 0.020039 0.002497 -0.011100 0.004180
# 4 0.002005 -0.006969 0.002497 0.048720 -0.007202 -0.013881
# 5 0.003589 -0.005176 -0.011100 -0.007202 0.059883 -0.004930
# 6 0.013507 0.010706 0.004180 -0.013881 -0.004930 0.065696
#
#
# Mechanical properties :
#
#
# Convention : Reuss Voigt Hill
#
# Bulk Modulus (GPa) = 16.40542 27.35503 21.88022
# Shear Modulus (GPa) = 17.05303 22.20990 19.63147
#
# Velocity S-wave (km/s) = 2.96275 3.38117 3.17885
# Velocity P-wave (km/s) = 4.48869 5.41514 4.97354
#
# Compressibility (1/GPa) = 0.06095547
#
# Stress axis : x y z
#
# Youngs Moduli (GPa) = 22.46226 65.73652 49.90173
#
# Poissons Ratio (x) = 0.14666 0.29666
# Poissons Ratio (y) = 0.05011 0.06146
# Poissons Ratio (z) = 0.13354 0.08096
#
# Static dielectric constant tensor:
#      x y z
#    x 3.238970 -0.045190 0.126480 
#    y -0.045190 3.696980 0.087320 
#    z 0.126480 0.087320 3.287670 
# 
# 
# High freq. dielectric constant tensor:
#      x y z
#    x 1.724150 -0.004460 0.014410 
#    y -0.004460 1.772710 0.003130 
#    z 0.014410 0.003130 1.738180 
# 
# From -- ./inp_files/524047.got.cif
#   From: 2010.06.25/outbox.cif.g09.slc.cpg/sg2_263_cif.got.tgz:524047.got - 2010.06.27 13:26:56.
