data_PCOD8038088
_publ_section_title
;
Structure prediction by ZEFSAII (Michael W. Deem and Ramdas Pophale) SiO2 
 PCOD8038088
Probable space group: P -1
;
_chemical_formula_sum "Si O2"
_cell_formula_units_Z 16
_cell_length_a 20.735215
_cell_length_b 12.084050
_cell_length_c 9.159456
_cell_angle_alpha 76.119582
_cell_angle_beta 143.160846
_cell_angle_gamma 129.707687
_cell_volume 855.954370
_symmetry_space_group_name_H-M "P -1"
_symmetry_group_IT_number 2
_symmetry_cell_setting 'triclinic'
loop_
_space_group_symop_operation_xyz
x,y,z
-x,-y,-z
loop_
_atom_site_type_symbol
_atom_site_label
_atom_site_fract_x
_atom_site_fract_y
_atom_site_fract_z
Si Si1 0.685660 0.078673 0.662400
Si Si2 0.845067 0.882707 0.925474
Si Si3 0.207562 0.953522 0.408850
Si Si4 0.585620 0.236811 0.522180
Si Si5 0.192793 0.242168 0.512553
Si Si6 0.184498 0.370049 0.185707
Si Si7 0.905331 0.086561 0.214452
Si Si8 0.690901 0.891075 0.151956
O O1 0.687615 0.215988 0.641869
O O2 0.698251 0.061607 0.518571
O O3 0.514027 0.886062 0.477115
O O4 0.845348 0.157709 0.014545
O O5 0.759783 0.894505 0.646554
O O6 0.781586 0.702043 0.849246
O O7 0.802303 0.900523 0.002662
O O8 0.048964 0.053988 0.220955
O O9 0.289415 0.015875 0.697804
O O10 0.011681 0.760782 0.116450
O O11 0.717540 0.438809 0.749774
O O12 0.463189 0.188948 0.193948
O O13 0.259441 0.391328 0.472941
O O14 0.332867 0.263601 0.806858
O O15 0.104682 0.232053 0.497069
O O16 0.865055 0.045243 0.325829
#
# Coordination Sequence:
#
# PCOD8038088 Si02
#       8
#     2   2   2   2   2   2   2   2
#     4   9  19  42  52  71 102 155 175 207 252 334
#     4   8  15  30  52  79 103 137 165 211 255 315
#     4  10  17  33  63  72 102 137 188 207 253 308
#     4  10  24  34  55  75 113 135 178 212 272 302
#     4   9  16  29  54  80 110 129 172 212 260 311
#     4  11  17  33  55  87  99 139 175 222 248 314
#     4   8  17  30  57  78  98 141 182 207 245 314
#     4  11  18  32  52  85 105 143 164 214 271 318
#
# _framework density 18.692585000000001
#
# number of rings (size 3 to 8) (size 9 to 14) (size 15 to 20)
#    0.750    1.750    3.750    1.125    0.000    1.500 
#    0.000    5.625    2.750    6.750    0.000    0.000 
#    0.000    0.000    0.000    0.000    0.000    0.000 
#
# Total GULP energy -198268.419521 kJ/mol
# GULP energy per Si atom -12391.776220 kJ/mol
# Density = 1.865004 g / cm^3
# Si number density = 18.692585 Si / 1000 Ang^3
#
#
#
# Elastic Constant Matrix: (Units=GPa)
#
#
# Indices 1 2 3 4 5 6 
#
# 1 95.2549 24.0314 24.3970 -9.8627 -11.8638 -13.3917
# 2 24.0314 79.4429 20.5156 8.6592 -0.2665 -20.1633
# 3 24.3970 20.5156 39.9671 -1.9148 -0.2140 -7.7052
# 4 -9.8627 8.6592 -1.9148 19.4064 -4.5414 -0.9258
# 5 -11.8638 -0.2665 -0.2140 -4.5414 22.8495 -11.8464
# 6 -13.3917 -20.1633 -7.7052 -0.9258 -11.8464 29.9028
#
#
#
# Elastic Compliance Matrix: (Units=1/GPa)
#
#
# Indices 1 2 3 4 5 6 
#
# 1 0.018629 -0.002001 -0.006949 0.014871 0.019476 0.013380
# 2 -0.002001 0.018638 -0.006652 -0.008765 0.003015 0.010881
# 3 -0.006949 -0.006652 0.032675 0.001892 -0.003205 -0.000389
# 4 0.014871 -0.008765 0.001892 0.070825 0.029564 0.015142
# 5 0.019476 0.003015 -0.003205 0.029564 0.082281 0.043442
# 6 0.013380 0.010881 -0.000389 0.015142 0.043442 0.064349
#
#
# Mechanical properties :
#
#
# Convention : Reuss Voigt Hill
#
# Bulk Modulus (GPa) = 25.81321 39.17255 32.49288
# Shear Modulus (GPa) = 15.08241 24.14647 19.61444
#
# Velocity S-wave (km/s) = 2.84362 3.59802 3.24283
# Velocity P-wave (km/s) = 4.96194 6.18568 5.60730
#
# Compressibility (1/GPa) = 0.03873985
#
# Stress axis : x y z
#
# Youngs Moduli (GPa) = 53.67973 53.65488 30.60423
#
# Poissons Ratio (x) = 0.10734 0.21266
# Poissons Ratio (y) = 0.10739 0.20357
# Poissons Ratio (z) = 0.37300 0.35690
#
# Static dielectric constant tensor:
#      x y z
#    x 3.571200 -0.029940 0.038800 
#    y -0.029940 3.194660 -0.232870 
#    z 0.038800 -0.232870 2.989210 
# 
# 
# High freq. dielectric constant tensor:
#      x y z
#    x 1.737280 -0.002870 0.001210 
#    y -0.002870 1.697910 -0.026530 
#    z 0.001210 -0.026530 1.684140 
# 
# From -- ./inp_files/345300.got.cif
#   From: 2010.06.25/outbox.cif.g09.slc.cpg/sg2_173_cif.got.tgz:345300.got - 2010.06.27 13:26:56.
