data_PCOD8038938
_publ_section_title
;
Structure prediction by ZEFSAII (Michael W. Deem and Ramdas Pophale) SiO2 
 PCOD8038938
Probable space group: P -1
;
_chemical_formula_sum "Si O2"
_cell_formula_units_Z 16
_cell_length_a 8.334737
_cell_length_b 21.818774
_cell_length_c 12.391569
_cell_angle_alpha 29.776775
_cell_angle_beta 106.844878
_cell_angle_gamma 87.121883
_cell_volume 827.605261
_symmetry_space_group_name_H-M "P -1"
_symmetry_group_IT_number 2
_symmetry_cell_setting 'triclinic'
loop_
_space_group_symop_operation_xyz
x,y,z
-x,-y,-z
loop_
_atom_site_type_symbol
_atom_site_label
_atom_site_fract_x
_atom_site_fract_y
_atom_site_fract_z
Si Si1 0.921322 0.201422 0.249329
Si Si2 0.757540 0.514699 0.834436
Si Si3 0.305986 0.943194 0.580586
Si Si4 0.388059 0.054887 0.223512
Si Si5 0.943905 0.842465 0.165686
Si Si6 0.002756 0.638447 0.675623
Si Si7 0.685105 0.144079 0.804686
Si Si8 0.268593 0.067084 0.692237
O O1 0.097869 0.120524 0.310124
O O2 0.052359 0.117899 0.513509
O O3 0.745135 0.176778 0.234691
O O4 0.783233 0.391962 0.940492
O O5 0.939692 0.526608 0.811520
O O6 0.519597 0.681348 0.537767
O O7 0.802495 0.447062 0.068992
O O8 0.353987 0.954298 0.449101
O O9 0.524951 0.868419 0.807425
O O10 0.573989 0.938115 0.351836
O O11 0.167201 0.179930 0.921411
O O12 0.059801 0.687827 0.502927
O O13 0.123735 0.849138 0.142852
O O14 0.761114 0.010538 0.933243
O O15 0.787389 0.801617 0.433409
O O16 0.625193 0.099352 0.971587
#
# Coordination Sequence:
#
# PCOD8038938 Si02
#       8
#     2   2   2   2   2   2   2   2
#     4   9  18  35  56  76 104 136 171 219 263 299
#     4  10  19  33  54  79 107 137 167 209 262 310
#     4   9  19  34  54  79 100 132 183 221 253 302
#     4  10  18  31  56  79  98 130 178 221 250 291
#     4  10  20  34  53  78 109 141 170 207 252 312
#     4   9  19  34  52  80 110 135 167 203 258 323
#     4  10  20  33  53  82 109 136 171 204 254 321
#     4   9  17  32  56  80 105 137 167 206 258 315
#
# _framework density 19.332889999999999
#
# number of rings (size 3 to 8) (size 9 to 14) (size 15 to 20)
#    0.000    2.500    0.000    2.250    0.000    4.500 
#    0.000    6.250    0.000   22.500    0.000    0.000 
#    0.000    0.000    0.000    0.000    0.000    0.000 
#
# Total GULP energy -198299.171083 kJ/mol
# GULP energy per Si atom -12393.698193 kJ/mol
# Density = 1.928889 g / cm^3
# Si number density = 19.332890 Si / 1000 Ang^3
#
#
#
# Elastic Constant Matrix: (Units=GPa)
#
#
# Indices 1 2 3 4 5 6 
#
# 1 98.4587 45.8763 38.0232 6.0688 -11.3150 0.4004
# 2 45.8763 70.0190 39.9853 7.4008 -9.1495 7.5720
# 3 38.0232 39.9853 116.9882 2.9149 -2.7372 -2.3648
# 4 6.0688 7.4008 2.9149 27.9525 -0.2029 -3.1562
# 5 -11.3150 -9.1495 -2.7372 -0.2029 25.8116 5.4023
# 6 0.4004 7.5720 -2.3648 -3.1562 5.4023 32.7189
#
#
#
# Elastic Compliance Matrix: (Units=1/GPa)
#
#
# Indices 1 2 3 4 5 6 
#
# 1 0.015291 -0.008520 -0.001943 -0.000721 0.003254 0.001037
# 2 -0.008520 0.025343 -0.005776 -0.005081 0.006206 -0.007693
# 3 -0.001943 -0.005776 0.011127 0.001073 -0.002264 0.002642
# 4 -0.000721 -0.005081 0.001073 0.037751 -0.002831 0.005371
# 5 0.003254 0.006206 -0.002264 -0.002831 0.044028 -0.009182
# 6 0.001037 -0.007693 0.002642 0.005371 -0.009182 0.034556
#
#
# Mechanical properties :
#
#
# Convention : Reuss Voigt Hill
#
# Bulk Modulus (GPa) = 51.85972 59.24838 55.55405
# Shear Modulus (GPa) = 24.15438 28.06866 26.11152
#
# Velocity S-wave (km/s) = 3.53851 3.81446 3.67907
# Velocity P-wave (km/s) = 6.60133 7.07906 6.84437
#
# Compressibility (1/GPa) = 0.01928279
#
# Stress axis : x y z
#
# Youngs Moduli (GPa) = 65.39922 39.45909 89.86873
#
# Poissons Ratio (x) = 0.33618 0.17459
# Poissons Ratio (y) = 0.55719 0.51912
# Poissons Ratio (z) = 0.12705 0.22793
#
# Static dielectric constant tensor:
#      x y z
#    x 3.546020 0.121370 -0.081140 
#    y 0.121370 3.558070 0.144540 
#    z -0.081140 0.144540 3.376160 
# 
# 
# High freq. dielectric constant tensor:
#      x y z
#    x 1.758620 0.013080 -0.005710 
#    y 0.013080 1.739860 0.016910 
#    z -0.005710 0.016910 1.727610 
# 
# From -- ./inp_files/176368.got.cif
#   From: 2010.06.25/outbox.cif.g09.slc.cpg/sg2_89_cif.got.tgz:176368.got - 2010.06.27 13:26:56.
