data_PCOD8038387
_publ_section_title
;
Structure prediction by ZEFSAII (Michael W. Deem and Ramdas Pophale) SiO2 
 PCOD8038387
Probable space group: P -1
;
_chemical_formula_sum "Si O2"
_cell_formula_units_Z 14
_cell_length_a 9.627804
_cell_length_b 11.691868
_cell_length_c 15.331765
_cell_angle_alpha 125.966449
_cell_angle_beta 150.070943
_cell_angle_gamma 56.248020
_cell_volume 692.262022
_symmetry_space_group_name_H-M "P -1"
_symmetry_group_IT_number 2
_symmetry_cell_setting 'triclinic'
loop_
_space_group_symop_operation_xyz
x,y,z
-x,-y,-z
loop_
_atom_site_type_symbol
_atom_site_label
_atom_site_fract_x
_atom_site_fract_y
_atom_site_fract_z
Si Si1 0.088121 0.641945 0.890571
Si Si2 0.201322 0.515247 0.460717
Si Si3 0.492956 0.737964 0.398333
Si Si4 0.013653 0.855493 0.786461
Si Si5 0.611158 0.276225 0.221433
Si Si6 0.605615 0.537714 0.223341
Si Si7 0.926762 0.830109 0.052135
O O1 0.113178 0.751794 0.874085
O O2 0.883372 0.518546 0.700416
O O3 0.400238 0.563926 0.040719
O O4 0.962948 0.717600 0.943159
O O5 0.462570 0.399648 0.575828
O O6 0.259116 0.674270 0.592077
O O7 0.922463 0.478696 0.344768
O O8 0.600393 0.687614 0.337926
O O9 0.680205 0.856386 0.589136
O O10 0.167890 0.800382 0.243869
O O11 0.167709 0.814940 0.760656
O O12 0.071531 0.012911 0.915972
O O13 0.489981 0.421113 0.171298
O O14 0.366612 0.180412 0.065153
#
# Coordination Sequence:
#
# PCOD8038387 Si02
#       7
#     2   2   2   2   2   2   2
#     4  10  22  34  61  83 109 146 186 229 277 320
#     4  10  18  35  61  81 109 141 190 230 272 329
#     4   9  18  34  59  82 104 146 188 227 266 319
#     4  11  20  40  60  77 111 156 190 213 261 348
#     4  11  21  36  60  84 113 141 184 235 278 317
#     4  10  17  35  61  87 104 138 193 234 268 327
#     4  11  24  36  53  88 118 143 180 229 279 322
#
# _framework density 20.223555000000001
#
# number of rings (size 3 to 8) (size 9 to 14) (size 15 to 20)
#    0.000    1.714    4.286    2.571    0.000    5.714 
#    0.000    1.429    0.000    0.857    0.000    0.000 
#    0.000    0.000    0.000    0.000    0.000    0.000 
#
# Total GULP energy -173458.528095 kJ/mol
# GULP energy per Si atom -12389.894864 kJ/mol
# Density = 2.017753 g / cm^3
# Si number density = 20.223555 Si / 1000 Ang^3
#
#
#
# Elastic Constant Matrix: (Units=GPa)
#
#
# Indices 1 2 3 4 5 6 
#
# 1 34.9143 -6.6232 14.0247 9.7620 -1.6918 -5.7876
# 2 -6.6232 37.8040 17.0943 6.8997 -4.7387 -0.3694
# 3 14.0247 17.0943 104.8384 7.7490 -10.7234 5.4972
# 4 9.7620 6.8997 7.7490 20.3415 0.3880 -2.9073
# 5 -1.6918 -4.7387 -10.7234 0.3880 28.9107 3.4928
# 6 -5.7876 -0.3694 5.4972 -2.9073 3.4928 20.7625
#
#
#
# Elastic Compliance Matrix: (Units=1/GPa)
#
#
# Indices 1 2 3 4 5 6 
#
# 1 0.041786 0.014485 -0.006831 -0.020877 0.001288 0.010574
# 2 0.014485 0.035316 -0.006258 -0.016144 0.004125 0.003368
# 3 -0.006831 -0.006258 0.012183 -0.000157 0.003809 -0.005904
# 4 -0.020877 -0.016144 -0.000157 0.065385 -0.005284 0.003979
# 5 0.001288 0.004125 0.003809 -0.005284 0.037751 -0.007667
# 6 0.010574 0.003368 -0.005904 0.003979 -0.007667 0.054581
#
#
# Mechanical properties :
#
#
# Convention : Reuss Voigt Hill
#
# Bulk Modulus (GPa) = 10.86043 25.17203 18.01623
# Shear Modulus (GPa) = 18.18829 24.20702 21.19765
#
# Velocity S-wave (km/s) = 3.00219 3.46348 3.24105
# Velocity P-wave (km/s) = 4.17125 5.33556 4.78892
#
# Compressibility (1/GPa) = 0.09207740
#
# Stress axis : x y z
#
# Youngs Moduli (GPa) = 23.93151 28.31588 82.07863
#
# Poissons Ratio (x) = -0.41015 0.56070
# Poissons Ratio (y) = -0.34665 0.51361
# Poissons Ratio (z) = 0.16348 0.17719
#
# Static dielectric constant tensor:
#      x y z
#    x 3.397260 -0.226730 -0.264710 
#    y -0.226730 3.491580 0.128610 
#    z -0.264710 0.128610 4.030620 
# 
# 
# High freq. dielectric constant tensor:
#      x y z
#    x 1.764870 -0.022140 -0.014210 
#    y -0.022140 1.769750 0.007350 
#    z -0.014210 0.007350 1.803560 
# 
# From -- ./inp_files/168021.got.cif
#   From: 2010.06.25/outbox.cif.g09.slc.cpg/sg2_85_cif.got.tgz:168021.got - 2010.06.27 13:26:56.
