data_PCOD8038083
_publ_section_title
;
Structure prediction by ZEFSAII (Michael W. Deem and Ramdas Pophale) SiO2 
 PCOD8038083
Probable space group: P -1
;
_chemical_formula_sum "Si O2"
_cell_formula_units_Z 14
_cell_length_a 11.817422
_cell_length_b 11.034219
_cell_length_c 9.073917
_cell_angle_alpha 119.723082
_cell_angle_beta 101.616690
_cell_angle_gamma 43.258114
_cell_volume 678.318937
_symmetry_space_group_name_H-M "P -1"
_symmetry_group_IT_number 2
_symmetry_cell_setting 'triclinic'
loop_
_space_group_symop_operation_xyz
x,y,z
-x,-y,-z
loop_
_atom_site_type_symbol
_atom_site_label
_atom_site_fract_x
_atom_site_fract_y
_atom_site_fract_z
Si Si1 0.998966 0.678817 0.767073
Si Si2 0.915721 0.831986 0.147141
Si Si3 0.516545 0.442312 0.637964
Si Si4 0.384203 0.958065 0.598813
Si Si5 0.147142 0.799791 0.743405
Si Si6 0.866698 0.245695 0.610360
Si Si7 0.263359 0.224462 0.454981
O O1 0.016801 0.829531 0.830391
O O2 0.169553 0.449153 0.618395
O O3 0.832921 0.765417 0.696732
O O4 0.973407 0.680957 0.937453
O O5 0.052524 0.700571 0.239261
O O6 0.729487 0.950085 0.227211
O O7 0.917228 0.989164 0.183569
O O8 0.500000 0.500000 0.500000
O O9 0.548433 0.251961 0.555403
O O10 0.332217 0.645446 0.782598
O O11 0.680746 0.374613 0.710810
O O12 0.547027 0.912749 0.639909
O O13 0.268395 0.117053 0.530690
O O14 0.161484 0.692525 0.532006
O O15 0.000000 0.000000 0.500000
#
# Coordination Sequence:
#
# PCOD8038083 Si02
#       7
#     2   2   2   2   2   2   2
#     4  11  23  41  57  88 121 150 202 235 290 343
#     4  11  22  36  63  92 116 145 189 262 289 331
#     4  10  17  33  62  89 112 148 196 234 286 354
#     4  11  20  41  62  84 114 154 208 229 283 350
#     4  10  19  36  61  88 117 152 185 240 302 351
#     4   9  17  31  56  92 109 148 185 226 309 335
#     4  10  25  40  62  79 113 175 192 231 279 352
#
# _framework density 20.639258000000002
#
# number of rings (size 3 to 8) (size 9 to 14) (size 15 to 20)
#    0.000    1.714    5.714    1.286    2.000    1.143 
#    0.000    3.571    0.000    0.000    0.000    0.000 
#    0.000    0.000    0.000    0.000    0.000    0.000 
#
# Total GULP energy -173515.014920 kJ/mol
# GULP energy per Si atom -12393.929637 kJ/mol
# Density = 2.059228 g / cm^3
# Si number density = 20.639258 Si / 1000 Ang^3
#
#
#
# Elastic Constant Matrix: (Units=GPa)
#
#
# Indices 1 2 3 4 5 6 
#
# 1 88.4600 24.3197 37.6914 -6.5205 -5.6151 -11.4823
# 2 24.3197 76.9568 17.9108 -12.5506 6.6688 -14.0595
# 3 37.6914 17.9108 90.4697 -16.5486 -8.2057 -22.7828
# 4 -6.5205 -12.5506 -16.5486 16.7667 -0.1322 3.7063
# 5 -5.6151 6.6688 -8.2057 -0.1322 18.0192 -1.9751
# 6 -11.4823 -14.0595 -22.7828 3.7063 -1.9751 45.5925
#
#
#
# Elastic Compliance Matrix: (Units=1/GPa)
#
#
# Indices 1 2 3 4 5 6 
#
# 1 0.014834 -0.004157 -0.005514 -0.002775 0.003639 0.000082
# 2 -0.004157 0.017186 0.000549 0.010998 -0.006960 0.003331
# 3 -0.005514 0.000549 0.018430 0.014947 0.007358 0.007094
# 4 -0.002775 0.010998 0.014947 0.080748 0.002872 0.003722
# 5 0.003639 -0.006960 0.007358 0.002872 0.063120 0.004948
# 6 0.000082 0.003331 0.007094 0.003722 0.004948 0.026438
#
#
# Mechanical properties :
#
#
# Convention : Reuss Voigt Hill
#
# Bulk Modulus (GPa) = 31.05113 46.19227 38.62170
# Shear Modulus (GPa) = 20.02123 27.80665 23.91394
#
# Velocity S-wave (km/s) = 3.11795 3.67450 3.40761
# Velocity P-wave (km/s) = 5.29523 6.35861 5.85113
#
# Compressibility (1/GPa) = 0.03220495
#
# Stress axis : x y z
#
# Youngs Moduli (GPa) = 67.41276 58.18790 54.25990
#
# Poissons Ratio (x) = 0.24191 0.29919
# Poissons Ratio (y) = 0.28026 -0.02980
# Poissons Ratio (z) = 0.37171 -0.03195
#
# Static dielectric constant tensor:
#      x y z
#    x 3.351860 0.667900 0.155480 
#    y 0.667900 2.376620 -0.621170 
#    z 0.155480 -0.621170 3.563770 
# 
# 
# High freq. dielectric constant tensor:
#      x y z
#    x 1.819120 -0.011000 -0.008090 
#    y -0.011000 1.811610 -0.009820 
#    z -0.008090 -0.009820 1.765010 
# 
# From -- ./inp_files/175467.got.cif
#   From: 2010.06.25/outbox.cif.g09.slc.cpg/sg2_88_cif.got.tgz:175467.got - 2010.06.27 13:26:56.
