data_PCOD8038148
_publ_section_title
;
Structure prediction by ZEFSAII (Michael W. Deem and Ramdas Pophale) SiO2 
 PCOD8038148
Probable space group: P -1
;
_chemical_formula_sum "Si O2"
_cell_formula_units_Z 16
_cell_length_a 12.225938
_cell_length_b 14.809657
_cell_length_c 12.003120
_cell_angle_alpha 151.869415
_cell_angle_beta 128.325898
_cell_angle_gamma 60.075037
_cell_volume 797.053413
_symmetry_space_group_name_H-M "P -1"
_symmetry_group_IT_number 2
_symmetry_cell_setting 'triclinic'
loop_
_space_group_symop_operation_xyz
x,y,z
-x,-y,-z
loop_
_atom_site_type_symbol
_atom_site_label
_atom_site_fract_x
_atom_site_fract_y
_atom_site_fract_z
Si Si1 0.288823 0.592666 0.898421
Si Si2 0.423913 0.910476 0.464264
Si Si3 0.856240 0.796989 0.644484
Si Si4 0.883838 0.295764 0.430636
Si Si5 0.015129 0.296784 0.143100
Si Si6 0.046461 0.720369 0.297043
Si Si7 0.868063 0.033733 0.583029
Si Si8 0.318434 0.894714 0.071189
O O1 0.282719 0.361660 0.637008
O O2 0.125502 0.619969 0.820735
O O3 0.370378 0.681650 0.158089
O O4 0.355830 0.706453 0.956533
O O5 0.285792 0.013037 0.511374
O O6 0.500000 0.000000 0.500000
O O7 0.537274 0.953664 0.683416
O O8 0.913667 0.782761 0.790347
O O9 0.975192 0.784769 0.613480
O O10 0.799135 0.003983 0.823077
O O11 0.883032 0.520437 0.643401
O O12 0.867764 0.267148 0.520699
O O13 0.743486 0.170029 0.157902
O O14 0.985145 0.129719 0.849445
O O15 0.143443 0.818586 0.366123
O O16 0.910122 0.832333 0.345886
O O17 0.000000 0.500000 0.000000
#
# Coordination Sequence:
#
# PCOD8038148 Si02
#       8
#     2   2   2   2   2   2   2   2
#     4   9  18  33  47  76 116 147 182 227 280 338
#     4   9  21  37  58  83 120 158 185 228 286 352
#     4  11  20  30  55  87 116 148 182 238 301 332
#     4  11  20  33  57  83 117 145 193 241 282 340
#     4  10  17  34  56  81 117 143 178 249 294 329
#     4  11  23  39  62  90 109 151 198 245 285 328
#     4  10  22  41  61  84 120 149 191 241 287 335
#     4  11  20  33  53  82 115 153 187 224 288 352
#
# _framework density 20.073937000000001
#
# number of rings (size 3 to 8) (size 9 to 14) (size 15 to 20)
#    0.000    1.750    3.750    1.875    5.250    0.500 
#    0.000    3.125    0.000    0.750    0.000    0.000 
#    0.000    0.000    0.000    0.000    0.000    0.000 
#
# Total GULP energy -198309.368875 kJ/mol
# GULP energy per Si atom -12394.335555 kJ/mol
# Density = 2.002825 g / cm^3
# Si number density = 20.073937 Si / 1000 Ang^3
#
#
#
# Elastic Constant Matrix: (Units=GPa)
#
#
# Indices 1 2 3 4 5 6 
#
# 1 67.2537 17.1670 37.0300 -5.9781 -1.2270 6.3476
# 2 17.1670 46.6790 41.2272 -6.2553 -0.4044 15.6780
# 3 37.0300 41.2272 165.8400 -21.5509 6.6176 -4.4811
# 4 -5.9781 -6.2553 -21.5509 39.7530 -5.4702 -3.6215
# 5 -1.2270 -0.4044 6.6176 -5.4702 28.2986 -4.9298
# 6 6.3476 15.6780 -4.4811 -3.6215 -4.9298 25.3506
#
#
#
# Elastic Compliance Matrix: (Units=1/GPa)
#
#
# Indices 1 2 3 4 5 6 
#
# 1 0.017735 -0.002218 -0.003511 0.000237 0.001001 -0.003461
# 2 -0.002218 0.040149 -0.010440 -0.002434 -0.002238 -0.026903
# 3 -0.003511 -0.010440 0.010229 0.004234 -0.000183 0.009713
# 4 0.000237 -0.002434 0.004234 0.028576 0.005799 0.007405
# 5 0.001001 -0.002238 -0.000183 0.005799 0.038141 0.009347
# 6 -0.003461 -0.026903 0.009713 0.007405 0.009347 0.061544
#
#
# Mechanical properties :
#
#
# Convention : Reuss Voigt Hill
#
# Bulk Modulus (GPa) = 27.95252 52.29120 40.12186
# Shear Modulus (GPa) = 20.77819 30.97035 25.87427
#
# Velocity S-wave (km/s) = 3.22076 3.93213 3.59409
# Velocity P-wave (km/s) = 5.27125 6.83530 6.10358
#
# Compressibility (1/GPa) = 0.03577495
#
# Stress axis : x y z
#
# Youngs Moduli (GPa) = 56.38724 24.90697 97.75990
#
# Poissons Ratio (x) = 0.05525 0.34324
# Poissons Ratio (y) = 0.12509 1.02058
# Poissons Ratio (z) = 0.19798 0.26002
#
# Static dielectric constant tensor:
#      x y z
#    x 3.398940 0.047860 0.100610 
#    y 0.047860 3.655640 -0.053460 
#    z 0.100610 -0.053460 4.411660 
# 
# 
# High freq. dielectric constant tensor:
#      x y z
#    x 1.729950 0.008340 -0.001000 
#    y 0.008340 1.772250 0.003460 
#    z -0.001000 0.003460 1.810860 
# 
# From -- ./inp_files/424438.got.cif
#   From: 2010.06.25/outbox.cif.g09.slc.cpg/sg2_213_cif.got.tgz:424438.got - 2010.06.27 13:26:56.
