data_PCOD8038782
_publ_section_title
;
Structure prediction by ZEFSAII (Michael W. Deem and Ramdas Pophale) SiO2 
 PCOD8038782
Probable space group: P -1
;
_chemical_formula_sum "Si O2"
_cell_formula_units_Z 16
_cell_length_a 9.385299
_cell_length_b 11.775237
_cell_length_c 19.757957
_cell_angle_alpha 49.866761
_cell_angle_beta 75.291456
_cell_angle_gamma 117.135712
_cell_volume 880.892476
_symmetry_space_group_name_H-M "P -1"
_symmetry_group_IT_number 2
_symmetry_cell_setting 'triclinic'
loop_
_space_group_symop_operation_xyz
x,y,z
-x,-y,-z
loop_
_atom_site_type_symbol
_atom_site_label
_atom_site_fract_x
_atom_site_fract_y
_atom_site_fract_z
Si Si1 0.405317 0.509107 0.905872
Si Si2 0.290316 0.135392 0.149302
Si Si3 0.802856 0.970197 0.164603
Si Si4 0.519618 0.221074 0.851873
Si Si5 0.272987 0.193723 0.626418
Si Si6 0.621231 0.481756 0.351660
Si Si7 0.698259 0.700855 0.664919
Si Si8 0.827749 0.181905 0.829492
O O1 0.497227 0.709211 0.874132
O O2 0.625560 0.698280 0.748225
O O3 0.419950 0.360243 0.995187
O O4 0.108721 0.285437 0.996278
O O5 0.249905 0.949064 0.184630
O O6 0.015741 0.968917 0.278894
O O7 0.621922 0.901383 0.157955
O O8 0.725777 0.936374 0.266216
O O9 0.775031 0.767422 0.239969
O O10 0.675694 0.505263 0.734941
O O11 0.738916 0.276895 0.805954
O O12 0.302553 0.019702 0.015217
O O13 0.500000 0.500000 0.500000
O O14 0.368123 0.219456 0.530985
O O15 0.505995 0.389796 0.325972
O O16 0.849538 0.548499 0.303813
O O17 0.000000 0.000000 0.500000
#
# Coordination Sequence:
#
# PCOD8038782 Si02
#       8
#     2   2   2   2   2   2   2   2
#     4  10  18  31  53  80 106 134 184 218 269 301
#     4  10  18  30  53  82 107 137 171 229 258 315
#     4   9  17  33  53  77 105 135 184 227 253 307
#     4  10  22  35  55  80 110 140 180 220 264 321
#     4   9  15  29  50  76 104 130 181 216 261 305
#     4  10  18  32  57  78 103 143 180 222 262 312
#     4  11  21  35  55  81 110 138 179 226 265 309
#     4  11  19  36  56  81 109 142 176 218 271 318
#
# _framework density 18.163397
#
# number of rings (size 3 to 8) (size 9 to 14) (size 15 to 20)
#    0.000    2.000    5.000    1.500    0.000    2.000 
#    0.000    1.875    0.000    0.000    0.000    0.000 
#    0.000    0.000    0.000    0.000    0.000    0.000 
#
# Total GULP energy -198292.419531 kJ/mol
# GULP energy per Si atom -12393.276221 kJ/mol
# Density = 1.812206 g / cm^3
# Si number density = 18.163397 Si / 1000 Ang^3
#
#
#
# Elastic Constant Matrix: (Units=GPa)
#
#
# Indices 1 2 3 4 5 6 
#
# 1 71.9034 32.4775 33.9139 8.0483 -5.0684 10.2307
# 2 32.4775 87.6808 33.6392 7.7878 0.1099 11.0832
# 3 33.9139 33.6392 115.5356 14.8798 -13.4786 5.4883
# 4 8.0483 7.7878 14.8798 27.1500 -0.5475 -6.1091
# 5 -5.0684 0.1099 -13.4786 -0.5475 20.2216 1.3654
# 6 10.2307 11.0832 5.4883 -6.1091 1.3654 19.4219
#
#
#
# Elastic Compliance Matrix: (Units=1/GPa)
#
#
# Indices 1 2 3 4 5 6 
#
# 1 0.019309 -0.004544 -0.002959 -0.004629 0.003336 -0.008432
# 2 -0.004544 0.015191 -0.002723 -0.002980 -0.002695 -0.006254
# 3 -0.002959 -0.002723 0.011964 -0.005303 0.007269 -0.002447
# 4 -0.004629 -0.002980 -0.005303 0.046505 -0.004811 0.020603
# 5 0.003336 -0.002695 0.007269 -0.004811 0.055537 -0.007691
# 6 -0.008432 -0.006254 -0.002447 0.020603 -0.007691 0.067212
#
#
# Mechanical properties :
#
#
# Convention : Reuss Voigt Hill
#
# Bulk Modulus (GPa) = 38.44301 52.79789 45.62045
# Shear Modulus (GPa) = 20.42151 25.03131 22.72641
#
# Velocity S-wave (km/s) = 3.35673 3.71633 3.54110
# Velocity P-wave (km/s) = 6.01951 6.89538 6.47228
#
# Compressibility (1/GPa) = 0.02601253
#
# Stress axis : x y z
#
# Youngs Moduli (GPa) = 51.79026 65.82717 83.58471
#
# Poissons Ratio (x) = 0.29912 0.24731
# Poissons Ratio (y) = 0.23534 0.22758
# Poissons Ratio (z) = 0.15324 0.17923
#
# Static dielectric constant tensor:
#      x y z
#    x 2.982690 0.259920 -0.090640 
#    y 0.259920 3.695900 0.331180 
#    z -0.090640 0.331180 3.645730 
# 
# 
# High freq. dielectric constant tensor:
#      x y z
#    x 1.660720 0.029570 -0.013860 
#    y 0.029570 1.707390 0.014660 
#    z -0.013860 0.014660 1.713340 
# 
# From -- ./inp_files/258159.got.cif
#   From: 2010.06.25/outbox.cif.g09.slc.cpg/sg2_130_cif.got.tgz:258159.got - 2010.06.27 13:26:56.
