data_PCOD8038624
_publ_section_title
;
Structure prediction by ZEFSAII (Michael W. Deem and Ramdas Pophale) SiO2 
 PCOD8038624
Probable space group: P -1
;
_chemical_formula_sum "Si O2"
_cell_formula_units_Z 14
_cell_length_a 12.795444
_cell_length_b 14.683590
_cell_length_c 14.780772
_cell_angle_alpha 19.824273
_cell_angle_beta 66.298531
_cell_angle_gamma 65.688870
_cell_volume 857.316959
_symmetry_space_group_name_H-M "P -1"
_symmetry_group_IT_number 2
_symmetry_cell_setting 'triclinic'
loop_
_space_group_symop_operation_xyz
x,y,z
-x,-y,-z
loop_
_atom_site_type_symbol
_atom_site_label
_atom_site_fract_x
_atom_site_fract_y
_atom_site_fract_z
Si Si1 0.757229 0.629011 0.055364
Si Si2 0.471214 0.142914 0.173086
Si Si3 0.382831 0.583293 0.012303
Si Si4 0.488389 0.130556 0.761054
Si Si5 0.865537 0.039046 0.523517
Si Si6 0.378317 0.373981 0.728465
Si Si7 0.688980 0.942556 0.531294
O O1 0.824038 0.352313 0.257199
O O2 0.739140 0.632106 0.167912
O O3 0.632595 0.663892 0.017442
O O4 0.830750 0.874290 0.777502
O O5 0.579925 0.307843 0.004571
O O6 0.421232 0.016740 0.399970
O O7 0.522939 0.902296 0.312682
O O8 0.308290 0.810306 0.768345
O O9 0.500000 0.500000 0.000000
O O10 0.311722 0.324408 0.281767
O O11 0.372900 0.269982 0.722477
O O12 0.589178 0.320961 0.565936
O O13 0.521296 0.831113 0.069185
O O14 0.806318 0.917936 0.570396
O O15 0.000000 0.000000 0.500000
#
# Coordination Sequence:
#
# PCOD8038624 Si02
#       7
#     2   2   2   2   2   2   2
#     4  10  19  30  46  64  89 116 143 175 215 258
#     4   9  17  28  43  64  89 119 143 163 203 253
#     4  10  18  27  41  60  86 115 143 166 199 252
#     4   9  17  25  41  61  88 117 145 168 196 249
#     4  11  21  33  47  63  83 111 149 187 219 251
#     4   9  16  28  40  61  87 116 142 171 207 245
#     4  10  19  29  41  59  85 114 142 174 208 247
#
# _framework density 16.330016000000001
#
# number of rings (size 3 to 8) (size 9 to 14) (size 15 to 20)
#    0.000    2.286    0.000    7.286    0.000    5.714 
#    0.000    0.000    0.000    0.000    0.000    0.000 
#    0.000    6.857    0.000    0.000    0.000    0.429 
#
# Total GULP energy -173454.357565 kJ/mol
# GULP energy per Si atom -12389.596969 kJ/mol
# Density = 1.629285 g / cm^3
# Si number density = 16.330016 Si / 1000 Ang^3
#
#
#
# Elastic Constant Matrix: (Units=GPa)
#
#
# Indices 1 2 3 4 5 6 
#
# 1 63.6889 38.4190 14.3034 -2.9855 -9.7893 -1.9108
# 2 38.4190 103.0975 17.2619 -8.1058 -3.7788 8.2129
# 3 14.3034 17.2619 77.6227 -4.3262 -0.9761 -2.6843
# 4 -2.9855 -8.1058 -4.3262 24.2922 0.5896 -6.3937
# 5 -9.7893 -3.7788 -0.9761 0.5896 13.6510 -4.0135
# 6 -1.9108 8.2129 -2.6843 -6.3937 -4.0135 16.2736
#
#
#
# Elastic Compliance Matrix: (Units=1/GPa)
#
#
# Indices 1 2 3 4 5 6 
#
# 1 0.025073 -0.009183 -0.001739 0.002677 0.019031 0.013037
# 2 -0.009183 0.014038 -0.001781 0.000873 -0.005660 -0.009510
# 3 -0.001739 -0.001781 0.013901 0.002753 0.000358 0.004158
# 4 0.002677 0.000873 0.002753 0.047536 0.006353 0.020571
# 5 0.019031 -0.005660 0.000358 0.006353 0.094162 0.030869
# 6 0.013037 -0.009510 0.004158 0.020571 0.030869 0.084160
#
#
# Mechanical properties :
#
#
# Convention : Reuss Voigt Hill
#
# Bulk Modulus (GPa) = 36.22250 42.70861 39.46555
# Shear Modulus (GPa) = 15.95002 22.47168 19.21085
#
# Velocity S-wave (km/s) = 3.12866 3.71360 3.43361
# Velocity P-wave (km/s) = 5.93978 6.67817 6.31977
#
# Compressibility (1/GPa) = 0.02760715
#
# Stress axis : x y z
#
# Youngs Moduli (GPa) = 39.88360 71.23287 71.93709
#
# Poissons Ratio (x) = 0.65411 0.12508
# Poissons Ratio (y) = 0.36624 0.12813
# Poissons Ratio (z) = 0.06935 0.12688
#
# Static dielectric constant tensor:
#      x y z
#    x 3.290930 0.649590 -0.254430 
#    y 0.649590 3.783520 -0.169360 
#    z -0.254430 -0.169360 3.390310 
# 
# 
# High freq. dielectric constant tensor:
#      x y z
#    x 1.562650 0.019820 -0.003670 
#    y 0.019820 1.620330 -0.011370 
#    z -0.003670 -0.011370 1.648890 
# 
# From -- ./inp_files/74976.got.cif
#   From: 2010.06.25/outbox.cif.g09.slc.cpg/sg2_38_cif.got.tgz:74976.got - 2010.06.27 13:26:56.
