data_PCOD8038973
_publ_section_title
;
Structure prediction by ZEFSAII (Michael W. Deem and Ramdas Pophale) SiO2 
 PCOD8038973
Probable space group: P -1
;
_chemical_formula_sum "Si O2"
_cell_formula_units_Z 16
_cell_length_a 15.215830
_cell_length_b 20.494990
_cell_length_c 15.117320
_cell_angle_alpha 140.131322
_cell_angle_beta 160.953425
_cell_angle_gamma 37.183475
_cell_volume 927.302102
_symmetry_space_group_name_H-M "P -1"
_symmetry_group_IT_number 2
_symmetry_cell_setting 'triclinic'
loop_
_space_group_symop_operation_xyz
x,y,z
-x,-y,-z
loop_
_atom_site_type_symbol
_atom_site_label
_atom_site_fract_x
_atom_site_fract_y
_atom_site_fract_z
Si Si1 0.015075 0.618841 0.650066
Si Si2 0.713006 0.411634 0.300559
Si Si3 0.816990 0.617983 0.145355
Si Si4 0.121351 0.872290 0.485528
Si Si5 0.314403 0.244686 0.002281
Si Si6 0.287343 0.721367 0.330249
Si Si7 0.145891 0.389726 0.152700
Si Si8 0.529509 0.350607 0.750288
O O1 0.128558 0.655223 0.705315
O O2 0.000000 0.500000 0.500000
O O3 0.688090 0.690242 0.439995
O O4 0.227733 0.625608 0.936913
O O5 0.646392 0.538760 0.353137
O O6 0.921645 0.369278 0.537618
O O7 0.421446 0.388795 0.019122
O O8 0.936419 0.512555 0.087302
O O9 0.689505 0.721500 0.068548
O O10 0.371505 0.832675 0.753798
O O11 0.232213 0.830318 0.448327
O O12 0.000000 0.000000 0.500000
O O13 0.884576 0.825704 0.245118
O O14 0.212365 0.354907 0.077713
O O15 0.557192 0.626651 0.530900
O O16 0.341760 0.739604 0.297322
O O17 0.007757 0.686949 0.028815
#
# Coordination Sequence:
#
# PCOD8038973 Si02
#       8
#     2   2   2   2   2   2   2   2
#     4  10  20  29  43  64  95 137 172 201 229 273
#     4  11  20  29  44  66  99 139 168 193 240 267
#     4  12  19  31  47  69 103 132 168 196 224 293
#     4  10  21  39  55  72 100 123 158 211 257 288
#     4  10  22  33  52  74  94 130 166 196 244 290
#     4  10  19  30  51  73  93 132 167 197 242 286
#     4  10  18  32  44  69 102 131 162 197 231 276
#     4  11  17  31  45  65  98 129 176 200 226 282
#
# _framework density 17.254355
#
# number of rings (size 3 to 8) (size 9 to 14) (size 15 to 20)
#    0.000    1.500    2.500    6.000    0.000    0.000 
#    0.000    5.000    0.000    0.000    0.000    0.000 
#    0.000   20.000    0.000    0.000    0.000    0.000 
#
# Total GULP energy -198349.345344 kJ/mol
# GULP energy per Si atom -12396.834084 kJ/mol
# Density = 1.721508 g / cm^3
# Si number density = 17.254355 Si / 1000 Ang^3
#
#
#
# Elastic Constant Matrix: (Units=GPa)
#
#
# Indices 1 2 3 4 5 6 
#
# 1 98.4503 36.5093 32.4355 -2.6808 -0.2853 -3.2220
# 2 36.5093 67.7879 26.8284 -5.2443 -7.4326 -3.0130
# 3 32.4355 26.8284 102.3323 -15.7934 -0.9898 -1.2289
# 4 -2.6808 -5.2443 -15.7934 14.8021 -2.1932 0.8196
# 5 -0.2853 -7.4326 -0.9898 -2.1932 35.1050 -2.7614
# 6 -3.2220 -3.0130 -1.2289 0.8196 -2.7614 13.2897
#
#
#
# Elastic Compliance Matrix: (Units=1/GPa)
#
#
# Indices 1 2 3 4 5 6 
#
# 1 0.013512 -0.006396 -0.003136 -0.003458 -0.001435 0.001451
# 2 -0.006396 0.020181 -0.002604 0.003708 0.004656 0.003523
# 3 -0.003136 -0.002604 0.013448 0.012984 0.000551 -0.000793
# 4 -0.003458 0.003708 0.012984 0.083152 0.006109 -0.002656
# 5 -0.001435 0.004656 0.000551 0.006109 0.030384 0.006695
# 6 0.001451 0.003523 -0.000793 -0.002656 0.006695 0.077878
#
#
# Mechanical properties :
#
#
# Convention : Reuss Voigt Hill
#
# Bulk Modulus (GPa) = 43.72690 51.12409 47.42550
# Shear Modulus (GPa) = 18.48764 24.15919 21.32342
#
# Velocity S-wave (km/s) = 3.27689 3.74596 3.51925
# Velocity P-wave (km/s) = 6.30198 6.95727 6.63771
#
# Compressibility (1/GPa) = 0.02286922
#
# Stress axis : x y z
#
# Youngs Moduli (GPa) = 74.00946 49.55042 74.35829
#
# Poissons Ratio (x) = 0.31695 0.23318
# Poissons Ratio (y) = 0.47340 0.19362
# Poissons Ratio (z) = 0.23209 0.12902
#
# Static dielectric constant tensor:
#      x y z
#    x 3.721680 -0.217310 0.144100 
#    y -0.217310 2.657710 -0.133180 
#    z 0.144100 -0.133180 3.384920 
# 
# 
# High freq. dielectric constant tensor:
#      x y z
#    x 1.680520 -0.009630 0.003950 
#    y -0.009630 1.589100 -0.016150 
#    z 0.003950 -0.016150 1.690350 
# 
# From -- ./inp_files/67311.got.cif
#   From: 2010.06.25/outbox.cif.g09.slc.cpg/sg2_34_cif.got.tgz:67311.got - 2010.06.27 13:26:56.
