data_PCOD8038839
_publ_section_title
;
Structure prediction by ZEFSAII (Michael W. Deem and Ramdas Pophale) SiO2 
 PCOD8038839
Probable space group: P -1
;
_chemical_formula_sum "Si O2"
_cell_formula_units_Z 16
_cell_length_a 11.499009
_cell_length_b 14.111883
_cell_length_c 11.700692
_cell_angle_alpha 61.940126
_cell_angle_beta 75.538402
_cell_angle_gamma 126.681739
_cell_volume 888.878968
_symmetry_space_group_name_H-M "P -1"
_symmetry_group_IT_number 2
_symmetry_cell_setting 'triclinic'
loop_
_space_group_symop_operation_xyz
x,y,z
-x,-y,-z
loop_
_atom_site_type_symbol
_atom_site_label
_atom_site_fract_x
_atom_site_fract_y
_atom_site_fract_z
Si Si1 0.707553 0.438984 0.482790
Si Si2 0.091440 0.717543 0.994173
Si Si3 0.904478 0.769746 0.100760
Si Si4 0.446372 0.105350 0.062709
Si Si5 0.821868 0.265709 0.788568
Si Si6 0.494959 0.069885 0.320144
Si Si7 0.687429 0.822197 0.107093
Si Si8 0.317498 0.724879 0.620338
O O1 0.790068 0.615929 0.317024
O O2 0.542995 0.337049 0.682544
O O3 0.591289 0.284983 0.496419
O O4 0.919390 0.525264 0.424527
O O5 0.283480 0.838215 0.789853
O O6 0.192353 0.809554 0.044849
O O7 0.963815 0.735717 0.997226
O O8 0.926978 0.493315 0.160659
O O9 0.734447 0.732593 0.119242
O O10 0.121886 0.989021 0.968598
O O11 0.468703 0.124210 0.184100
O O12 0.295216 0.890062 0.192729
O O13 0.682090 0.269794 0.846078
O O14 0.332007 0.129482 0.036035
O O15 0.521245 0.164475 0.371735
O O16 0.303534 0.838454 0.515371
#
# Coordination Sequence:
#
# PCOD8038839 Si02
#       8
#     2   2   2   2   2   2   2   2
#     4  10  19  33  51  74  99 127 164 204 236 288
#     4   9  16  33  50  69  99 120 162 205 235 279
#     4   9  19  33  47  75  99 126 169 199 239 289
#     4  10  18  31  48  70 106 129 154 199 246 296
#     4   8  17  30  44  71 101 126 152 189 248 297
#     4  10  19  32  49  72  99 127 160 198 235 298
#     4  11  19  31  52  72 101 133 158 198 252 283
#     4   9  19  31  49  72  93 131 164 190 243 283
#
# _framework density 18.0002
#
# number of rings (size 3 to 8) (size 9 to 14) (size 15 to 20)
#    0.000    2.750    2.500    1.500    3.500    0.500 
#    4.500    0.000    0.000    3.000    0.000   14.000 
#    0.000    0.000    0.000    0.000    0.000    0.000 
#
# Total GULP energy -198237.842726 kJ/mol
# GULP energy per Si atom -12389.865170 kJ/mol
# Density = 1.795923 g / cm^3
# Si number density = 18.000200 Si / 1000 Ang^3
#
#
#
# Elastic Constant Matrix: (Units=GPa)
#
#
# Indices 1 2 3 4 5 6 
#
# 1 100.0626 27.5470 26.7659 -2.0223 -5.6634 5.0174
# 2 27.5470 58.4693 25.5168 -6.2969 -5.3560 2.3274
# 3 26.7659 25.5168 56.6052 -6.1654 -5.1711 2.3182
# 4 -2.0223 -6.2969 -6.1654 19.0273 -1.2731 4.2952
# 5 -5.6634 -5.3560 -5.1711 -1.2731 19.0442 1.4481
# 6 5.0174 2.3274 2.3182 4.2952 1.4481 18.9529
#
#
#
# Elastic Compliance Matrix: (Units=1/GPa)
#
#
# Indices 1 2 3 4 5 6 
#
# 1 0.012307 -0.003936 -0.003870 -0.000623 0.001634 -0.002285
# 2 -0.003936 0.023332 -0.007582 0.005667 0.003900 -0.002478
# 3 -0.003870 -0.007582 0.023985 0.005683 0.003804 -0.002557
# 4 -0.000623 0.005667 0.005683 0.060252 0.008158 -0.015504
# 5 0.001634 0.003900 0.003804 0.008158 0.056242 -0.007523
# 6 -0.002285 -0.002478 -0.002557 -0.015504 -0.007523 0.058073
#
#
# Mechanical properties :
#
#
# Convention : Reuss Voigt Hill
#
# Bulk Modulus (GPa) = 34.66337 41.64407 38.15372
# Shear Modulus (GPa) = 18.20939 20.42539 19.31739
#
# Velocity S-wave (km/s) = 3.18405 3.37223 3.27949
# Velocity P-wave (km/s) = 5.72858 6.19259 5.96510
#
# Compressibility (1/GPa) = 0.02884890
#
# Stress axis : x y z
#
# Youngs Moduli (GPa) = 81.25484 42.85910 41.69232
#
# Poissons Ratio (x) = 0.16868 0.16136
# Poissons Ratio (y) = 0.31980 0.31610
# Poissons Ratio (z) = 0.31448 0.32495
#
# Static dielectric constant tensor:
#      x y z
#    x 3.522200 -0.016520 -0.110080 
#    y -0.016520 3.188790 -0.099270 
#    z -0.110080 -0.099270 3.267790 
# 
# 
# High freq. dielectric constant tensor:
#      x y z
#    x 1.670600 0.000730 -0.000600 
#    y 0.000730 1.676010 -0.011740 
#    z -0.000600 -0.011740 1.698720 
# 
# From -- ./inp_files/432713.got.cif
#   From: 2010.06.25/outbox.cif.g09.slc.cpg/sg2_217_cif.got.tgz:432713.got - 2010.06.27 13:26:56.
