data_PCOD8038310
_publ_section_title
;
Structure prediction by ZEFSAII (Michael W. Deem and Ramdas Pophale) SiO2 
 PCOD8038310
Probable space group: P -1
;
_chemical_formula_sum "Si O2"
_cell_formula_units_Z 14
_cell_length_a 9.958090
_cell_length_b 9.327101
_cell_length_c 13.807873
_cell_angle_alpha 134.629789
_cell_angle_beta 132.142250
_cell_angle_gamma 45.396178
_cell_volume 608.560432
_symmetry_space_group_name_H-M "P -1"
_symmetry_group_IT_number 2
_symmetry_cell_setting 'triclinic'
loop_
_space_group_symop_operation_xyz
x,y,z
-x,-y,-z
loop_
_atom_site_type_symbol
_atom_site_label
_atom_site_fract_x
_atom_site_fract_y
_atom_site_fract_z
Si Si1 0.305649 0.659227 0.243982
Si Si2 0.135928 0.210800 0.629175
Si Si3 0.331652 0.251359 0.549049
Si Si4 0.273640 0.816922 0.008452
Si Si5 0.718075 0.298758 0.531902
Si Si6 0.694245 0.592789 0.046958
Si Si7 0.103895 0.104696 0.237343
O O1 0.547444 0.596366 0.330175
O O2 0.226087 0.659217 0.312874
O O3 0.177632 0.903872 0.253974
O O4 0.263633 0.471066 0.076310
O O5 0.218055 0.297805 0.619193
O O6 0.145252 0.342397 0.793070
O O7 0.897120 0.279013 0.535728
O O8 0.279978 0.945772 0.585087
O O9 0.167939 0.291677 0.402084
O O10 0.500000 0.000000 0.500000
O O11 0.315818 0.622755 0.013792
O O12 0.135742 0.804360 0.847186
O O13 0.476612 0.802473 0.052766
O O14 0.184408 0.044515 0.137116
O O15 0.500000 0.500000 0.500000
#
# Coordination Sequence:
#
# PCOD8038310 Si02
#       7
#     2   2   2   2   2   2   2
#     4  10  21  40  63  91 131 158 206 267 310 366
#     4  11  23  44  68  89 129 170 206 263 320 367
#     4  10  17  34  67  94 120 164 203 264 315 362
#     4   9  18  32  55  92 133 154 197 253 320 374
#     4  11  26  46  65  91 125 170 216 258 312 382
#     4  10  20  37  58  89 125 163 200 258 314 374
#     4   9  17  31  55  89 124 165 196 249 310 367
#
# _framework density 23.005109999999998
#
# number of rings (size 3 to 8) (size 9 to 14) (size 15 to 20)
#    0.000    2.000    2.857    3.429    0.000    2.857 
#    5.143    2.857    0.000    0.000    0.000    0.000 
#    0.000    0.000    0.000    0.000    0.000    0.000 
#
# Total GULP energy -173474.265045 kJ/mol
# GULP energy per Si atom -12391.018932 kJ/mol
# Density = 2.295275 g / cm^3
# Si number density = 23.005110 Si / 1000 Ang^3
#
#
#
# Elastic Constant Matrix: (Units=GPa)
#
#
# Indices 1 2 3 4 5 6 
#
# 1 77.3417 11.3532 8.8403 -0.7730 -8.0678 -15.2424
# 2 11.3532 56.9631 3.1666 -4.7130 -0.0493 -18.2908
# 3 8.8403 3.1666 146.0473 -0.5953 -14.5157 -4.5016
# 4 -0.7730 -4.7130 -0.5953 37.1124 -6.9463 2.3242
# 5 -8.0678 -0.0493 -14.5157 -6.9463 31.8204 -6.0520
# 6 -15.2424 -18.2908 -4.5016 2.3242 -6.0520 18.6954
#
#
#
# Elastic Compliance Matrix: (Units=1/GPa)
#
#
# Indices 1 2 3 4 5 6 
#
# 1 0.017223 0.002948 0.000348 0.001101 0.008503 0.019626
# 2 0.002948 0.027296 0.001000 0.003049 0.007909 0.031531
# 3 0.000348 0.001000 0.007387 0.000815 0.004472 0.004387
# 4 0.001101 0.003049 0.000815 0.028580 0.007453 0.002937
# 5 0.008503 0.007909 0.004472 0.007453 0.042710 0.028646
# 6 0.019626 0.031531 0.004387 0.002937 0.028646 0.110303
#
#
# Mechanical properties :
#
#
# Convention : Reuss Voigt Hill
#
# Bulk Modulus (GPa) = 16.52921 36.34135 26.43528
# Shear Modulus (GPa) = 20.40221 34.65845 27.53033
#
# Velocity S-wave (km/s) = 2.98124 3.88565 3.46310
# Velocity P-wave (km/s) = 4.36475 5.99686 5.24468
#
# Compressibility (1/GPa) = 0.06049897
#
# Stress axis : x y z
#
# Youngs Moduli (GPa) = 58.06206 36.63597 135.36603
#
# Poissons Ratio (x) = -0.10802 -0.04712
# Poissons Ratio (y) = -0.17119 -0.13537
# Poissons Ratio (z) = -0.02021 -0.03664
#
# Static dielectric constant tensor:
#      x y z
#    x 3.899080 -0.380350 -0.050260 
#    y -0.380350 4.000520 -0.051850 
#    z -0.050260 -0.051850 4.693000 
# 
# 
# High freq. dielectric constant tensor:
#      x y z
#    x 1.877230 -0.032310 -0.009070 
#    y -0.032310 1.885590 -0.003910 
#    z -0.009070 -0.003910 1.924680 
# 
# From -- ./inp_files/518320.got.cif
#   From: 2010.06.25/outbox.cif.g09.slc.cpg/sg2_260_cif.got.tgz:518320.got - 2010.06.27 13:26:56.
