data_PCOD8038231
_publ_section_title
;
Structure prediction by ZEFSAII (Michael W. Deem and Ramdas Pophale) SiO2 
 PCOD8038231
Probable space group: P -1
;
_chemical_formula_sum "Si O2"
_cell_formula_units_Z 16
_cell_length_a 9.000000
_cell_length_b 18.000000
_cell_length_c 18.000000
_cell_angle_alpha 150.000000
_cell_angle_beta 40.000000
_cell_angle_gamma 150.000000
_cell_volume 727.497153
_symmetry_space_group_name_H-M "P -1"
_symmetry_group_IT_number 2
_symmetry_cell_setting 'triclinic'
loop_
_space_group_symop_operation_xyz
x,y,z
-x,-y,-z
loop_
_atom_site_type_symbol
_atom_site_label
_atom_site_fract_x
_atom_site_fract_y
_atom_site_fract_z
Si Si1 0.404224 0.828464 0.703292
Si Si2 0.498021 0.100775 0.445053
Si Si3 0.409452 0.182209 0.798665
Si Si4 0.150520 0.445543 0.520990
Si Si5 0.067293 0.097286 0.709380
Si Si6 0.126415 0.896898 0.002860
Si Si7 0.042151 0.385554 0.044417
Si Si8 0.537732 0.327385 0.250484
O O1 0.458855 0.900663 0.660756
O O2 0.192088 0.598916 0.581331
O O3 0.248655 0.890360 0.869969
O O4 0.726186 0.905121 0.676212
O O5 0.237792 0.109148 0.579402
O O6 0.802734 0.274683 0.518323
O O7 0.416004 0.900501 0.327796
O O8 0.223396 0.088675 0.713131
O O9 0.639293 0.408717 0.895982
O O10 0.179762 0.129098 0.908379
O O11 0.302282 0.361916 0.353038
O O12 0.290733 0.555560 0.639727
O O13 0.054072 0.273088 0.873957
O O14 0.036153 0.725161 0.942839
O O15 0.372590 0.100719 0.125580
O O16 0.777275 0.402458 0.155569
#
# Coordination Sequence:
#
# PCOD8038231 Si02
#       8
#     2   2   2   2   2   2   2   2
#     4  12  26  44  70  93 139 180 212 267 332 406
#     4  12  27  46  62 100 140 177 215 263 337 396
#     4  11  25  42  69  99 132 169 226 278 321 379
#     4  11  24  40  67 100 131 172 216 278 325 382
#     4  11  24  43  69  95 131 176 223 270 324 385
#     4  11  21  43  67 101 130 169 220 274 331 384
#     4  11  22  40  69 102 128 169 219 284 324 375
#     4  11  21  40  71 102 129 159 232 279 319 378
#
# _framework density 21.993213000000001
#
# number of rings (size 3 to 8) (size 9 to 14) (size 15 to 20)
#    0.000    0.750    3.750    5.250    5.250    0.500 
#    0.000    0.625    0.000    0.000    0.000    0.000 
#    0.000    0.000    0.000    0.000    0.000    0.000 
#
# Total GULP energy -198295.163476 kJ/mol
# GULP energy per Si atom -12393.447717 kJ/mol
# Density = 2.194316 g / cm^3
# Si number density = 21.993213 Si / 1000 Ang^3
#
#
#
# Elastic Constant Matrix: (Units=GPa)
#
#
# Indices 1 2 3 4 5 6 
#
# 1 31.9196 25.2410 34.4120 -2.4117 3.9900 -2.4460
# 2 25.2410 131.4633 74.8934 -18.7697 3.3621 10.5555
# 3 34.4120 74.8934 180.7900 -31.1782 -3.7698 -2.8688
# 4 -2.4117 -18.7697 -31.1782 60.3303 0.0295 -3.9284
# 5 3.9900 3.3621 -3.7698 0.0295 29.1363 -7.7986
# 6 -2.4460 10.5555 -2.8688 -3.9284 -7.7986 28.8098
#
#
#
# Elastic Compliance Matrix: (Units=1/GPa)
#
#
# Indices 1 2 3 4 5 6 
#
# 1 0.043239 -0.004987 -0.006771 -0.003129 -0.005435 0.002926
# 2 -0.004987 0.011333 -0.003704 0.001055 -0.002577 -0.005498
# 3 -0.006771 -0.003704 0.009070 0.003462 0.003344 0.003063
# 4 -0.003129 0.001055 0.003462 0.018739 0.001442 0.002638
# 5 -0.005435 -0.002577 0.003344 0.001442 0.038882 0.011537
# 6 0.002926 -0.005498 0.003063 0.002638 0.011537 0.040761
#
#
# Mechanical properties :
#
#
# Convention : Reuss Voigt Hill
#
# Bulk Modulus (GPa) = 30.56518 68.14063 49.35291
# Shear Modulus (GPa) = 24.52730 37.63036 31.07883
#
# Velocity S-wave (km/s) = 3.34312 4.14091 3.76321
# Velocity P-wave (km/s) = 5.36932 7.34253 6.43204
#
# Compressibility (1/GPa) = 0.03271696
#
# Stress axis : x y z
#
# Youngs Moduli (GPa) = 23.12711 88.24128 110.25473
#
# Poissons Ratio (x) = 0.44010 0.74650
# Poissons Ratio (y) = 0.11535 0.40841
# Poissons Ratio (z) = 0.15659 0.32687
#
# Static dielectric constant tensor:
#      x y z
#    x 3.547000 0.295470 -0.221340 
#    y 0.295470 4.301630 -0.310380 
#    z -0.221340 -0.310380 4.615310 
# 
# 
# High freq. dielectric constant tensor:
#      x y z
#    x 1.815330 0.023170 -0.007810 
#    y 0.023170 1.887490 -0.012220 
#    z -0.007810 -0.012220 1.901820 
# 
# From -- ./inp_files/207705.got.cif
#   From: 2010.06.25/outbox.ucp.g09.slc.cvg/sg2_104_cif.got.tgz:207705.got - 2010.06.28 11:54:26.
