data_PCOD8038414
_publ_section_title
;
Structure prediction by ZEFSAII (Michael W. Deem and Ramdas Pophale) SiO2 
 PCOD8038414
Probable space group: P -1
;
_chemical_formula_sum "Si O2"
_cell_formula_units_Z 14
_cell_length_a 8.796404
_cell_length_b 9.106626
_cell_length_c 13.331446
_cell_angle_alpha 126.473073
_cell_angle_beta 53.046189
_cell_angle_gamma 89.151275
_cell_volume 559.435034
_symmetry_space_group_name_H-M "P -1"
_symmetry_group_IT_number 2
_symmetry_cell_setting 'triclinic'
loop_
_space_group_symop_operation_xyz
x,y,z
-x,-y,-z
loop_
_atom_site_type_symbol
_atom_site_label
_atom_site_fract_x
_atom_site_fract_y
_atom_site_fract_z
Si Si1 0.059308 0.883568 0.126611
Si Si2 0.820738 0.352498 0.441751
Si Si3 0.890081 0.749327 0.304235
Si Si4 0.410774 0.370126 0.924785
Si Si5 0.623215 0.571511 0.261341
Si Si6 0.014767 0.363170 0.565734
Si Si7 0.515313 0.812407 0.984541
O O1 0.877555 0.929655 0.307430
O O2 0.126189 0.679334 0.943264
O O3 0.316820 0.778691 0.023577
O O4 0.936251 0.134643 0.232556
O O5 0.556790 0.449035 0.611829
O O6 0.007530 0.248692 0.419903
O O7 0.815256 0.554744 0.476551
O O8 0.676016 0.731411 0.361696
O O9 0.895715 0.803804 0.442124
O O10 0.132008 0.516218 0.085987
O O11 0.496766 0.309383 0.750732
O O12 0.500000 0.500000 0.000000
O O13 0.492287 0.153045 0.876191
O O14 0.753126 0.578360 0.769815
O O15 0.500000 0.000000 0.000000
#
# Coordination Sequence:
#
# PCOD8038414 Si02
#       7
#     2   2   2   2   2   2   2
#     4  11  21  38  64  90 117 158 204 249 303 354
#     4  11  23  38  66  88 125 157 207 254 295 361
#     4  10  22  39  64  86 127 164 200 245 307 364
#     4  10  17  35  64  89 114 157 204 246 297 353
#     4  11  22  41  64  87 127 165 197 250 303 358
#     4  10  22  41  60  95 121 160 202 253 308 354
#     4  11  19  35  63  91 123 147 199 264 299 351
#
# _framework density 25.025245999999999
#
# number of rings (size 3 to 8) (size 9 to 14) (size 15 to 20)
#    0.000    1.429    5.714    2.571    0.000    1.714 
#    0.000    0.714    6.286    0.000    0.000    0.000 
#    0.000    0.000    0.000    0.000    0.000    0.000 
#
# Total GULP energy -173434.303683 kJ/mol
# GULP energy per Si atom -12388.164549 kJ/mol
# Density = 2.496829 g / cm^3
# Si number density = 25.025246 Si / 1000 Ang^3
#
#
#
# Elastic Constant Matrix: (Units=GPa)
#
#
# Indices 1 2 3 4 5 6 
#
# 1 76.9983 8.8403 -0.4243 -10.2016 -9.7985 18.2791
# 2 8.8403 73.2072 10.2038 -6.6902 -9.2365 16.8905
# 3 -0.4243 10.2038 41.5160 -17.8364 -1.2228 4.0412
# 4 -10.2016 -6.6902 -17.8364 34.3797 15.3390 -9.8716
# 5 -9.7985 -9.2365 -1.2228 15.3390 26.6561 -10.7160
# 6 18.2791 16.8905 4.0412 -9.8716 -10.7160 34.8008
#
#
#
# Elastic Compliance Matrix: (Units=1/GPa)
#
#
# Indices 1 2 3 4 5 6 
#
# 1 0.015226 -0.000126 0.002283 0.003231 0.000993 -0.006979
# 2 -0.000126 0.016142 -0.004546 -0.003184 0.004447 -0.006774
# 3 0.002283 -0.004546 0.035018 0.023596 -0.012836 -0.000318
# 4 0.003231 -0.003184 0.023596 0.055927 -0.029446 0.003906
# 5 0.000993 0.004447 -0.012836 -0.029446 0.059278 0.008711
# 6 -0.006979 -0.006774 -0.000318 0.003906 0.008711 0.039516
#
#
# Mechanical properties :
#
#
# Convention : Reuss Voigt Hill
#
# Bulk Modulus (GPa) = 16.23178 25.44013 20.83596
# Shear Modulus (GPa) = 20.29054 30.70741 25.49897
#
# Velocity S-wave (km/s) = 2.85055 3.50674 3.19553
# Velocity P-wave (km/s) = 4.16346 5.15598 4.68607
#
# Compressibility (1/GPa) = 0.06160752
#
# Stress axis : x y z
#
# Youngs Moduli (GPa) = 65.67896 61.95096 28.55653
#
# Poissons Ratio (x) = 0.00781 -0.06521
# Poissons Ratio (y) = 0.00828 0.12983
# Poissons Ratio (z) = -0.14997 0.28165
#
# Static dielectric constant tensor:
#      x y z
#    x 4.292620 -0.010660 -0.005180 
#    y -0.010660 4.935050 -0.455590 
#    z -0.005180 -0.455590 4.353950 
# 
# 
# High freq. dielectric constant tensor:
#      x y z
#    x 1.973260 0.016110 -0.015130 
#    y 0.016110 1.998430 -0.017490 
#    z -0.015130 -0.017490 1.986810 
# 
# From -- ./inp_files/197972.got.cif
#   From: 2010.06.25/outbox.cif.g09.slc.cpg/sg2_99_cif.got.tgz:197972.got - 2010.06.27 13:26:56.
