data_PCOD8038906
_publ_section_title
;
Structure prediction by ZEFSAII (Michael W. Deem and Ramdas Pophale) SiO2 
 PCOD8038906
Probable space group: P -1
;
_chemical_formula_sum "Si O2"
_cell_formula_units_Z 14
_cell_length_a 20.374498
_cell_length_b 11.821797
_cell_length_c 8.857341
_cell_angle_alpha 104.786485
_cell_angle_beta 126.256688
_cell_angle_gamma 31.290749
_cell_volume 716.602586
_symmetry_space_group_name_H-M "P -1"
_symmetry_group_IT_number 2
_symmetry_cell_setting 'triclinic'
loop_
_space_group_symop_operation_xyz
x,y,z
-x,-y,-z
loop_
_atom_site_type_symbol
_atom_site_label
_atom_site_fract_x
_atom_site_fract_y
_atom_site_fract_z
Si Si1 0.564482 0.811491 0.721702
Si Si2 0.526881 0.121746 0.700625
Si Si3 0.835818 0.426017 0.200570
Si Si4 0.225780 0.913349 0.693538
Si Si5 0.384417 0.477424 0.886452
Si Si6 0.748741 0.783143 0.342638
Si Si7 0.129775 0.261834 0.811301
O O1 0.545428 0.758287 0.526634
O O2 0.480971 0.048290 0.655974
O O3 0.437293 0.930988 0.728570
O O4 0.778026 0.525264 0.979800
O O5 0.432751 0.334510 0.759110
O O6 0.756563 0.836477 0.923413
O O7 0.737608 0.434682 0.127657
O O8 0.751989 0.641948 0.258134
O O9 0.064822 0.121461 0.413512
O O10 0.247047 0.756688 0.733658
O O11 0.136036 0.112209 0.771273
O O12 0.429035 0.703544 0.847287
O O13 0.756439 0.850030 0.225251
O O14 0.921694 0.585708 0.626361
#
# Coordination Sequence:
#
# PCOD8038906 Si02
#       7
#     2   2   2   2   2   2   2
#     4  11  20  31  50  77 108 136 169 207 264 313
#     4  10  20  33  49  74 108 141 165 209 262 310
#     4  11  19  33  56  80 102 134 175 221 256 305
#     4   9  20  33  56  81 100 132 179 216 257 301
#     4  10  19  37  57  75 104 137 173 219 256 302
#     4  10  18  31  54  79 101 131 173 219 261 302
#     4   9  18  33  53  77 103 130 172 220 259 301
#
# _framework density 19.536631
#
# number of rings (size 3 to 8) (size 9 to 14) (size 15 to 20)
#    0.000    2.000    2.857    2.571    0.000    0.571 
#    0.000    0.714    0.000   13.714    0.000    0.000 
#    0.000    0.000    0.000    0.000    0.000    0.000 
#
# Total GULP energy -173463.947868 kJ/mol
# GULP energy per Si atom -12390.281991 kJ/mol
# Density = 1.949216 g / cm^3
# Si number density = 19.536631 Si / 1000 Ang^3
#
#
#
# Elastic Constant Matrix: (Units=GPa)
#
#
# Indices 1 2 3 4 5 6 
#
# 1 56.7235 25.4300 30.2900 1.6437 1.5057 15.2606
# 2 25.4300 50.8232 33.2233 -5.9142 -7.9064 12.6486
# 3 30.2900 33.2233 169.8659 -4.9902 -14.8046 -10.0590
# 4 1.6437 -5.9142 -4.9902 24.6187 3.4389 -1.2381
# 5 1.5057 -7.9064 -14.8046 3.4389 24.0495 -3.3315
# 6 15.2606 12.6486 -10.0590 -1.2381 -3.3315 22.4178
#
#
#
# Elastic Compliance Matrix: (Units=1/GPa)
#
#
# Indices 1 2 3 4 5 6 
#
# 1 0.030665 -0.008403 -0.006121 -0.004865 -0.010626 -0.020728
# 2 -0.008403 0.031919 -0.004902 0.005820 0.005316 -0.013377
# 3 -0.006121 -0.004902 0.009193 0.000864 0.005968 0.011993
# 4 -0.004865 0.005820 0.000864 0.043066 -0.003085 0.002336
# 5 -0.010626 0.005316 0.005968 -0.003085 0.050074 0.014183
# 6 -0.020728 -0.013377 0.011993 0.002336 0.014183 0.073883
#
#
# Mechanical properties :
#
#
# Convention : Reuss Voigt Hill
#
# Bulk Modulus (GPa) = 30.37275 50.58882 40.48079
# Shear Modulus (GPa) = 17.32344 26.78183 22.05264
#
# Velocity S-wave (km/s) = 2.98101 3.70652 3.36338
# Velocity P-wave (km/s) = 5.23726 6.65344 5.98737
#
# Compressibility (1/GPa) = 0.03292425
#
# Stress axis : x y z
#
# Youngs Moduli (GPa) = 32.61087 31.32969 108.77789
#
# Poissons Ratio (x) = 0.26325 0.66584
# Poissons Ratio (y) = 0.27401 0.53327
# Poissons Ratio (z) = 0.19961 0.15359
#
# Static dielectric constant tensor:
#      x y z
#    x 3.436630 0.285940 0.127510 
#    y 0.285940 3.259780 -0.171380 
#    z 0.127510 -0.171380 3.979480 
# 
# 
# High freq. dielectric constant tensor:
#      x y z
#    x 1.743550 0.030180 0.011100 
#    y 0.030180 1.715470 -0.023230 
#    z 0.011100 -0.023230 1.781250 
# 
# From -- ./inp_files/169532.got.cif
#   From: 2010.06.25/outbox.cif.g09.slc.cpg/sg2_85_cif.got.tgz:169532.got - 2010.06.27 13:26:56.
