data_PCOD8038534
_publ_section_title
;
Structure prediction by ZEFSAII (Michael W. Deem and Ramdas Pophale) SiO2 
 PCOD8038534
Probable space group: P -1
;
_chemical_formula_sum "Si O2"
_cell_formula_units_Z 12
_cell_length_a 7.597963
_cell_length_b 8.785713
_cell_length_c 12.840089
_cell_angle_alpha 134.603515
_cell_angle_beta 80.533536
_cell_angle_gamma 89.355191
_cell_volume 592.061190
_symmetry_space_group_name_H-M "P -1"
_symmetry_group_IT_number 2
_symmetry_cell_setting 'triclinic'
loop_
_space_group_symop_operation_xyz
x,y,z
-x,-y,-z
loop_
_atom_site_type_symbol
_atom_site_label
_atom_site_fract_x
_atom_site_fract_y
_atom_site_fract_z
Si Si1 0.885025 0.557029 0.393604
Si Si2 0.133809 0.667761 0.074105
Si Si3 0.079295 0.152581 0.288931
Si Si4 0.239150 0.496054 0.195050
Si Si5 0.204863 0.042981 0.013341
Si Si6 0.371723 0.586211 0.806803
O O1 0.836755 0.761983 0.573958
O O2 0.278831 0.431846 0.666703
O O3 0.909718 0.332964 0.351080
O O4 0.066884 0.580030 0.324764
O O5 0.237509 0.639603 0.160699
O O6 0.023505 0.916644 0.199655
O O7 0.276736 0.616087 0.942513
O O8 0.000000 0.500000 0.000000
O O9 0.230402 0.120351 0.167408
O O10 0.239292 0.245547 0.037255
O O11 0.418679 0.518668 0.252926
O O12 0.348782 0.825837 0.871018
O O13 0.000000 0.000000 0.000000
#
# Coordination Sequence:
#
# PCOD8038534 Si02
#       6
#     2   2   2   2   2   2
#     4  10  20  40  59  81 115 149 189 232 280 335
#     4  11  21  37  60  85 114 151 188 232 285 333
#     4   9  20  36  62  80 113 153 185 232 281 334
#     4  11  21  35  59  86 114 148 189 232 285 330
#     4  10  17  37  61  83 109 151 191 232 277 326
#     4  11  21  36  60  83 114 147 193 235 275 334
#
# _framework density 20.268174999999999
#
# number of rings (size 3 to 8) (size 9 to 14) (size 15 to 20)
#    0.000    1.667    5.000    2.000    0.000    0.667 
#    0.000    8.333    7.333    0.000    0.000    0.000 
#    0.000    0.000    0.000    0.000    0.000    0.000 
#
# Total GULP energy -148724.689626 kJ/mol
# GULP energy per Si atom -12393.724136 kJ/mol
# Density = 2.022204 g / cm^3
# Si number density = 20.268175 Si / 1000 Ang^3
#
#
#
# Elastic Constant Matrix: (Units=GPa)
#
#
# Indices 1 2 3 4 5 6 
#
# 1 140.3649 23.9564 42.2121 -2.8620 13.7557 -0.7519
# 2 23.9564 102.1000 22.0479 6.5558 9.5532 -1.6091
# 3 42.2121 22.0479 81.0667 2.0639 30.2300 2.1711
# 4 -2.8620 6.5558 2.0639 24.9407 -1.9168 5.6905
# 5 13.7557 9.5532 30.2300 -1.9168 26.1687 -2.9137
# 6 -0.7519 -1.6091 2.1711 5.6905 -2.9137 25.2494
#
#
#
# Elastic Compliance Matrix: (Units=1/GPa)
#
#
# Indices 1 2 3 4 5 6 
#
# 1 0.008672 -0.001250 -0.004859 0.001766 0.001684 0.000393
# 2 -0.001250 0.010822 -0.001732 -0.003265 -0.001378 0.001378
# 3 -0.004859 -0.001732 0.025742 -0.003216 -0.027331 -0.004898
# 4 0.001766 -0.003265 -0.003216 0.043968 0.006189 -0.009074
# 5 0.001684 -0.001378 -0.027331 0.006189 0.070871 0.009096
# 6 0.000393 0.001378 -0.004898 -0.009074 0.009096 0.043220
#
#
# Mechanical properties :
#
#
# Convention : Reuss Voigt Hill
#
# Bulk Modulus (GPa) = 33.83756 55.55160 44.69458
# Shear Modulus (GPa) = 21.85045 30.95944 26.40494
#
# Velocity S-wave (km/s) = 3.28695 3.91255 3.61332
# Velocity P-wave (km/s) = 5.58002 6.91943 6.28550
#
# Compressibility (1/GPa) = 0.02955296
#
# Stress axis : x y z
#
# Youngs Moduli (GPa) = 115.31368 92.40393 38.84754
#
# Poissons Ratio (x) = 0.11553 0.18876
# Poissons Ratio (y) = 0.14417 0.06729
# Poissons Ratio (z) = 0.56032 0.16005
#
# Static dielectric constant tensor:
#      x y z
#    x 3.550770 -0.226290 0.319900 
#    y -0.226290 4.180730 0.019720 
#    z 0.319900 0.019720 3.684990 
# 
# 
# High freq. dielectric constant tensor:
#      x y z
#    x 1.775660 -0.011570 0.024340 
#    y -0.011570 1.793420 0.001420 
#    z 0.024340 0.001420 1.770120 
# 
# From -- ./inp_files/148289.got.cif
#   From: 2010.06.25/outbox.cif.g09.slc.cpg/sg2_75_cif.got.tgz:148289.got - 2010.06.27 13:26:56.
