data_PCOD8038571
_publ_section_title
;
Structure prediction by ZEFSAII (Michael W. Deem and Ramdas Pophale) SiO2 
 PCOD8038571
Probable space group: P -1
;
_chemical_formula_sum "Si O2"
_cell_formula_units_Z 12
_cell_length_a 10.341249
_cell_length_b 9.523230
_cell_length_c 9.074292
_cell_angle_alpha 76.667678
_cell_angle_beta 110.010709
_cell_angle_gamma 63.569625
_cell_volume 669.559685
_symmetry_space_group_name_H-M "P -1"
_symmetry_group_IT_number 2
_symmetry_cell_setting 'triclinic'
loop_
_space_group_symop_operation_xyz
x,y,z
-x,-y,-z
loop_
_atom_site_type_symbol
_atom_site_label
_atom_site_fract_x
_atom_site_fract_y
_atom_site_fract_z
Si Si1 0.166282 0.973129 0.134704
Si Si2 0.636463 0.311720 0.162825
Si Si3 0.225136 0.759314 0.466195
Si Si4 0.031835 0.313248 0.558073
Si Si5 0.341496 0.994160 0.918067
Si Si6 0.986344 0.849173 0.692004
O O1 0.275016 0.787045 0.315746
O O2 0.899191 0.865658 0.813055
O O3 0.287518 0.964406 0.062538
O O4 0.000000 0.000000 0.000000
O O5 0.624667 0.326396 0.334271
O O6 0.607059 0.166350 0.131745
O O7 0.813816 0.264581 0.185422
O O8 0.500000 0.500000 0.000000
O O9 0.137882 0.655390 0.449243
O O10 0.079708 0.952006 0.430306
O O11 0.000000 0.500000 0.500000
O O12 0.068267 0.239580 0.423547
O O13 0.190628 0.180446 0.752432
O O14 0.500000 0.000000 0.000000
#
# Coordination Sequence:
#
# PCOD8038571 Si02
#       6
#     2   2   2   2   2   2
#     4  10  17  37  69  81 106 160 209 236 280 345
#     4  11  20  35  59  89 117 154 194 241 289 350
#     4   9  18  38  65  77 107 163 209 228 272 355
#     4  11  20  35  59  89 117 154 194 241 289 350
#     4  12  23  37  57  91 122 145 189 256 305 334
#     4   9  18  38  65  77 107 163 209 228 272 355
#
# _framework density 17.922226999999999
#
# number of rings (size 3 to 8) (size 9 to 14) (size 15 to 20)
#    1.000    0.667    6.667    1.000    4.667    0.000 
#    0.000    5.000    7.333    0.000    0.000    0.000 
#    0.000    0.000    0.000    0.000    0.000    0.000 
#
# Total GULP energy -148678.198487 kJ/mol
# GULP energy per Si atom -12389.849874 kJ/mol
# Density = 1.788143 g / cm^3
# Si number density = 17.922227 Si / 1000 Ang^3
#
#
#
# Elastic Constant Matrix: (Units=GPa)
#
#
# Indices 1 2 3 4 5 6 
#
# 1 97.3912 32.9384 48.3308 16.2561 -14.2690 18.5131
# 2 32.9384 99.5007 45.9332 -0.4277 -11.2955 29.0423
# 3 48.3308 45.9332 148.3425 0.7425 -13.0487 16.0884
# 4 16.2561 -0.4277 0.7425 36.6664 -0.9891 -0.1172
# 5 -14.2690 -11.2955 -13.0487 -0.9891 25.2649 4.2821
# 6 18.5131 29.0423 16.0884 -0.1172 4.2821 17.8079
#
#
#
# Elastic Compliance Matrix: (Units=1/GPa)
#
#
# Indices 1 2 3 4 5 6 
#
# 1 0.019837 0.006283 -0.003359 -0.008287 0.017389 -0.032071
# 2 0.006283 0.028355 -0.002564 -0.001926 0.024373 -0.056332
# 3 -0.003359 -0.002564 0.008851 0.001324 0.001702 -0.000723
# 4 -0.008287 -0.001926 0.001324 0.030782 -0.005709 0.012135
# 5 0.017389 0.024373 0.001702 -0.005709 0.074040 -0.077207
# 6 -0.032071 -0.056332 -0.000723 0.012135 -0.077207 0.200664
#
#
# Mechanical properties :
#
#
# Convention : Reuss Voigt Hill
#
# Bulk Modulus (GPa) = 17.31219 66.62660 41.96939
# Shear Modulus (GPa) = 13.12116 30.48330 21.80223
#
# Velocity S-wave (km/s) = 2.70870 4.12863 3.49161
# Velocity P-wave (km/s) = 4.41173 7.74490 6.30265
#
# Compressibility (1/GPa) = 0.05776278
#
# Stress axis : x y z
#
# Youngs Moduli (GPa) = 50.41045 35.26766 112.98040
#
# Poissons Ratio (x) = -0.22159 0.37954
# Poissons Ratio (y) = -0.31674 0.28966
# Poissons Ratio (z) = 0.16934 0.09042
#
# Static dielectric constant tensor:
#      x y z
#    x 3.309870 -0.123320 -0.294110 
#    y -0.123320 3.228760 0.219540 
#    z -0.294110 0.219540 3.526870 
# 
# 
# High freq. dielectric constant tensor:
#      x y z
#    x 1.664310 -0.003210 -0.013330 
#    y -0.003210 1.681450 0.015110 
#    z -0.013330 0.015110 1.708400 
# 
# From -- ./inp_files/378090.got.cif
#   From: 2010.06.25/outbox.cif.g09.slc.cpg/sg2_190_cif.got.tgz:378090.got - 2010.06.27 13:26:56.
