data_PCOD8038983
_publ_section_title
;
Structure prediction by ZEFSAII (Michael W. Deem and Ramdas Pophale) SiO2 
 PCOD8038983
Probable space group: P -1
;
_chemical_formula_sum "Si O2"
_cell_formula_units_Z 16
_cell_length_a 15.497939
_cell_length_b 11.583566
_cell_length_c 9.404636
_cell_angle_alpha 68.145437
_cell_angle_beta 35.363754
_cell_angle_gamma 70.956128
_cell_volume 906.111198
_symmetry_space_group_name_H-M "P -1"
_symmetry_group_IT_number 2
_symmetry_cell_setting 'triclinic'
loop_
_space_group_symop_operation_xyz
x,y,z
-x,-y,-z
loop_
_atom_site_type_symbol
_atom_site_label
_atom_site_fract_x
_atom_site_fract_y
_atom_site_fract_z
Si Si1 0.039583 0.930554 0.703680
Si Si2 0.399211 0.132236 0.820141
Si Si3 0.397550 0.233878 0.072942
Si Si4 0.774788 0.799749 0.242604
Si Si5 0.634114 0.333106 0.884528
Si Si6 0.693181 0.985074 0.516939
Si Si7 0.313834 0.398406 0.346328
Si Si8 0.188166 0.903633 0.220468
O O1 0.120894 0.878886 0.477354
O O2 0.152423 0.961897 0.662200
O O3 0.940008 0.054921 0.738854
O O4 0.936643 0.822887 0.949795
O O5 0.347930 0.204923 0.714570
O O6 0.575254 0.098260 0.590428
O O7 0.365119 0.227712 0.952399
O O8 0.309851 0.007550 0.017696
O O9 0.376515 0.097744 0.228720
O O10 0.285420 0.334570 0.258516
O O11 0.568741 0.272183 0.855179
O O12 0.722405 0.909702 0.368346
O O13 0.782905 0.667004 0.373064
O O14 0.728674 0.454521 0.667498
O O15 0.737850 0.228116 0.872079
O O16 0.491362 0.374559 0.156395
#
# Coordination Sequence:
#
# PCOD8038983 Si02
#       8
#     2   2   2   2   2   2   2   2
#     4  10  21  30  48  77 114 134 161 198 267 310
#     4  11  18  30  54  82 102 126 169 217 261 292
#     4   9  16  28  53  78  97 121 168 214 247 293
#     4  10  21  33  46  75 110 138 160 208 256 307
#     4   9  16  33  58  75  97 132 179 214 243 292
#     4  11  18  31  50  77 107 132 165 206 260 310
#     4   8  18  34  54  77  96 136 174 213 248 288
#     4  10  18  32  50  83 102 132 167 214 249 302
#
# _framework density 17.657876000000002
#
# number of rings (size 3 to 8) (size 9 to 14) (size 15 to 20)
#    0.750    1.500    2.500    1.875    0.000    1.000 
#    0.000    1.250    0.000    3.000    3.250    0.000 
#    0.000    0.000    0.000    0.000    0.000    0.000 
#
# Total GULP energy -198308.736556 kJ/mol
# GULP energy per Si atom -12394.296035 kJ/mol
# Density = 1.761769 g / cm^3
# Si number density = 17.657876 Si / 1000 Ang^3
#
#
#
# Elastic Constant Matrix: (Units=GPa)
#
#
# Indices 1 2 3 4 5 6 
#
# 1 95.6934 16.2515 20.4967 -1.6094 -5.4548 3.6208
# 2 16.2515 76.2676 18.9702 -14.2155 -8.3640 -3.3400
# 3 20.4967 18.9702 62.6335 -10.4043 4.2313 -3.2108
# 4 -1.6094 -14.2155 -10.4043 20.7337 -1.9227 -3.2226
# 5 -5.4548 -8.3640 4.2313 -1.9227 23.6616 4.2365
# 6 3.6208 -3.3400 -3.2108 -3.2226 4.2365 11.0310
#
#
#
# Elastic Compliance Matrix: (Units=1/GPa)
#
#
# Indices 1 2 3 4 5 6 
#
# 1 0.012338 -0.002078 -0.004785 -0.003847 0.004232 -0.008821
# 2 -0.002078 0.017383 -0.002676 0.011957 0.005976 0.006364
# 3 -0.004785 -0.002676 0.021076 0.009639 -0.007274 0.012504
# 4 -0.003847 0.011957 0.009639 0.065198 0.002284 0.025859
# 5 0.004232 0.005976 -0.007274 0.002284 0.050493 -0.020422
# 6 -0.008821 0.006364 0.012504 0.025859 -0.020422 0.114513
#
#
# Mechanical properties :
#
#
# Convention : Reuss Voigt Hill
#
# Bulk Modulus (GPa) = 31.52760 38.44792 34.98776
# Shear Modulus (GPa) = 16.09509 23.01034 19.55272
#
# Velocity S-wave (km/s) = 3.02238 3.61379 3.33123
# Velocity P-wave (km/s) = 5.48390 6.26368 5.88672
#
# Compressibility (1/GPa) = 0.03171824
#
# Stress axis : x y z
#
# Youngs Moduli (GPa) = 81.04844 57.52744 47.44733
#
# Poissons Ratio (x) = 0.11954 0.22706
# Poissons Ratio (y) = 0.16842 0.12697
# Poissons Ratio (z) = 0.38786 0.15395
#
# Static dielectric constant tensor:
#      x y z
#    x 3.215040 0.055650 -0.012130 
#    y 0.055650 3.031800 -0.041290 
#    z -0.012130 -0.041290 3.302170 
# 
# 
# High freq. dielectric constant tensor:
#      x y z
#    x 1.667790 0.007260 -0.000580 
#    y 0.007260 1.654270 -0.002060 
#    z -0.000580 -0.002060 1.675640 
# 
# From -- ./inp_files/267574.got.cif
#   From: 2010.06.25/outbox.cif.g09.slc.cpg/sg2_134_cif.got.tgz:267574.got - 2010.06.27 13:26:56.
