data_PCOD8038573
_publ_section_title
;
Structure prediction by ZEFSAII (Michael W. Deem and Ramdas Pophale) SiO2 
 PCOD8038573
Probable space group: P -1
;
_chemical_formula_sum "Si O2"
_cell_formula_units_Z 16
_cell_length_a 11.182545
_cell_length_b 16.481375
_cell_length_c 9.487085
_cell_angle_alpha 129.384455
_cell_angle_beta 97.637860
_cell_angle_gamma 123.793381
_cell_volume 734.675266
_symmetry_space_group_name_H-M "P -1"
_symmetry_group_IT_number 2
_symmetry_cell_setting 'triclinic'
loop_
_space_group_symop_operation_xyz
x,y,z
-x,-y,-z
loop_
_atom_site_type_symbol
_atom_site_label
_atom_site_fract_x
_atom_site_fract_y
_atom_site_fract_z
Si Si1 0.576533 0.825296 0.127784
Si Si2 0.959837 0.705034 0.921154
Si Si3 0.871870 0.509753 0.949707
Si Si4 0.695610 0.684990 0.026683
Si Si5 0.064398 0.785947 0.524757
Si Si6 0.095668 0.463754 0.539064
Si Si7 0.629760 0.871147 0.518687
Si Si8 0.760646 0.739538 0.408949
O O1 0.617936 0.868052 0.345982
O O2 0.695125 0.007697 0.266227
O O3 0.670793 0.779266 0.048405
O O4 0.319968 0.649634 0.861484
O O5 0.971593 0.619142 0.938771
O O6 0.809259 0.689979 0.939256
O O7 0.856629 0.586703 0.630624
O O8 0.212790 0.922549 0.172528
O O9 0.616240 0.298008 0.647848
O O10 0.000000 0.500000 0.000000
O O11 0.905790 0.624528 0.198641
O O12 0.461821 0.477615 0.818366
O O13 0.831384 0.789776 0.309187
O O14 0.080678 0.713046 0.572606
O O15 0.951777 0.811361 0.593592
O O16 0.000000 0.500000 0.500000
O O17 0.744168 0.848532 0.570708
#
# Coordination Sequence:
#
# PCOD8038573 Si02
#       8
#     2   2   2   2   2   2   2   2
#     4  11  23  42  74  96 131 179 216 263 339 403
#     4  12  25  42  67 103 134 168 219 283 329 381
#     4  12  24  40  67  97 128 171 231 276 312 383
#     4  10  18  38  68 104 133 165 211 274 334 390
#     4  12  22  45  69  97 128 180 222 262 336 399
#     4  12  29  48  63  91 141 181 220 276 330 386
#     4  11  22  41  72 105 130 166 219 277 330 390
#     4  10  17  37  71 101 134 165 208 274 336 392
#
# _framework density 21.77833
#
# number of rings (size 3 to 8) (size 9 to 14) (size 15 to 20)
#    0.000    0.750    6.250    2.250    0.000    5.500 
#    0.000    1.250    0.000    0.000    0.000    0.000 
#    0.000    0.000    0.000    0.000    0.000    0.000 
#
# Total GULP energy -198370.031472 kJ/mol
# GULP energy per Si atom -12398.126967 kJ/mol
# Density = 2.172876 g / cm^3
# Si number density = 21.778330 Si / 1000 Ang^3
#
#
#
# Elastic Constant Matrix: (Units=GPa)
#
#
# Indices 1 2 3 4 5 6 
#
# 1 77.1367 20.3521 21.5658 14.3542 11.8425 -15.2369
# 2 20.3521 128.9547 32.1227 21.6565 -2.9937 -24.9638
# 3 21.5658 32.1227 56.9272 13.0990 1.5525 -1.6384
# 4 14.3542 21.6565 13.0990 32.1598 -0.1597 -0.4944
# 5 11.8425 -2.9937 1.5525 -0.1597 15.9829 -9.6679
# 6 -15.2369 -24.9638 -1.6384 -0.4944 -9.6679 34.8960
#
#
#
# Elastic Compliance Matrix: (Units=1/GPa)
#
#
# Indices 1 2 3 4 5 6 
#
# 1 0.017948 0.000167 -0.005098 -0.006021 -0.009870 0.004898
# 2 0.000167 0.012589 -0.005721 -0.005999 0.009620 0.011391
# 3 -0.005098 -0.005721 0.023453 -0.003536 -0.003357 -0.006198
# 4 -0.006021 -0.005999 -0.003536 0.039163 0.000146 -0.006491
# 5 -0.009870 0.009620 -0.003357 0.000146 0.088262 0.026870
# 6 0.004898 0.011391 -0.006198 -0.006491 0.026870 0.046005
#
#
# Mechanical properties :
#
#
# Convention : Reuss Voigt Hill
#
# Bulk Modulus (GPa) = 30.59405 45.67778 38.13591
# Shear Modulus (GPa) = 19.25880 29.20628 24.23254
#
# Velocity S-wave (km/s) = 2.97696 3.66604 3.33932
# Velocity P-wave (km/s) = 5.08870 6.24013 5.69360
#
# Compressibility (1/GPa) = 0.03268610
#
# Stress axis : x y z
#
# Youngs Moduli (GPa) = 55.71551 79.43203 42.63843
#
# Poissons Ratio (x) = -0.01330 0.21738
# Poissons Ratio (y) = -0.00933 0.24395
# Poissons Ratio (z) = 0.28406 0.45447
#
# Static dielectric constant tensor:
#      x y z
#    x 3.845830 -0.199600 -0.061210 
#    y -0.199600 4.262160 0.189670 
#    z -0.061210 0.189670 3.831620 
# 
# 
# High freq. dielectric constant tensor:
#      x y z
#    x 1.850500 -0.013210 0.003970 
#    y -0.013210 1.868780 0.024030 
#    z 0.003970 0.024030 1.830630 
# 
# From -- ./inp_files/274104.got.cif
#   From: 2010.06.25/outbox.cif.g09.slc.cpg/sg2_138_cif.got.tgz:274104.got - 2010.06.27 13:26:56.
