data_PCOD8038692
_publ_section_title
;
Structure prediction by ZEFSAII (Michael W. Deem and Ramdas Pophale) SiO2 
 PCOD8038692
Probable space group: P -1
;
_chemical_formula_sum "Si O2"
_cell_formula_units_Z 14
_cell_length_a 9.528930
_cell_length_b 21.951361
_cell_length_c 8.177278
_cell_angle_alpha 50.050665
_cell_angle_beta 147.367595
_cell_angle_gamma 115.644624
_cell_volume 682.555562
_symmetry_space_group_name_H-M "P -1"
_symmetry_group_IT_number 2
_symmetry_cell_setting 'triclinic'
loop_
_space_group_symop_operation_xyz
x,y,z
-x,-y,-z
loop_
_atom_site_type_symbol
_atom_site_label
_atom_site_fract_x
_atom_site_fract_y
_atom_site_fract_z
Si Si1 0.729158 0.792499 0.880754
Si Si2 0.828840 0.183675 0.146345
Si Si3 0.631423 0.416749 0.041272
Si Si4 0.036020 0.512590 0.323692
Si Si5 0.100641 0.668323 0.238537
Si Si6 0.764366 0.241019 0.352774
Si Si7 0.404843 0.097115 0.739396
O O1 0.491919 0.779054 0.782020
O O2 0.624609 0.873312 0.528340
O O3 0.836358 0.712420 0.008454
O O4 0.970111 0.806222 0.206182
O O5 0.787695 0.210034 0.246379
O O6 0.126335 0.126025 0.513317
O O7 0.774462 0.264259 0.839830
O O8 0.619431 0.132958 0.982684
O O9 0.674388 0.387039 0.324293
O O10 0.731510 0.338977 0.153846
O O11 0.802103 0.482962 0.050470
O O12 0.320460 0.458459 0.630011
O O13 0.017071 0.610140 0.117836
O O14 0.000000 0.500000 0.500000
O O15 0.500000 0.000000 0.000000
#
# Coordination Sequence:
#
# PCOD8038692 Si02
#       7
#     2   2   2   2   2   2   2
#     4  10  21  38  62  83 113 156 191 231 282 343
#     4  11  24  39  62  88 117 151 186 236 287 339
#     4  10  19  31  52  77 110 151 190 237 280 324
#     4  10  18  29  50  80 107 144 196 244 274 314
#     4   9  19  35  56  82 109 150 201 236 273 333
#     4  11  21  39  57  86 120 154 192 228 283 348
#     4  11  23  43  65  90 114 144 188 236 283 341
#
# _framework density 20.511151000000002
#
# number of rings (size 3 to 8) (size 9 to 14) (size 15 to 20)
#    0.000    1.714    0.000    8.143    0.000    5.714 
#    0.000    5.714    0.000    0.000    0.000    1.000 
#    0.000    0.000    0.000    0.000    0.000    0.000 
#
# Total GULP energy -173614.792945 kJ/mol
# GULP energy per Si atom -12401.056639 kJ/mol
# Density = 2.046447 g / cm^3
# Si number density = 20.511151 Si / 1000 Ang^3
#
#
#
# Elastic Constant Matrix: (Units=GPa)
#
#
# Indices 1 2 3 4 5 6 
#
# 1 115.2125 74.8373 40.6345 5.6432 20.9629 -4.3539
# 2 74.8373 195.3673 59.4609 30.5269 4.2253 13.7339
# 3 40.6345 59.4609 98.1751 21.5281 13.1129 1.9679
# 4 5.6432 30.5269 21.5281 70.5381 -1.2922 7.8849
# 5 20.9629 4.2253 13.1129 -1.2922 32.4128 9.4274
# 6 -4.3539 13.7339 1.9679 7.8849 9.4274 28.7062
#
#
#
# Elastic Compliance Matrix: (Units=1/GPa)
#
#
# Indices 1 2 3 4 5 6 
#
# 1 0.015366 -0.005853 -0.001659 0.000638 -0.011004 0.008683
# 2 -0.005853 0.008930 -0.003279 -0.001576 0.005743 -0.006389
# 3 -0.001659 -0.003279 0.014201 -0.003207 -0.005228 0.002942
# 4 0.000638 -0.001576 -0.003207 0.016335 0.003024 -0.004409
# 5 -0.011004 0.005743 -0.005228 0.003024 0.045194 -0.019731
# 6 0.008683 -0.006389 0.002942 -0.004409 -0.019731 0.046698
#
#
# Mechanical properties :
#
#
# Convention : Reuss Voigt Hill
#
# Bulk Modulus (GPa) = 59.12313 84.29113 71.70713
# Shear Modulus (GPa) = 28.74461 41.91956 35.33209
#
# Velocity S-wave (km/s) = 3.74761 4.52568 4.15490
# Velocity P-wave (km/s) = 6.90026 8.27608 7.61929
#
# Compressibility (1/GPa) = 0.01691385
#
# Stress axis : x y z
#
# Youngs Moduli (GPa) = 65.07993 111.98309 70.41618
#
# Poissons Ratio (x) = 0.65545 0.11682
# Poissons Ratio (y) = 0.38092 0.23092
# Poissons Ratio (z) = 0.10797 0.36723
#
# Static dielectric constant tensor:
#      x y z
#    x 3.570300 0.067020 0.112150 
#    y 0.067020 4.087730 0.064870 
#    z 0.112150 0.064870 3.759960 
# 
# 
# High freq. dielectric constant tensor:
#      x y z
#    x 1.784210 0.005510 0.018730 
#    y 0.005510 1.808510 0.008980 
#    z 0.018730 0.008980 1.800710 
# 
# From -- ./inp_files/34454.got.cif
#   From: 2010.06.25/outbox.cif.g09.slc.cpg/sg2_18_cif.got.tgz:34454.got - 2010.06.27 13:26:56.
