data_PCOD8038545
_publ_section_title
;
Structure prediction by ZEFSAII (Michael W. Deem and Ramdas Pophale) SiO2 
 PCOD8038545
Probable space group: P -1
;
_chemical_formula_sum "Si O2"
_cell_formula_units_Z 12
_cell_length_a 18.120748
_cell_length_b 8.895444
_cell_length_c 12.022623
_cell_angle_alpha 49.664681
_cell_angle_beta 152.124695
_cell_angle_gamma 143.580558
_cell_volume 523.414678
_symmetry_space_group_name_H-M "P -1"
_symmetry_group_IT_number 2
_symmetry_cell_setting 'triclinic'
loop_
_space_group_symop_operation_xyz
x,y,z
-x,-y,-z
loop_
_atom_site_type_symbol
_atom_site_label
_atom_site_fract_x
_atom_site_fract_y
_atom_site_fract_z
Si Si1 0.470344 0.547339 0.605153
Si Si2 0.487239 0.808530 0.296152
Si Si3 0.098987 0.169565 0.422310
Si Si4 0.862466 0.198826 0.251451
Si Si5 0.710637 0.233646 0.237312
Si Si6 0.656030 0.629019 0.043292
O O1 0.517020 0.773183 0.481277
O O2 0.568203 0.431871 0.734456
O O3 0.219218 0.324866 0.395169
O O4 0.555828 0.655125 0.790639
O O5 0.702656 0.082827 0.406888
O O6 0.303158 0.820007 0.036033
O O7 0.076777 0.335299 0.402190
O O8 0.861883 0.920306 0.202168
O O9 0.222997 0.089317 0.685906
O O10 0.902383 0.347518 0.351457
O O11 0.722476 0.464986 0.179135
O O12 0.500000 0.000000 0.000000
O O13 0.500000 0.500000 0.000000
#
# Coordination Sequence:
#
# PCOD8038545 Si02
#       6
#     2   2   2   2   2   2
#     4  11  22  42  62  90 129 165 200 254 313 369
#     4  10  20  39  67  85 124 174 198 246 318 369
#     4  11  23  38  65  95 123 157 213 260 301 358
#     4  10  19  40  62  90 123 163 209 251 300 367
#     4  10  17  37  63  85 116 162 206 239 299 365
#     4  12  23  39  66  96 124 159 208 262 307 359
#
# _framework density 22.926372000000001
#
# number of rings (size 3 to 8) (size 9 to 14) (size 15 to 20)
#    0.000    1.333    5.000    5.000    0.000    1.333 
#    0.000    8.333    0.000    0.000    0.000    0.000 
#    0.000    0.000    0.000    0.000    0.000    0.000 
#
# Total GULP energy -148675.326741 kJ/mol
# GULP energy per Si atom -12389.610562 kJ/mol
# Density = 2.287419 g / cm^3
# Si number density = 22.926372 Si / 1000 Ang^3
#
#
#
# Elastic Constant Matrix: (Units=GPa)
#
#
# Indices 1 2 3 4 5 6 
#
# 1 180.2830 51.0697 68.4677 -23.5571 0.2332 7.7660
# 2 51.0697 64.7189 37.2974 -13.3696 -3.2610 19.6091
# 3 68.4677 37.2974 110.1862 -25.0473 -4.3482 16.3538
# 4 -23.5571 -13.3696 -25.0473 38.3833 3.4590 -1.4526
# 5 0.2332 -3.2610 -4.3482 3.4590 48.3874 -15.5915
# 6 7.7660 19.6091 16.3538 -1.4526 -15.5915 43.4581
#
#
#
# Elastic Compliance Matrix: (Units=1/GPa)
#
#
# Indices 1 2 3 4 5 6 
#
# 1 0.008366 -0.004934 -0.003574 0.001172 -0.000109 0.002077
# 2 -0.004934 0.024687 -0.003185 0.003303 -0.001943 -0.009646
# 3 -0.003574 -0.003185 0.014164 0.005853 -0.000371 -0.003192
# 4 0.001172 0.003303 0.005853 0.031846 -0.002768 -0.003831
# 5 -0.000109 -0.001943 -0.000371 -0.002768 0.023750 0.009464
# 6 0.002077 -0.009646 -0.003192 -0.003831 0.009464 0.031461
#
#
# Mechanical properties :
#
#
# Convention : Reuss Voigt Hill
#
# Bulk Modulus (GPa) = 41.96295 74.31752 58.14023
# Shear Modulus (GPa) = 30.19244 39.26931 34.73088
#
# Velocity S-wave (km/s) = 3.63289 4.14314 3.89638
# Velocity P-wave (km/s) = 5.99502 7.44134 6.75699
#
# Compressibility (1/GPa) = 0.02383055
#
# Stress axis : x y z
#
# Youngs Moduli (GPa) = 119.53422 40.50651 70.60106
#
# Poissons Ratio (x) = 0.19987 0.25235
# Poissons Ratio (y) = 0.58981 0.22485
# Poissons Ratio (z) = 0.42725 0.12901
#
# Static dielectric constant tensor:
#      x y z
#    x 4.936940 0.130910 0.079020 
#    y 0.130910 4.009670 -0.066940 
#    z 0.079020 -0.066940 4.149960 
# 
# 
# High freq. dielectric constant tensor:
#      x y z
#    x 1.938130 -0.005280 0.010840 
#    y -0.005280 1.871230 -0.008860 
#    z 0.010840 -0.008860 1.890800 
# 
# From -- ./inp_files/461955.got.cif
#   From: 2010.06.25/outbox.cif.g09.slc.cpg/sg2_231_cif.got.tgz:461955.got - 2010.06.27 13:26:56.
