data_PCOD8038085
_publ_section_title
;
Structure prediction by ZEFSAII (Michael W. Deem and Ramdas Pophale) SiO2 
 PCOD8038085
Probable space group: P -1
;
_chemical_formula_sum "Si O2"
_cell_formula_units_Z 16
_cell_length_a 11.176533
_cell_length_b 14.785565
_cell_length_c 8.555808
_cell_angle_alpha 40.418693
_cell_angle_beta 54.819654
_cell_angle_gamma 53.228686
_cell_volume 714.300933
_symmetry_space_group_name_H-M "P -1"
_symmetry_group_IT_number 2
_symmetry_cell_setting 'triclinic'
loop_
_space_group_symop_operation_xyz
x,y,z
-x,-y,-z
loop_
_atom_site_type_symbol
_atom_site_label
_atom_site_fract_x
_atom_site_fract_y
_atom_site_fract_z
Si Si1 0.921448 0.310805 0.005838
Si Si2 0.909037 0.584274 0.811977
Si Si3 0.843043 0.939186 0.981320
Si Si4 0.565640 0.061338 0.220541
Si Si5 0.328551 0.990019 0.288165
Si Si6 0.414469 0.668361 0.721645
Si Si7 0.972488 0.850048 0.533629
Si Si8 0.439902 0.367475 0.020712
O O1 0.743402 0.335174 0.069960
O O2 0.958680 0.224067 0.256856
O O3 0.951916 0.469813 0.785013
O O4 0.025793 0.217979 0.909777
O O5 0.955679 0.733379 0.568318
O O6 0.726927 0.630129 0.916797
O O7 0.000000 0.500000 0.000000
O O8 0.728571 0.934954 0.931664
O O9 0.914995 0.070352 0.730857
O O10 0.743373 0.967005 0.179249
O O11 0.500000 0.000000 0.500000
O O12 0.464330 0.052034 0.158699
O O13 0.560339 0.230392 0.025002
O O14 0.391074 0.814906 0.447930
O O15 0.191625 0.030352 0.466470
O O16 0.468163 0.524585 0.756953
O O17 0.541904 0.659450 0.770329
#
# Coordination Sequence:
#
# PCOD8038085 Si02
#       8
#     2   2   2   2   2   2   2   2
#     4   9  17  34  59  91 120 156 198 248 306 351
#     4   9  18  32  60  89 121 158 199 245 303 357
#     4  11  22  37  61  95 120 157 210 253 295 361
#     4  12  25  41  59  85 128 165 202 250 307 361
#     4  11  19  38  62  91 121 161 200 251 305 356
#     4  10  18  35  64  85 118 159 199 242 305 363
#     4  10  17  33  62  91 120 151 204 254 296 355
#     4  10  21  36  58  87 118 166 197 237 305 368
#
# _framework density 22.399522000000001
#
# number of rings (size 3 to 8) (size 9 to 14) (size 15 to 20)
#    0.000    1.750    5.000    1.125    0.000    0.000 
#    0.000    4.375    0.000    1.500    0.000    0.000 
#    0.000    0.000    0.000    0.000    0.000    0.000 
#
# Total GULP energy -198294.359342 kJ/mol
# GULP energy per Si atom -12393.397459 kJ/mol
# Density = 2.234854 g / cm^3
# Si number density = 22.399522 Si / 1000 Ang^3
#
#
#
# Elastic Constant Matrix: (Units=GPa)
#
#
# Indices 1 2 3 4 5 6 
#
# 1 78.2581 17.6732 1.0077 -3.1945 -15.6805 1.6590
# 2 17.6732 172.9771 51.3977 -15.6395 -19.2632 6.4768
# 3 1.0077 51.3977 45.4558 -0.7888 -14.5289 6.5917
# 4 -3.1945 -15.6395 -0.7888 40.8571 -2.5162 -12.1112
# 5 -15.6805 -19.2632 -14.5289 -2.5162 21.5796 -12.3937
# 6 1.6590 6.4768 6.5917 -12.1112 -12.3937 33.4947
#
#
#
# Elastic Compliance Matrix: (Units=1/GPa)
#
#
# Indices 1 2 3 4 5 6 
#
# 1 0.017101 -0.001340 0.006677 0.004344 0.020371 0.007206
# 2 -0.001340 0.009556 -0.010207 0.004379 0.002838 0.002861
# 3 0.006677 -0.010207 0.040925 -0.000279 0.024790 0.002661
# 4 0.004344 0.004379 -0.000279 0.033513 0.021798 0.019177
# 5 0.020371 0.002838 0.024790 0.021798 0.106336 0.040792
# 6 0.007206 0.002861 0.002661 0.019177 0.040792 0.050450
#
#
# Mechanical properties :
#
#
# Convention : Reuss Voigt Hill
#
# Bulk Modulus (GPa) = 17.28792 48.53870 32.91331
# Shear Modulus (GPa) = 17.42765 34.29377 25.86071
#
# Velocity S-wave (km/s) = 2.79236 3.91705 3.40151
# Velocity P-wave (km/s) = 4.25806 6.49417 5.49115
#
# Compressibility (1/GPa) = 0.05784387
#
# Stress axis : x y z
#
# Youngs Moduli (GPa) = 58.47553 104.65039 24.43471
#
# Poissons Ratio (x) = 0.14021 -0.16316
# Poissons Ratio (y) = 0.07835 0.24940
# Poissons Ratio (z) = -0.39047 1.06815
#
# Static dielectric constant tensor:
#      x y z
#    x 4.312850 0.064300 -0.221290 
#    y 0.064300 4.655170 -0.549170 
#    z -0.221290 -0.549170 3.476580 
# 
# 
# High freq. dielectric constant tensor:
#      x y z
#    x 1.899170 -0.003080 -0.014660 
#    y -0.003080 1.892070 -0.041900 
#    z -0.014660 -0.041900 1.824060 
# 
# From -- ./inp_files/271449.got.cif
#   From: 2010.06.25/outbox.cif.g09.slc.cpg/sg2_136_cif.got.tgz:271449.got - 2010.06.27 13:26:56.
