data_PCOD8038746
_publ_section_title
;
Structure prediction by ZEFSAII (Michael W. Deem and Ramdas Pophale) SiO2 
 PCOD8038746
Probable space group: P -1
;
_chemical_formula_sum "Si O2"
_cell_formula_units_Z 16
_cell_length_a 7.896467
_cell_length_b 20.511713
_cell_length_c 9.539139
_cell_angle_alpha 40.761098
_cell_angle_beta 114.443913
_cell_angle_gamma 125.187179
_cell_volume 823.702120
_symmetry_space_group_name_H-M "P -1"
_symmetry_group_IT_number 2
_symmetry_cell_setting 'triclinic'
loop_
_space_group_symop_operation_xyz
x,y,z
-x,-y,-z
loop_
_atom_site_type_symbol
_atom_site_label
_atom_site_fract_x
_atom_site_fract_y
_atom_site_fract_z
Si Si1 0.184811 0.284818 0.051678
Si Si2 0.248481 0.151581 0.950083
Si Si3 0.624451 0.836215 0.514399
Si Si4 0.483972 0.387194 0.739815
Si Si5 0.808781 0.310785 0.928150
Si Si6 0.517796 0.120883 0.318522
Si Si7 0.127096 0.922902 0.898355
Si Si8 0.568376 0.174341 0.816572
O O1 0.272609 0.245878 0.279210
O O2 0.018631 0.175868 0.092861
O O3 0.378485 0.365267 0.892463
O O4 0.058651 0.355891 0.940292
O O5 0.339410 0.286179 0.751851
O O6 0.342039 0.110560 0.919554
O O7 0.323193 0.126121 0.167412
O O8 0.999156 0.089293 0.978003
O O9 0.482289 0.842961 0.580713
O O10 0.469952 0.784786 0.413912
O O11 0.808520 0.957789 0.344510
O O12 0.500000 0.500000 0.500000
O O13 0.717736 0.394627 0.818109
O O14 0.721788 0.278761 0.791545
O O15 0.725686 0.202312 0.176356
O O16 0.500000 0.000000 0.500000
O O17 0.336828 0.913718 0.023539
#
# Coordination Sequence:
#
# PCOD8038746 Si02
#       8
#     2   2   2   2   2   2   2   2
#     4  10  19  33  51  79 101 129 173 217 248 305
#     4   9  19  36  48  73 102 135 173 201 253 312
#     4  12  19  31  51  78 104 138 173 214 249 287
#     4   9  17  34  57  77 100 128 171 220 257 301
#     4   9  19  36  51  73 105 137 168 206 255 312
#     4  10  18  30  50  72 102 135 169 205 247 290
#     4  10  19  32  50  68 106 145 172 197 248 305
#     4   9  20  34  47  71 108 138 174 206 246 301
#
# _framework density 19.424499000000001
#
# number of rings (size 3 to 8) (size 9 to 14) (size 15 to 20)
#    0.000    2.500    3.750    3.000    1.750    1.000 
#    2.250    0.000    0.000    3.000    0.000   11.375 
#    0.000    0.000    0.000    0.000    0.000    0.000 
#
# Total GULP energy -198256.389269 kJ/mol
# GULP energy per Si atom -12391.024329 kJ/mol
# Density = 1.938029 g / cm^3
# Si number density = 19.424499 Si / 1000 Ang^3
#
#
#
# Elastic Constant Matrix: (Units=GPa)
#
#
# Indices 1 2 3 4 5 6 
#
# 1 176.5380 28.2865 69.1337 6.4422 9.0013 -21.5238
# 2 28.2865 31.6549 39.5262 14.4285 -1.3321 -0.8026
# 3 69.1337 39.5262 145.3529 1.7160 12.5949 -5.5961
# 4 6.4422 14.4285 1.7160 35.9324 -6.9676 -1.9345
# 5 9.0013 -1.3321 12.5949 -6.9676 20.8402 1.8231
# 6 -21.5238 -0.8026 -5.5961 -1.9345 1.8231 15.5897
#
#
#
# Elastic Compliance Matrix: (Units=1/GPa)
#
#
# Indices 1 2 3 4 5 6 
#
# 1 0.008971 -0.005851 -0.001885 0.000715 -0.003917 0.011955
# 2 -0.005851 0.070127 -0.017484 -0.025047 0.010521 -0.015082
# 3 -0.001885 -0.017484 0.013141 0.005594 -0.006610 0.002682
# 4 0.000715 -0.025047 0.005594 0.039220 0.007322 0.005716
# 5 -0.003917 0.010521 -0.006610 0.007322 0.057937 -0.013105
# 6 0.011955 -0.015082 0.002682 0.005716 -0.013105 0.083079
#
#
# Mechanical properties :
#
#
# Convention : Reuss Voigt Hill
#
# Bulk Modulus (GPa) = 23.92322 69.71538 46.81930
# Shear Modulus (GPa) = 14.84355 28.91243 21.87799
#
# Velocity S-wave (km/s) = 2.76736 3.86223 3.35969
# Velocity P-wave (km/s) = 4.74908 7.47379 6.26144
#
# Compressibility (1/GPa) = 0.04180039
#
# Stress axis : x y z
#
# Youngs Moduli (GPa) = 111.46740 14.25981 76.10058
#
# Poissons Ratio (x) = 0.08343 0.14343
# Poissons Ratio (y) = 0.65219 1.33051
# Poissons Ratio (z) = 0.21008 0.24931
#
# Static dielectric constant tensor:
#      x y z
#    x 3.946700 -0.043510 -0.068550 
#    y -0.043510 2.866730 0.204670 
#    z -0.068550 0.204670 3.347820 
# 
# 
# High freq. dielectric constant tensor:
#      x y z
#    x 1.784470 -0.016670 0.001230 
#    y -0.016670 1.694320 0.011300 
#    z 0.001230 0.011300 1.742720 
# 
# From -- ./inp_files/213133.got.cif
#   From: 2010.06.25/outbox.cif.g09.slc.cpg/sg2_107_cif.got.tgz:213133.got - 2010.06.27 13:26:56.
