data_PCOD8038272
_publ_section_title
;
Structure prediction by ZEFSAII (Michael W. Deem and Ramdas Pophale) SiO2 
 PCOD8038272
Probable space group: P -1
;
_chemical_formula_sum "Si O2"
_cell_formula_units_Z 16
_cell_length_a 11.214782
_cell_length_b 9.336292
_cell_length_c 15.249435
_cell_angle_alpha 142.275063
_cell_angle_beta 116.407999
_cell_angle_gamma 84.365689
_cell_volume 775.685807
_symmetry_space_group_name_H-M "P -1"
_symmetry_group_IT_number 2
_symmetry_cell_setting 'triclinic'
loop_
_space_group_symop_operation_xyz
x,y,z
-x,-y,-z
loop_
_atom_site_type_symbol
_atom_site_label
_atom_site_fract_x
_atom_site_fract_y
_atom_site_fract_z
Si Si1 0.744029 0.586748 0.386000
Si Si2 0.300015 0.796710 0.658543
Si Si3 0.444440 0.710946 0.102609
Si Si4 0.045044 0.812996 0.667876
Si Si5 0.416338 0.107812 0.585991
Si Si6 0.867128 0.919621 0.985841
Si Si7 0.169456 0.595849 0.337338
Si Si8 0.182774 0.639402 0.872588
O O1 0.677948 0.363141 0.331022
O O2 0.771382 0.473073 0.250437
O O3 0.904034 0.830694 0.586108
O O4 0.620474 0.685607 0.378340
O O5 0.198691 0.941337 0.723961
O O6 0.219536 0.595274 0.454180
O O7 0.461101 0.023497 0.793470
O O8 0.460989 0.755878 0.232789
O O9 0.500000 0.500000 0.000000
O O10 0.270977 0.609583 0.970813
O O11 0.000000 0.500000 0.500000
O O12 0.071400 0.956055 0.838911
O O13 0.260140 0.885803 0.466905
O O14 0.500000 0.000000 0.500000
O O15 0.787514 0.600297 0.802057
O O16 0.765544 0.050643 0.980396
O O17 0.000000 0.000000 0.000000
O O18 0.993912 0.518330 0.240408
#
# Coordination Sequence:
#
# PCOD8038272 Si02
#       8
#     2   2   2   2   2   2   2   2
#     4  11  20  39  69  94 123 164 216 260 303 377
#     4  10  21  39  65  96 125 162 211 258 321 366
#     4  11  25  42  61  93 131 166 207 265 311 373
#     4  10  17  34  61  98 123 153 210 266 305 362
#     4  11  27  46  61  88 135 172 205 255 322 379
#     4  10  19  34  60  97 130 154 202 267 312 367
#     4  10  23  42  66  94 128 168 202 259 325 374
#     4  11  20  39  68  96 122 161 218 258 310 365
#
# _framework density 20.626909000000001
#
# number of rings (size 3 to 8) (size 9 to 14) (size 15 to 20)
#    0.000    1.500    5.000    2.250    0.000    7.000 
#    0.000    3.750    0.000    0.000    0.000    0.000 
#    0.000    0.000    0.000    0.000    0.000    0.000 
#
# Total GULP energy -198306.635856 kJ/mol
# GULP energy per Si atom -12394.164741 kJ/mol
# Density = 2.057996 g / cm^3
# Si number density = 20.626909 Si / 1000 Ang^3
#
#
#
# Elastic Constant Matrix: (Units=GPa)
#
#
# Indices 1 2 3 4 5 6 
#
# 1 101.5058 48.5310 47.9067 -18.7519 -19.1151 -17.5854
# 2 48.5310 121.3174 53.5560 -26.8444 -1.3723 -24.2094
# 3 47.9067 53.5560 126.7523 -27.0043 -24.5916 -10.2841
# 4 -18.7519 -26.8444 -27.0043 31.8294 0.5719 -0.4385
# 5 -19.1151 -1.3723 -24.5916 0.5719 43.6326 -2.1302
# 6 -17.5854 -24.2094 -10.2841 -0.4385 -2.1302 34.0506
#
#
#
# Elastic Compliance Matrix: (Units=1/GPa)
#
#
# Indices 1 2 3 4 5 6 
#
# 1 0.015057 -0.002985 -0.001879 0.004734 0.005650 0.005501
# 2 -0.002985 0.013864 -0.002962 0.007564 -0.002280 0.007376
# 3 -0.001879 -0.002962 0.012647 0.007030 0.006179 0.001220
# 4 0.004734 0.007564 0.007030 0.046589 0.006197 0.010933
# 5 0.005650 -0.002280 0.006179 0.006197 0.028970 0.005055
# 6 0.005501 0.007376 0.001220 0.010933 0.005055 0.038279
#
#
# Mechanical properties :
#
#
# Convention : Reuss Voigt Hill
#
# Bulk Modulus (GPa) = 38.58608 72.17367 55.37988
# Shear Modulus (GPa) = 27.82470 35.20799 31.51635
#
# Velocity S-wave (km/s) = 3.67679 4.13594 3.91311
# Velocity P-wave (km/s) = 6.06402 7.60750 6.87919
#
# Compressibility (1/GPa) = 0.02591608
#
# Stress axis : x y z
#
# Youngs Moduli (GPa) = 66.41484 72.12710 79.07194
#
# Poissons Ratio (x) = 0.21529 0.14855
# Poissons Ratio (y) = 0.19824 0.23425
# Poissons Ratio (z) = 0.12477 0.21367
#
# Static dielectric constant tensor:
#      x y z
#    x 3.958730 -0.177600 -0.160380 
#    y -0.177600 3.951210 0.215980 
#    z -0.160380 0.215980 4.327290 
# 
# 
# High freq. dielectric constant tensor:
#      x y z
#    x 1.806010 -0.002500 -0.008850 
#    y -0.002500 1.797960 -0.011690 
#    z -0.008850 -0.011690 1.812360 
# 
# From -- ./inp_files/516423.got.cif
#   From: 2010.06.25/outbox.cif.g09.slc.cpg/sg2_259_cif.got.tgz:516423.got - 2010.06.27 13:26:56.
