data_PCOD8038133
_publ_section_title
;
Structure prediction by ZEFSAII (Michael W. Deem and Ramdas Pophale) SiO2 
 PCOD8038133
Probable space group: P -1
;
_chemical_formula_sum "Si O2"
_cell_formula_units_Z 16
_cell_length_a 11.438262
_cell_length_b 12.005615
_cell_length_c 17.975226
_cell_angle_alpha 139.187166
_cell_angle_beta 31.423028
_cell_angle_gamma 129.408163
_cell_volume 840.676845
_symmetry_space_group_name_H-M "P -1"
_symmetry_group_IT_number 2
_symmetry_cell_setting 'triclinic'
loop_
_space_group_symop_operation_xyz
x,y,z
-x,-y,-z
loop_
_atom_site_type_symbol
_atom_site_label
_atom_site_fract_x
_atom_site_fract_y
_atom_site_fract_z
Si Si1 0.515801 0.103422 0.264681
Si Si2 0.463450 0.742211 0.405789
Si Si3 0.246176 0.413615 0.332077
Si Si4 0.148798 0.036551 0.667052
Si Si5 0.195477 0.097145 0.102310
Si Si6 0.146418 0.934733 0.455745
Si Si7 0.839973 0.649884 0.489508
Si Si8 0.183240 0.737775 0.702509
O O1 0.334588 0.254503 0.422673
O O2 0.728515 0.181151 0.228895
O O3 0.406060 0.961581 0.306558
O O4 0.597297 0.013933 0.098937
O O5 0.435196 0.555452 0.290754
O O6 0.319516 0.874707 0.501034
O O7 0.374441 0.741827 0.538181
O O8 0.724056 0.792339 0.291176
O O9 0.290806 0.266013 0.173476
O O10 0.265366 0.334192 0.363245
O O11 0.000000 0.500000 0.500000
O O12 0.081186 0.042832 0.620172
O O13 0.930419 0.017647 0.826922
O O14 0.033144 0.152564 0.150877
O O15 0.083348 0.737407 0.401880
O O16 0.000000 0.000000 0.500000
O O17 0.881871 0.455810 0.343076
#
# Coordination Sequence:
#
# PCOD8038133 Si02
#       8
#     2   2   2   2   2   2   2   2
#     4  11  23  37  53  87 117 142 179 232 282 325
#     4   9  18  29  59  82  98 141 195 225 255 313
#     4  11  17  35  58  82 107 141 193 228 264 328
#     4  10  17  34  55  81 105 143 190 221 264 331
#     4  11  22  35  59  85 113 142 179 239 282 312
#     4  10  20  35  54  80 110 148 183 219 267 337
#     4  10  20  36  61  79 105 153 191 217 267 333
#     4  10  19  37  58  82 110 148 187 223 270 333
#
# _framework density 19.032281999999999
#
# number of rings (size 3 to 8) (size 9 to 14) (size 15 to 20)
#    0.000    1.750    6.250    0.750    0.000    0.500 
#    0.000    1.875    0.000    3.000    0.000    0.000 
#    0.000    0.000    0.000    0.000    0.000    0.000 
#
# Total GULP energy -198376.342332 kJ/mol
# GULP energy per Si atom -12398.521396 kJ/mol
# Density = 1.898896 g / cm^3
# Si number density = 19.032282 Si / 1000 Ang^3
#
#
#
# Elastic Constant Matrix: (Units=GPa)
#
#
# Indices 1 2 3 4 5 6 
#
# 1 90.6159 39.5048 11.6388 1.5383 16.0017 8.9110
# 2 39.5048 145.0013 31.9885 -7.9318 8.9570 23.5521
# 3 11.6388 31.9885 60.0137 -5.5726 14.0716 4.2314
# 4 1.5383 -7.9318 -5.5726 18.0819 1.6007 2.4880
# 5 16.0017 8.9570 14.0716 1.6007 21.0731 5.5193
# 6 8.9110 23.5521 4.2314 2.4880 5.5193 33.2888
#
#
#
# Elastic Compliance Matrix: (Units=1/GPa)
#
#
# Indices 1 2 3 4 5 6 
#
# 1 0.014262 -0.003731 0.001438 -0.001565 -0.010202 0.000448
# 2 -0.003731 0.009944 -0.004459 0.003906 0.002923 -0.006247
# 3 0.001438 -0.004459 0.022791 0.006036 -0.015391 0.001974
# 4 -0.001565 0.003906 0.006036 0.060549 -0.007424 -0.006406
# 5 -0.010202 0.002923 -0.015391 -0.007424 0.066872 -0.007914
# 6 0.000448 -0.006247 0.001974 -0.006406 -0.007914 0.035880
#
#
# Mechanical properties :
#
#
# Convention : Reuss Voigt Hill
#
# Bulk Modulus (GPa) = 29.85725 51.32167 40.58946
# Shear Modulus (GPa) = 21.27959 28.65535 24.96747
#
# Velocity S-wave (km/s) = 3.34740 3.88444 3.62587
# Velocity P-wave (km/s) = 5.53731 6.86605 6.23716
#
# Compressibility (1/GPa) = 0.03349270
#
# Stress axis : x y z
#
# Youngs Moduli (GPa) = 70.11875 100.55848 43.87701
#
# Poissons Ratio (x) = 0.37517 -0.06310
# Poissons Ratio (y) = 0.26160 0.19566
# Poissons Ratio (z) = -0.10084 0.44843
#
# Static dielectric constant tensor:
#      x y z
#    x 3.577690 0.147820 0.105370 
#    y 0.147820 4.076250 -0.127630 
#    z 0.105370 -0.127630 2.939450 
# 
# 
# High freq. dielectric constant tensor:
#      x y z
#    x 1.753190 0.008770 0.013180 
#    y 0.008770 1.757850 -0.003880 
#    z 0.013180 -0.003880 1.678850 
# 
# From -- ./inp_files/256774.got.cif
#   From: 2010.06.25/outbox.cif.g09.slc.cpg/sg2_129_cif.got.tgz:256774.got - 2010.06.27 13:26:56.
