data_PCOD8038402
_publ_section_title
;
Structure prediction by ZEFSAII (Michael W. Deem and Ramdas Pophale) SiO2 
 PCOD8038402
Probable space group: P -1
;
_chemical_formula_sum "Si O2"
_cell_formula_units_Z 16
_cell_length_a 15.152730
_cell_length_b 11.277935
_cell_length_c 7.214438
_cell_angle_alpha 58.542185
_cell_angle_beta 105.269813
_cell_angle_gamma 140.193747
_cell_volume 651.575355
_symmetry_space_group_name_H-M "P -1"
_symmetry_group_IT_number 2
_symmetry_cell_setting 'triclinic'
loop_
_space_group_symop_operation_xyz
x,y,z
-x,-y,-z
loop_
_atom_site_type_symbol
_atom_site_label
_atom_site_fract_x
_atom_site_fract_y
_atom_site_fract_z
Si Si1 0.766548 0.970042 0.361071
Si Si2 0.957723 0.813395 0.233057
Si Si3 0.925582 0.397245 0.233904
Si Si4 0.750366 0.457861 0.121715
Si Si5 0.206221 0.321127 0.395217
Si Si6 0.160758 0.836918 0.164457
Si Si7 0.516415 0.215060 0.683693
Si Si8 0.552448 0.959926 0.808056
O O1 0.783779 0.828620 0.528264
O O2 0.603917 0.824379 0.433862
O O3 0.866474 0.171390 0.396437
O O4 0.808709 0.052828 0.103868
O O5 0.927807 0.806500 0.439472
O O6 0.089860 0.862845 0.244435
O O7 0.812789 0.587843 0.241513
O O8 0.000000 0.000000 0.000000
O O9 0.049693 0.577897 0.302018
O O10 0.791510 0.345215 0.210307
O O11 0.000000 0.500000 0.000000
O O12 0.817742 0.622444 0.853114
O O13 0.578751 0.267958 0.183082
O O14 0.347177 0.532330 0.408096
O O15 0.299742 0.936841 0.262891
O O16 0.553196 0.128095 0.636852
O O17 0.453943 0.074236 0.949327
#
# Coordination Sequence:
#
# PCOD8038402 Si02
#       8
#     2   2   2   2   2   2   2   2
#     4  10  17  35  62  94 129 167 210 266 323 379
#     4  11  23  45  61  91 140 172 201 266 331 378
#     4   9  18  33  61  94 124 169 209 256 322 376
#     4  10  22  42  70  94 123 172 222 260 315 384
#     4  11  23  37  66 101 126 169 217 263 316 390
#     4   9  19  35  64  85 128 174 204 262 323 371
#     4   9  18  32  62  95 128 160 215 268 318 375
#     4   9  17  36  65  94 120 168 219 262 317 376
#
# _framework density 24.555872000000001
#
# number of rings (size 3 to 8) (size 9 to 14) (size 15 to 20)
#    0.000    2.250    2.500    0.375    5.250    0.500 
#    0.000    1.875    0.000    6.000    0.000    0.000 
#    0.000    0.000    0.000    0.000    0.000    0.000 
#
# Total GULP energy -198361.177942 kJ/mol
# GULP energy per Si atom -12397.573621 kJ/mol
# Density = 2.449998 g / cm^3
# Si number density = 24.555872 Si / 1000 Ang^3
#
#
#
# Elastic Constant Matrix: (Units=GPa)
#
#
# Indices 1 2 3 4 5 6 
#
# 1 182.0962 68.1193 31.3046 -16.7379 14.8640 9.4921
# 2 68.1193 57.2200 24.3327 -27.4989 26.1476 21.4273
# 3 31.3046 24.3327 85.9379 -5.4236 8.6449 -10.5528
# 4 -16.7379 -27.4989 -5.4236 32.2616 -10.0250 7.5382
# 5 14.8640 26.1476 8.6449 -10.0250 16.1075 -14.5583
# 6 9.4921 21.4273 -10.5528 7.5382 -14.5583 42.5939
#
#
#
# Elastic Compliance Matrix: (Units=1/GPa)
#
#
# Indices 1 2 3 4 5 6 
#
# 1 0.007087 0.000262 -0.002269 0.001795 -0.010088 -0.006039
# 2 0.000262 -0.016707 0.002892 -0.005643 0.044724 0.025348
# 3 -0.002269 0.002892 0.012536 0.000530 -0.010325 -0.001466
# 4 0.001795 -0.005643 0.000530 0.037050 0.038601 0.009207
# 5 -0.010088 0.044724 -0.010325 0.038601 0.002268 -0.028865
# 6 -0.006039 0.025348 -0.001466 0.009207 -0.028865 0.000213
#
#
# Mechanical properties :
#
#
# Convention : Reuss Voigt Hill
#
# Bulk Modulus (GPa) = 213.38738 63.64084 138.51411
# Shear Modulus (GPa) = 118.37180 31.62577 74.99878
#
# Velocity S-wave (km/s) = 6.95052 3.59264 5.53249
# Velocity P-wave (km/s) = 12.30855 6.57133 9.86617
#
# Compressibility (1/GPa) = 0.00468631
#
# Stress axis : x y z
#
# Youngs Moduli (GPa) = 141.10350 -59.85655 79.77059
#
# Poissons Ratio (x) = 0.01567 0.18101
# Poissons Ratio (y) = -0.03693 -0.23073
# Poissons Ratio (z) = 0.32019 0.17313
#
# Static dielectric constant tensor:
#      x y z
#    x 4.369390 0.292700 -0.249880 
#    y 0.292700 4.415470 0.119330 
#    z -0.249880 0.119330 3.962520 
# 
# 
# High freq. dielectric constant tensor:
#      x y z
#    x 1.980260 0.005260 -0.003580 
#    y 0.005260 1.980700 -0.004510 
#    z -0.003580 -0.004510 1.973620 
# 
# From -- ./inp_files/306549.got.cif
#   From: 2010.06.25/outbox.cif.g09.slc.cpg/sg2_154_cif.got.tgz:306549.got - 2010.06.27 13:26:56.
