data_PCOD8038181
_publ_section_title
;
Structure prediction by ZEFSAII (Michael W. Deem and Ramdas Pophale) SiO2 
 PCOD8038181
Probable space group: P -1
;
_chemical_formula_sum "Si O2"
_cell_formula_units_Z 14
_cell_length_a 9.082579
_cell_length_b 17.831347
_cell_length_c 11.420219
_cell_angle_alpha 39.973482
_cell_angle_beta 95.188168
_cell_angle_gamma 125.511625
_cell_volume 710.676011
_symmetry_space_group_name_H-M "P -1"
_symmetry_group_IT_number 2
_symmetry_cell_setting 'triclinic'
loop_
_space_group_symop_operation_xyz
x,y,z
-x,-y,-z
loop_
_atom_site_type_symbol
_atom_site_label
_atom_site_fract_x
_atom_site_fract_y
_atom_site_fract_z
Si Si1 0.208172 0.725578 0.760336
Si Si2 0.494535 0.885807 0.350799
Si Si3 0.138010 0.077924 0.734100
Si Si4 0.994388 0.636645 0.517661
Si Si5 0.079051 0.851563 0.471147
Si Si6 0.629200 0.203094 0.051162
Si Si7 0.219761 0.290156 0.708448
O O1 0.397175 0.821517 0.553898
O O2 0.335097 0.792066 0.813874
O O3 0.106136 0.796359 0.660567
O O4 0.000000 0.500000 0.000000
O O5 0.632296 0.854160 0.369433
O O6 0.272289 0.760829 0.390251
O O7 0.677246 0.113502 0.088837
O O8 0.075936 0.126070 0.562806
O O9 0.214511 0.201435 0.703526
O O10 0.899638 0.848928 0.021387
O O11 0.942849 0.671745 0.592937
O O12 0.945831 0.698188 0.336743
O O13 0.802463 0.410007 0.761075
O O14 0.342207 0.053878 0.191282
O O15 0.500000 0.500000 0.500000
#
# Coordination Sequence:
#
# PCOD8038181 Si02
#       7
#     2   2   2   2   2   2   2
#     4  10  17  35  58  80 108 143 185 214 258 324
#     4  10  21  34  55  83 113 140 175 229 268 307
#     4  10  22  39  53  81 116 135 178 230 271 319
#     4   9  18  34  57  80 103 142 186 220 261 319
#     4   9  18  32  55  77 106 144 176 218 269 316
#     4  10  17  34  58  79 107 143 185 215 258 322
#     4  10  21  39  61  76 104 150 182 217 276 327
#
# _framework density 19.699553999999999
#
# number of rings (size 3 to 8) (size 9 to 14) (size 15 to 20)
#    0.000    2.571    2.857    2.571    0.000    2.857 
#    0.000    5.000    0.000    0.000    0.000    0.000 
#    0.000    0.000    0.000    0.000    0.000    0.000 
#
# Total GULP energy -173462.716583 kJ/mol
# GULP energy per Si atom -12390.194042 kJ/mol
# Density = 1.965472 g / cm^3
# Si number density = 19.699554 Si / 1000 Ang^3
#
#
#
# Elastic Constant Matrix: (Units=GPa)
#
#
# Indices 1 2 3 4 5 6 
#
# 1 167.9451 28.5878 48.7415 0.2092 18.4751 18.2422
# 2 28.5878 35.3334 29.6272 -10.5631 4.5814 7.0700
# 3 48.7415 29.6272 108.7708 -25.0827 24.7977 -0.1141
# 4 0.2092 -10.5631 -25.0827 35.1315 3.3494 4.5945
# 5 18.4751 4.5814 24.7977 3.3494 26.1920 0.4732
# 6 18.2422 7.0700 -0.1141 4.5945 0.4732 18.9507
#
#
#
# Elastic Compliance Matrix: (Units=1/GPa)
#
#
# Indices 1 2 3 4 5 6 
#
# 1 0.008248 -0.003498 -0.002689 -0.002003 -0.002294 -0.006108
# 2 -0.003498 0.043981 -0.009025 0.008554 0.002501 -0.015231
# 3 -0.002689 -0.009025 0.019501 0.012354 -0.016630 0.003493
# 4 -0.002003 0.008554 0.012354 0.042958 -0.017071 -0.011178
# 5 -0.002294 0.002501 -0.016630 -0.017071 0.057218 0.003885
# 6 -0.006108 -0.015231 0.003493 -0.011178 0.003885 0.066965
#
#
# Mechanical properties :
#
#
# Convention : Reuss Voigt Hill
#
# Bulk Modulus (GPa) = 24.20994 58.44027 41.32510
# Shear Modulus (GPa) = 17.66381 29.72770 23.69575
#
# Velocity S-wave (km/s) = 2.99768 3.88887 3.47199
# Velocity P-wave (km/s) = 4.92927 7.06361 6.09066
#
# Compressibility (1/GPa) = 0.04130536
#
# Stress axis : x y z
#
# Youngs Moduli (GPa) = 121.23453 22.73702 51.28036
#
# Poissons Ratio (x) = 0.07954 0.13787
# Poissons Ratio (y) = 0.42414 0.46283
# Poissons Ratio (z) = 0.32594 0.20521
#
# Static dielectric constant tensor:
#      x y z
#    x 3.667860 0.354310 0.493740 
#    y 0.354310 3.822810 -0.119530 
#    z 0.493740 -0.119530 3.802220 
# 
# 
# High freq. dielectric constant tensor:
#      x y z
#    x 1.754090 0.022340 0.029280 
#    y 0.022340 1.757090 -0.020540 
#    z 0.029280 -0.020540 1.770470 
# 
# From -- ./inp_files/317107.got.cif
#   From: 2010.06.25/outbox.cif.g09.slc.cpg/sg2_159_cif.got.tgz:317107.got - 2010.06.27 13:26:56.
