data_PCOD8038478
_publ_section_title
;
Structure prediction by ZEFSAII (Michael W. Deem and Ramdas Pophale) SiO2 
 PCOD8038478
Probable space group: P -1
;
_chemical_formula_sum "Si O2"
_cell_formula_units_Z 16
_cell_length_a 9.098767
_cell_length_b 19.754194
_cell_length_c 12.193277
_cell_angle_alpha 50.318708
_cell_angle_beta 59.608653
_cell_angle_gamma 28.944595
_cell_volume 808.029545
_symmetry_space_group_name_H-M "P -1"
_symmetry_group_IT_number 2
_symmetry_cell_setting 'triclinic'
loop_
_space_group_symop_operation_xyz
x,y,z
-x,-y,-z
loop_
_atom_site_type_symbol
_atom_site_label
_atom_site_fract_x
_atom_site_fract_y
_atom_site_fract_z
Si Si1 0.157662 0.737192 0.907274
Si Si2 0.220130 0.514908 0.149554
Si Si3 0.861853 0.463981 0.592298
Si Si4 0.913371 0.786164 0.367862
Si Si5 0.219911 0.353012 0.988268
Si Si6 0.306880 0.704990 0.129760
Si Si7 0.743154 0.359787 0.385899
Si Si8 0.751133 0.864572 0.749561
O O1 0.440158 0.670522 0.813592
O O2 0.841002 0.882972 0.806598
O O3 0.216222 0.609406 0.991536
O O4 0.131828 0.772606 0.008511
O O5 0.151760 0.563197 0.250605
O O6 0.953345 0.568182 0.145230
O O7 0.511732 0.607393 0.532005
O O8 0.000000 0.500000 0.500000
O O9 0.090181 0.303292 0.605501
O O10 0.060553 0.799081 0.222418
O O11 0.111023 0.682592 0.508234
O O12 0.573661 0.959482 0.350569
O O13 0.278962 0.227735 0.132062
O O14 0.546603 0.261222 0.950462
O O15 0.000000 0.500000 0.000000
O O16 0.574827 0.517500 0.235282
O O17 0.000384 0.217492 0.351729
#
# Coordination Sequence:
#
# PCOD8038478 Si02
#       8
#     2   2   2   2   2   2   2   2
#     4  10  17  36  62  85 117 154 197 243 298 353
#     4  10  18  33  59  91 112 147 200 248 288 347
#     4  11  23  39  62  89 114 157 209 249 286 347
#     4  11  26  41  58  89 126 164 193 243 310 349
#     4  11  21  34  64  95 116 150 203 249 293 351
#     4  11  20  39  63  93 118 153 204 248 297 347
#     4  11  21  42  64  84 122 163 204 241 289 370
#     4  11  23  41  62  89 123 160 197 242 305 362
#
# _framework density 19.801255999999999
#
# number of rings (size 3 to 8) (size 9 to 14) (size 15 to 20)
#    0.000    1.250    6.250    2.625    3.500    1.000 
#    0.000    1.875    0.000    0.000    0.000    0.000 
#    0.000    0.000    0.000    0.000    0.000    0.000 
#
# Total GULP energy -198292.491295 kJ/mol
# GULP energy per Si atom -12393.280706 kJ/mol
# Density = 1.975619 g / cm^3
# Si number density = 19.801256 Si / 1000 Ang^3
#
#
#
# Elastic Constant Matrix: (Units=GPa)
#
#
# Indices 1 2 3 4 5 6 
#
# 1 121.5371 23.4027 40.5867 -4.1258 3.2051 -4.9144
# 2 23.4027 96.8981 26.3857 -1.5968 1.5608 -9.7295
# 3 40.5867 26.3857 54.9499 6.2145 6.3787 3.8000
# 4 -4.1258 -1.5968 6.2145 22.4274 0.8208 3.9108
# 5 3.2051 1.5608 6.3787 0.8208 45.0511 13.0523
# 6 -4.9144 -9.7295 3.8000 3.9108 13.0523 24.6041
#
#
#
# Elastic Compliance Matrix: (Units=1/GPa)
#
#
# Indices 1 2 3 4 5 6 
#
# 1 0.011591 0.000151 -0.009271 0.004129 -0.000597 0.003467
# 2 0.000151 0.012846 -0.006764 0.001709 -0.001458 0.006656
# 3 -0.009271 -0.006764 0.029957 -0.009210 -0.001125 -0.007093
# 4 0.004129 0.001709 -0.009210 0.048966 0.001733 -0.005780
# 5 -0.000597 -0.001458 -0.001125 0.001733 0.026762 -0.014995
# 6 0.003467 0.006656 -0.007093 -0.005780 -0.014995 0.053937
#
#
# Mechanical properties :
#
#
# Convention : Reuss Voigt Hill
#
# Bulk Modulus (GPa) = 44.19934 50.45947 47.32941
# Shear Modulus (GPa) = 22.38453 30.61718 26.50086
#
# Velocity S-wave (km/s) = 3.36588 3.93647 3.66230
# Velocity P-wave (km/s) = 6.12172 6.79701 6.46818
#
# Compressibility (1/GPa) = 0.02262477
#
# Stress axis : x y z
#
# Youngs Moduli (GPa) = 86.27326 77.84824 33.38134
#
# Poissons Ratio (x) = -0.01175 0.30949
# Poissons Ratio (y) = -0.01302 0.22579
# Poissons Ratio (z) = 0.79986 0.52657
#
# Static dielectric constant tensor:
#      x y z
#    x 3.796800 -0.060950 0.320570 
#    y -0.060950 3.302210 0.063800 
#    z 0.320570 0.063800 3.241740 
# 
# 
# High freq. dielectric constant tensor:
#      x y z
#    x 1.792490 -0.009280 0.017380 
#    y -0.009280 1.751920 0.026000 
#    z 0.017380 0.026000 1.747920 
# 
# From -- ./inp_files/209255.got.cif
#   From: 2010.06.25/outbox.cif.g09.slc.cpg/sg2_105_cif.got.tgz:209255.got - 2010.06.27 13:26:56.
