data_PCOD8038872
_publ_section_title
;
Structure prediction by ZEFSAII (Michael W. Deem and Ramdas Pophale) SiO2 
 PCOD8038872
Probable space group: P -1
;
_chemical_formula_sum "Si O2"
_cell_formula_units_Z 16
_cell_length_a 13.620842
_cell_length_b 11.501781
_cell_length_c 19.153404
_cell_angle_alpha 28.946348
_cell_angle_beta 145.783280
_cell_angle_gamma 144.653341
_cell_volume 768.523056
_symmetry_space_group_name_H-M "P -1"
_symmetry_group_IT_number 2
_symmetry_cell_setting 'triclinic'
loop_
_space_group_symop_operation_xyz
x,y,z
-x,-y,-z
loop_
_atom_site_type_symbol
_atom_site_label
_atom_site_fract_x
_atom_site_fract_y
_atom_site_fract_z
Si Si1 0.887707 0.195391 0.659804
Si Si2 0.730005 0.263343 0.675405
Si Si3 0.883897 0.660737 0.664988
Si Si4 0.553017 0.495076 0.655183
Si Si5 0.723418 0.001048 0.298747
Si Si6 0.256949 0.568527 0.676309
Si Si7 0.421113 0.239694 0.323152
Si Si8 0.535604 0.239797 0.170081
O O1 0.805879 0.311667 0.615393
O O2 0.842218 0.291064 0.507656
O O3 0.110446 0.282953 0.753750
O O4 0.789760 0.886803 0.763807
O O5 0.885371 0.440250 0.726166
O O6 0.548287 0.347199 0.532976
O O7 0.661378 0.967454 0.812942
O O8 0.754005 0.527700 0.723897
O O9 0.799835 0.860751 0.476804
O O10 0.097016 0.806909 0.737564
O O11 0.416873 0.199414 0.731572
O O12 0.584076 0.609218 0.690217
O O13 0.608591 0.160277 0.183427
O O14 0.447546 0.555827 0.761233
O O15 0.308668 0.724696 0.696766
O O16 0.500000 0.000000 0.500000
O O17 0.500000 0.500000 0.000000
#
# Coordination Sequence:
#
# PCOD8038872 Si02
#       8
#     2   2   2   2   2   2   2   2
#     4  10  19  32  58  83 116 144 181 255 291 341
#     4  11  17  36  55  85 116 149 190 233 306 338
#     4  10  20  32  58  83 115 144 181 260 293 341
#     4  11  18  33  57  83 116 147 180 250 303 340
#     4  10  21  35  52  85 114 147 197 230 298 339
#     4  10  20  34  53  84 115 147 191 233 295 334
#     4  10  18  31  51  82 115 146 178 235 301 345
#     4  12  23  38  60  83 124 166 193 230 278 361
#
# _framework density 20.819154000000001
#
# number of rings (size 3 to 8) (size 9 to 14) (size 15 to 20)
#    0.000    1.500    6.250    2.250    0.000    1.000 
#    0.000    2.500    0.000    0.750    0.000    1.750 
#    0.000    0.000    0.000    0.000    0.000    0.000 
#
# Total GULP energy -198259.510179 kJ/mol
# GULP energy per Si atom -12391.219386 kJ/mol
# Density = 2.077177 g / cm^3
# Si number density = 20.819154 Si / 1000 Ang^3
#
#
#
# Elastic Constant Matrix: (Units=GPa)
#
#
# Indices 1 2 3 4 5 6 
#
# 1 119.7656 94.3574 15.9670 4.6842 7.8606 -2.9378
# 2 94.3574 216.8449 18.0261 -0.0860 11.4217 14.7464
# 3 15.9670 18.0261 28.3355 -15.9153 3.6354 -2.1124
# 4 4.6842 -0.0860 -15.9153 17.9668 -2.3989 4.8201
# 5 7.8606 11.4217 3.6354 -2.3989 10.4377 -1.0044
# 6 -2.9378 14.7464 -2.1124 4.8201 -1.0044 52.5287
#
#
#
# Elastic Compliance Matrix: (Units=1/GPa)
#
#
# Indices 1 2 3 4 5 6 
#
# 1 0.016084 -0.005713 -0.015578 -0.019596 -0.004593 0.003587
# 2 -0.005713 0.007524 -0.000622 0.001189 -0.003694 -0.002636
# 3 -0.015578 -0.000622 0.093842 0.088484 -0.000422 -0.005050
# 4 -0.019596 0.001189 0.088484 0.144015 0.014698 -0.010805
# 5 -0.004593 -0.003694 -0.000422 0.014698 0.106974 0.001460
# 6 0.003587 -0.002636 -0.005050 -0.010805 0.001460 0.020794
#
#
# Mechanical properties :
#
#
# Convention : Reuss Voigt Hill
#
# Bulk Modulus (GPa) = 13.58269 69.07189 41.32729
# Shear Modulus (GPa) = 10.92658 31.95969 21.44313
#
# Velocity S-wave (km/s) = 2.29341 3.92230 3.21280
# Velocity P-wave (km/s) = 3.68120 7.33224 5.80142
#
# Compressibility (1/GPa) = 0.07362310
#
# Stress axis : x y z
#
# Youngs Moduli (GPa) = 62.17477 132.91296 10.65622
#
# Poissons Ratio (x) = 0.75939 0.16600
# Poissons Ratio (y) = 0.35523 0.00662
# Poissons Ratio (z) = 0.96856 0.08262
#
# Static dielectric constant tensor:
#      x y z
#    x 3.917660 0.438800 0.018030 
#    y 0.438800 4.826670 0.063650 
#    z 0.018030 0.063650 2.919840 
# 
# 
# High freq. dielectric constant tensor:
#      x y z
#    x 1.821670 0.009270 0.000940 
#    y 0.009270 1.850500 0.001410 
#    z 0.000940 0.001410 1.718720 
# 
# From -- ./inp_files/597961.got.cif
#   From: 2010.06.25/outbox.cif.g09.slc.cpg/sg2_299_cif.got.tgz:597961.got - 2010.06.27 13:26:56.
