data_PCOD8038657
_publ_section_title
;
Structure prediction by ZEFSAII (Michael W. Deem and Ramdas Pophale) SiO2 
 PCOD8038657
Probable space group: P -1
;
_chemical_formula_sum "Si O2"
_cell_formula_units_Z 14
_cell_length_a 13.313698
_cell_length_b 9.795531
_cell_length_c 11.789025
_cell_angle_alpha 57.286043
_cell_angle_beta 58.494590
_cell_angle_gamma 34.243363
_cell_volume 718.520491
_symmetry_space_group_name_H-M "P -1"
_symmetry_group_IT_number 2
_symmetry_cell_setting 'triclinic'
loop_
_space_group_symop_operation_xyz
x,y,z
-x,-y,-z
loop_
_atom_site_type_symbol
_atom_site_label
_atom_site_fract_x
_atom_site_fract_y
_atom_site_fract_z
Si Si1 0.937972 0.885220 0.224623
Si Si2 0.928855 0.604061 0.692135
Si Si3 0.620371 0.998244 0.078575
Si Si4 0.323050 0.999832 0.523206
Si Si5 0.084508 0.058488 0.045163
Si Si6 0.746354 0.630392 0.984510
Si Si7 0.678363 0.761259 0.379541
O O1 0.036287 0.607635 0.293363
O O2 0.762760 0.064193 0.331329
O O3 0.076260 0.884748 0.180487
O O4 0.866943 0.001378 0.089427
O O5 0.794392 0.849980 0.586975
O O6 0.845132 0.667451 0.837230
O O7 0.115473 0.509752 0.643405
O O8 0.620020 0.954437 0.231778
O O9 0.421882 0.262846 0.037585
O O10 0.758301 0.999182 0.964931
O O11 0.678567 0.775153 0.077544
O O12 0.316946 0.162927 0.533689
O O13 0.534698 0.761130 0.467154
O O14 0.886032 0.340826 0.056697
#
# Coordination Sequence:
#
# PCOD8038657 Si02
#       7
#     2   2   2   2   2   2   2
#     4   9  18  32  52  75 106 133 160 200 260 303
#     4  10  18  33  51  79 101 128 167 208 248 296
#     4  11  19  34  52  79  98 131 174 211 242 296
#     4  10  18  32  50  76 105 128 162 213 242 297
#     4  10  19  35  50  74 107 133 161 206 255 303
#     4  10  21  32  53  77 100 130 174 211 246 283
#     4  10  18  28  51  76  99 127 167 203 254 286
#
# _framework density 19.484483000000001
#
# number of rings (size 3 to 8) (size 9 to 14) (size 15 to 20)
#    0.000    2.000    5.714    2.143    0.000    0.000 
#    0.000   12.143    0.000    1.714    0.000    0.000 
#    0.000    0.000    0.000    0.000    0.000    0.000 
#
# Total GULP energy -173484.882999 kJ/mol
# GULP energy per Si atom -12391.777357 kJ/mol
# Density = 1.944014 g / cm^3
# Si number density = 19.484483 Si / 1000 Ang^3
#
#
#
# Elastic Constant Matrix: (Units=GPa)
#
#
# Indices 1 2 3 4 5 6 
#
# 1 55.4899 20.7416 15.2654 3.5082 -15.5074 -23.8346
# 2 20.7416 69.0136 18.3036 14.4606 -10.0051 -27.7790
# 3 15.2654 18.3036 65.2902 12.0615 -17.8528 -5.4819
# 4 3.5082 14.4606 12.0615 19.9825 -7.9644 -4.5957
# 5 -15.5074 -10.0051 -17.8528 -7.9644 31.2385 5.7703
# 6 -23.8346 -27.7790 -5.4819 -4.5957 5.7703 32.2249
#
#
#
# Elastic Compliance Matrix: (Units=1/GPa)
#
#
# Indices 1 2 3 4 5 6 
#
# 1 0.030687 0.000903 -0.003658 0.005469 0.010819 0.021696
# 2 0.000903 0.026073 -0.003579 -0.012151 -0.000193 0.020836
# 3 -0.003658 -0.003579 0.020159 -0.006972 0.007654 -0.004727
# 4 0.005469 -0.012151 -0.006972 0.066779 0.011906 -0.000224
# 5 0.010819 -0.000193 0.007654 0.011906 0.044190 0.002922
# 6 0.021696 0.020836 -0.004727 -0.000224 0.002922 0.063681
#
#
# Mechanical properties :
#
#
# Convention : Reuss Voigt Hill
#
# Bulk Modulus (GPa) = 15.56434 33.15721 24.36078
# Shear Modulus (GPa) = 17.50364 25.72138 21.61251
#
# Velocity S-wave (km/s) = 3.00048 3.63725 3.33410
# Velocity P-wave (km/s) = 4.47317 5.89013 5.22986
#
# Compressibility (1/GPa) = 0.06424942
#
# Stress axis : x y z
#
# Youngs Moduli (GPa) = 32.58714 38.35432 49.60555
#
# Poissons Ratio (x) = -0.03463 0.18148
# Poissons Ratio (y) = -0.02942 0.17754
# Poissons Ratio (z) = 0.11922 0.13727
#
# Static dielectric constant tensor:
#      x y z
#    x 3.557430 -0.464140 -0.222290 
#    y -0.464140 3.500670 0.450830 
#    z -0.222290 0.450830 3.704220 
# 
# 
# High freq. dielectric constant tensor:
#      x y z
#    x 1.736950 -0.041270 0.000930 
#    y -0.041270 1.728380 0.031400 
#    z 0.000930 0.031400 1.757560 
# 
# From -- ./inp_files/259989.got.cif
#   From: 2010.06.25/outbox.cif.g09.slc.cpg/sg2_130_cif.got.tgz:259989.got - 2010.06.27 13:26:56.
