data_PCOD8038053
_publ_section_title
;
Structure prediction by ZEFSAII (Michael W. Deem and Ramdas Pophale) SiO2 
 PCOD8038053
Probable space group: P -1
;
_chemical_formula_sum "Si O2"
_cell_formula_units_Z 16
_cell_length_a 14.789744
_cell_length_b 9.037009
_cell_length_c 11.069215
_cell_angle_alpha 106.467174
_cell_angle_beta 102.806513
_cell_angle_gamma 136.003766
_cell_volume 758.135373
_symmetry_space_group_name_H-M "P -1"
_symmetry_group_IT_number 2
_symmetry_cell_setting 'triclinic'
loop_
_space_group_symop_operation_xyz
x,y,z
-x,-y,-z
loop_
_atom_site_type_symbol
_atom_site_label
_atom_site_fract_x
_atom_site_fract_y
_atom_site_fract_z
Si Si1 0.353147 0.587300 0.332925
Si Si2 0.931567 0.320026 0.822213
Si Si3 0.296644 0.162301 0.182990
Si Si4 0.081203 0.452172 0.492816
Si Si5 0.019193 0.296414 0.190021
Si Si6 0.547932 0.073826 0.345488
Si Si7 0.523443 0.847780 0.895688
Si Si8 0.205925 0.558777 0.804127
O O1 0.376818 0.437125 0.302560
O O2 0.156495 0.356916 0.218483
O O3 0.454977 0.789979 0.527181
O O4 0.428407 0.767009 0.276195
O O5 0.067198 0.379327 0.828768
O O6 0.905849 0.423043 0.741903
O O7 0.760599 0.997066 0.743303
O O8 0.000000 0.500000 0.000000
O O9 0.442223 0.271569 0.178715
O O10 0.139224 0.961058 0.999750
O O11 0.972797 0.214664 0.300757
O O12 0.265605 0.735132 0.557732
O O13 0.097656 0.384394 0.608640
O O14 0.000000 0.500000 0.500000
O O15 0.484419 0.041007 0.189851
O O16 0.343989 0.609154 0.861627
O O17 0.682661 0.126210 0.089303
#
# Coordination Sequence:
#
# PCOD8038053 Si02
#       8
#     2   2   2   2   2   2   2   2
#     4  10  21  37  55  85 119 144 188 238 289 335
#     4  10  18  32  55  90 109 143 194 225 280 334
#     4  11  21  34  59  89 116 151 187 237 285 330
#     4  10  17  33  60  82 108 143 196 233 268 336
#     4  10  19  34  57  86 114 147 191 232 278 337
#     4   9  21  36  57  82 110 151 190 233 285 339
#     4  10  19  35  58  82 114 149 197 230 274 345
#     4  10  19  33  58  87 111 153 190 234 278 329
#
# _framework density 21.104410999999999
#
# number of rings (size 3 to 8) (size 9 to 14) (size 15 to 20)
#    0.000    2.000    3.750    1.125    1.750    0.500 
#    0.000    0.000    5.500   11.250    0.000    0.000 
#    0.000    0.000    0.000    0.000    0.000    0.000 
#
# Total GULP energy -198218.280014 kJ/mol
# GULP energy per Si atom -12388.642501 kJ/mol
# Density = 2.105638 g / cm^3
# Si number density = 21.104411 Si / 1000 Ang^3
#
#
#
# Elastic Constant Matrix: (Units=GPa)
#
#
# Indices 1 2 3 4 5 6 
#
# 1 140.7904 33.2879 3.9487 5.6358 -28.7900 11.8904
# 2 33.2879 50.8016 26.8771 0.8850 -23.9802 -5.0901
# 3 3.9487 26.8771 67.6676 -15.3154 -7.6819 -2.6023
# 4 5.6358 0.8850 -15.3154 25.2984 -3.2377 -10.3480
# 5 -28.7900 -23.9802 -7.6819 -3.2377 27.4877 -4.5355
# 6 11.8904 -5.0901 -2.6023 -10.3480 -4.5355 32.1938
#
#
#
# Elastic Compliance Matrix: (Units=1/GPa)
#
#
# Indices 1 2 3 4 5 6 
#
# 1 0.009783 -0.005029 0.001345 -0.002270 0.005260 -0.004288
# 2 -0.005029 0.048686 -0.014259 0.000954 0.035598 0.013724
# 3 0.001345 -0.014259 0.023993 0.016201 -0.001732 0.004151
# 4 -0.002270 0.000954 0.016201 0.061463 0.014191 0.024054
# 5 0.005260 0.035598 -0.001732 0.014191 0.077265 0.018992
# 6 -0.004288 0.013724 0.004151 0.024054 0.018992 0.045558
#
#
# Mechanical properties :
#
#
# Convention : Reuss Voigt Hill
#
# Bulk Modulus (GPa) = 21.47070 43.05411 32.26241
# Shear Modulus (GPa) = 15.71537 30.00570 22.86053
#
# Velocity S-wave (km/s) = 2.73179 3.77473 3.29479
# Velocity P-wave (km/s) = 4.48841 6.28036 5.45842
#
# Compressibility (1/GPa) = 0.04657509
#
# Stress axis : x y z
#
# Youngs Moduli (GPa) = 102.22158 20.53990 41.67890
#
# Poissons Ratio (x) = 0.10330 -0.05606
# Poissons Ratio (y) = 0.51408 0.59431
# Poissons Ratio (z) = -0.13750 0.29288
#
# Static dielectric constant tensor:
#      x y z
#    x 4.076530 0.300250 -0.002110 
#    y 0.300250 5.191350 -1.757080 
#    z -0.002110 -1.757080 5.158470 
# 
# 
# High freq. dielectric constant tensor:
#      x y z
#    x 1.841410 0.025930 0.000500 
#    y 0.025930 1.772710 -0.026020 
#    z 0.000500 -0.026020 1.829320 
# 
# From -- ./inp_files/268821.got.cif
#   From: 2010.06.25/outbox.cif.g09.slc.cpg/sg2_135_cif.got.tgz:268821.got - 2010.06.27 13:26:56.
