data_PCOD8038325
_publ_section_title
;
Structure prediction by ZEFSAII (Michael W. Deem and Ramdas Pophale) SiO2 
 PCOD8038325
Probable space group: P -1
;
_chemical_formula_sum "Si O2"
_cell_formula_units_Z 10
_cell_length_a 6.924669
_cell_length_b 5.305843
_cell_length_c 18.608477
_cell_angle_alpha 125.488575
_cell_angle_beta 41.749182
_cell_angle_gamma 114.454686
_cell_volume 370.451289
_symmetry_space_group_name_H-M "P -1"
_symmetry_group_IT_number 2
_symmetry_cell_setting 'triclinic'
loop_
_space_group_symop_operation_xyz
x,y,z
-x,-y,-z
loop_
_atom_site_type_symbol
_atom_site_label
_atom_site_fract_x
_atom_site_fract_y
_atom_site_fract_z
Si Si1 0.114324 0.802925 0.279100
Si Si2 0.587443 0.652027 0.654877
Si Si3 0.418531 0.653356 0.953401
Si Si4 0.121517 0.655937 0.894300
Si Si5 0.903382 0.436127 0.403964
O O1 0.313155 0.576738 0.134390
O O2 0.908146 0.598424 0.352158
O O3 0.341802 0.986500 0.296199
O O4 0.923238 0.057550 0.327976
O O5 0.258891 0.603738 0.767832
O O6 0.609608 0.546042 0.547316
O O7 0.825712 0.452689 0.603326
O O8 0.381355 0.597109 0.869223
O O9 0.126759 0.588565 0.066740
O O10 0.500000 0.000000 0.000000
O O11 0.000000 0.000000 0.000000
#
# Coordination Sequence:
#
# PCOD8038325 Si02
#       5
#     2   2   2   2   2
#     4  10  17  35  53  87 118 154 201 250 296 365
#     4   9  18  30  57  86 115 154 201 248 297 362
#     4  11  24  38  61  89 124 162 202 253 310 359
#     4  11  21  41  59  89 121 160 206 253 297 372
#     4   9  18  29  56  89 116 151 202 249 301 355
#
# _framework density 26.994102000000002
#
# number of rings (size 3 to 8) (size 9 to 14) (size 15 to 20)
#    1.200    0.800    4.000    0.600    0.000    0.800 
#    0.000    0.000    0.000    2.400    0.000    0.000 
#    0.000    0.000    0.000    0.000    0.000    0.000 
#
# Total GULP energy -123957.787029 kJ/mol
# GULP energy per Si atom -12395.778703 kJ/mol
# Density = 2.693266 g / cm^3
# Si number density = 26.994102 Si / 1000 Ang^3
#
#
#
# Elastic Constant Matrix: (Units=GPa)
#
#
# Indices 1 2 3 4 5 6 
#
# 1 32.4239 18.7167 7.6813 -14.9856 13.1275 -4.0497
# 2 18.7167 195.3499 79.9819 -7.0715 -4.3534 -11.5278
# 3 7.6813 79.9819 187.3425 -16.5781 1.7548 15.1871
# 4 -14.9856 -7.0715 -16.5781 51.3132 -4.3347 1.7505
# 5 13.1275 -4.3534 1.7548 -4.3347 30.4258 -1.2024
# 6 -4.0497 -11.5278 15.1871 1.7505 -1.2024 29.3763
#
#
#
# Elastic Compliance Matrix: (Units=1/GPa)
#
#
# Indices 1 2 3 4 5 6 
#
# 1 0.046830 -0.004814 0.001146 0.011676 -0.019198 0.002492
# 2 -0.004814 0.007230 -0.003376 -0.001365 0.003275 0.004134
# 3 0.001146 -0.003376 0.007368 0.002318 -0.001276 -0.005166
# 4 0.011676 -0.001365 0.002318 0.023336 -0.002105 -0.001601
# 5 -0.019198 0.003275 -0.001276 -0.002105 0.041437 0.001120
# 6 0.002492 0.004134 -0.005166 -0.001601 0.001120 0.038819
#
#
# Mechanical properties :
#
#
# Convention : Reuss Voigt Hill
#
# Bulk Modulus (GPa) = 21.12382 69.76400 45.44391
# Shear Modulus (GPa) = 25.65592 42.80548 34.23070
#
# Velocity S-wave (km/s) = 3.08624 3.98645 3.56488
# Velocity P-wave (km/s) = 4.53235 6.86216 5.81513
#
# Compressibility (1/GPa) = 0.04733993
#
# Stress axis : x y z
#
# Youngs Moduli (GPa) = 21.35405 138.31234 135.72201
#
# Poissons Ratio (x) = 0.66586 -0.15558
# Poissons Ratio (y) = 0.10280 0.45818
# Poissons Ratio (z) = -0.02448 0.46693
#
# Static dielectric constant tensor:
#      x y z
#    x 4.656770 -0.157820 -0.074230 
#    y -0.157820 4.617080 -0.139930 
#    z -0.074230 -0.139930 5.097630 
# 
# 
# High freq. dielectric constant tensor:
#      x y z
#    x 2.064940 -0.003020 0.001590 
#    y -0.003020 2.076850 -0.005060 
#    z 0.001590 -0.005060 2.097400 
# 
# From -- ./inp_files/18058.got.cif
#   From: 2010.06.25/outbox.cif.g09.slc.cpg/sg2_10_cif.got.tgz:18058.got - 2010.06.27 13:26:56.
