data_PCOD8038244
_publ_section_title
;
Structure prediction by ZEFSAII (Michael W. Deem and Ramdas Pophale) SiO2 
 PCOD8038244
Probable space group: P -1
;
_chemical_formula_sum "Si O2"
_cell_formula_units_Z 16
_cell_length_a 11.630335
_cell_length_b 10.520583
_cell_length_c 18.102786
_cell_angle_alpha 75.219499
_cell_angle_beta 31.257856
_cell_angle_gamma 56.400201
_cell_volume 826.693026
_symmetry_space_group_name_H-M "P -1"
_symmetry_group_IT_number 2
_symmetry_cell_setting 'triclinic'
loop_
_space_group_symop_operation_xyz
x,y,z
-x,-y,-z
loop_
_atom_site_type_symbol
_atom_site_label
_atom_site_fract_x
_atom_site_fract_y
_atom_site_fract_z
Si Si1 0.331357 0.238312 0.809456
Si Si2 0.742966 0.344647 0.124650
Si Si3 0.729697 0.657948 0.576997
Si Si4 0.893786 0.385300 0.420355
Si Si5 0.723408 0.789551 0.900803
Si Si6 0.888908 0.856307 0.520163
Si Si7 0.490028 0.691250 0.154793
Si Si8 0.297119 0.517517 0.715408
O O1 0.315204 0.308118 0.890078
O O2 0.249770 0.378625 0.770523
O O3 0.658396 0.055867 0.643612
O O4 0.099231 0.207680 0.936491
O O5 0.586601 0.263552 0.223638
O O6 0.586514 0.500267 0.126497
O O7 0.665870 0.437525 0.231172
O O8 0.786785 0.575168 0.475809
O O9 0.733620 0.814757 0.554604
O O10 0.000000 0.500000 0.500000
O O11 0.624592 0.423085 0.515774
O O12 0.186967 0.274185 0.223951
O O13 0.969813 0.271129 0.468046
O O14 0.029751 0.691071 0.792069
O O15 0.550370 0.731926 0.036203
O O16 0.500000 0.000000 0.000000
O O17 0.140206 0.838740 0.342005
#
# Coordination Sequence:
#
# PCOD8038244 Si02
#       8
#     2   2   2   2   2   2   2   2
#     4  11  19  31  59  88 114 137 191 234 282 320
#     4  10  17  34  61  82 111 147 183 235 273 330
#     4   9  18  37  59  80 109 150 196 224 270 320
#     4  10  21  37  56  82 114 151 183 228 278 336
#     4  12  24  34  54  88 119 141 181 230 292 341
#     4  11  21  35  62  83 110 151 193 233 261 332
#     4  11  19  36  56  84 115 145 180 231 287 332
#     4  10  19  36  54  81 115 150 176 225 292 339
#
# _framework density 19.354223000000001
#
# number of rings (size 3 to 8) (size 9 to 14) (size 15 to 20)
#    0.000    1.500    7.500    2.250    1.750    0.500 
#    0.000    0.625    0.000    0.750    0.000    0.000 
#    0.000    0.000    0.000    0.000    0.000    0.000 
#
# Total GULP energy -198276.813466 kJ/mol
# GULP energy per Si atom -12392.300842 kJ/mol
# Density = 1.931017 g / cm^3
# Si number density = 19.354223 Si / 1000 Ang^3
#
#
#
# Elastic Constant Matrix: (Units=GPa)
#
#
# Indices 1 2 3 4 5 6 
#
# 1 49.2622 24.3614 33.8892 -9.2638 -6.4756 4.5674
# 2 24.3614 60.0221 26.8764 3.4058 0.4676 -4.1365
# 3 33.8892 26.8764 137.4024 -13.5317 -8.9999 -4.6062
# 4 -9.2638 3.4058 -13.5317 31.9027 -2.0506 -4.3500
# 5 -6.4756 0.4676 -8.9999 -2.0506 33.8385 -0.7808
# 6 4.5674 -4.1365 -4.6062 -4.3500 -0.7808 16.2721
#
#
#
# Elastic Compliance Matrix: (Units=1/GPa)
#
#
# Indices 1 2 3 4 5 6 
#
# 1 0.033129 -0.012469 -0.005023 0.007583 0.005368 -0.011606
# 2 -0.012469 0.023552 -0.002147 -0.006313 -0.003503 0.007023
# 3 -0.005023 -0.002147 0.009572 0.003586 0.001938 0.004625
# 4 0.007583 -0.006313 0.003586 0.037071 0.004910 0.007427
# 5 0.005368 -0.003503 0.001938 0.004910 0.031463 0.000974
# 6 -0.011606 0.007023 0.004625 0.007427 0.000974 0.069839
#
#
# Mechanical properties :
#
#
# Convention : Reuss Voigt Hill
#
# Bulk Modulus (GPa) = 37.07118 46.32676 41.69897
# Shear Modulus (GPa) = 19.77099 27.17331 23.47215
#
# Velocity S-wave (km/s) = 3.19961 3.75106 3.48626
# Velocity P-wave (km/s) = 5.73111 6.53826 6.14795
#
# Compressibility (1/GPa) = 0.02697513
#
# Stress axis : x y z
#
# Youngs Moduli (GPa) = 30.18540 42.45848 104.47276
#
# Poissons Ratio (x) = 0.52941 0.52472
# Poissons Ratio (y) = 0.37638 0.22434
# Poissons Ratio (z) = 0.15161 0.09117
#
# Static dielectric constant tensor:
#      x y z
#    x 3.526540 0.336960 -0.214100 
#    y 0.336960 3.705460 -0.239510 
#    z -0.214100 -0.239510 3.897730 
# 
# 
# High freq. dielectric constant tensor:
#      x y z
#    x 1.711250 0.002550 -0.016910 
#    y 0.002550 1.727530 -0.002900 
#    z -0.016910 -0.002900 1.778860 
# 
# From -- ./inp_files/179331.got.cif
#   From: 2010.06.25/outbox.cif.g09.slc.cpg/sg2_90_cif.got.tgz:179331.got - 2010.06.27 13:26:56.
