data_PCOD8038149
_publ_section_title
;
Structure prediction by ZEFSAII (Michael W. Deem and Ramdas Pophale) SiO2 
 PCOD8038149
Probable space group: P -1
;
_chemical_formula_sum "Si O2"
_cell_formula_units_Z 16
_cell_length_a 10.235393
_cell_length_b 13.461385
_cell_length_c 14.063017
_cell_angle_alpha 70.599833
_cell_angle_beta 57.791181
_cell_angle_gamma 31.955706
_cell_volume 835.933866
_symmetry_space_group_name_H-M "P -1"
_symmetry_group_IT_number 2
_symmetry_cell_setting 'triclinic'
loop_
_space_group_symop_operation_xyz
x,y,z
-x,-y,-z
loop_
_atom_site_type_symbol
_atom_site_label
_atom_site_fract_x
_atom_site_fract_y
_atom_site_fract_z
Si Si1 0.661485 0.443046 0.748810
Si Si2 0.605401 0.342114 0.631135
Si Si3 0.935132 0.290059 0.373559
Si Si4 0.569591 0.268527 0.114910
Si Si5 0.998533 0.950792 0.687016
Si Si6 0.910622 0.114363 0.856618
Si Si7 0.178616 0.344807 0.336705
Si Si8 0.634746 0.651838 0.565736
O O1 0.507183 0.449323 0.735762
O O2 0.443381 0.614694 0.857532
O O3 0.908423 0.232261 0.772215
O O4 0.772279 0.476215 0.630188
O O5 0.821301 0.296612 0.508499
O O6 0.319158 0.487671 0.635990
O O7 0.781283 0.134223 0.642603
O O8 0.026841 0.157030 0.296922
O O9 0.196025 0.216576 0.327051
O O10 0.272953 0.374264 0.209119
O O11 0.627166 0.261041 0.984691
O O12 0.814967 0.051158 0.130106
O O13 0.325887 0.802509 0.593522
O O14 0.912102 0.020415 0.807499
O O15 0.382017 0.242603 0.384214
O O16 0.849644 0.555877 0.427779
#
# Coordination Sequence:
#
# PCOD8038149 Si02
#       8
#     2   2   2   2   2   2   2   2
#     4  10  17  34  56  82 102 139 184 228 264 307
#     4  10  20  32  57  80 108 145 190 217 261 325
#     4  11  19  35  52  80 113 150 174 219 272 328
#     4  10  20  37  53  80 112 143 179 229 268 318
#     4  11  20  36  57  82 107 144 191 224 256 318
#     4  10  20  34  59  80 103 143 194 224 258 315
#     4  10  20  33  56  79 118 145 167 219 293 323
#     4  10  18  36  56  82 112 144 172 227 279 324
#
# _framework density 19.140269
#
# number of rings (size 3 to 8) (size 9 to 14) (size 15 to 20)
#    0.000    1.750    5.000    1.500    0.000    0.000 
#    0.000    8.125    0.000    3.000    0.000    0.000 
#    0.000    0.000    0.000    0.000    0.000    0.000 
#
# Total GULP energy -198223.689358 kJ/mol
# GULP energy per Si atom -12388.980585 kJ/mol
# Density = 1.909671 g / cm^3
# Si number density = 19.140269 Si / 1000 Ang^3
#
#
#
# Elastic Constant Matrix: (Units=GPa)
#
#
# Indices 1 2 3 4 5 6 
#
# 1 98.8496 26.4945 18.3343 3.4300 1.5921 20.1991
# 2 26.4945 84.7268 24.0497 -10.3628 1.7321 10.9603
# 3 18.3343 24.0497 98.8931 14.1860 2.7423 11.2883
# 4 3.4300 -10.3628 14.1860 28.7182 2.9468 8.9515
# 5 1.5921 1.7321 2.7423 2.9468 20.7080 3.8517
# 6 20.1991 10.9603 11.2883 8.9515 3.8517 16.0204
#
#
#
# Elastic Compliance Matrix: (Units=1/GPa)
#
#
# Indices 1 2 3 4 5 6 
#
# 1 0.014427 -0.001317 -0.000765 0.004045 0.002159 -0.019529
# 2 -0.001317 0.016682 -0.004018 0.012494 0.000048 -0.013913
# 3 -0.000765 -0.004018 0.012372 -0.007155 -0.000040 -0.000996
# 4 0.004045 0.012494 -0.007155 0.054598 -0.000945 -0.038886
# 5 0.002159 0.000048 -0.000040 -0.000945 0.050948 -0.014448
# 6 -0.019529 -0.013913 -0.000996 -0.038886 -0.014448 0.122465
#
#
# Mechanical properties :
#
#
# Convention : Reuss Voigt Hill
#
# Bulk Modulus (GPa) = 31.96939 46.69184 39.33062
# Shear Modulus (GPa) = 16.99987 27.32873 22.16430
#
# Velocity S-wave (km/s) = 2.98346 3.78274 3.40662
# Velocity P-wave (km/s) = 5.34855 6.59745 6.00555
#
# Compressibility (1/GPa) = 0.03127992
#
# Stress axis : x y z
#
# Youngs Moduli (GPa) = 69.31557 59.94486 80.82648
#
# Poissons Ratio (x) = 0.07896 0.06186
# Poissons Ratio (y) = 0.09130 0.32476
# Poissons Ratio (z) = 0.05305 0.24086
#
# Static dielectric constant tensor:
#      x y z
#    x 3.486230 0.186000 0.253870 
#    y 0.186000 3.547870 0.040870 
#    z 0.253870 0.040870 3.586560 
# 
# 
# High freq. dielectric constant tensor:
#      x y z
#    x 1.729590 0.014720 0.031520 
#    y 0.014720 1.731650 0.003750 
#    z 0.031520 0.003750 1.730140 
# 
# From -- ./inp_files/520844.got.cif
#   From: 2010.06.25/outbox.cif.g09.slc.cpg/sg2_261_cif.got.tgz:520844.got - 2010.06.27 13:26:56.
