data_PCOD8038841
_publ_section_title
;
Structure prediction by ZEFSAII (Michael W. Deem and Ramdas Pophale) SiO2 
 PCOD8038841
Probable space group: P -1
;
_chemical_formula_sum "Si O2"
_cell_formula_units_Z 16
_cell_length_a 13.810813
_cell_length_b 12.612340
_cell_length_c 11.103516
_cell_angle_alpha 109.534786
_cell_angle_beta 67.123466
_cell_angle_gamma 51.857250
_cell_volume 854.157532
_symmetry_space_group_name_H-M "P -1"
_symmetry_group_IT_number 2
_symmetry_cell_setting 'triclinic'
loop_
_space_group_symop_operation_xyz
x,y,z
-x,-y,-z
loop_
_atom_site_type_symbol
_atom_site_label
_atom_site_fract_x
_atom_site_fract_y
_atom_site_fract_z
Si Si1 0.647257 0.212636 0.402579
Si Si2 0.704191 0.407736 0.453656
Si Si3 0.317896 0.062945 0.021923
Si Si4 0.485995 0.036720 0.711139
Si Si5 0.358086 0.300711 0.663699
Si Si6 0.989644 0.777923 0.934617
Si Si7 0.764607 0.566661 0.629868
Si Si8 0.147468 0.287348 0.446118
O O1 0.699511 0.286113 0.463599
O O2 0.523280 0.345007 0.387235
O O3 0.507711 0.271610 0.586691
O O4 0.858263 0.952046 0.172902
O O5 0.787987 0.417775 0.515856
O O6 0.856473 0.269976 0.212051
O O7 0.156375 0.125504 0.067359
O O8 0.233003 0.196126 0.234143
O O9 0.360180 0.120375 0.923426
O O10 0.526167 0.807538 0.866173
O O11 0.352321 0.245489 0.775215
O O12 0.538794 0.874868 0.551962
O O13 0.700482 0.901400 0.596610
O O14 0.124481 0.550123 0.837147
O O15 0.847165 0.580180 0.492870
O O16 0.920345 0.439487 0.621811
#
# Coordination Sequence:
#
# PCOD8038841 Si02
#       8
#     2   2   2   2   2   2   2   2
#     4  10  19  34  50  74 104 138 169 210 256 299
#     4  10  19  31  52  75 106 132 169 213 258 301
#     4  11  19  32  53  79 108 131 165 212 255 305
#     4  10  20  38  50  73 108 139 174 205 250 307
#     4  10  22  36  51  73 107 142 169 209 248 307
#     4  11  18  32  52  79 106 134 168 207 259 306
#     4  10  18  31  48  78 103 131 162 208 261 299
#     4  10  20  32  53  76 106 134 165 214 256 298
#
# _framework density 18.731905999999999
#
# number of rings (size 3 to 8) (size 9 to 14) (size 15 to 20)
#    0.000    1.750    3.750    4.125    1.750    0.500 
#    0.000    0.000    0.000    0.750    0.000    4.375 
#    0.000    0.000    0.000    0.000    0.000    0.000 
#
# Total GULP energy -198269.725527 kJ/mol
# GULP energy per Si atom -12391.857845 kJ/mol
# Density = 1.868927 g / cm^3
# Si number density = 18.731906 Si / 1000 Ang^3
#
#
#
# Elastic Constant Matrix: (Units=GPa)
#
#
# Indices 1 2 3 4 5 6 
#
# 1 113.2638 37.2334 22.0383 10.7490 -9.9955 6.4793
# 2 37.2334 72.3290 30.8957 9.4772 -5.0712 -0.7181
# 3 22.0383 30.8957 68.5788 14.4769 -11.5928 4.4853
# 4 10.7490 9.4772 14.4769 23.9488 -5.8567 -1.6315
# 5 -9.9955 -5.0712 -11.5928 -5.8567 24.9888 7.3518
# 6 6.4793 -0.7181 4.4853 -1.6315 7.3518 25.0838
#
#
#
# Elastic Compliance Matrix: (Units=1/GPa)
#
#
# Indices 1 2 3 4 5 6 
#
# 1 0.011440 -0.005454 0.000341 -0.002416 0.004422 -0.004625
# 2 -0.005454 0.019941 -0.007806 -0.001242 -0.003301 0.004262
# 3 0.000341 -0.007806 0.021766 -0.008569 0.008801 -0.007340
# 4 -0.002416 -0.001242 -0.008569 0.050098 0.005434 0.003787
# 5 0.004422 -0.003301 0.008801 0.005434 0.051650 -0.017595
# 6 -0.004625 0.004262 -0.007340 0.003787 -0.017595 0.047899
#
#
# Mechanical properties :
#
#
# Convention : Reuss Voigt Hill
#
# Bulk Modulus (GPa) = 36.61837 48.27846 42.44841
# Shear Modulus (GPa) = 21.03201 25.73789 23.38495
#
# Velocity S-wave (km/s) = 3.35444 3.71079 3.53711
# Velocity P-wave (km/s) = 5.88168 6.64750 6.27628
#
# Compressibility (1/GPa) = 0.02730870
#
# Stress axis : x y z
#
# Youngs Moduli (GPa) = 87.41629 50.14791 45.94427
#
# Poissons Ratio (x) = 0.27349 -0.01566
# Poissons Ratio (y) = 0.47674 0.35863
# Poissons Ratio (z) = -0.02979 0.39144
#
# Static dielectric constant tensor:
#      x y z
#    x 3.654730 -0.131160 -0.231240 
#    y -0.131160 3.241570 0.358710 
#    z -0.231240 0.358710 3.497490 
# 
# 
# High freq. dielectric constant tensor:
#      x y z
#    x 1.728670 -0.006780 -0.014700 
#    y -0.006780 1.681420 0.030830 
#    z -0.014700 0.030830 1.728250 
# 
# From -- ./inp_files/451457.got.cif
#   From: 2010.06.25/outbox.cif.g09.slc.cpg/sg2_226_cif.got.tgz:451457.got - 2010.06.27 13:26:56.
