data_PCOD8038432
_publ_section_title
;
Structure prediction by ZEFSAII (Michael W. Deem and Ramdas Pophale) SiO2 
 PCOD8038432
Probable space group: P -1
;
_chemical_formula_sum "Si O2"
_cell_formula_units_Z 16
_cell_length_a 8.212692
_cell_length_b 12.203530
_cell_length_c 9.160218
_cell_angle_alpha 111.800949
_cell_angle_beta 110.527147
_cell_angle_gamma 95.978658
_cell_volume 768.740170
_symmetry_space_group_name_H-M "P -1"
_symmetry_group_IT_number 2
_symmetry_cell_setting 'triclinic'
loop_
_space_group_symop_operation_xyz
x,y,z
-x,-y,-z
loop_
_atom_site_type_symbol
_atom_site_label
_atom_site_fract_x
_atom_site_fract_y
_atom_site_fract_z
Si Si1 0.714641 0.584076 0.817518
Si Si2 0.356716 0.160533 0.041336
Si Si3 0.100339 0.337071 0.788356
Si Si4 0.822519 0.016368 0.875956
Si Si5 0.007955 0.071981 0.686372
Si Si6 0.519209 0.609062 0.173672
Si Si7 0.308647 0.753929 0.997267
Si Si8 0.997013 0.534842 0.682759
O O1 0.554361 0.456902 0.727576
O O2 0.822625 0.578851 0.698911
O O3 0.638405 0.701878 0.843315
O O4 0.844415 0.598319 0.006103
O O5 0.199516 0.099806 0.845963
O O6 0.343986 0.080378 0.146330
O O7 0.547456 0.166887 0.032027
O O8 0.970408 0.201633 0.702280
O O9 0.267208 0.324312 0.730174
O O10 0.982422 0.413237 0.710427
O O11 0.846565 0.992350 0.699423
O O12 0.810053 0.156145 0.946903
O O13 0.000000 0.000000 0.000000
O O14 0.000000 0.000000 0.500000
O O15 0.500000 0.500000 0.000000
O O16 0.409056 0.706089 0.139177
O O17 0.181501 0.637021 0.820748
O O18 0.000000 0.500000 0.500000
#
# Coordination Sequence:
#
# PCOD8038432 Si02
#       8
#     2   2   2   2   2   2   2   2
#     4  10  19  37  63  88 115 156 207 237 289 361
#     4  10  20  40  64  85 115 162 202 242 293 355
#     4  10  19  38  61  85 116 155 202 241 292 358
#     4  10  23  38  60  90 118 161 203 241 294 356
#     4  10  21  38  60  87 116 155 199 249 298 339
#     4  10  17  35  67  90 106 150 210 247 277 343
#     4  12  20  39  67  86 118 156 210 242 288 367
#     4  12  25  35  55  95 126 153 189 251 312 348
#
# _framework density 20.813274
#
# number of rings (size 3 to 8) (size 9 to 14) (size 15 to 20)
#    0.000    1.500    6.250    3.000    1.750    3.000 
#    0.000    4.375    0.000    0.000    0.000    0.000 
#    0.000    0.000    0.000    0.000    0.000    0.000 
#
# Total GULP energy -198293.886692 kJ/mol
# GULP energy per Si atom -12393.367918 kJ/mol
# Density = 2.076590 g / cm^3
# Si number density = 20.813274 Si / 1000 Ang^3
#
#
#
# Elastic Constant Matrix: (Units=GPa)
#
#
# Indices 1 2 3 4 5 6 
#
# 1 81.2458 24.0767 31.6129 2.0250 -22.2716 12.7957
# 2 24.0767 119.8989 31.8806 -0.5164 -12.3038 9.7663
# 3 31.6129 31.8806 81.4573 -5.8275 -32.5935 10.6286
# 4 2.0250 -0.5164 -5.8275 10.4347 4.3177 -8.8130
# 5 -22.2716 -12.3038 -32.5935 4.3177 26.2723 -2.8424
# 6 12.7957 9.7663 10.6286 -8.8130 -2.8424 52.4689
#
#
#
# Elastic Compliance Matrix: (Units=1/GPa)
#
#
# Indices 1 2 3 4 5 6 
#
# 1 0.018850 -0.001549 -0.000346 -0.015953 0.016797 -0.006008
# 2 -0.001549 0.009562 -0.003566 -0.001615 -0.001103 -0.001011
# 3 -0.000346 -0.003566 0.026375 -0.000575 0.030523 -0.003038
# 4 -0.015953 -0.001615 -0.000575 0.133757 -0.034280 0.024917
# 5 0.016797 -0.001103 0.030523 -0.034280 0.094126 -0.010733
# 6 -0.006008 -0.001011 -0.003038 0.024917 -0.010733 0.024932
#
#
# Mechanical properties :
#
#
# Convention : Reuss Voigt Hill
#
# Bulk Modulus (GPa) = 22.79715 50.86028 36.82872
# Shear Modulus (GPa) = 15.00848 30.83730 22.92289
#
# Velocity S-wave (km/s) = 2.68825 3.85335 3.32227
# Velocity P-wave (km/s) = 4.54010 6.65487 5.69648
#
# Compressibility (1/GPa) = 0.04386514
#
# Stress axis : x y z
#
# Youngs Moduli (GPa) = 53.04949 104.58272 37.91496
#
# Poissons Ratio (x) = 0.16200 0.01310
# Poissons Ratio (y) = 0.08217 0.13522
# Poissons Ratio (z) = 0.01833 0.37298
#
# Static dielectric constant tensor:
#      x y z
#    x 4.455140 0.364710 -0.534190 
#    y 0.364710 4.349740 0.031440 
#    z -0.534190 0.031440 3.535550 
# 
# 
# High freq. dielectric constant tensor:
#      x y z
#    x 1.817420 0.015000 -0.027530 
#    y 0.015000 1.835340 0.000110 
#    z -0.027530 0.000110 1.758410 
# 
# From -- ./inp_files/182722.got.cif
#   From: 2010.06.25/outbox.cif.g09.slc.cpg/sg2_92_cif.got.tgz:182722.got - 2010.06.27 13:26:56.
