data_PCOD8038804
_publ_section_title
;
Structure prediction by ZEFSAII (Michael W. Deem and Ramdas Pophale) SiO2 
 PCOD8038804
Probable space group: P -1
;
_chemical_formula_sum "Si O2"
_cell_formula_units_Z 14
_cell_length_a 22.158328
_cell_length_b 8.785771
_cell_length_c 12.112318
_cell_angle_alpha 126.408613
_cell_angle_beta 139.476259
_cell_angle_gamma 34.620357
_cell_volume 867.188342
_symmetry_space_group_name_H-M "P -1"
_symmetry_group_IT_number 2
_symmetry_cell_setting 'triclinic'
loop_
_space_group_symop_operation_xyz
x,y,z
-x,-y,-z
loop_
_atom_site_type_symbol
_atom_site_label
_atom_site_fract_x
_atom_site_fract_y
_atom_site_fract_z
Si Si1 0.527614 0.470859 0.197994
Si Si2 0.368919 0.305969 0.473035
Si Si3 0.714156 0.588297 0.834382
Si Si4 0.600678 0.395668 0.694307
Si Si5 0.335034 0.934593 0.967384
Si Si6 0.908937 0.597802 0.073073
Si Si7 0.808185 0.770390 0.761006
O O1 0.609240 0.546440 0.355546
O O2 0.482988 0.455540 0.246856
O O3 0.621688 0.178476 0.145543
O O4 0.401809 0.692481 0.041267
O O5 0.321869 0.446390 0.349036
O O6 0.258983 0.336358 0.392677
O O7 0.500000 0.000000 0.500000
O O8 0.686857 0.461672 0.828609
O O9 0.626291 0.902836 0.878475
O O10 0.867597 0.438906 0.976628
O O11 0.500000 0.500000 0.500000
O O12 0.701826 0.078065 0.709879
O O13 0.174833 0.145938 0.849310
O O14 0.065093 0.400559 0.217679
O O15 0.855828 0.731558 0.935344
#
# Coordination Sequence:
#
# PCOD8038804 Si02
#       7
#     2   2   2   2   2   2   2
#     4  11  19  31  54  75 104 128 170 208 254 289
#     4  11  15  31  49  76  97 130 165 209 246 290
#     4   9  18  31  49  71 104 129 162 205 253 293
#     4  12  20  29  50  84 103 128 162 211 252 306
#     4   9  19  35  51  73 101 134 167 212 245 293
#     4   8  17  36  50  72  99 132 174 208 239 292
#     4  10  18  30  56  74  99 129 173 211 244 282
#
# _framework density 16.144129
#
# number of rings (size 3 to 8) (size 9 to 14) (size 15 to 20)
#    0.857    1.143    5.714    0.000    0.000    1.143 
#    0.000    0.714    0.000    0.857    0.000    0.000 
#    0.000    0.000    0.000    0.000    0.000    0.000 
#
# Total GULP energy -173437.879033 kJ/mol
# GULP energy per Si atom -12388.419931 kJ/mol
# Density = 1.610738 g / cm^3
# Si number density = 16.144129 Si / 1000 Ang^3
#
#
#
# Elastic Constant Matrix: (Units=GPa)
#
#
# Indices 1 2 3 4 5 6 
#
# 1 130.3939 45.2626 40.4331 -1.3074 10.5452 -9.8250
# 2 45.2626 63.6595 24.4977 3.9237 -0.0249 -14.3249
# 3 40.4331 24.4977 53.2945 2.1848 4.2577 -12.0421
# 4 -1.3074 3.9237 2.1848 21.4527 -3.7085 1.0018
# 5 10.5452 -0.0249 4.2577 -3.7085 26.8561 1.1829
# 6 -9.8250 -14.3249 -12.0421 1.0018 1.1829 33.4477
#
#
#
# Elastic Compliance Matrix: (Units=1/GPa)
#
#
# Indices 1 2 3 4 5 6 
#
# 1 0.012112 -0.006662 -0.006277 0.002076 -0.003414 -0.001497
# 2 -0.006662 0.023934 -0.004450 -0.004218 0.002465 0.006730
# 3 -0.006277 -0.004450 0.027321 -0.003089 -0.002573 0.006270
# 4 0.002076 -0.004218 -0.003089 0.049162 0.006636 -0.004016
# 5 -0.003414 0.002465 -0.002573 0.006636 0.040012 -0.002488
# 6 -0.001497 0.006730 0.006270 -0.004016 -0.002488 0.034806
#
#
# Mechanical properties :
#
#
# Convention : Reuss Voigt Hill
#
# Bulk Modulus (GPa) = 34.98128 51.97051 43.47589
# Shear Modulus (GPa) = 21.58379 25.49492 23.53935
#
# Velocity S-wave (km/s) = 3.66039 3.97823 3.82262
# Velocity P-wave (km/s) = 6.29125 7.30502 6.81700
#
# Compressibility (1/GPa) = 0.02858671
#
# Stress axis : x y z
#
# Youngs Moduli (GPa) = 82.55968 41.78227 36.60236
#
# Poissons Ratio (x) = 0.27837 0.22977
# Poissons Ratio (y) = 0.55005 0.16288
# Poissons Ratio (z) = 0.51826 0.18593
#
# Static dielectric constant tensor:
#      x y z
#    x 3.316920 -0.128280 0.114450 
#    y -0.128280 2.943580 0.046840 
#    z 0.114450 0.046840 2.949660 
# 
# 
# High freq. dielectric constant tensor:
#      x y z
#    x 1.625490 -0.002440 0.007940 
#    y -0.002440 1.602190 0.000400 
#    z 0.007940 0.000400 1.596430 
# 
# From -- ./inp_files/235207.got.cif
#   From: 2010.06.25/outbox.cif.g09.slc.cpg/sg2_118_cif.got.tgz:235207.got - 2010.06.27 13:26:56.
