data_PCOD8038456
_publ_section_title
;
Structure prediction by ZEFSAII (Michael W. Deem and Ramdas Pophale) SiO2 
 PCOD8038456
Probable space group: P -1
;
_chemical_formula_sum "Si O2"
_cell_formula_units_Z 16
_cell_length_a 12.442676
_cell_length_b 12.437217
_cell_length_c 8.767803
_cell_angle_alpha 76.152066
_cell_angle_beta 126.698005
_cell_angle_gamma 129.046782
_cell_volume 824.166783
_symmetry_space_group_name_H-M "P -1"
_symmetry_group_IT_number 2
_symmetry_cell_setting 'triclinic'
loop_
_space_group_symop_operation_xyz
x,y,z
-x,-y,-z
loop_
_atom_site_type_symbol
_atom_site_label
_atom_site_fract_x
_atom_site_fract_y
_atom_site_fract_z
Si Si1 0.142943 0.160146 0.012410
Si Si2 0.087660 0.569095 0.888786
Si Si3 0.486368 0.787723 0.211025
Si Si4 0.971227 0.742271 0.744429
Si Si5 0.640779 0.668520 0.563934
Si Si6 0.023171 0.711836 0.131145
Si Si7 0.404413 0.944680 0.282219
Si Si8 0.283857 0.067955 0.934558
O O1 0.283698 0.259695 0.229108
O O2 0.231214 0.155945 0.938519
O O3 0.037255 0.214477 0.844074
O O4 0.000000 0.000000 0.000000
O O5 0.021832 0.652482 0.732683
O O6 0.032740 0.433219 0.787128
O O7 0.291305 0.671470 0.034783
O O8 0.000000 0.500000 0.000000
O O9 0.546198 0.727559 0.401599
O O10 0.504912 0.916247 0.262647
O O11 0.605284 0.844058 0.146015
O O12 0.791762 0.708563 0.558130
O O13 0.926368 0.685345 0.899035
O O14 0.123155 0.909644 0.800079
O O15 0.500000 0.500000 0.500000
O O16 0.219591 0.802707 0.218252
O O17 0.500000 0.000000 0.500000
O O18 0.395917 0.059494 0.156519
#
# Coordination Sequence:
#
# PCOD8038456 Si02
#       8
#     2   2   2   2   2   2   2   2
#     4  11  19  40  62  83 127 165 207 249 306 378
#     4  10  17  36  59  84 113 164 204 239 299 378
#     4  12  23  35  64  95 123 154 204 267 312 359
#     4   9  18  35  56  81 123 156 197 248 306 361
#     4  11  23  38  61  96 119 162 218 257 294 369
#     4   9  18  33  60  83 108 162 210 237 292 371
#     4  11  21  35  59  91 121 155 205 259 303 360
#     4  11  22  39  59  93 126 163 198 258 324 367
#
# _framework density 19.413544999999999
#
# number of rings (size 3 to 8) (size 9 to 14) (size 15 to 20)
#    0.000    1.500    7.500    3.375    0.000    0.500 
#    0.000    2.500    0.000    0.750    0.000    0.000 
#    0.000    0.000    0.000    0.000    0.000    0.000 
#
# Total GULP energy -198213.453739 kJ/mol
# GULP energy per Si atom -12388.340859 kJ/mol
# Density = 1.936936 g / cm^3
# Si number density = 19.413545 Si / 1000 Ang^3
#
#
#
# Elastic Constant Matrix: (Units=GPa)
#
#
# Indices 1 2 3 4 5 6 
#
# 1 159.8971 59.1152 28.0378 2.9553 5.3325 -14.7807
# 2 59.1152 96.0378 15.1235 13.1112 -6.1985 -13.0245
# 3 28.0378 15.1235 34.4973 6.9917 -0.0759 0.4797
# 4 2.9553 13.1112 6.9917 15.5848 -5.3744 0.9966
# 5 5.3325 -6.1985 -0.0759 -5.3744 28.6372 -5.3248
# 6 -14.7807 -13.0245 0.4797 0.9966 -5.3248 36.9379
#
#
#
# Elastic Compliance Matrix: (Units=1/GPa)
#
#
# Indices 1 2 3 4 5 6 
#
# 1 0.009479 -0.005398 -0.006355 0.004895 -0.001736 0.001590
# 2 -0.005398 0.016168 -0.000404 -0.011594 0.003129 0.004310
# 3 -0.006355 -0.000404 0.037599 -0.015943 -0.002370 -0.003085
# 4 0.004895 -0.011594 -0.015943 0.084411 0.011917 -0.002482
# 5 -0.001736 0.003129 -0.002370 0.011917 0.039224 0.005772
# 6 0.001590 0.004310 -0.003085 -0.002482 0.005772 0.030167
#
#
# Mechanical properties :
#
#
# Convention : Reuss Voigt Hill
#
# Bulk Modulus (GPa) = 25.68652 54.99836 40.34244
# Shear Modulus (GPa) = 19.65874 28.77570 24.21722
#
# Velocity S-wave (km/s) = 3.18564 3.85417 3.53574
# Velocity P-wave (km/s) = 5.17600 6.94245 6.12326
#
# Compressibility (1/GPa) = 0.03893093
#
# Stress axis : x y z
#
# Youngs Moduli (GPa) = 105.50108 61.84906 26.59659
#
# Poissons Ratio (x) = 0.33389 0.16902
# Poissons Ratio (y) = 0.56954 0.01074
# Poissons Ratio (z) = 0.67047 0.02498
#
# Static dielectric constant tensor:
#      x y z
#    x 4.597420 -1.219720 0.349240 
#    y -1.219720 4.575830 -0.012480 
#    z 0.349240 -0.012480 3.227640 
# 
# 
# High freq. dielectric constant tensor:
#      x y z
#    x 1.770860 -0.021650 0.033860 
#    y -0.021650 1.759360 0.011280 
#    z 0.033860 0.011280 1.714870 
# 
# From -- ./inp_files/262403.got.cif
#   From: 2010.06.25/outbox.cif.g09.slc.cpg/sg2_132_cif.got.tgz:262403.got - 2010.06.27 13:26:56.
