data_PCOD8038811
_publ_section_title
;
Structure prediction by ZEFSAII (Michael W. Deem and Ramdas Pophale) SiO2 
 PCOD8038811
Probable space group: P -1
;
_chemical_formula_sum "Si O2"
_cell_formula_units_Z 16
_cell_length_a 13.145589
_cell_length_b 12.705663
_cell_length_c 19.089673
_cell_angle_alpha 58.470574
_cell_angle_beta 161.128102
_cell_angle_gamma 123.869297
_cell_volume 856.189498
_symmetry_space_group_name_H-M "P -1"
_symmetry_group_IT_number 2
_symmetry_cell_setting 'triclinic'
loop_
_space_group_symop_operation_xyz
x,y,z
-x,-y,-z
loop_
_atom_site_type_symbol
_atom_site_label
_atom_site_fract_x
_atom_site_fract_y
_atom_site_fract_z
Si Si1 0.018774 0.387798 0.103283
Si Si2 0.981350 0.720798 0.558706
Si Si3 0.734311 0.487315 0.013369
Si Si4 0.879985 0.690952 0.254553
Si Si5 0.458809 0.866825 0.930544
Si Si6 0.534773 0.156487 0.890429
Si Si7 0.754432 0.452006 0.562446
Si Si8 0.749257 0.367450 0.366041
O O1 0.385281 0.381731 0.359420
O O2 0.799794 0.403918 0.021155
O O3 0.833138 0.245249 0.010709
O O4 0.000000 0.500000 0.000000
O O5 0.751433 0.586948 0.478071
O O6 0.141678 0.795045 0.706062
O O7 0.245466 0.684183 0.691425
O O8 0.790207 0.804244 0.359642
O O9 0.075900 0.530425 0.258395
O O10 0.455931 0.408066 0.909826
O O11 0.610194 0.610733 0.862383
O O12 0.052871 0.634469 0.324673
O O13 0.144647 0.727640 0.476594
O O14 0.770441 0.820300 0.119293
O O15 0.416900 0.833862 0.997222
O O16 0.516845 0.014848 0.902105
O O17 0.000000 0.500000 0.500000
#
# Coordination Sequence:
#
# PCOD8038811 Si02
#       8
#     2   2   2   2   2   2   2   2
#     4  12  23  38  57  84 124 164 190 241 311 362
#     4  12  19  36  60  93 120 150 202 248 306 346
#     4  11  20  35  54  89 123 146 201 247 297 361
#     4  11  19  36  58  91 115 155 196 247 309 337
#     4  11  23  37  64  86 118 162 204 256 285 356
#     4  11  23  42  56  86 124 161 206 243 300 352
#     4  12  22  33  61  91 121 152 194 251 307 362
#     4  10  18  30  56  85 124 146 185 253 296 351
#
# _framework density 18.687453000000001
#
# number of rings (size 3 to 8) (size 9 to 14) (size 15 to 20)
#    0.000    0.750    7.500    3.375    0.000    0.000 
#    0.000    0.625    0.000    0.000    0.000    3.500 
#    0.000    0.000    0.000    0.000    0.000    0.000 
#
# Total GULP energy -198278.501699 kJ/mol
# GULP energy per Si atom -12392.406356 kJ/mol
# Density = 1.864492 g / cm^3
# Si number density = 18.687453 Si / 1000 Ang^3
#
#
#
# Elastic Constant Matrix: (Units=GPa)
#
#
# Indices 1 2 3 4 5 6 
#
# 1 50.9198 32.0192 25.7357 -1.1758 -0.4805 -10.7937
# 2 32.0192 114.4692 41.5260 -15.9569 8.7714 -6.1755
# 3 25.7357 41.5260 105.0348 -14.0393 6.5297 -2.8819
# 4 -1.1758 -15.9569 -14.0393 25.7087 -2.5361 -1.0196
# 5 -0.4805 8.7714 6.5297 -2.5361 36.1000 1.2050
# 6 -10.7937 -6.1755 -2.8819 -1.0196 1.2050 22.9812
#
#
#
# Elastic Compliance Matrix: (Units=1/GPa)
#
#
# Indices 1 2 3 4 5 6 
#
# 1 0.028285 -0.006388 -0.004873 -0.004701 0.002125 0.010637
# 2 -0.006388 0.012412 -0.002402 0.005893 -0.002266 0.000414
# 3 -0.004873 -0.002402 0.012368 0.004865 -0.001340 -0.001097
# 4 -0.004701 0.005893 0.004865 0.045146 0.000732 0.001950
# 5 0.002125 -0.002266 -0.001340 0.000732 0.028615 -0.001247
# 6 0.010637 0.000414 -0.001097 0.001950 -0.001247 0.048635
#
#
# Mechanical properties :
#
#
# Convention : Reuss Voigt Hill
#
# Bulk Modulus (GPa) = 38.85400 52.10952 45.48176
# Shear Modulus (GPa) = 23.65550 28.36751 26.01151
#
# Velocity S-wave (km/s) = 3.56174 3.90038 3.73490
# Velocity P-wave (km/s) = 6.14421 6.94472 6.55669
#
# Compressibility (1/GPa) = 0.02573738
#
# Stress axis : x y z
#
# Youngs Moduli (GPa) = 35.35414 80.56946 80.85546
#
# Poissons Ratio (x) = 0.51470 0.39405
# Poissons Ratio (y) = 0.22585 0.19420
# Poissons Ratio (z) = 0.17230 0.19352
#
# Static dielectric constant tensor:
#      x y z
#    x 3.413530 -0.104070 -0.190240 
#    y -0.104070 3.462780 -0.374910 
#    z -0.190240 -0.374910 3.919400 
# 
# 
# High freq. dielectric constant tensor:
#      x y z
#    x 1.710850 -0.021990 -0.016840 
#    y -0.021990 1.698540 -0.022620 
#    z -0.016840 -0.022620 1.742380 
# 
# From -- ./inp_files/256640.got.cif
#   From: 2010.06.25/outbox.cif.g09.slc.cpg/sg2_129_cif.got.tgz:256640.got - 2010.06.27 13:26:56.
