data_PCOD8038480
_publ_section_title
;
Structure prediction by ZEFSAII (Michael W. Deem and Ramdas Pophale) SiO2 
 PCOD8038480
Probable space group: P -1
;
_chemical_formula_sum "Si O2"
_cell_formula_units_Z 16
_cell_length_a 12.161283
_cell_length_b 8.593992
_cell_length_c 13.667049
_cell_angle_alpha 53.367189
_cell_angle_beta 53.884683
_cell_angle_gamma 39.496214
_cell_volume 705.390006
_symmetry_space_group_name_H-M "P -1"
_symmetry_group_IT_number 2
_symmetry_cell_setting 'triclinic'
loop_
_space_group_symop_operation_xyz
x,y,z
-x,-y,-z
loop_
_atom_site_type_symbol
_atom_site_label
_atom_site_fract_x
_atom_site_fract_y
_atom_site_fract_z
Si Si1 0.260535 0.530641 0.325217
Si Si2 0.679338 0.775195 0.042339
Si Si3 0.885665 0.967530 0.883217
Si Si4 0.658754 0.170249 0.253536
Si Si5 0.003021 0.599242 0.293055
Si Si6 0.852089 0.306781 0.992769
Si Si7 0.744228 0.390321 0.282718
Si Si8 0.125054 0.699887 0.547056
O O1 0.461645 0.265020 0.302270
O O2 0.234554 0.582902 0.434213
O O3 0.109101 0.519477 0.370679
O O4 0.246107 0.748046 0.195004
O O5 0.808486 0.535853 0.994156
O O6 0.638620 0.680237 0.194181
O O7 0.777584 0.873545 0.991575
O O8 0.500000 0.000000 0.000000
O O9 0.963490 0.952081 0.957494
O O10 0.046571 0.793874 0.787528
O O11 0.701742 0.280194 0.099846
O O12 0.657761 0.283251 0.316052
O O13 0.800317 0.865388 0.303306
O O14 0.994068 0.385265 0.342903
O O15 0.124637 0.627187 0.151433
O O16 0.733041 0.398029 0.402964
O O17 0.000000 0.000000 0.500000
#
# Coordination Sequence:
#
# PCOD8038480 Si02
#       8
#     2   2   2   2   2   2   2   2
#     4  12  25  42  70  97 140 185 221 282 330 410
#     4  10  19  34  60  99 138 166 220 280 342 402
#     4  10  17  36  62  91 130 172 215 275 341 390
#     4  10  23  44  67 103 135 174 224 277 354 402
#     4  12  24  47  67  96 140 178 230 278 340 409
#     4  10  21  39  68  97 134 178 214 285 343 409
#     4  10  20  42  65  94 132 176 225 282 331 396
#     4  12  25  45  72  98 129 187 239 278 333 398
#
# _framework density 22.682487999999999
#
# number of rings (size 3 to 8) (size 9 to 14) (size 15 to 20)
#    0.000    1.500    3.750    5.250    0.000    1.500 
#    4.500    0.000    0.000    0.000    0.000    0.000 
#    0.000    0.000    0.000    0.000    0.000    0.000 
#
# Total GULP energy -198351.289152 kJ/mol
# GULP energy per Si atom -12396.955572 kJ/mol
# Density = 2.263086 g / cm^3
# Si number density = 22.682488 Si / 1000 Ang^3
#
#
#
# Elastic Constant Matrix: (Units=GPa)
#
#
# Indices 1 2 3 4 5 6 
#
# 1 73.1520 43.7762 40.3346 -12.8006 5.6052 -10.8976
# 2 43.7762 88.0421 39.6936 -13.2440 -4.2952 -21.3465
# 3 40.3346 39.6936 82.0782 -8.1035 13.2812 -1.7232
# 4 -12.8006 -13.2440 -8.1035 35.9982 5.3815 -4.4533
# 5 5.6052 -4.2952 13.2812 5.3815 43.3312 -5.4189
# 6 -10.8976 -21.3465 -1.7232 -4.4533 -5.4189 39.6652
#
#
#
# Elastic Compliance Matrix: (Units=1/GPa)
#
#
# Indices 1 2 3 4 5 6 
#
# 1 0.023173 -0.007065 -0.007180 0.004599 -0.001752 0.002529
# 2 -0.007065 0.021755 -0.007401 0.004236 0.006159 0.010762
# 3 -0.007180 -0.007401 0.020200 -0.000476 -0.006693 -0.006046
# 4 0.004599 0.004236 -0.000476 0.032171 -0.003187 0.006699
# 5 -0.001752 0.006159 -0.006693 -0.003187 0.027099 0.005887
# 6 0.002529 0.010762 -0.006046 0.006699 0.005887 0.032991
#
#
# Mechanical properties :
#
#
# Convention : Reuss Voigt Hill
#
# Bulk Modulus (GPa) = 45.79780 54.54235 50.17008
# Shear Modulus (GPa) = 24.04288 31.76344 27.90316
#
# Velocity S-wave (km/s) = 3.25926 3.74619 3.51117
# Velocity P-wave (km/s) = 5.86501 6.54294 6.21323
#
# Compressibility (1/GPa) = 0.02183511
#
# Stress axis : x y z
#
# Youngs Moduli (GPa) = 43.15349 45.96613 49.50399
#
# Poissons Ratio (x) = 0.32476 0.35545
# Poissons Ratio (y) = 0.30489 0.36639
# Poissons Ratio (z) = 0.30985 0.34021
#
# Static dielectric constant tensor:
#      x y z
#    x 4.273180 0.167030 0.496130 
#    y 0.167030 4.248570 -0.032560 
#    z 0.496130 -0.032560 5.426570 
# 
# 
# High freq. dielectric constant tensor:
#      x y z
#    x 1.898320 0.009740 0.010540 
#    y 0.009740 1.888980 -0.018070 
#    z 0.010540 -0.018070 1.888290 
# 
# From -- ./inp_files/439314.got.cif
#   From: 2010.06.25/outbox.cif.g09.slc.cpg/sg2_220_cif.got.tgz:439314.got - 2010.06.27 13:26:56.
