data_PCOD8038110
_publ_section_title
;
Structure prediction by ZEFSAII (Michael W. Deem and Ramdas Pophale) SiO2 
 PCOD8038110
Probable space group: P -1
;
_chemical_formula_sum "Si O2"
_cell_formula_units_Z 16
_cell_length_a 12.000000
_cell_length_b 9.000000
_cell_length_c 18.000000
_cell_angle_alpha 50.000000
_cell_angle_beta 40.000000
_cell_angle_gamma 80.000000
_cell_volume 729.599496
_symmetry_space_group_name_H-M "P -1"
_symmetry_group_IT_number 2
_symmetry_cell_setting 'triclinic'
loop_
_space_group_symop_operation_xyz
x,y,z
-x,-y,-z
loop_
_atom_site_type_symbol
_atom_site_label
_atom_site_fract_x
_atom_site_fract_y
_atom_site_fract_z
Si Si1 0.530910 0.067448 0.876658
Si Si2 0.304257 0.224114 0.156370
Si Si3 0.289032 0.419326 0.444272
Si Si4 0.823585 0.981969 0.488177
Si Si5 0.764190 0.614148 0.135695
Si Si6 0.052857 0.517537 0.793449
Si Si7 0.034669 0.840265 0.168706
Si Si8 0.648375 0.439980 0.086728
O O1 0.695420 0.370350 0.679477
O O2 0.639502 0.961836 0.812714
O O3 0.500000 0.000000 0.000000
O O4 0.283632 0.930678 0.015896
O O5 0.068793 0.102272 0.359301
O O6 0.500000 0.500000 0.000000
O O7 0.286544 0.294128 0.058147
O O8 0.537870 0.546286 0.308851
O O9 0.107095 0.311351 0.636778
O O10 0.205185 0.184600 0.511740
O O11 0.812408 0.196131 0.396665
O O12 0.621090 0.804701 0.708889
O O13 0.843669 0.486044 0.181980
O O14 0.705855 0.474009 0.132385
O O15 0.955793 0.921965 0.930428
O O16 0.085824 0.362189 0.770960
O O17 0.790165 0.385134 0.984942
#
# Coordination Sequence:
#
# PCOD8038110 Si02
#       8
#     2   2   2   2   2   2   2   2
#     4  11  22  39  63  88 118 160 204 244 297 356
#     4  11  23  39  59  87 121 155 193 243 304 360
#     4  10  23  40  61  90 121 157 202 248 292 355
#     4  10  22  40  60  87 119 152 202 248 290 357
#     4  10  22  41  63  86 118 161 204 246 298 357
#     4  11  23  38  62  91 120 159 198 247 309 355
#     4  11  23  39  58  88 126 154 196 254 300 357
#     4  10  22  41  61  86 119 155 202 252 292 353
#
# _framework density 21.929839999999999
#
# number of rings (size 3 to 8) (size 9 to 14) (size 15 to 20)
#    0.000    1.500    0.000    6.750    0.000   10.000 
#    0.000    0.000    0.000    0.000    0.000    0.000 
#    0.000    0.000    0.000    0.000    0.000    0.000 
#
# Total GULP energy -198362.875429 kJ/mol
# GULP energy per Si atom -12397.679714 kJ/mol
# Density = 2.187993 g / cm^3
# Si number density = 21.929840 Si / 1000 Ang^3
#
#
#
# Elastic Constant Matrix: (Units=GPa)
#
#
# Indices 1 2 3 4 5 6 
#
# 1 27.0434 -5.8602 1.8918 -4.9159 -10.1018 -21.6059
# 2 -5.8602 87.2318 28.8108 -11.4966 -3.3518 -13.1043
# 3 1.8918 28.8108 133.6890 -4.0775 -4.5739 -18.5911
# 4 -4.9159 -11.4966 -4.0775 35.4737 -2.0584 -0.0050
# 5 -10.1018 -3.3518 -4.5739 -2.0584 19.9616 -6.3995
# 6 -21.6059 -13.1043 -18.5911 -0.0050 -6.3995 37.6604
#
#
#
# Elastic Compliance Matrix: (Units=1/GPa)
#
#
# Indices 1 2 3 4 5 6 
#
# 1 -0.389401 -0.091075 -0.035562 -0.107188 -0.337344 -0.329983
# 2 -0.091075 -0.007800 -0.010372 -0.020720 -0.075277 -0.072879
# 3 -0.035562 -0.010372 0.005353 -0.009293 -0.027837 -0.026100
# 4 -0.107188 -0.020720 -0.009293 0.000428 -0.088104 -0.088262
# 5 -0.337344 -0.075277 -0.027837 -0.088104 -0.236457 -0.273662
# 6 -0.329983 -0.072879 -0.026100 -0.088262 -0.273662 -0.247516
#
#
# Mechanical properties :
#
#
# Convention : Reuss Voigt Hill
#
# Bulk Modulus (GPa) = -1.50181 33.07211 15.78515
# Shear Modulus (GPa) = -6.07289 33.49393 13.71052
#
# Velocity S-wave (km/s) = -1.66591 3.91234 2.50311
# Velocity P-wave (km/s) = 2.09443 5.96004 3.94560
#
# Compressibility (1/GPa) = -0.66586515
#
# Stress axis : x y z
#
# Youngs Moduli (GPa) = -2.56805 -128.20176 186.80241
#
# Poissons Ratio (x) = -11.67597 6.64298
# Poissons Ratio (y) = -0.23388 1.93757
# Poissons Ratio (z) = -0.09132 -1.32974
#
# Static dielectric constant tensor:
#      x y z
#    x 4.079420 -0.301860 0.129140 
#    y -0.301860 3.972890 -0.073450 
#    z 0.129140 -0.073450 4.520030 
# 
# 
# High freq. dielectric constant tensor:
#      x y z
#    x 1.854200 -0.011270 0.005950 
#    y -0.011270 1.867030 -0.002100 
#    z 0.005950 -0.002100 1.878690 
# 
# From -- ./inp_files/279861.got.cif
#   From: 2010.06.25/outbox.ucp.g09.slc.cvg/sg2_140_cif.got.tgz:279861.got - 2010.06.28 11:54:26.
