data_PCOD8038565
_publ_section_title
;
Structure prediction by ZEFSAII (Michael W. Deem and Ramdas Pophale) SiO2 
 PCOD8038565
Probable space group: P -1
;
_chemical_formula_sum "Si O2"
_cell_formula_units_Z 16
_cell_length_a 8.719404
_cell_length_b 8.536887
_cell_length_c 14.280993
_cell_angle_alpha 47.270615
_cell_angle_beta 76.650144
_cell_angle_gamma 95.478527
_cell_volume 710.914116
_symmetry_space_group_name_H-M "P -1"
_symmetry_group_IT_number 2
_symmetry_cell_setting 'triclinic'
loop_
_space_group_symop_operation_xyz
x,y,z
-x,-y,-z
loop_
_atom_site_type_symbol
_atom_site_label
_atom_site_fract_x
_atom_site_fract_y
_atom_site_fract_z
Si Si1 0.596552 0.881473 0.279410
Si Si2 0.206440 0.460406 0.831984
Si Si3 0.100972 0.260652 0.396114
Si Si4 0.876752 0.539700 0.358611
Si Si5 0.649854 0.571101 0.546427
Si Si6 0.012731 0.967489 0.860031
Si Si7 0.598571 0.362303 0.098025
Si Si8 0.917687 0.638734 0.843883
O O1 0.577892 0.753113 0.435105
O O2 0.488702 0.677147 0.307449
O O3 0.787653 0.980021 0.175919
O O4 0.519259 0.086063 0.213112
O O5 0.245520 0.497574 0.700885
O O6 0.380140 0.556516 0.828642
O O7 0.094455 0.608024 0.818610
O O8 0.098384 0.195800 0.977166
O O9 0.260235 0.308098 0.421256
O O10 0.169292 0.359520 0.244478
O O11 0.973596 0.365277 0.418652
O O12 0.000000 0.000000 0.500000
O O13 0.773704 0.515282 0.477757
O O14 0.017590 0.793525 0.227100
O O15 0.953273 0.869276 0.804456
O O16 0.500000 0.500000 0.000000
O O17 0.788242 0.430633 0.003746
#
# Coordination Sequence:
#
# PCOD8038565 Si02
#       8
#     2   2   2   2   2   2   2   2
#     4  10  20  40  62  82 124 170 200 243 324 370
#     4  10  19  37  64  93 120 160 207 248 307 374
#     4  11  23  39  63  90 122 158 215 256 303 361
#     4  10  22  35  61  93 117 156 208 256 302 360
#     4  10  23  40  61  89 125 167 204 250 312 370
#     4  10  17  37  66  86 120 158 207 251 302 371
#     4  11  22  38  62  95 126 159 205 263 314 360
#     4  10  20  39  66  93 117 165 209 251 307 369
#
# _framework density 22.506236000000001
#
# number of rings (size 3 to 8) (size 9 to 14) (size 15 to 20)
#    0.000    1.750    2.500    3.000    1.750    3.000 
#    6.750    1.250    0.000    0.000    0.000    0.000 
#    0.000    0.000    0.000    0.000    0.000    0.000 
#
# Total GULP energy -198298.796366 kJ/mol
# GULP energy per Si atom -12393.674773 kJ/mol
# Density = 2.245501 g / cm^3
# Si number density = 22.506236 Si / 1000 Ang^3
#
#
#
# Elastic Constant Matrix: (Units=GPa)
#
#
# Indices 1 2 3 4 5 6 
#
# 1 49.8944 40.3042 21.0995 -15.2597 22.0862 15.1877
# 2 40.3042 121.4339 40.7393 -20.3576 20.5537 22.1547
# 3 21.0995 40.7393 70.8494 -21.6033 14.3384 4.1074
# 4 -15.2597 -20.3576 -21.6033 53.7165 -5.6009 9.2493
# 5 22.0862 20.5537 14.3384 -5.6009 36.6211 -1.0285
# 6 15.1877 22.1547 4.1074 9.2493 -1.0285 45.7050
#
#
#
# Elastic Compliance Matrix: (Units=1/GPa)
#
#
# Indices 1 2 3 4 5 6 
#
# 1 0.040738 -0.005915 -0.001255 0.008975 -0.019745 -0.012818
# 2 -0.005915 0.013212 -0.004566 0.002069 -0.001870 -0.004489
# 3 -0.001255 -0.004566 0.019497 0.005442 -0.003490 -0.000301
# 4 0.008975 0.002069 0.005442 0.025276 -0.005111 -0.009704
# 5 -0.019745 -0.001870 -0.003490 -0.005111 0.041123 0.009741
# 6 -0.012818 -0.004489 -0.000301 -0.009704 0.009741 0.030525
#
#
# Mechanical properties :
#
#
# Convention : Reuss Voigt Hill
#
# Bulk Modulus (GPa) = 20.01021 49.60707 34.80864
# Shear Modulus (GPa) = 23.75263 36.54417 30.14840
#
# Velocity S-wave (km/s) = 3.25219 4.03393 3.66397
# Velocity P-wave (km/s) = 4.79714 6.61711 5.77922
#
# Compressibility (1/GPa) = 0.04997449
#
# Stress axis : x y z
#
# Youngs Moduli (GPa) = 24.54708 75.68671 51.28958
#
# Poissons Ratio (x) = 0.44767 0.06439
# Poissons Ratio (y) = 0.14519 0.23421
# Poissons Ratio (z) = 0.03082 0.34561
#
# Static dielectric constant tensor:
#      x y z
#    x 3.973610 0.481070 0.376170 
#    y 0.481070 4.815320 0.241050 
#    z 0.376170 0.241050 4.409350 
# 
# 
# High freq. dielectric constant tensor:
#      x y z
#    x 1.856440 0.006270 0.009950 
#    y 0.006270 1.900890 -0.007250 
#    z 0.009950 -0.007250 1.884670 
# 
# From -- ./inp_files/492057.got.cif
#   From: 2010.06.25/outbox.cif.g09.slc.cpg/sg2_247_cif.got.tgz:492057.got - 2010.06.27 13:26:56.
