data_PCOD8038039
_publ_section_title
;
Structure prediction by ZEFSAII (Michael W. Deem and Ramdas Pophale) SiO2 
 PCOD8038039
Probable space group: P -1
;
_chemical_formula_sum "Si O2"
_cell_formula_units_Z 16
_cell_length_a 20.455065
_cell_length_b 8.680629
_cell_length_c 14.943215
_cell_angle_alpha 139.059535
_cell_angle_beta 140.222171
_cell_angle_gamma 30.498938
_cell_volume 825.349339
_symmetry_space_group_name_H-M "P -1"
_symmetry_group_IT_number 2
_symmetry_cell_setting 'triclinic'
loop_
_space_group_symop_operation_xyz
x,y,z
-x,-y,-z
loop_
_atom_site_type_symbol
_atom_site_label
_atom_site_fract_x
_atom_site_fract_y
_atom_site_fract_z
Si Si1 0.290749 0.066092 0.505876
Si Si2 0.933808 0.350446 0.376289
Si Si3 0.601879 0.178829 0.220849
Si Si4 0.596595 0.795903 0.704782
Si Si5 0.225770 0.802786 0.474659
Si Si6 0.248158 0.534388 0.920190
Si Si7 0.680645 0.395951 0.789998
Si Si8 0.558866 0.392551 0.918460
O O1 0.183148 0.448533 0.580188
O O2 0.442164 0.937444 0.600799
O O3 0.280029 0.922485 0.518348
O O4 0.257871 0.946704 0.333973
O O5 0.884085 0.344778 0.222600
O O6 0.000000 0.500000 0.500000
O O7 0.062875 0.989088 0.383401
O O8 0.730084 0.154358 0.365526
O O9 0.471228 0.425538 0.255363
O O10 0.563212 0.314981 0.141025
O O11 0.641126 0.844880 0.121491
O O12 0.687689 0.561658 0.615647
O O13 0.669509 0.610025 0.793874
O O14 0.600166 0.061883 0.801240
O O15 0.220593 0.665609 0.051367
O O16 0.306721 0.656038 0.975580
O O17 0.500000 0.500000 0.000000
#
# Coordination Sequence:
#
# PCOD8038039 Si02
#       8
#     2   2   2   2   2   2   2   2
#     4  10  17  33  59  84 115 145 188 232 275 327
#     4  10  19  35  59  83 108 152 192 230 274 334
#     4  11  18  35  57  84 111 142 189 236 275 329
#     4  11  19  36  57  87 118 145 185 232 282 336
#     4  10  19  34  60  86 107 149 192 231 273 328
#     4  11  21  36  57  83 117 146 189 233 280 337
#     4  10  18  32  57  88 112 144 184 239 283 316
#     4  11  23  33  54  87 119 146 179 234 296 328
#
# _framework density 19.385731
#
# number of rings (size 3 to 8) (size 9 to 14) (size 15 to 20)
#    0.000    1.500    5.000    4.500    0.000    0.500 
#    0.000    6.250    0.000    3.000    0.000    0.000 
#    0.000    0.000    0.000    0.000    0.000    0.000 
#
# Total GULP energy -198220.223409 kJ/mol
# GULP energy per Si atom -12388.763963 kJ/mol
# Density = 1.934161 g / cm^3
# Si number density = 19.385731 Si / 1000 Ang^3
#
#
#
# Elastic Constant Matrix: (Units=GPa)
#
#
# Indices 1 2 3 4 5 6 
#
# 1 51.5014 27.8948 30.3020 5.9846 2.6792 7.3502
# 2 27.8948 94.1525 44.0603 8.0030 13.1023 -17.8454
# 3 30.3020 44.0603 137.7438 -7.8917 -0.3211 -4.2632
# 4 5.9846 8.0030 -7.8917 39.3510 -0.0377 0.1420
# 5 2.6792 13.1023 -0.3211 -0.0377 22.6145 8.5916
# 6 7.3502 -17.8454 -4.2632 0.1420 8.5916 28.3837
#
#
#
# Elastic Compliance Matrix: (Units=1/GPa)
#
#
# Indices 1 2 3 4 5 6 
#
# 1 0.030833 -0.012527 -0.003519 -0.002765 0.011041 -0.019717
# 2 -0.012527 0.024683 -0.004661 -0.004161 -0.022328 0.024842
# 3 -0.003519 -0.004661 0.009676 0.003434 0.003935 -0.001774
# 4 -0.002765 -0.004161 0.003434 0.027381 0.003854 -0.002687
# 5 0.011041 -0.022328 0.003935 0.003854 0.070183 -0.037569
# 6 -0.019717 0.024842 -0.001774 -0.002687 -0.037569 0.067075
#
#
# Mechanical properties :
#
#
# Convention : Reuss Voigt Hill
#
# Bulk Modulus (GPa) = 42.05536 54.21244 48.13390
# Shear Modulus (GPa) = 17.91012 30.14587 24.02799
#
# Velocity S-wave (km/s) = 3.04284 3.94770 3.52443
# Velocity P-wave (km/s) = 5.83834 6.98605 6.43782
#
# Compressibility (1/GPa) = 0.02377818
#
# Stress axis : x y z
#
# Youngs Moduli (GPa) = 32.43232 40.51376 103.34920
#
# Poissons Ratio (x) = 0.50752 0.36368
# Poissons Ratio (y) = 0.40628 0.48172
# Poissons Ratio (z) = 0.11413 0.18884
#
# Static dielectric constant tensor:
#      x y z
#    x 3.480440 -0.278080 -0.170640 
#    y -0.278080 4.377620 0.067750 
#    z -0.170640 0.067750 3.767710 
# 
# 
# High freq. dielectric constant tensor:
#      x y z
#    x 1.720040 -0.005300 -0.011590 
#    y -0.005300 1.739950 0.006320 
#    z -0.011590 0.006320 1.772220 
# 
# From -- ./inp_files/396113.got.cif
#   From: 2010.06.25/outbox.cif.g09.slc.cpg/sg2_199_cif.got.tgz:396113.got - 2010.06.27 13:26:56.
