data_PCOD8038297
_publ_section_title
;
Structure prediction by ZEFSAII (Michael W. Deem and Ramdas Pophale) SiO2 
 PCOD8038297
Probable space group: P -1
;
_chemical_formula_sum "Si O2"
_cell_formula_units_Z 16
_cell_length_a 23.480539
_cell_length_b 6.508376
_cell_length_c 9.274962
_cell_angle_alpha 73.106782
_cell_angle_beta 128.138773
_cell_angle_gamma 133.058915
_cell_volume 793.074375
_symmetry_space_group_name_H-M "P -1"
_symmetry_group_IT_number 2
_symmetry_cell_setting 'triclinic'
loop_
_space_group_symop_operation_xyz
x,y,z
-x,-y,-z
loop_
_atom_site_type_symbol
_atom_site_label
_atom_site_fract_x
_atom_site_fract_y
_atom_site_fract_z
Si Si1 0.329859 0.266296 0.645186
Si Si2 0.462527 0.897743 0.800650
Si Si3 0.806462 0.714457 0.167484
Si Si4 0.916802 0.575971 0.228806
Si Si5 0.592459 0.772527 0.503289
Si Si6 0.127887 0.897421 0.536764
Si Si7 0.350969 0.954516 0.962173
Si Si8 0.250672 0.949250 0.075299
O O1 0.367343 0.560492 0.715338
O O2 0.366380 0.320553 0.526689
O O3 0.212464 0.039507 0.520970
O O4 0.373123 0.144703 0.819240
O O5 0.440653 0.078504 0.656361
O O6 0.500000 0.000000 0.000000
O O7 0.548936 0.946487 0.840005
O O8 0.893084 0.770828 0.202612
O O9 0.719089 0.377078 0.127095
O O10 0.846489 0.875228 0.349468
O O11 0.767863 0.833545 0.983966
O O12 0.889378 0.366207 0.362113
O O13 0.030455 0.780652 0.325161
O O14 0.852076 0.383855 0.026022
O O15 0.500000 0.500000 0.500000
O O16 0.682822 0.006316 0.701471
O O17 0.305447 0.020146 0.995698
#
# Coordination Sequence:
#
# PCOD8038297 Si02
#       8
#     2   2   2   2   2   2   2   2
#     4  12  24  40  63  94 129 161 211 263 310 373
#     4  12  26  40  68  92 122 165 212 261 316 373
#     4  10  17  34  64  92 124 164 203 255 315 365
#     4   9  19  35  62  94 131 162 210 257 318 367
#     4  12  28  44  62  94 130 170 209 260 317 378
#     4  10  19  35  60  98 127 162 209 269 305 371
#     4  11  21  38  63  92 125 162 209 259 308 371
#     4  10  22  39  61  89 130 166 209 257 311 372
#
# _framework density 20.174652999999999
#
# number of rings (size 3 to 8) (size 9 to 14) (size 15 to 20)
#    0.000    1.250    5.000    3.000    1.750    4.000 
#    0.000    0.625    0.000    1.500    0.000    0.000 
#    0.000    0.000    0.000    0.000    0.000    0.000 
#
# Total GULP energy -198410.395467 kJ/mol
# GULP energy per Si atom -12400.649717 kJ/mol
# Density = 2.012873 g / cm^3
# Si number density = 20.174653 Si / 1000 Ang^3
#
#
#
# Elastic Constant Matrix: (Units=GPa)
#
#
# Indices 1 2 3 4 5 6 
#
# 1 124.0115 55.3666 52.0608 4.5262 19.7925 2.3768
# 2 55.3666 99.4915 47.5185 0.0475 9.2934 -4.6832
# 3 52.0608 47.5185 132.1377 9.4440 15.5044 3.9818
# 4 4.5262 0.0475 9.4440 28.8189 0.9591 9.4094
# 5 19.7925 9.2934 15.5044 0.9591 35.8345 2.8122
# 6 2.3768 -4.6832 3.9818 9.4094 2.8122 35.2454
#
#
#
# Elastic Compliance Matrix: (Units=1/GPa)
#
#
# Indices 1 2 3 4 5 6 
#
# 1 0.012102 -0.005274 -0.002297 -0.000765 -0.004246 -0.000714
# 2 -0.005274 0.014686 -0.003398 0.001135 0.000359 0.002359
# 3 -0.002297 -0.003398 0.010155 -0.002711 -0.002128 -0.000550
# 4 -0.000765 0.001135 -0.002711 0.038925 0.001041 -0.009966
# 5 -0.004246 0.000359 -0.002128 0.001041 0.031223 -0.002195
# 6 -0.000714 0.002359 -0.000550 -0.009966 -0.002195 0.031632
#
#
# Mechanical properties :
#
#
# Convention : Reuss Voigt Hill
#
# Bulk Modulus (GPa) = 66.64462 73.94804 70.29633
# Shear Modulus (GPa) = 30.18174 33.35944 31.77059
#
# Velocity S-wave (km/s) = 3.87204 4.07078 3.97265
# Velocity P-wave (km/s) = 7.28669 7.66997 7.48078
#
# Compressibility (1/GPa) = 0.01500496
#
# Stress axis : x y z
#
# Youngs Moduli (GPa) = 82.62982 68.09213 98.47677
#
# Poissons Ratio (x) = 0.35914 0.22620
# Poissons Ratio (y) = 0.43582 0.33458
# Poissons Ratio (z) = 0.18980 0.23135
#
# Static dielectric constant tensor:
#      x y z
#    x 3.871780 -0.039850 0.398540 
#    y -0.039850 3.728580 0.294230 
#    z 0.398540 0.294230 3.777380 
# 
# 
# High freq. dielectric constant tensor:
#      x y z
#    x 1.793560 -0.015060 0.026880 
#    y -0.015060 1.785870 0.016780 
#    z 0.026880 0.016780 1.772260 
# 
# From -- ./inp_files/90018.got.cif
#   From: 2010.06.25/outbox.cif.g09.slc.cpg/sg2_46_cif.got.tgz:90018.got - 2010.06.27 13:26:56.
