data_PCOD8038718
_publ_section_title
;
Structure prediction by ZEFSAII (Michael W. Deem and Ramdas Pophale) SiO2 
 PCOD8038718
Probable space group: P -1
;
_chemical_formula_sum "Si O2"
_cell_formula_units_Z 16
_cell_length_a 22.329411
_cell_length_b 15.222567
_cell_length_c 21.852421
_cell_angle_alpha 32.113852
_cell_angle_beta 166.988428
_cell_angle_gamma 149.037736
_cell_volume 856.136467
_symmetry_space_group_name_H-M "P -1"
_symmetry_group_IT_number 2
_symmetry_cell_setting 'triclinic'
loop_
_space_group_symop_operation_xyz
x,y,z
-x,-y,-z
loop_
_atom_site_type_symbol
_atom_site_label
_atom_site_fract_x
_atom_site_fract_y
_atom_site_fract_z
Si Si1 0.352560 0.985318 0.264098
Si Si2 0.792339 0.592423 0.209774
Si Si3 0.683097 0.396090 0.815153
Si Si4 0.689184 0.665859 0.930010
Si Si5 0.799675 0.361888 0.619092
Si Si6 0.431655 0.268002 0.522115
Si Si7 0.773560 0.516348 0.628468
Si Si8 0.104007 0.973437 0.294270
O O1 0.371923 0.827700 0.418632
O O2 0.288508 0.135876 0.151768
O O3 0.647402 0.057768 0.481273
O O4 0.087459 0.923402 0.991587
O O5 0.000000 0.500000 0.500000
O O6 0.899777 0.791826 0.218149
O O7 0.500000 0.500000 0.000000
O O8 0.759646 0.572639 0.115640
O O9 0.585234 0.255642 0.746613
O O10 0.449491 0.374614 0.648291
O O11 0.263124 0.413621 0.274973
O O12 0.956035 0.374821 0.131236
O O13 0.380867 0.579152 0.648349
O O14 0.902400 0.645226 0.102644
O O15 0.839052 0.495971 0.634976
O O16 0.651114 0.327011 0.649499
O O17 0.229847 0.082505 0.415163
#
# Coordination Sequence:
#
# PCOD8038718 Si02
#       8
#     2   2   2   2   2   2   2   2
#     4  11  20  34  47  75 112 137 167 206 253 304
#     4  11  23  43  57  70  99 131 177 238 276 291
#     4   9  18  29  46  69 106 152 163 199 237 293
#     4  11  23  34  52  75  95 139 177 213 262 307
#     4  12  20  32  50  76 112 137 173 203 236 325
#     4   9  19  29  49  71 107 138 180 195 240 304
#     4  10  18  30  44  69 106 147 162 193 245 280
#     4  11  21  33  56  78  99 143 181 209 259 312
#
# _framework density 18.688610000000001
#
# number of rings (size 3 to 8) (size 9 to 14) (size 15 to 20)
#    0.750    0.750    1.250    7.125    0.000    0.000 
#    0.000    0.000    0.000    0.000    0.000    0.000 
#    0.000   20.000    0.000    0.000    0.000    0.000 
#
# Total GULP energy -198317.983873 kJ/mol
# GULP energy per Si atom -12394.873992 kJ/mol
# Density = 1.864607 g / cm^3
# Si number density = 18.688610 Si / 1000 Ang^3
#
#
#
# Elastic Constant Matrix: (Units=GPa)
#
#
# Indices 1 2 3 4 5 6 
#
# 1 82.1273 37.4690 25.2741 8.3258 -7.4013 -13.7805
# 2 37.4690 54.4279 25.8303 16.6235 -3.2897 -8.9188
# 3 25.2741 25.8303 112.5320 18.0512 -7.2257 -1.0281
# 4 8.3258 16.6235 18.0512 25.8905 -0.4569 -6.6158
# 5 -7.4013 -3.2897 -7.2257 -0.4569 41.1893 5.5324
# 6 -13.7805 -8.9188 -1.0281 -6.6158 5.5324 23.8292
#
#
#
# Elastic Compliance Matrix: (Units=1/GPa)
#
#
# Indices 1 2 3 4 5 6 
#
# 1 0.019481 -0.012698 -0.002182 0.005384 0.001136 0.007650
# 2 -0.012698 0.032972 -0.002272 -0.015325 -0.000313 0.000717
# 3 -0.002182 -0.002272 0.011017 -0.006474 0.001805 -0.003853
# 4 0.005384 -0.015325 -0.006474 0.054474 -0.002508 0.012804
# 5 0.001136 -0.000313 0.001805 -0.002508 0.025553 -0.006011
# 6 0.007650 0.000717 -0.003853 0.012804 -0.006011 0.051442
#
#
# Mechanical properties :
#
#
# Convention : Reuss Voigt Hill
#
# Bulk Modulus (GPa) = 34.28480 47.35934 40.82207
# Shear Modulus (GPa) = 20.92372 28.88274 24.90323
#
# Velocity S-wave (km/s) = 3.34967 3.93552 3.65435
# Velocity P-wave (km/s) = 5.77456 6.78582 6.30051
#
# Compressibility (1/GPa) = 0.02916745
#
# Stress axis : x y z
#
# Youngs Moduli (GPa) = 51.33235 30.32911 90.76988
#
# Poissons Ratio (x) = 0.38511 0.19802
# Poissons Ratio (y) = 0.65181 0.20620
# Poissons Ratio (z) = 0.11198 0.06890
#
# Static dielectric constant tensor:
#      x y z
#    x 3.448180 -0.152080 -0.110410 
#    y -0.152080 2.993400 0.104060 
#    z -0.110410 0.104060 3.599720 
# 
# 
# High freq. dielectric constant tensor:
#      x y z
#    x 1.714780 -0.035820 0.002160 
#    y -0.035820 1.666760 0.018690 
#    z 0.002160 0.018690 1.747580 
# 
# From -- ./inp_files/434108.got.cif
#   From: 2010.06.25/outbox.cif.g09.slc.cpg/sg2_218_cif.got.tgz:434108.got - 2010.06.27 13:26:56.
