data_PCOD8038235
_publ_section_title
;
Structure prediction by ZEFSAII (Michael W. Deem and Ramdas Pophale) SiO2 
 PCOD8038235
Probable space group: P -1
;
_chemical_formula_sum "Si O2"
_cell_formula_units_Z 16
_cell_length_a 9.442289
_cell_length_b 12.104036
_cell_length_c 13.125782
_cell_angle_alpha 99.262511
_cell_angle_beta 49.218863
_cell_angle_gamma 67.036589
_cell_volume 839.562872
_symmetry_space_group_name_H-M "P -1"
_symmetry_group_IT_number 2
_symmetry_cell_setting 'triclinic'
loop_
_space_group_symop_operation_xyz
x,y,z
-x,-y,-z
loop_
_atom_site_type_symbol
_atom_site_label
_atom_site_fract_x
_atom_site_fract_y
_atom_site_fract_z
Si Si1 0.992571 0.336349 0.888802
Si Si2 0.627082 0.816218 0.129161
Si Si3 0.761518 0.147226 0.551965
Si Si4 0.563623 0.515024 0.269630
Si Si5 0.952724 0.451839 0.217623
Si Si6 0.896790 0.441679 0.474648
Si Si7 0.233889 0.086729 0.586101
Si Si8 0.800454 0.870514 0.617938
O O1 0.072560 0.420194 0.809748
O O2 0.181186 0.237535 0.877283
O O3 0.016526 0.224106 0.781048
O O4 0.710453 0.458094 0.083467
O O5 0.410610 0.819421 0.267832
O O6 0.481693 0.988092 0.191066
O O7 0.767616 0.707608 0.950699
O O8 0.616208 0.309470 0.595524
O O9 0.029857 0.083617 0.456332
O O10 0.797546 0.034165 0.434665
O O11 0.388147 0.474687 0.348145
O O12 0.763550 0.436200 0.255419
O O13 0.897380 0.484805 0.366208
O O14 0.000000 0.500000 0.500000
O O15 0.085089 0.264508 0.379464
O O16 0.216276 0.160302 0.497398
O O17 0.500000 0.000000 0.500000
#
# Coordination Sequence:
#
# PCOD8038235 Si02
#       8
#     2   2   2   2   2   2   2   2
#     4  11  19  34  64  98 113 139 198 260 284 321
#     4  10  17  34  60  88 114 144 195 247 283 334
#     4  10  18  35  55  87 122 148 182 239 295 339
#     4  10  20  40  63  86 113 154 202 240 282 345
#     4  11  20  37  65  84 115 157 202 229 286 355
#     4  11  25  42  55  82 122 163 187 240 295 349
#     4  11  18  31  57  91 118 145 184 243 296 334
#     4  10  22  37  56  82 123 154 191 230 296 353
#
# _framework density 19.057535999999999
#
# number of rings (size 3 to 8) (size 9 to 14) (size 15 to 20)
#    0.000    1.500    5.000    3.375    0.000    0.500 
#    4.500    1.875    0.000    1.500    0.000    0.000 
#    0.000    0.000    0.000    0.000    0.000    0.000 
#
# Total GULP energy -198291.466302 kJ/mol
# GULP energy per Si atom -12393.216644 kJ/mol
# Density = 1.901416 g / cm^3
# Si number density = 19.057536 Si / 1000 Ang^3
#
#
#
# Elastic Constant Matrix: (Units=GPa)
#
#
# Indices 1 2 3 4 5 6 
#
# 1 117.4388 34.6187 58.7191 -1.9090 -2.2637 6.5561
# 2 34.6187 58.0152 42.1053 5.4728 -7.5338 -0.6065
# 3 58.7191 42.1053 111.4744 10.3827 0.6610 5.8032
# 4 -1.9090 5.4728 10.3827 32.3769 0.4522 1.5511
# 5 -2.2637 -7.5338 0.6610 0.4522 29.1800 2.4397
# 6 6.5561 -0.6065 5.8032 1.5511 2.4397 30.7067
#
#
#
# Elastic Compliance Matrix: (Units=1/GPa)
#
#
# Indices 1 2 3 4 5 6 
#
# 1 0.012474 -0.003894 -0.005298 0.003182 0.000193 -0.001915
# 2 -0.003894 0.026350 -0.007846 -0.002375 0.006512 0.002437
# 3 -0.005298 -0.007846 0.015167 -0.003742 -0.002597 -0.001495
# 4 0.003182 -0.002375 -0.003742 0.032762 -0.000654 -0.001622
# 5 0.000193 0.006512 -0.002597 -0.000654 0.036225 -0.002267
# 6 -0.001915 0.002437 -0.001495 -0.001622 -0.002267 0.033568
#
#
# Mechanical properties :
#
#
# Convention : Reuss Voigt Hill
#
# Bulk Modulus (GPa) = 50.21191 61.97941 56.09566
# Shear Modulus (GPa) = 25.34748 28.55173 26.94960
#
# Velocity S-wave (km/s) = 3.65094 3.87484 3.76456
# Velocity P-wave (km/s) = 6.64660 7.25342 6.95662
#
# Compressibility (1/GPa) = 0.01991559
#
# Stress axis : x y z
#
# Youngs Moduli (GPa) = 80.16610 37.95110 65.93458
#
# Poissons Ratio (x) = 0.14777 0.34931
# Poissons Ratio (y) = 0.31214 0.51732
# Poissons Ratio (z) = 0.42471 0.29776
#
# Static dielectric constant tensor:
#      x y z
#    x 3.572930 0.128520 -0.057620 
#    y 0.128520 4.365390 0.368490 
#    z -0.057620 0.368490 3.757560 
# 
# 
# High freq. dielectric constant tensor:
#      x y z
#    x 1.737860 -0.009800 -0.004320 
#    y -0.009800 1.735490 0.024860 
#    z -0.004320 0.024860 1.734280 
# 
# From -- ./inp_files/257181.got.cif
#   From: 2010.06.25/outbox.cif.g09.slc.cpg/sg2_129_cif.got.tgz:257181.got - 2010.06.27 13:26:56.
