data_PCOD8038702
_publ_section_title
;
Structure prediction by ZEFSAII (Michael W. Deem and Ramdas Pophale) SiO2 
 PCOD8038702
Probable space group: P -1
;
_chemical_formula_sum "Si O2"
_cell_formula_units_Z 16
_cell_length_a 17.632610
_cell_length_b 10.014186
_cell_length_c 12.466324
_cell_angle_alpha 122.685709
_cell_angle_beta 129.706429
_cell_angle_gamma 99.334152
_cell_volume 886.025795
_symmetry_space_group_name_H-M "P -1"
_symmetry_group_IT_number 2
_symmetry_cell_setting 'triclinic'
loop_
_space_group_symop_operation_xyz
x,y,z
-x,-y,-z
loop_
_atom_site_type_symbol
_atom_site_label
_atom_site_fract_x
_atom_site_fract_y
_atom_site_fract_z
Si Si1 0.114820 0.400316 0.074293
Si Si2 0.439683 0.677009 0.534381
Si Si3 0.417125 0.386158 0.211347
Si Si4 0.365513 0.897808 0.254323
Si Si5 0.205580 0.408550 0.817183
Si Si6 0.196599 0.844976 0.248991
Si Si7 0.487390 0.377203 0.831365
Si Si8 0.086602 0.066670 0.755547
O O1 0.263417 0.522574 0.330482
O O2 0.166345 0.623054 0.154743
O O3 0.058491 0.187179 0.853982
O O4 0.965864 0.259666 0.953669
O O5 0.454301 0.589035 0.402277
O O6 0.494297 0.656786 0.681796
O O7 0.558851 0.968792 0.735922
O O8 0.475129 0.479028 0.181855
O O9 0.227086 0.124621 0.944367
O O10 0.284847 0.950985 0.259742
O O11 0.500000 0.000000 0.500000
O O12 0.219032 0.592975 0.969700
O O13 0.148490 0.198826 0.753180
O O14 0.383525 0.597025 0.020679
O O15 0.076046 0.241180 0.531260
O O16 0.313129 0.077889 0.540252
O O17 0.500000 0.500000 0.000000
#
# Coordination Sequence:
#
# PCOD8038702 Si02
#       8
#     2   2   2   2   2   2   2   2
#     4  10  19  32  51  80 110 134 170 224 270 308
#     4  10  18  34  59  76 105 140 178 222 257 312
#     4   9  19  34  55  79 102 142 182 210 263 319
#     4  12  17  33  56  80 102 136 183 227 253 308
#     4  10  18  29  52  78 101 136 175 218 266 304
#     4  11  20  31  52  82 109 133 178 221 267 308
#     4  11  20  33  52  79 110 139 173 218 266 318
#     4   9  17  32  50  77 106 133 172 219 263 314
#
# _framework density 18.058164999999999
#
# number of rings (size 3 to 8) (size 9 to 14) (size 15 to 20)
#    0.000    1.750    5.000    1.500    0.000    0.000 
#    0.000    1.250    2.750    3.000    0.000    0.000 
#    0.000    0.000    0.000    0.000    0.000    0.000 
#
# Total GULP energy -198243.602967 kJ/mol
# GULP energy per Si atom -12390.225185 kJ/mol
# Density = 1.801706 g / cm^3
# Si number density = 18.058165 Si / 1000 Ang^3
#
#
#
# Elastic Constant Matrix: (Units=GPa)
#
#
# Indices 1 2 3 4 5 6 
#
# 1 110.6015 33.6906 53.3924 -10.2517 13.9446 -7.1065
# 2 33.6906 58.5229 40.7173 -11.5667 8.4168 -5.1990
# 3 53.3924 40.7173 137.2191 3.6533 9.2614 -10.8489
# 4 -10.2517 -11.5667 3.6533 22.4252 -4.8025 3.3479
# 5 13.9446 8.4168 9.2614 -4.8025 38.7322 -4.0484
# 6 -7.1065 -5.1990 -10.8489 3.3479 -4.0484 22.7622
#
#
#
# Elastic Compliance Matrix: (Units=1/GPa)
#
#
# Indices 1 2 3 4 5 6 
#
# 1 0.012626 -0.003444 -0.003815 0.004066 -0.002347 0.000321
# 2 -0.003444 0.026544 -0.006826 0.013006 -0.001327 -0.000415
# 3 -0.003815 -0.006826 0.011326 -0.007755 -0.000425 0.003713
# 4 0.004066 0.013006 -0.007755 0.056292 0.003806 -0.007059
# 5 -0.002347 -0.001327 -0.000425 0.003806 0.027855 0.003156
# 6 0.000321 -0.000415 0.003713 -0.007059 0.003156 0.047307
#
#
# Mechanical properties :
#
#
# Convention : Reuss Voigt Hill
#
# Bulk Modulus (GPa) = 44.79193 62.43822 53.61507
# Shear Modulus (GPa) = 22.98190 28.68681 25.83436
#
# Velocity S-wave (km/s) = 3.57131 3.99002 3.78646
# Velocity P-wave (km/s) = 6.47022 7.47518 6.99078
#
# Compressibility (1/GPa) = 0.02232545
#
# Stress axis : x y z
#
# Youngs Moduli (GPa) = 79.20237 37.67381 88.29065
#
# Poissons Ratio (x) = 0.12976 0.33684
# Poissons Ratio (y) = 0.27280 0.60264
# Poissons Ratio (z) = 0.30217 0.25715
#
# Static dielectric constant tensor:
#      x y z
#    x 3.395040 -0.112900 0.216210 
#    y -0.112900 2.974960 0.031660 
#    z 0.216210 0.031660 3.728690 
# 
# 
# High freq. dielectric constant tensor:
#      x y z
#    x 1.695600 -0.009890 0.014910 
#    y -0.009890 1.654980 0.012100 
#    z 0.014910 0.012100 1.708850 
# 
# From -- ./inp_files/257482.got.cif
#   From: 2010.06.25/outbox.cif.g09.slc.cpg/sg2_129_cif.got.tgz:257482.got - 2010.06.27 13:26:56.
