data_PCOD8038317
_publ_section_title
;
Structure prediction by ZEFSAII (Michael W. Deem and Ramdas Pophale) SiO2 
 PCOD8038317
Probable space group: P -1
;
_chemical_formula_sum "Si O2"
_cell_formula_units_Z 16
_cell_length_a 9.000000
_cell_length_b 18.000000
_cell_length_c 18.000000
_cell_angle_alpha 150.000000
_cell_angle_beta 40.000000
_cell_angle_gamma 150.000000
_cell_volume 727.497153
_symmetry_space_group_name_H-M "P -1"
_symmetry_group_IT_number 2
_symmetry_cell_setting 'triclinic'
loop_
_space_group_symop_operation_xyz
x,y,z
-x,-y,-z
loop_
_atom_site_type_symbol
_atom_site_label
_atom_site_fract_x
_atom_site_fract_y
_atom_site_fract_z
Si Si1 0.607281 0.996099 0.376293
Si Si2 0.059582 0.852648 0.363320
Si Si3 0.540314 0.434339 0.230284
Si Si4 0.961459 0.824120 0.903908
Si Si5 0.698786 0.705596 0.639296
Si Si6 0.440610 0.033581 0.133005
Si Si7 0.459283 0.354334 0.950039
Si Si8 0.925092 0.320898 0.943023
O O1 0.378336 0.974457 0.386791
O O2 0.575034 0.806866 0.224212
O O3 0.500000 0.000000 0.500000
O O4 0.948085 0.189141 0.399912
O O5 0.088377 0.774406 0.209543
O O6 0.775274 0.664731 0.353224
O O7 0.000000 0.000000 0.500000
O O8 0.251441 0.363903 0.230212
O O9 0.425309 0.321461 0.254019
O O10 0.691328 0.360430 0.063831
O O11 0.287222 0.883220 0.841141
O O12 0.822162 0.763452 0.987960
O O13 0.000000 0.000000 0.000000
O O14 0.500000 0.500000 0.500000
O O15 0.644872 0.828703 0.716582
O O16 0.149557 0.825723 0.090462
O O17 0.500000 0.000000 0.000000
O O18 0.500000 0.500000 0.000000
O O19 0.754366 0.474683 0.991356
#
# Coordination Sequence:
#
# PCOD8038317 Si02
#       8
#     2   2   2   2   2   2   2   2
#     4  12  28  49  74 105 150 194 242 304 371 440
#     4  12  29  48  74 109 151 193 244 304 371 438
#     4  12  24  48  73 106 146 194 244 305 367 435
#     4  12  24  43  74 111 146 187 245 313 369 432
#     4  12  29  49  72 106 152 197 243 298 377 442
#     4  12  25  45  74 108 144 189 243 304 365 442
#     4  12  26  44  77 111 146 191 257 304 370 437
#     4  12  24  45  77 105 147 190 250 303 363 426
#
# _framework density 21.993213000000001
#
# number of rings (size 3 to 8) (size 9 to 14) (size 15 to 20)
#    0.000    0.000    5.000    4.875    7.000    1.000 
#    0.000    1.250    0.000    0.000    0.000    0.000 
#    0.000    0.000    0.000    0.000    0.000    0.000 
#
# Total GULP energy -198378.627953 kJ/mol
# GULP energy per Si atom -12398.664247 kJ/mol
# Density = 2.194316 g / cm^3
# Si number density = 21.993213 Si / 1000 Ang^3
#
#
#
# Elastic Constant Matrix: (Units=GPa)
#
#
# Indices 1 2 3 4 5 6 
#
# 1 115.1191 52.2293 35.1886 11.5829 0.6125 10.5234
# 2 52.2293 164.7658 43.9822 16.7633 -4.9742 2.8377
# 3 35.1886 43.9822 110.1087 15.4096 6.3733 3.9062
# 4 11.5829 16.7633 15.4096 41.1749 -6.4946 6.0593
# 5 0.6125 -4.9742 6.3733 -6.4946 40.6957 8.3180
# 6 10.5234 2.8377 3.9062 6.0593 8.3180 60.9069
#
#
#
# Elastic Compliance Matrix: (Units=1/GPa)
#
#
# Indices 1 2 3 4 5 6 
#
# 1 0.010822 -0.002729 -0.002191 -0.000888 0.000015 -0.001516
# 2 -0.002729 0.007656 -0.002049 -0.001460 0.001013 0.000253
# 3 -0.002191 -0.002049 0.011182 -0.003202 -0.002567 0.000426
# 4 -0.000888 -0.001460 -0.003202 0.027625 0.005370 -0.003055
# 5 0.000015 0.001013 -0.002567 0.005370 0.026789 -0.004078
# 6 -0.001516 0.000253 0.000426 -0.003055 -0.004078 0.017502
#
#
# Mechanical properties :
#
#
# Convention : Reuss Voigt Hill
#
# Bulk Modulus (GPa) = 63.60666 72.53261 68.06963
# Shear Modulus (GPa) = 41.40552 45.79506 43.60029
#
# Velocity S-wave (km/s) = 4.34366 4.56810 4.45729
# Velocity P-wave (km/s) = 7.35801 7.80221 7.58337
#
# Compressibility (1/GPa) = 0.01572162
#
# Stress axis : x y z
#
# Youngs Moduli (GPa) = 92.40118 130.61635 89.42580
#
# Poissons Ratio (x) = 0.35641 0.19597
# Poissons Ratio (y) = 0.25214 0.18327
# Poissons Ratio (z) = 0.20249 0.26769
#
# Static dielectric constant tensor:
#      x y z
#    x 4.235970 0.200960 0.053400 
#    y 0.200960 5.326090 0.488970 
#    z 0.053400 0.488970 4.108950 
# 
# 
# High freq. dielectric constant tensor:
#      x y z
#    x 1.886330 0.002150 0.011450 
#    y 0.002150 1.903940 0.011570 
#    z 0.011450 0.011570 1.852390 
# 
# From -- ./inp_files/383509.got.cif
#   From: 2010.06.25/outbox.ucp.g09.slc.cvg/sg2_192_cif.got.tgz:383509.got - 2010.06.28 11:54:26.
