data_PCOD8038658
_publ_section_title
;
Structure prediction by ZEFSAII (Michael W. Deem and Ramdas Pophale) SiO2 
 PCOD8038658
Probable space group: P -1
;
_chemical_formula_sum "Si O2"
_cell_formula_units_Z 16
_cell_length_a 11.725781
_cell_length_b 27.603827
_cell_length_c 22.205774
_cell_angle_alpha 169.444329
_cell_angle_beta 39.941789
_cell_angle_gamma 138.550133
_cell_volume 844.785315
_symmetry_space_group_name_H-M "P -1"
_symmetry_group_IT_number 2
_symmetry_cell_setting 'triclinic'
loop_
_space_group_symop_operation_xyz
x,y,z
-x,-y,-z
loop_
_atom_site_type_symbol
_atom_site_label
_atom_site_fract_x
_atom_site_fract_y
_atom_site_fract_z
Si Si1 0.650121 0.846950 0.827079
Si Si2 0.354592 0.468926 0.672194
Si Si3 0.295675 0.017814 0.231611
Si Si4 0.031831 0.694176 0.631879
Si Si5 0.986295 0.720087 0.107471
Si Si6 0.730109 0.419343 0.491773
Si Si7 0.910119 0.729505 0.277888
Si Si8 0.045875 0.535780 0.735050
O O1 0.584355 0.645935 0.557673
O O2 0.821726 0.720779 0.636237
O O3 0.493776 0.888023 0.990009
O O4 0.700568 0.126844 0.118435
O O5 0.533358 0.567478 0.753541
O O6 0.262486 0.237345 0.462665
O O7 0.201554 0.693915 0.999696
O O8 0.268434 0.159405 0.480851
O O9 0.147603 0.806472 0.020663
O O10 0.199033 0.636573 0.537563
O O11 0.856871 0.592595 0.611997
O O12 0.076586 0.511432 0.331376
O O13 0.000000 0.000000 0.000000
O O14 0.876049 0.629979 0.101099
O O15 0.949398 0.032938 0.493334
O O16 0.937024 0.545969 0.855443
O O17 0.000000 0.500000 0.000000
#
# Coordination Sequence:
#
# PCOD8038658 Si02
#       8
#     2   2   2   2   2   2   2   2
#     4  10  18  31  50  79 111 136 166 213 262 320
#     4  10  18  33  51  80 110 135 168 212 266 318
#     4  10  18  28  51  77 107 139 166 207 260 311
#     4  11  21  36  49  71 106 149 181 208 248 308
#     4   9  20  33  51  78 107 134 169 216 262 310
#     4  10  21  34  50  70 107 144 174 213 248 302
#     4  10  18  33  49  75 111 135 169 207 262 320
#     4  10  19  32  51  78 108 141 175 209 255 317
#
# _framework density 18.939722
#
# number of rings (size 3 to 8) (size 9 to 14) (size 15 to 20)
#    0.000    2.000    2.500    3.375    0.000    2.000 
#    0.000    0.000    0.000    0.000    0.000   11.375 
#    0.000    0.625    0.000    0.000    0.000    0.000 
#
# Total GULP energy -198218.426592 kJ/mol
# GULP energy per Si atom -12388.651662 kJ/mol
# Density = 1.889661 g / cm^3
# Si number density = 18.939722 Si / 1000 Ang^3
#
#
#
# Elastic Constant Matrix: (Units=GPa)
#
#
# Indices 1 2 3 4 5 6 
#
# 1 94.4031 29.8258 30.7452 -7.8852 8.9500 -18.3045
# 2 29.8258 87.8306 38.9376 -13.8943 9.6746 -24.4507
# 3 30.7452 38.9376 74.9180 -7.3765 1.4936 -13.4027
# 4 -7.8852 -13.8943 -7.3765 34.2250 -11.7437 7.7227
# 5 8.9500 9.6746 1.4936 -11.7437 27.4168 -1.8999
# 6 -18.3045 -24.4507 -13.4027 7.7227 -1.8999 33.8197
#
#
#
# Elastic Compliance Matrix: (Units=1/GPa)
#
#
# Indices 1 2 3 4 5 6 
#
# 1 0.013513 -0.001123 -0.004085 -0.000580 -0.003708 0.004807
# 2 -0.001123 0.018224 -0.007101 0.002155 -0.004129 0.009030
# 3 -0.004085 -0.007101 0.018780 0.001402 0.003415 -0.000031
# 4 -0.000580 0.002155 0.001402 0.036572 0.014620 -0.005730
# 5 -0.003708 -0.004129 0.003415 0.014620 0.044909 -0.004454
# 6 0.004807 0.009030 -0.000031 -0.005730 -0.004454 0.039745
#
#
# Mechanical properties :
#
#
# Convention : Reuss Voigt Hill
#
# Bulk Modulus (GPa) = 38.61178 50.68544 44.64861
# Shear Modulus (GPa) = 24.39093 29.60184 26.99639
#
# Velocity S-wave (km/s) = 3.59251 3.95771 3.77952
# Velocity P-wave (km/s) = 6.13507 6.90682 6.53235
#
# Compressibility (1/GPa) = 0.02589883
#
# Stress axis : x y z
#
# Youngs Moduli (GPa) = 74.00109 54.87128 53.24917
#
# Poissons Ratio (x) = 0.06161 0.21754
# Poissons Ratio (y) = 0.08309 0.37813
# Poissons Ratio (z) = 0.30231 0.38965
#
# Static dielectric constant tensor:
#      x y z
#    x 3.597820 -0.364000 -0.051240 
#    y -0.364000 3.540460 -0.101390 
#    z -0.051240 -0.101390 3.606940 
# 
# 
# High freq. dielectric constant tensor:
#      x y z
#    x 1.718790 -0.041770 -0.013900 
#    y -0.041770 1.718550 0.002830 
#    z -0.013900 0.002830 1.735000 
# 
# From -- ./inp_files/464638.got.cif
#   From: 2010.06.25/outbox.cif.g09.slc.cpg/sg2_233_cif.got.tgz:464638.got - 2010.06.27 13:26:56.
