data_PCOD8038533
_publ_section_title
;
Structure prediction by ZEFSAII (Michael W. Deem and Ramdas Pophale) SiO2 
 PCOD8038533
Probable space group: P -1
;
_chemical_formula_sum "Si O2"
_cell_formula_units_Z 16
_cell_length_a 9.238332
_cell_length_b 14.340190
_cell_length_c 9.371141
_cell_angle_alpha 77.191677
_cell_angle_beta 137.416800
_cell_angle_gamma 85.664168
_cell_volume 763.613875
_symmetry_space_group_name_H-M "P -1"
_symmetry_group_IT_number 2
_symmetry_cell_setting 'triclinic'
loop_
_space_group_symop_operation_xyz
x,y,z
-x,-y,-z
loop_
_atom_site_type_symbol
_atom_site_label
_atom_site_fract_x
_atom_site_fract_y
_atom_site_fract_z
Si Si1 0.903307 0.088950 0.768043
Si Si2 0.204860 0.210317 0.494322
Si Si3 0.253879 0.085381 0.298896
Si Si4 0.122882 0.619767 0.973146
Si Si5 0.692971 0.608692 0.817280
Si Si6 0.472929 0.191699 0.228429
Si Si7 0.317601 0.102061 0.895992
Si Si8 0.620177 0.268404 0.696475
O O1 0.721433 0.123619 0.493818
O O2 0.827227 0.177374 0.803093
O O3 0.153446 0.073960 0.896127
O O4 0.912030 0.973258 0.861739
O O5 0.183456 0.127575 0.392591
O O6 0.168442 0.174275 0.637766
O O7 0.456098 0.216537 0.667269
O O8 0.007915 0.320300 0.282665
O O9 0.266918 0.177257 0.178485
O O10 0.500000 0.000000 0.500000
O O11 0.943830 0.610651 0.963856
O O12 0.286545 0.505438 0.083772
O O13 0.274912 0.680653 0.125120
O O14 0.578598 0.686456 0.838446
O O15 0.524289 0.644083 0.547682
O O16 0.456301 0.161240 0.063224
O O17 0.500000 0.000000 0.000000
#
# Coordination Sequence:
#
# PCOD8038533 Si02
#       8
#     2   2   2   2   2   2   2   2
#     4  10  22  37  65  86 118 163 203 241 302 363
#     4  11  23  40  55  90 128 152 203 256 293 353
#     4  10  17  37  61  82 118 156 200 249 287 347
#     4  10  19  34  62  89 124 153 194 253 311 341
#     4   9  18  36  60  95 119 149 198 258 294 353
#     4  10  20  40  61  87 123 156 199 253 294 360
#     4  12  27  40  57  89 126 164 201 247 306 358
#     4  10  19  37  64  93 115 158 204 245 293 364
#
# _framework density 20.952997
#
# number of rings (size 3 to 8) (size 9 to 14) (size 15 to 20)
#    0.000    1.750    5.000    2.625    0.000    4.500 
#    0.000    0.625    0.000    3.750    0.000    0.000 
#    0.000    0.000    0.000    0.000    0.000    0.000 
#
# Total GULP energy -198398.990699 kJ/mol
# GULP energy per Si atom -12399.936919 kJ/mol
# Density = 2.090531 g / cm^3
# Si number density = 20.952997 Si / 1000 Ang^3
#
#
#
# Elastic Constant Matrix: (Units=GPa)
#
#
# Indices 1 2 3 4 5 6 
#
# 1 58.9683 30.0069 14.9043 -4.1564 6.8018 1.7336
# 2 30.0069 142.9013 50.4700 -2.4948 1.4953 -2.5748
# 3 14.9043 50.4700 79.4017 0.1906 1.7044 -1.7651
# 4 -4.1564 -2.4948 0.1906 48.1047 0.9156 3.0433
# 5 6.8018 1.4953 1.7044 0.9156 33.8646 3.7299
# 6 1.7336 -2.5748 -1.7651 3.0433 3.7299 25.3119
#
#
#
# Elastic Compliance Matrix: (Units=1/GPa)
#
#
# Indices 1 2 3 4 5 6 
#
# 1 0.019724 -0.003621 -0.001360 0.001685 -0.003615 -0.001484
# 2 -0.003621 0.009706 -0.005484 0.000155 0.000486 0.000763
# 3 -0.001360 -0.005484 0.016362 -0.000510 -0.000382 0.000794
# 4 0.001685 0.000155 -0.000510 0.021119 -0.000606 -0.002585
# 5 -0.003615 0.000486 -0.000382 -0.000606 0.030731 -0.004185
# 6 -0.001484 0.000763 0.000794 -0.002585 -0.004185 0.040669
#
#
# Mechanical properties :
#
#
# Convention : Reuss Voigt Hill
#
# Bulk Modulus (GPa) = 40.22081 52.44820 46.33450
# Shear Modulus (GPa) = 29.84572 33.84892 31.84732
#
# Velocity S-wave (km/s) = 3.77823 4.02365 3.90287
# Velocity P-wave (km/s) = 6.18634 6.83169 6.51701
#
# Compressibility (1/GPa) = 0.02486275
#
# Stress axis : x y z
#
# Youngs Moduli (GPa) = 50.69978 103.02623 61.11623
#
# Poissons Ratio (x) = 0.37303 0.08314
# Poissons Ratio (y) = 0.18357 0.33515
# Poissons Ratio (z) = 0.06897 0.56498
#
# Static dielectric constant tensor:
#      x y z
#    x 3.934390 0.516250 0.976690 
#    y 0.516250 4.519210 0.720920 
#    z 0.976690 0.720920 6.057120 
# 
# 
# High freq. dielectric constant tensor:
#      x y z
#    x 1.776460 0.003560 0.016870 
#    y 0.003560 1.833200 0.002310 
#    z 0.016870 0.002310 1.841970 
# 
# From -- ./inp_files/207204.got.cif
#   From: 2010.06.25/outbox.cif.g09.slc.cpg/sg2_104_cif.got.tgz:207204.got - 2010.06.27 13:26:56.
