data_PCOD8038568
_publ_section_title
;
Structure prediction by ZEFSAII (Michael W. Deem and Ramdas Pophale) SiO2 
 PCOD8038568
Probable space group: P -1
;
_chemical_formula_sum "Si O2"
_cell_formula_units_Z 16
_cell_length_a 20.888072
_cell_length_b 9.388051
_cell_length_c 11.531071
_cell_angle_alpha 104.399402
_cell_angle_beta 135.944703
_cell_angle_gamma 40.275257
_cell_volume 757.728476
_symmetry_space_group_name_H-M "P -1"
_symmetry_group_IT_number 2
_symmetry_cell_setting 'triclinic'
loop_
_space_group_symop_operation_xyz
x,y,z
-x,-y,-z
loop_
_atom_site_type_symbol
_atom_site_label
_atom_site_fract_x
_atom_site_fract_y
_atom_site_fract_z
Si Si1 0.706380 0.627825 0.906881
Si Si2 0.045501 0.233585 0.408683
Si Si3 0.327572 0.623728 0.545895
Si Si4 0.259914 0.950909 0.090959
Si Si5 0.293036 0.222753 0.281318
Si Si6 0.321141 0.310816 0.568480
Si Si7 0.678467 0.354477 0.716680
Si Si8 0.975010 0.404230 0.609213
O O1 0.811756 0.554682 0.917708
O O2 0.630096 0.573374 0.762878
O O3 0.535447 0.967820 0.791389
O O4 0.856238 0.414081 0.160988
O O5 0.049603 0.235005 0.552690
O O6 0.057680 0.377176 0.397263
O O7 0.223192 0.897015 0.532235
O O8 0.542341 0.370877 0.769327
O O9 0.305625 0.505271 0.566186
O O10 0.240615 0.726167 0.323054
O O11 0.185310 0.926829 0.077153
O O12 0.289904 0.053009 0.229556
O O13 0.122964 0.163519 0.850975
O O14 0.215680 0.371718 0.337407
O O15 0.500000 0.000000 0.500000
O O16 0.216994 0.410056 0.570607
O O17 0.500000 0.500000 0.500000
#
# Coordination Sequence:
#
# PCOD8038568 Si02
#       8
#     2   2   2   2   2   2   2   2
#     4  11  21  43  66  93 131 170 196 256 326 373
#     4  11  27  45  63  89 127 167 221 265 300 366
#     4  11  22  41  66  95 127 164 205 260 320 371
#     4  11  22  42  65  94 132 166 200 257 322 373
#     4  10  17  37  67  93 122 163 199 246 319 391
#     4  11  22  39  69  94 125 165 207 256 320 380
#     4  10  22  37  66 103 131 156 204 258 315 386
#     4  11  27  46  61  91 125 169 222 261 302 369
#
# _framework density 21.115742000000001
#
# number of rings (size 3 to 8) (size 9 to 14) (size 15 to 20)
#    0.000    1.250    5.000    2.250    7.000    3.500 
#    0.000    0.000    0.000    0.000    0.000    0.000 
#    0.000    0.000    0.000    0.000    0.000    0.000 
#
# Total GULP energy -198372.519413 kJ/mol
# GULP energy per Si atom -12398.282463 kJ/mol
# Density = 2.106768 g / cm^3
# Si number density = 21.115742 Si / 1000 Ang^3
#
#
#
# Elastic Constant Matrix: (Units=GPa)
#
#
# Indices 1 2 3 4 5 6 
#
# 1 113.8326 39.5280 13.5881 -2.4423 -4.7277 11.9556
# 2 39.5280 129.1225 23.0895 0.6537 -3.0567 13.2240
# 3 13.5881 23.0895 48.0794 -0.2833 -5.2807 0.7060
# 4 -2.4423 0.6537 -0.2833 22.6116 4.0002 -0.0354
# 5 -4.7277 -3.0567 -5.2807 4.0002 24.6145 -0.0863
# 6 11.9556 13.2240 0.7060 -0.0354 -0.0863 28.9981
#
#
#
# Elastic Compliance Matrix: (Units=1/GPa)
#
#
# Indices 1 2 3 4 5 6 
#
# 1 0.010229 -0.002531 -0.001497 0.000949 0.001164 -0.003022
# 2 -0.002531 0.009534 -0.003824 -0.000595 -0.000037 -0.003212
# 3 -0.001497 -0.003824 0.023509 -0.000527 0.004373 0.001801
# 4 0.000949 -0.000595 -0.000527 0.045651 -0.007424 -0.000073
# 5 0.001164 -0.000037 0.004373 -0.007424 0.042989 -0.000451
# 6 -0.003022 -0.003212 0.001801 -0.000073 -0.000451 0.037150
#
#
# Mechanical properties :
#
#
# Convention : Reuss Voigt Hill
#
# Bulk Modulus (GPa) = 36.27480 49.27176 42.77328
# Shear Modulus (GPa) = 25.77898 29.56677 27.67288
#
# Velocity S-wave (km/s) = 3.49785 3.74602 3.62406
# Velocity P-wave (km/s) = 5.79047 6.48806 6.14917
#
# Compressibility (1/GPa) = 0.02756734
#
# Stress axis : x y z
#
# Youngs Moduli (GPa) = 97.76493 104.88404 42.53660
#
# Poissons Ratio (x) = 0.26549 0.06369
# Poissons Ratio (y) = 0.24747 0.16265
# Poissons Ratio (z) = 0.14639 0.40105
#
# Static dielectric constant tensor:
#      x y z
#    x 4.333540 0.130340 -0.293250 
#    y 0.130340 3.805580 0.035790 
#    z -0.293250 0.035790 3.743360 
# 
# 
# High freq. dielectric constant tensor:
#      x y z
#    x 1.835710 0.016450 -0.010000 
#    y 0.016450 1.823770 -0.001980 
#    z -0.010000 -0.001980 1.812720 
# 
# From -- ./inp_files/329499.got.cif
#   From: 2010.06.25/outbox.cif.g09.slc.cpg/sg2_165_cif.got.tgz:329499.got - 2010.06.27 13:26:56.
