data_PCOD8038577
_publ_section_title
;
Structure prediction by ZEFSAII (Michael W. Deem and Ramdas Pophale) SiO2 
 PCOD8038577
Probable space group: P -1
;
_chemical_formula_sum "Si O2"
_cell_formula_units_Z 14
_cell_length_a 14.309403
_cell_length_b 10.489034
_cell_length_c 13.568075
_cell_angle_alpha 140.886419
_cell_angle_beta 29.273743
_cell_angle_gamma 123.423596
_cell_volume 573.425697
_symmetry_space_group_name_H-M "P -1"
_symmetry_group_IT_number 2
_symmetry_cell_setting 'triclinic'
loop_
_space_group_symop_operation_xyz
x,y,z
-x,-y,-z
loop_
_atom_site_type_symbol
_atom_site_label
_atom_site_fract_x
_atom_site_fract_y
_atom_site_fract_z
Si Si1 0.852650 0.138645 0.805904
Si Si2 0.657155 0.307905 0.675991
Si Si3 0.459649 0.430213 0.239640
Si Si4 0.039122 0.703533 0.874000
Si Si5 0.903427 0.848288 0.877461
Si Si6 0.588272 0.951384 0.064775
Si Si7 0.191056 0.162967 0.653201
O O1 0.990317 0.192280 0.791487
O O2 0.672626 0.366011 0.066993
O O3 0.000000 0.000000 0.500000
O O4 0.734500 0.002642 0.883796
O O5 0.575168 0.352699 0.664385
O O6 0.884876 0.317829 0.471508
O O7 0.682248 0.074188 0.553881
O O8 0.500000 0.500000 0.000000
O O9 0.256754 0.488638 0.531679
O O10 0.487147 0.223845 0.020185
O O11 0.896459 0.757116 0.939028
O O12 0.905693 0.661174 0.062319
O O13 0.094074 0.909546 0.976111
O O14 0.709662 0.851240 0.994664
O O15 0.377596 0.174993 0.420857
#
# Coordination Sequence:
#
# PCOD8038577 Si02
#       7
#     2   2   2   2   2   2   2
#     4  12  24  45  66  94 134 180 207 274 328 381
#     4  10  17  38  60  99 121 167 207 271 311 374
#     4  11  24  38  70  97 132 166 229 262 317 391
#     4   9  20  43  62  96 133 173 202 273 334 383
#     4   9  20  38  67  90 138 167 210 264 336 377
#     4  12  23  42  70 100 121 176 227 264 311 399
#     4  11  23  43  71  90 137 172 216 263 337 380
#
# _framework density 24.414670999999998
#
# number of rings (size 3 to 8) (size 9 to 14) (size 15 to 20)
#    0.000    1.429    5.714    1.286    0.000    3.429 
#    0.000    2.143    0.000    0.000    0.000    0.000 
#    0.000    0.000    0.000    0.000    0.000    0.000 
#
# Total GULP energy -173492.978855 kJ/mol
# GULP energy per Si atom -12392.355633 kJ/mol
# Density = 2.435910 g / cm^3
# Si number density = 24.414671 Si / 1000 Ang^3
#
#
#
# Elastic Constant Matrix: (Units=GPa)
#
#
# Indices 1 2 3 4 5 6 
#
# 1 125.7649 33.5649 63.9974 -13.4415 -17.6519 -20.4520
# 2 33.5649 35.8452 16.0476 -21.5831 -12.1200 -10.6030
# 3 63.9974 16.0476 180.2560 -30.9459 4.3397 -16.8322
# 4 -13.4415 -21.5831 -30.9459 36.9345 -15.9028 1.5729
# 5 -17.6519 -12.1200 4.3397 -15.9028 55.2400 -1.1754
# 6 -20.4520 -10.6030 -16.8322 1.5729 -1.1754 21.6643
#
#
#
# Elastic Compliance Matrix: (Units=1/GPa)
#
#
# Indices 1 2 3 4 5 6 
#
# 1 0.013902 -0.016119 -0.004829 -0.009042 -0.001274 0.002071
# 2 -0.016119 0.143876 0.017261 0.115680 0.059713 0.063452
# 3 -0.004829 0.017261 0.009837 0.019237 0.007233 0.010528
# 4 -0.009042 0.115680 0.019237 0.130857 0.059860 0.056774
# 5 -0.001274 0.059713 0.007233 0.059860 0.048141 0.031908
# 6 0.002071 0.063452 0.010528 0.056774 0.031908 0.084958
#
#
# Mechanical properties :
#
#
# Convention : Reuss Voigt Hill
#
# Bulk Modulus (GPa) = 6.24058 63.23177 34.73618
# Shear Modulus (GPa) = 10.15523 37.98485 24.07004
#
# Velocity S-wave (km/s) = 2.04169 3.94867 3.14329
# Velocity P-wave (km/s) = 2.84950 6.83700 5.23757
#
# Compressibility (1/GPa) = 0.16024150
#
# Stress axis : x y z
#
# Youngs Moduli (GPa) = 71.93205 6.95044 101.65677
#
# Poissons Ratio (x) = 0.11203 0.49091
# Poissons Ratio (y) = 1.15944 -1.75470
# Poissons Ratio (z) = 0.34737 -0.11997
#
# Static dielectric constant tensor:
#      x y z
#    x 4.630010 -0.566320 0.045450 
#    y -0.566320 4.167580 -0.392740 
#    z 0.045450 -0.392740 5.279490 
# 
# 
# High freq. dielectric constant tensor:
#      x y z
#    x 1.971530 -0.032650 -0.002340 
#    y -0.032650 1.928350 -0.021670 
#    z -0.002340 -0.021670 1.997730 
# 
# From -- ./inp_files/532699.got.cif
#   From: 2010.06.25/outbox.cif.g09.slc.cpg/sg2_267_cif.got.tgz:532699.got - 2010.06.27 13:26:56.
