data_PCOD8038503
_publ_section_title
;
Structure prediction by ZEFSAII (Michael W. Deem and Ramdas Pophale) SiO2 
 PCOD8038503
Probable space group: P -1
;
_chemical_formula_sum "Si O2"
_cell_formula_units_Z 14
_cell_length_a 9.485799
_cell_length_b 12.133633
_cell_length_c 8.353058
_cell_angle_alpha 50.469882
_cell_angle_beta 62.739682
_cell_angle_gamma 52.977665
_cell_volume 587.654522
_symmetry_space_group_name_H-M "P -1"
_symmetry_group_IT_number 2
_symmetry_cell_setting 'triclinic'
loop_
_space_group_symop_operation_xyz
x,y,z
-x,-y,-z
loop_
_atom_site_type_symbol
_atom_site_label
_atom_site_fract_x
_atom_site_fract_y
_atom_site_fract_z
Si Si1 0.941871 0.218280 0.471552
Si Si2 0.802952 0.685362 0.349232
Si Si3 0.488308 0.314486 0.078990
Si Si4 0.505170 0.000646 0.301862
Si Si5 0.755557 0.117019 0.400464
Si Si6 0.093961 0.438571 0.254347
Si Si7 0.362932 0.546724 0.386334
O O1 0.827083 0.216303 0.379909
O O2 0.814887 0.296096 0.617712
O O3 0.033823 0.333650 0.263873
O O4 0.080693 0.038569 0.618586
O O5 0.687049 0.876865 0.236060
O O6 0.910809 0.641933 0.498706
O O7 0.669747 0.605476 0.490705
O O8 0.940967 0.624118 0.182601
O O9 0.622781 0.237265 0.227558
O O10 0.284782 0.430153 0.129106
O O11 0.478622 0.175673 0.101756
O O12 0.555980 0.421308 0.846802
O O13 0.348617 0.957851 0.366339
O O14 0.500000 0.000000 0.500000
O O15 0.500000 0.500000 0.500000
#
# Coordination Sequence:
#
# PCOD8038503 Si02
#       7
#     2   2   2   2   2   2   2
#     4  10  21  40  65  94 141 171 210 272 341 383
#     4  10  20  38  67  92 138 172 211 265 344 387
#     4  11  22  41  74  99 128 172 234 265 321 401
#     4  10  17  36  66  98 124 169 217 272 317 389
#     4  10  19  37  71  98 131 173 216 272 333 390
#     4  10  19  38  66  98 126 178 213 271 322 401
#     4  11  26  44  64  95 139 178 217 278 333 385
#
# _framework density 23.823522000000001
#
# number of rings (size 3 to 8) (size 9 to 14) (size 15 to 20)
#    0.000    1.714    4.286    1.714    0.000    1.143 
#    0.000    5.714    9.429    0.000    0.000    0.000 
#    0.000    0.000    0.000    0.000    0.000    0.000 
#
# Total GULP energy -173496.462321 kJ/mol
# GULP energy per Si atom -12392.604452 kJ/mol
# Density = 2.376930 g / cm^3
# Si number density = 23.823522 Si / 1000 Ang^3
#
#
#
# Elastic Constant Matrix: (Units=GPa)
#
#
# Indices 1 2 3 4 5 6 
#
# 1 139.0924 42.0348 25.5253 8.0560 -7.5952 -7.9517
# 2 42.0348 159.5326 23.7983 8.1731 -17.5568 -16.1683
# 3 25.5253 23.7983 54.1389 7.9789 -13.5953 -17.5879
# 4 8.0560 8.1731 7.9789 19.9258 -2.9148 -6.7650
# 5 -7.5952 -17.5568 -13.5953 -2.9148 18.9462 7.3351
# 6 -7.9517 -16.1683 -17.5879 -6.7650 7.3351 39.0209
#
#
#
# Elastic Compliance Matrix: (Units=1/GPa)
#
#
# Indices 1 2 3 4 5 6 
#
# 1 0.008350 -0.001763 -0.003302 -0.001657 -0.000646 -0.000683
# 2 -0.001763 0.007584 -0.000614 -0.000926 0.005209 0.001367
# 3 -0.003302 -0.000614 0.026964 -0.004535 0.013715 0.007862
# 4 -0.001657 -0.000926 -0.004535 0.055477 0.001192 0.006628
# 5 -0.000646 0.005209 0.013715 0.001192 0.069148 -0.004583
# 6 -0.000683 0.001367 0.007862 0.006628 -0.004583 0.031609
#
#
# Mechanical properties :
#
#
# Convention : Reuss Voigt Hill
#
# Bulk Modulus (GPa) = 31.70557 59.49784 45.60171
# Shear Modulus (GPa) = 22.62429 33.00561 27.81495
#
# Velocity S-wave (km/s) = 3.08500 3.72616 3.42064
# Velocity P-wave (km/s) = 5.10167 6.59856 5.89780
#
# Compressibility (1/GPa) = 0.03154020
#
# Stress axis : x y z
#
# Youngs Moduli (GPa) = 119.76342 131.86387 37.08645
#
# Poissons Ratio (x) = 0.23247 0.12245
# Poissons Ratio (y) = 0.21114 0.02277
# Poissons Ratio (z) = 0.39542 0.08096
#
# Static dielectric constant tensor:
#      x y z
#    x 4.972110 0.346470 -0.542450 
#    y 0.346470 5.160890 -0.229000 
#    z -0.542450 -0.229000 3.920790 
# 
# 
# High freq. dielectric constant tensor:
#      x y z
#    x 1.968250 0.000500 -0.017720 
#    y 0.000500 1.974580 -0.000180 
#    z -0.017720 -0.000180 1.870030 
# 
# From -- ./inp_files/174812.got.cif
#   From: 2010.06.25/outbox.cif.g09.slc.cpg/sg2_88_cif.got.tgz:174812.got - 2010.06.27 13:26:56.
