data_PCOD8038326
_publ_section_title
;
Structure prediction by ZEFSAII (Michael W. Deem and Ramdas Pophale) SiO2 
 PCOD8038326
Probable space group: P -1
;
_chemical_formula_sum "Si O2"
_cell_formula_units_Z 12
_cell_length_a 10.570389
_cell_length_b 9.549780
_cell_length_c 13.004167
_cell_angle_alpha 116.063977
_cell_angle_beta 146.248145
_cell_angle_gamma 72.672811
_cell_volume 649.146449
_symmetry_space_group_name_H-M "P -1"
_symmetry_group_IT_number 2
_symmetry_cell_setting 'triclinic'
loop_
_space_group_symop_operation_xyz
x,y,z
-x,-y,-z
loop_
_atom_site_type_symbol
_atom_site_label
_atom_site_fract_x
_atom_site_fract_y
_atom_site_fract_z
Si Si1 0.618688 0.966664 0.223086
Si Si2 0.154033 0.001890 0.821935
Si Si3 0.345034 0.145423 0.578885
Si Si4 0.484798 0.834361 0.610823
Si Si5 0.153873 0.283444 0.058335
Si Si6 0.673160 0.371611 0.744316
O O1 0.815215 0.975544 0.272948
O O2 0.647509 0.831272 0.283867
O O3 0.638603 0.135227 0.352851
O O4 0.366424 0.925526 0.988115
O O5 0.134222 0.172398 0.909935
O O6 0.918410 0.888552 0.648162
O O7 0.459341 0.299309 0.646476
O O8 0.485098 0.997123 0.598684
O O9 0.742878 0.799828 0.800496
O O10 0.351900 0.691070 0.410213
O O11 0.323736 0.441442 0.195013
O O12 0.906451 0.326668 0.937566
#
# Coordination Sequence:
#
# PCOD8038326 Si02
#       6
#     2   2   2   2   2   2
#     4   8  19  31  54  78  95 126 174 205 244 285
#     4  10  17  35  54  74  98 132 168 206 241 296
#     4  10  20  31  54  78  98 126 173 208 240 283
#     4   9  19  33  53  74  96 134 167 201 243 294
#     4  10  21  34  52  70 107 137 158 198 256 300
#     4  11  21  34  48  78 105 131 162 204 250 296
#
# _framework density 18.485813
#
# number of rings (size 3 to 8) (size 9 to 14) (size 15 to 20)
#    1.000    1.333    1.667    1.500    0.000    2.000 
#    0.000    0.833    0.000    9.000    0.000    0.000 
#    0.000    0.000    0.000    0.000    0.000    0.000 
#
# Total GULP energy -148681.989884 kJ/mol
# GULP energy per Si atom -12390.165824 kJ/mol
# Density = 1.844374 g / cm^3
# Si number density = 18.485813 Si / 1000 Ang^3
#
#
#
# Elastic Constant Matrix: (Units=GPa)
#
#
# Indices 1 2 3 4 5 6 
#
# 1 75.6250 18.9380 45.3466 11.9172 5.0070 13.8759
# 2 18.9380 24.0131 23.2777 1.3837 12.4131 9.1558
# 3 45.3466 23.2777 95.2396 4.6055 8.9787 16.3288
# 4 11.9172 1.3837 4.6055 29.8829 2.2045 5.3879
# 5 5.0070 12.4131 8.9787 2.2045 30.1090 1.6769
# 6 13.8759 9.1558 16.3288 5.3879 1.6769 15.2425
#
#
#
# Elastic Compliance Matrix: (Units=1/GPa)
#
#
# Indices 1 2 3 4 5 6 
#
# 1 0.021529 -0.009825 -0.007142 -0.006535 0.003307 -0.004100
# 2 -0.009825 0.084678 -0.007929 0.009452 -0.029739 -0.033495
# 3 -0.007142 -0.007929 0.017099 0.001999 -0.000359 -0.007720
# 4 -0.006535 0.009452 0.001999 0.038400 -0.005391 -0.014850
# 5 0.003307 -0.029739 -0.000359 -0.005391 0.044744 0.012220
# 6 -0.004100 -0.033495 -0.007720 -0.014850 0.012220 0.101633
#
#
# Mechanical properties :
#
#
# Convention : Reuss Voigt Hill
#
# Bulk Modulus (GPa) = 13.60295 41.11136 27.35715
# Shear Modulus (GPa) = 13.07596 22.20124 17.63860
#
# Velocity S-wave (km/s) = 2.66249 3.46929 3.09231
# Velocity P-wave (km/s) = 4.10200 6.19158 5.25176
#
# Compressibility (1/GPa) = 0.07351348
#
# Stress axis : x y z
#
# Youngs Moduli (GPa) = 46.44820 11.80942 58.48227
#
# Poissons Ratio (x) = 0.11603 0.41769
# Poissons Ratio (y) = 0.45638 0.46370
# Poissons Ratio (z) = 0.33174 0.09364
#
# Static dielectric constant tensor:
#      x y z
#    x 3.180580 -0.061550 -0.178980 
#    y -0.061550 3.174270 -0.205210 
#    z -0.178980 -0.205210 3.520840 
# 
# 
# High freq. dielectric constant tensor:
#      x y z
#    x 1.697150 -0.003720 -0.011980 
#    y -0.003720 1.685150 -0.023120 
#    z -0.011980 -0.023120 1.730460 
# 
# From -- ./inp_files/150090.got.cif
#   From: 2010.06.25/outbox.cif.g09.slc.cpg/sg2_76_cif.got.tgz:150090.got - 2010.06.27 13:26:56.
