data_PCOD8038705
_publ_section_title
;
Structure prediction by ZEFSAII (Michael W. Deem and Ramdas Pophale) SiO2 
 PCOD8038705
Probable space group: P -1
;
_chemical_formula_sum "Si O2"
_cell_formula_units_Z 14
_cell_length_a 22.073958
_cell_length_b 18.560602
_cell_length_c 5.085892
_cell_angle_alpha 84.580880
_cell_angle_beta 93.867512
_cell_angle_gamma 158.321100
_cell_volume 765.125796
_symmetry_space_group_name_H-M "P -1"
_symmetry_group_IT_number 2
_symmetry_cell_setting 'triclinic'
loop_
_space_group_symop_operation_xyz
x,y,z
-x,-y,-z
loop_
_atom_site_type_symbol
_atom_site_label
_atom_site_fract_x
_atom_site_fract_y
_atom_site_fract_z
Si Si1 0.006300 0.921784 0.551779
Si Si2 0.419862 0.835178 0.473648
Si Si3 0.072223 0.914640 0.063594
Si Si4 0.926007 0.583981 0.631388
Si Si5 0.221617 0.437890 0.205899
Si Si6 0.137351 0.827655 0.108218
Si Si7 0.513579 0.850964 0.002558
O O1 0.098703 0.989229 0.308450
O O2 0.817764 0.682227 0.615425
O O3 0.000000 0.000000 0.500000
O O4 0.884140 0.982617 0.200054
O O5 0.230874 0.640577 0.398142
O O6 0.425672 0.791684 0.750251
O O7 0.500000 0.000000 0.500000
O O8 0.518570 0.908954 0.235267
O O9 0.180593 0.961440 0.063590
O O10 0.882050 0.677346 0.058192
O O11 0.856192 0.588094 0.614071
O O12 0.064171 0.727149 0.403714
O O13 0.009663 0.658466 0.908985
O O14 0.410252 0.664049 0.116923
O O15 0.304374 0.968898 0.081175
#
# Coordination Sequence:
#
# PCOD8038705 Si02
#       7
#     2   2   2   2   2   2   2
#     4  10  18  29  52  81 106 136 185 224 259 316
#     4  11  23  41  58  81 112 146 180 225 277 327
#     4   9  17  31  51  74 106 140 178 219 271 308
#     4  10  19  36  58  77 108 147 184 220 271 324
#     4   8  19  31  55  77 104 139 190 220 259 310
#     4  11  19  36  55  86 108 140 185 231 267 320
#     4  11  23  35  60  85 109 140 189 229 269 320
#
# _framework density 18.297643000000001
#
# number of rings (size 3 to 8) (size 9 to 14) (size 15 to 20)
#    0.857    1.143    1.429    4.286    2.000    0.000 
#    0.000    4.286    0.000    1.714    0.000    0.000 
#    0.000    0.000    0.000    0.000    0.000    0.000 
#
# Total GULP energy -173449.528283 kJ/mol
# GULP energy per Si atom -12389.252020 kJ/mol
# Density = 1.825600 g / cm^3
# Si number density = 18.297643 Si / 1000 Ang^3
#
#
#
# Elastic Constant Matrix: (Units=GPa)
#
#
# Indices 1 2 3 4 5 6 
#
# 1 55.3344 34.0909 21.6874 -3.7830 -6.4073 -6.6031
# 2 34.0909 82.2299 18.6548 -7.0438 -9.2298 -2.3466
# 3 21.6874 18.6548 120.3751 -3.3312 -7.8201 -0.5455
# 4 -3.7830 -7.0438 -3.3312 25.0747 4.2902 -3.4216
# 5 -6.4073 -9.2298 -7.8201 4.2902 23.1292 -3.1797
# 6 -6.6031 -2.3466 -0.5455 -3.4216 -3.1797 26.1624
#
#
#
# Elastic Compliance Matrix: (Units=1/GPa)
#
#
# Indices 1 2 3 4 5 6 
#
# 1 0.026360 -0.009620 -0.002996 0.001202 0.003088 0.006260
# 2 -0.009620 0.016880 -0.000593 0.002612 0.003362 -0.000176
# 3 -0.002996 -0.000593 0.009067 0.000210 0.001911 -0.000361
# 4 0.001202 0.002612 0.000210 0.042538 -0.005700 0.005413
# 5 0.003088 0.003362 0.001911 -0.005700 0.047989 0.006208
# 6 0.006260 -0.000176 -0.000361 0.005413 0.006208 0.041242
#
#
# Mechanical properties :
#
#
# Convention : Reuss Voigt Hill
#
# Bulk Modulus (GPa) = 38.62657 45.20061 41.91359
# Shear Modulus (GPa) = 22.81814 27.10702 24.96258
#
# Velocity S-wave (km/s) = 3.53520 3.85314 3.69758
# Velocity P-wave (km/s) = 6.14975 6.67474 6.41762
#
# Compressibility (1/GPa) = 0.02588892
#
# Stress axis : x y z
#
# Youngs Moduli (GPa) = 37.93629 59.24158 110.28634
#
# Poissons Ratio (x) = 0.56993 0.33042
# Poissons Ratio (y) = 0.36496 0.06538
# Poissons Ratio (z) = 0.11366 0.03512
#
# Static dielectric constant tensor:
#      x y z
#    x 3.128200 -0.145840 -0.033760 
#    y -0.145840 3.207580 0.071190 
#    z -0.033760 0.071190 3.559480 
# 
# 
# High freq. dielectric constant tensor:
#      x y z
#    x 1.680800 -0.012380 -0.004320 
#    y -0.012380 1.680730 0.001920 
#    z -0.004320 0.001920 1.734120 
# 
# From -- ./inp_files/120070.got.cif
#   From: 2010.06.25/outbox.cif.g09.slc.cpg/sg2_61_cif.got.tgz:120070.got - 2010.06.27 13:26:56.
