data_PCOD8038236
_publ_section_title
;
Structure prediction by ZEFSAII (Michael W. Deem and Ramdas Pophale) SiO2 
 PCOD8038236
Probable space group: P -1
;
_chemical_formula_sum "Si O2"
_cell_formula_units_Z 16
_cell_length_a 15.000000
_cell_length_b 9.000000
_cell_length_c 12.000000
_cell_angle_alpha 120.000000
_cell_angle_beta 60.000000
_cell_angle_gamma 70.000000
_cell_volume 745.925389
_symmetry_space_group_name_H-M "P -1"
_symmetry_group_IT_number 2
_symmetry_cell_setting 'triclinic'
loop_
_space_group_symop_operation_xyz
x,y,z
-x,-y,-z
loop_
_atom_site_type_symbol
_atom_site_label
_atom_site_fract_x
_atom_site_fract_y
_atom_site_fract_z
Si Si1 0.901672 0.453107 0.550148
Si Si2 0.078881 0.874495 0.213069
Si Si3 0.607911 0.432600 0.242952
Si Si4 0.838589 0.901492 0.040163
Si Si5 0.468032 0.122017 0.445984
Si Si6 0.217862 0.391895 0.084146
Si Si7 0.808926 0.465753 0.380129
Si Si8 0.252324 0.802128 0.586499
O O1 0.766388 0.622389 0.797503
O O2 0.794981 0.574312 0.549788
O O3 0.000000 0.500000 0.500000
O O4 0.040396 0.121502 0.361513
O O5 0.126916 0.686630 0.213943
O O6 0.245763 0.660207 0.951284
O O7 0.902606 0.029161 0.335813
O O8 0.532401 0.671330 0.466117
O O9 0.440343 0.588612 0.336191
O O10 0.684880 0.166907 0.158074
O O11 0.796029 0.969976 0.222995
O O12 0.890606 0.635508 0.886562
O O13 0.997430 0.810017 0.876880
O O14 0.291203 0.299324 0.565679
O O15 0.500000 0.000000 0.500000
O O16 0.603140 0.872531 0.181972
O O17 0.731303 0.378101 0.405456
#
# Coordination Sequence:
#
# PCOD8038236 Si02
#       8
#     2   2   2   2   2   2   2   2
#     4  11  23  48  71  95 131 192 243 280 331 408
#     4  11  25  44  68 100 141 178 230 290 343 410
#     4  12  21  42  67 100 140 177 222 282 353 416
#     4  12  21  39  68  99 137 180 228 285 340 416
#     4  12  25  41  65 103 148 174 219 293 356 417
#     4  12  25  42  67  99 141 188 220 283 354 392
#     4  11  23  41  70  99 135 182 238 283 338 415
#     4  11  22  37  69 103 134 179 228 280 352 412
#
# _framework density 21.449866
#
# number of rings (size 3 to 8) (size 9 to 14) (size 15 to 20)
#    0.000    0.500    7.500    2.625    0.000    2.000 
#    0.000    1.250    0.000    4.500    0.000    0.000 
#    0.000    0.000    0.000    0.000    0.000    0.000 
#
# Total GULP energy -198217.749379 kJ/mol
# GULP energy per Si atom -12388.609336 kJ/mol
# Density = 2.140105 g / cm^3
# Si number density = 21.449866 Si / 1000 Ang^3
#
#
#
# Elastic Constant Matrix: (Units=GPa)
#
#
# Indices 1 2 3 4 5 6 
#
# 1 91.3140 43.7579 51.4104 8.9933 -16.4631 -1.3379
# 2 43.7579 117.8527 42.3749 10.4008 2.7174 -4.8208
# 3 51.4104 42.3749 126.5471 -2.7975 -15.3199 -13.1627
# 4 8.9933 10.4008 -2.7975 32.9322 3.4218 7.0283
# 5 -16.4631 2.7174 -15.3199 3.4218 49.2969 7.4445
# 6 -1.3379 -4.8208 -13.1627 7.0283 7.4445 32.3161
#
#
#
# Elastic Compliance Matrix: (Units=1/GPa)
#
#
# Indices 1 2 3 4 5 6 
#
# 1 0.017262 -0.004395 -0.005271 -0.003777 0.004996 -0.002418
# 2 -0.004395 0.011286 -0.002208 -0.002646 -0.002870 0.001839
# 3 -0.005271 -0.002208 0.011324 0.002270 0.001226 0.003289
# 4 -0.003777 -0.002646 0.002270 0.034022 -0.001772 -0.006618
# 5 0.004996 -0.002870 0.001226 -0.001772 0.023327 -0.004710
# 6 -0.002418 0.001839 0.003289 -0.006618 -0.004710 0.034982
#
#
# Mechanical properties :
#
#
# Convention : Reuss Voigt Hill
#
# Bulk Modulus (GPa) = 62.02339 67.86669 64.94504
# Shear Modulus (GPa) = 30.99287 36.12043 33.55665
#
# Velocity S-wave (km/s) = 3.80531 4.10804 3.95957
# Velocity P-wave (km/s) = 6.94877 7.36273 7.15874
#
# Compressibility (1/GPa) = 0.01612295
#
# Stress axis : x y z
#
# Youngs Moduli (GPa) = 57.92920 88.60620 88.30858
#
# Poissons Ratio (x) = 0.38941 0.46551
# Poissons Ratio (y) = 0.25459 0.19502
# Poissons Ratio (z) = 0.30537 0.19568
#
# Static dielectric constant tensor:
#      x y z
#    x 3.932670 0.125370 -0.027590 
#    y 0.125370 3.897420 0.099950 
#    z -0.027590 0.099950 4.098430 
# 
# 
# High freq. dielectric constant tensor:
#      x y z
#    x 1.832840 0.011840 -0.009760 
#    y 0.011840 1.835640 0.006450 
#    z -0.009760 0.006450 1.848750 
# 
# From -- ./inp_files/178920.got.cif
#   From: 2010.06.25/outbox.ucp.g09.slc.cvg/sg2_90_cif.got.tgz:178920.got - 2010.06.28 11:54:26.
