data_PCOD8038803
_publ_section_title
;
Structure prediction by ZEFSAII (Michael W. Deem and Ramdas Pophale) SiO2 
 PCOD8038803
Probable space group: P -1
;
_chemical_formula_sum "Si O2"
_cell_formula_units_Z 16
_cell_length_a 9.142118
_cell_length_b 15.762410
_cell_length_c 15.135729
_cell_angle_alpha 36.805811
_cell_angle_beta 43.582300
_cell_angle_gamma 64.202687
_cell_volume 843.652875
_symmetry_space_group_name_H-M "P -1"
_symmetry_group_IT_number 2
_symmetry_cell_setting 'triclinic'
loop_
_space_group_symop_operation_xyz
x,y,z
-x,-y,-z
loop_
_atom_site_type_symbol
_atom_site_label
_atom_site_fract_x
_atom_site_fract_y
_atom_site_fract_z
Si Si1 0.009780 0.800017 0.894579
Si Si2 0.275801 0.842226 0.574312
Si Si3 0.079394 0.719502 0.591344
Si Si4 0.438202 0.356884 0.383669
Si Si5 0.875159 0.867040 0.411358
Si Si6 0.593227 0.589922 0.972536
Si Si7 0.367305 0.509732 0.636666
Si Si8 0.473101 0.839302 0.740686
O O1 0.061064 0.823154 0.747789
O O2 0.216160 0.767996 0.879555
O O3 0.984399 0.955004 0.814389
O O4 0.781693 0.659468 0.126575
O O5 0.218721 0.851908 0.487761
O O6 0.350891 0.698758 0.675851
O O7 0.483625 0.994482 0.379071
O O8 0.212354 0.608721 0.599739
O O9 0.024461 0.793622 0.465120
O O10 0.860875 0.626467 0.822657
O O11 0.197889 0.225853 0.571786
O O12 0.443592 0.410983 0.437458
O O13 0.477819 0.499286 0.184523
O O14 0.638560 0.848082 0.578691
O O15 0.524461 0.739157 0.878830
O O16 0.500000 0.500000 0.000000
O O17 0.500000 0.500000 0.500000
#
# Coordination Sequence:
#
# PCOD8038803 Si02
#       8
#     2   2   2   2   2   2   2   2
#     4  11  19  35  59  82 116 148 183 216 285 335
#     4  10  18  32  54  90 115 147 171 220 283 352
#     4  10  21  34  57  81 120 142 182 227 285 327
#     4  11  19  36  57  82 116 144 183 225 281 329
#     4  10  19  34  58  89 114 143 173 224 282 347
#     4  11  18  29  54  91 117 143 170 218 280 345
#     4  11  26  42  56  75 109 152 201 240 266 314
#     4  10  18  30  55  89 128 136 171 217 283 351
#
# _framework density 18.965145
#
# number of rings (size 3 to 8) (size 9 to 14) (size 15 to 20)
#    0.000    1.500    5.000    3.000    0.000    7.500 
#    0.000    1.875    0.000    0.000    0.000    0.000 
#    0.000    0.000    0.000    0.000    0.000    0.000 
#
# Total GULP energy -198365.399942 kJ/mol
# GULP energy per Si atom -12397.837496 kJ/mol
# Density = 1.892198 g / cm^3
# Si number density = 18.965145 Si / 1000 Ang^3
#
#
#
# Elastic Constant Matrix: (Units=GPa)
#
#
# Indices 1 2 3 4 5 6 
#
# 1 119.9989 55.3075 30.3905 -7.4520 3.5052 15.3171
# 2 55.3075 95.2175 48.0990 -13.9177 9.8155 11.6081
# 3 30.3905 48.0990 57.3305 -16.6566 3.4097 8.0509
# 4 -7.4520 -13.9177 -16.6566 22.6559 1.4850 -0.4387
# 5 3.5052 9.8155 3.4097 1.4850 21.8310 -6.7514
# 6 15.3171 11.6081 8.0509 -0.4387 -6.7514 31.4945
#
#
#
# Elastic Compliance Matrix: (Units=1/GPa)
#
#
# Indices 1 2 3 4 5 6 
#
# 1 0.011725 -0.006083 -0.000812 -0.000541 0.000008 -0.003258
# 2 -0.006083 0.022894 -0.014433 0.001927 -0.008288 -0.003540
# 3 -0.000812 -0.014433 0.035435 0.016926 -0.001100 -0.003344
# 4 -0.000541 0.001927 0.016926 0.058077 -0.009210 -0.005939
# 5 0.000008 -0.008288 -0.001100 -0.009210 0.054965 0.014986
# 6 -0.003258 -0.003540 -0.003344 -0.005939 0.014986 0.038626
#
#
# Mechanical properties :
#
#
# Convention : Reuss Voigt Hill
#
# Bulk Modulus (GPa) = 36.49957 60.01565 48.25761
# Shear Modulus (GPa) = 18.28090 24.44626 21.36358
#
# Velocity S-wave (km/s) = 3.10808 3.59417 3.35993
# Velocity P-wave (km/s) = 5.67165 6.99557 6.36811
#
# Compressibility (1/GPa) = 0.02739759
#
# Stress axis : x y z
#
# Youngs Moduli (GPa) = 85.28998 43.67923 28.22086
#
# Poissons Ratio (x) = 0.26570 0.02291
# Poissons Ratio (y) = 0.51881 0.40732
# Poissons Ratio (z) = 0.06923 0.63044
#
# Static dielectric constant tensor:
#      x y z
#    x 4.084070 -0.316670 0.357200 
#    y -0.316670 3.482990 -0.505450 
#    z 0.357200 -0.505450 3.196480 
# 
# 
# High freq. dielectric constant tensor:
#      x y z
#    x 1.754680 0.004210 -0.001690 
#    y 0.004210 1.720160 -0.047600 
#    z -0.001690 -0.047600 1.695310 
# 
# From -- ./inp_files/175321.got.cif
#   From: 2010.06.25/outbox.cif.g09.slc.cpg/sg2_88_cif.got.tgz:175321.got - 2010.06.27 13:26:56.
