data_PCOD8038569
_publ_section_title
;
Structure prediction by ZEFSAII (Michael W. Deem and Ramdas Pophale) SiO2 
 PCOD8038569
Probable space group: P -1
;
_chemical_formula_sum "Si O2"
_cell_formula_units_Z 14
_cell_length_a 10.097195
_cell_length_b 16.565050
_cell_length_c 10.320714
_cell_angle_alpha 33.203053
_cell_angle_beta 53.240796
_cell_angle_gamma 70.345421
_cell_volume 702.158076
_symmetry_space_group_name_H-M "P -1"
_symmetry_group_IT_number 2
_symmetry_cell_setting 'triclinic'
loop_
_space_group_symop_operation_xyz
x,y,z
-x,-y,-z
loop_
_atom_site_type_symbol
_atom_site_label
_atom_site_fract_x
_atom_site_fract_y
_atom_site_fract_z
Si Si1 0.826048 0.364040 0.729873
Si Si2 0.739482 0.302899 0.142831
Si Si3 0.621516 0.750170 0.440016
Si Si4 0.353637 0.427725 0.575211
Si Si5 0.999494 0.135802 0.221465
Si Si6 0.901807 0.669007 0.555550
Si Si7 0.958559 0.016635 0.851126
O O1 0.706874 0.431169 0.623353
O O2 0.000000 0.500000 0.500000
O O3 0.912415 0.263762 0.727013
O O4 0.713831 0.275209 0.039822
O O5 0.544988 0.237302 0.405761
O O6 0.846574 0.197559 0.273835
O O7 0.847708 0.486620 0.875021
O O8 0.556080 0.631206 0.516800
O O9 0.735797 0.678898 0.559650
O O10 0.743946 0.928440 0.080783
O O11 0.500000 0.500000 0.500000
O O12 0.187557 0.281308 0.924670
O O13 0.957646 0.067799 0.189923
O O14 0.000000 0.000000 0.500000
O O15 0.956915 0.791732 0.481154
O O16 0.000000 0.000000 0.000000
#
# Coordination Sequence:
#
# PCOD8038569 Si02
#       7
#     2   2   2   2   2   2   2
#     4  10  17  37  68  89 119 164 213 252 312 366
#     4  11  20  37  68  92 119 159 217 262 305 367
#     4  10  20  37  61  96 127 153 201 271 316 359
#     4  11  22  41  63  91 127 168 207 256 314 381
#     4  11  24  46  61  87 133 173 201 261 328 377
#     4  10  18  36  66  93 115 162 215 257 299 370
#     4   9  20  40  63  85 125 167 203 251 316 373
#
# _framework density 19.93853
#
# number of rings (size 3 to 8) (size 9 to 14) (size 15 to 20)
#    0.000    1.714    5.714    2.143    0.000    1.143 
#    7.714    6.429    0.000    0.000    0.000    0.000 
#    0.000    0.000    0.000    0.000    0.000    0.000 
#
# Total GULP energy -173454.720067 kJ/mol
# GULP energy per Si atom -12389.622862 kJ/mol
# Density = 1.989315 g / cm^3
# Si number density = 19.938530 Si / 1000 Ang^3
#
#
#
# Elastic Constant Matrix: (Units=GPa)
#
#
# Indices 1 2 3 4 5 6 
#
# 1 132.3062 68.4223 45.7263 0.0865 0.8829 -11.0906
# 2 68.4223 123.9658 46.3343 -4.4213 -23.1977 -9.9528
# 3 45.7263 46.3343 77.5039 -0.4747 0.3875 -17.2611
# 4 0.0865 -4.4213 -0.4747 39.4257 -6.7015 -9.0309
# 5 0.8829 -23.1977 0.3875 -6.7015 29.8656 -1.7602
# 6 -11.0906 -9.9528 -17.2611 -9.0309 -1.7602 38.0845
#
#
#
# Elastic Compliance Matrix: (Units=1/GPa)
#
#
# Indices 1 2 3 4 5 6 
#
# 1 0.012161 -0.006734 -0.003224 -0.001937 -0.006008 -0.000417
# 2 -0.006734 0.017024 -0.005890 0.004713 0.014652 0.001613
# 3 -0.003224 -0.005890 0.019764 0.000311 -0.004292 0.006355
# 4 -0.001937 0.004713 0.000311 0.029658 0.010861 0.008343
# 5 -0.006008 0.014652 -0.004292 0.010861 0.047824 0.004920
# 6 -0.000417 0.001613 0.006355 0.008343 0.004920 0.031644
#
#
# Mechanical properties :
#
#
# Convention : Reuss Voigt Hill
#
# Bulk Modulus (GPa) = 57.95474 72.74906 65.35190
# Shear Modulus (GPa) = 25.57240 33.02801 29.30020
#
# Velocity S-wave (km/s) = 3.58517 4.07442 3.83760
# Velocity P-wave (km/s) = 6.80204 7.66162 7.24459
#
# Compressibility (1/GPa) = 0.01725485
#
# Stress axis : x y z
#
# Youngs Moduli (GPa) = 82.22687 58.73898 50.59616
#
# Poissons Ratio (x) = 0.39557 0.16311
# Poissons Ratio (y) = 0.55374 0.29800
# Poissons Ratio (z) = 0.26508 0.34595
#
# Static dielectric constant tensor:
#      x y z
#    x 3.243030 0.014020 -0.062900 
#    y 0.014020 4.713300 -0.083530 
#    z -0.062900 -0.083530 3.738680 
# 
# 
# High freq. dielectric constant tensor:
#      x y z
#    x 1.748670 -0.011040 -0.004890 
#    y -0.011040 1.794070 -0.004730 
#    z -0.004890 -0.004730 1.765030 
# 
# From -- ./inp_files/204985.got.cif
#   From: 2010.06.25/outbox.cif.g09.slc.cpg/sg2_103_cif.got.tgz:204985.got - 2010.06.27 13:26:56.
