data_PCOD8038547
_publ_section_title
;
Structure prediction by ZEFSAII (Michael W. Deem and Ramdas Pophale) SiO2 
 PCOD8038547
Probable space group: P -1
;
_chemical_formula_sum "Si O2"
_cell_formula_units_Z 16
_cell_length_a 11.590671
_cell_length_b 7.813508
_cell_length_c 12.658756
_cell_angle_alpha 58.671210
_cell_angle_beta 53.423545
_cell_angle_gamma 65.981263
_cell_volume 778.482893
_symmetry_space_group_name_H-M "P -1"
_symmetry_group_IT_number 2
_symmetry_cell_setting 'triclinic'
loop_
_space_group_symop_operation_xyz
x,y,z
-x,-y,-z
loop_
_atom_site_type_symbol
_atom_site_label
_atom_site_fract_x
_atom_site_fract_y
_atom_site_fract_z
Si Si1 0.552410 0.739174 0.073964
Si Si2 0.592225 0.862789 0.675631
Si Si3 0.543419 0.569754 0.626250
Si Si4 0.684815 0.297446 0.457380
Si Si5 0.753453 0.561070 0.836774
Si Si6 0.830678 0.766972 0.034428
Si Si7 0.029527 0.594923 0.791769
Si Si8 0.656799 0.141628 0.023256
O O1 0.455445 0.583823 0.227753
O O2 0.655536 0.794739 0.095540
O O3 0.668362 0.622109 0.969887
O O4 0.443865 0.906331 0.010091
O O5 0.588635 0.776817 0.585201
O O6 0.722334 0.729436 0.709621
O O7 0.438541 0.849248 0.821034
O O8 0.624440 0.092405 0.587614
O O9 0.654467 0.469119 0.509156
O O10 0.386124 0.622003 0.640692
O O11 0.858676 0.260785 0.358789
O O12 0.925246 0.537343 0.774725
O O13 0.700717 0.355041 0.896158
O O14 0.876091 0.613071 0.153144
O O15 0.815401 0.003106 0.000862
O O16 0.938539 0.717814 0.894352
#
# Coordination Sequence:
#
# PCOD8038547 Si02
#       8
#     2   2   2   2   2   2   2   2
#     4  10  17  37  63  89 121 147 199 270 308 345
#     4  11  22  41  65  96 124 159 202 262 314 353
#     4  11  21  40  64  91 123 161 205 258 306 356
#     4  11  25  40  62  90 127 168 205 246 305 376
#     4  10  21  39  62  88 128 156 201 260 304 362
#     4  10  21  36  64  88 118 166 201 252 316 356
#     4  10  23  42  55  85 130 167 203 246 299 375
#     4  11  20  36  66  98 116 149 208 265 311 354
#
# _framework density 20.552796000000001
#
# number of rings (size 3 to 8) (size 9 to 14) (size 15 to 20)
#    0.000    1.500    3.750    2.250    1.750    3.000 
#    2.250    0.625    0.000    0.000    0.000    0.000 
#    0.000    0.000    0.000    0.000    0.000    0.000 
#
# Total GULP energy -198270.235111 kJ/mol
# GULP energy per Si atom -12391.889694 kJ/mol
# Density = 2.050602 g / cm^3
# Si number density = 20.552796 Si / 1000 Ang^3
#
#
#
# Elastic Constant Matrix: (Units=GPa)
#
#
# Indices 1 2 3 4 5 6 
#
# 1 111.2318 51.4121 43.4588 9.3469 2.4900 -11.5344
# 2 51.4121 105.2237 28.2760 -7.2662 9.0613 -20.1261
# 3 43.4588 28.2760 72.9805 -8.1536 -0.9304 -4.4564
# 4 9.3469 -7.2662 -8.1536 16.0356 -1.0819 10.3242
# 5 2.4900 9.0613 -0.9304 -1.0819 31.7849 1.8855
# 6 -11.5344 -20.1261 -4.4564 10.3242 1.8855 36.6483
#
#
#
# Elastic Compliance Matrix: (Units=1/GPa)
#
#
# Indices 1 2 3 4 5 6 
#
# 1 0.019581 -0.006500 -0.011522 -0.025807 -0.001403 0.008534
# 2 -0.006500 0.014439 -0.000727 0.007166 -0.003620 0.003963
# 3 -0.011522 -0.000727 0.023015 0.023437 0.003055 -0.007987
# 4 -0.025807 0.007166 0.023437 0.114939 0.006597 -0.034056
# 5 -0.001403 -0.003620 0.003055 0.006597 0.033251 -0.005627
# 6 0.008534 0.003963 -0.007987 -0.034056 -0.005627 0.041061
#
#
# Mechanical properties :
#
#
# Convention : Reuss Voigt Hill
#
# Bulk Modulus (GPa) = 51.18481 59.52551 55.35516
# Shear Modulus (GPa) = 17.22369 27.97969 22.60169
#
# Velocity S-wave (km/s) = 2.89800 3.69366 3.31975
# Velocity P-wave (km/s) = 6.01299 6.87139 6.45647
#
# Compressibility (1/GPa) = 0.01953705
#
# Stress axis : x y z
#
# Youngs Moduli (GPa) = 51.06937 69.25456 43.45015
#
# Poissons Ratio (x) = 0.45016 0.50063
# Poissons Ratio (y) = 0.33195 0.03160
# Poissons Ratio (z) = 0.58841 0.05037
#
# Static dielectric constant tensor:
#      x y z
#    x 3.880000 -0.007310 0.095340 
#    y -0.007310 3.898370 -0.096150 
#    z 0.095340 -0.096150 3.433260 
# 
# 
# High freq. dielectric constant tensor:
#      x y z
#    x 1.804150 -0.000690 0.013310 
#    y -0.000690 1.815570 -0.012110 
#    z 0.013310 -0.012110 1.785110 
# 
# From -- ./inp_files/305818.got.cif
#   From: 2010.06.25/outbox.cif.g09.slc.cpg/sg2_153_cif.got.tgz:305818.got - 2010.06.27 13:26:56.
