data_PCOD8038945
_publ_section_title
;
Structure prediction by ZEFSAII (Michael W. Deem and Ramdas Pophale) SiO2 
 PCOD8038945
Probable space group: P -1
;
_chemical_formula_sum "Si O2"
_cell_formula_units_Z 14
_cell_length_a 9.582219
_cell_length_b 11.680207
_cell_length_c 13.251189
_cell_angle_alpha 84.871243
_cell_angle_beta 48.999402
_cell_angle_gamma 121.019958
_cell_volume 719.825713
_symmetry_space_group_name_H-M "P -1"
_symmetry_group_IT_number 2
_symmetry_cell_setting 'triclinic'
loop_
_space_group_symop_operation_xyz
x,y,z
-x,-y,-z
loop_
_atom_site_type_symbol
_atom_site_label
_atom_site_fract_x
_atom_site_fract_y
_atom_site_fract_z
Si Si1 0.781195 0.325411 0.975767
Si Si2 0.211233 0.322309 0.938352
Si Si3 0.219089 0.935275 0.988161
Si Si4 0.244549 0.035570 0.572369
Si Si5 0.404831 0.991790 0.690219
Si Si6 0.652117 0.791504 0.958766
Si Si7 0.617683 0.361970 0.247418
O O1 0.744829 0.175132 0.974097
O O2 0.110581 0.517026 0.816528
O O3 0.641746 0.337308 0.953464
O O4 0.629528 0.273080 0.159944
O O5 0.407552 0.524236 0.800600
O O6 0.102731 0.205234 0.896925
O O7 0.394225 0.325582 0.923128
O O8 0.913201 0.221910 0.142867
O O9 0.259337 0.045371 0.047820
O O10 0.451464 0.063203 0.776196
O O11 0.343100 0.975357 0.461276
O O12 0.345872 0.202830 0.459101
O O13 0.388049 0.088940 0.610755
O O14 0.901465 0.874283 0.755867
#
# Coordination Sequence:
#
# PCOD8038945 Si02
#       7
#     2   2   2   2   2   2   2
#     4  10  20  34  58  76 105 148 178 209 259 332
#     4   8  18  33  56  75 105 145 175 204 262 327
#     4   9  17  36  56  76 105 149 173 207 260 337
#     4  10  18  31  56  87 100 132 179 235 250 298
#     4   8  16  32  55  77 104 141 180 200 265 321
#     4  11  21  32  57  87 104 127 190 226 251 295
#     4  10  18  37  54  75 110 146 171 207 278 318
#
# _framework density 19.449152000000002
#
# number of rings (size 3 to 8) (size 9 to 14) (size 15 to 20)
#    0.857    1.714    1.429    1.714    0.000    1.143 
#    0.000    2.857    0.000    0.857    0.000    0.000 
#    0.000    0.000    0.000    0.000    0.000    0.000 
#
# Total GULP energy -173441.263166 kJ/mol
# GULP energy per Si atom -12388.661655 kJ/mol
# Density = 1.940488 g / cm^3
# Si number density = 19.449152 Si / 1000 Ang^3
#
#
#
# Elastic Constant Matrix: (Units=GPa)
#
#
# Indices 1 2 3 4 5 6 
#
# 1 145.5986 31.0902 16.4161 -12.7328 2.7647 -4.8823
# 2 31.0902 49.5440 7.5426 -0.4095 1.9700 -14.4853
# 3 16.4161 7.5426 34.2810 -2.2287 11.3721 -9.0663
# 4 -12.7328 -0.4095 -2.2287 23.4895 -10.9394 5.8551
# 5 2.7647 1.9700 11.3721 -10.9394 20.3315 -5.5914
# 6 -4.8823 -14.4853 -9.0663 5.8551 -5.5914 24.4599
#
#
#
# Elastic Compliance Matrix: (Units=1/GPa)
#
#
# Indices 1 2 3 4 5 6 
#
# 1 0.009361 -0.006576 -0.005639 0.008245 0.005634 -0.004802
# 2 -0.006576 0.029401 0.001803 -0.008635 -0.002592 0.018242
# 3 -0.005639 0.001803 0.043362 -0.015390 -0.028304 0.013228
# 4 0.008245 -0.008635 -0.015390 0.068423 0.040668 -0.016255
# 5 0.005634 -0.002592 -0.028304 0.040668 0.086122 -0.000950
# 6 -0.004802 0.018242 0.013228 -0.016255 -0.000950 0.059305
#
#
# Mechanical properties :
#
#
# Convention : Reuss Voigt Hill
#
# Bulk Modulus (GPa) = 16.31295 37.72461 27.01878
# Shear Modulus (GPa) = 14.82667 25.28115 20.05391
#
# Velocity S-wave (km/s) = 2.76403 3.60927 3.21455
# Velocity P-wave (km/s) = 4.31186 6.06694 5.26307
#
# Compressibility (1/GPa) = 0.06130100
#
# Stress axis : x y z
#
# Youngs Moduli (GPa) = 106.82424 34.01230 23.06182
#
# Poissons Ratio (x) = 0.22365 0.13004
# Poissons Ratio (y) = 0.70244 -0.04158
# Poissons Ratio (z) = 0.60236 -0.06132
#
# Static dielectric constant tensor:
#      x y z
#    x 3.600770 -0.094770 0.188780 
#    y -0.094770 3.137850 0.089490 
#    z 0.188780 0.089490 3.328350 
# 
# 
# High freq. dielectric constant tensor:
#      x y z
#    x 1.764520 -0.015150 0.019440 
#    y -0.015150 1.722940 0.009520 
#    z 0.019440 0.009520 1.725480 
# 
# From -- ./inp_files/392557.got.cif
#   From: 2010.06.25/outbox.cif.g09.slc.cpg/sg2_197_cif.got.tgz:392557.got - 2010.06.27 13:26:56.
