data_PCOD8038241
_publ_section_title
;
Structure prediction by ZEFSAII (Michael W. Deem and Ramdas Pophale) SiO2 
 PCOD8038241
Probable space group: P -1
;
_chemical_formula_sum "Si O2"
_cell_formula_units_Z 16
_cell_length_a 15.000000
_cell_length_b 12.000000
_cell_length_c 15.000000
_cell_angle_alpha 140.000000
_cell_angle_beta 150.000000
_cell_angle_gamma 60.000000
_cell_volume 747.221570
_symmetry_space_group_name_H-M "P -1"
_symmetry_group_IT_number 2
_symmetry_cell_setting 'triclinic'
loop_
_space_group_symop_operation_xyz
x,y,z
-x,-y,-z
loop_
_atom_site_type_symbol
_atom_site_label
_atom_site_fract_x
_atom_site_fract_y
_atom_site_fract_z
Si Si1 0.810829 0.631426 0.349083
Si Si2 0.983114 0.432477 0.262421
Si Si3 0.413788 0.766489 0.798975
Si Si4 0.472620 0.291105 0.958294
Si Si5 0.916734 0.208509 0.898867
Si Si6 0.922106 0.084355 0.106828
Si Si7 0.460130 0.928642 0.634547
Si Si8 0.666356 0.442255 0.583870
O O1 0.822041 0.454636 0.198353
O O2 0.741318 0.747687 0.292379
O O3 0.024707 0.808677 0.684057
O O4 0.649276 0.514544 0.217547
O O5 0.029140 0.265006 0.239199
O O6 0.181571 0.656837 0.570215
O O7 0.890101 0.350445 0.034226
O O8 0.404560 0.649321 0.631171
O O9 0.551308 0.729371 0.967765
O O10 0.500000 0.000000 0.000000
O O11 0.521850 0.119851 0.866618
O O12 0.694807 0.080537 0.581586
O O13 0.975160 0.053539 0.899656
O O14 0.106163 0.359276 0.091370
O O15 0.673915 0.953719 0.797097
O O16 0.334590 0.721840 0.452713
O O17 0.500000 0.500000 0.500000
#
# Coordination Sequence:
#
# PCOD8038241 Si02
#       8
#     2   2   2   2   2   2   2   2
#     4  11  23  41  70 100 133 170 219 277 331 392
#     4  11  24  42  64  99 135 169 216 280 330 382
#     4  11  23  41  68  93 131 172 220 271 325 393
#     4  11  22  42  68 102 132 171 223 272 330 391
#     4  11  26  44  63 100 135 173 222 268 331 401
#     4  12  22  42  70  95 130 176 218 272 334 394
#     4  12  23  42  70  93 131 180 219 273 331 390
#     4  11  24  43  68  95 132 177 220 270 331 392
#
# _framework density 21.412658
#
# number of rings (size 3 to 8) (size 9 to 14) (size 15 to 20)
#    0.000    0.750    6.250    1.875    0.000    1.500 
#    0.000    0.625    0.000    0.000    0.000    0.000 
#    0.000    0.000    0.000    0.000    0.000    0.000 
#
# Total GULP energy -198370.311652 kJ/mol
# GULP energy per Si atom -12398.144478 kJ/mol
# Density = 2.136392 g / cm^3
# Si number density = 21.412658 Si / 1000 Ang^3
#
#
#
# Elastic Constant Matrix: (Units=GPa)
#
#
# Indices 1 2 3 4 5 6 
#
# 1 64.1829 25.2922 29.0551 -7.1967 -0.2964 0.3305
# 2 25.2922 119.0887 35.3771 -2.0346 6.6267 10.7866
# 3 29.0551 35.3771 116.2199 -10.3701 5.5091 1.4200
# 4 -7.1967 -2.0346 -10.3701 40.5943 2.4561 2.9333
# 5 -0.2964 6.6267 5.5091 2.4561 23.3433 6.3124
# 6 0.3305 10.7866 1.4200 2.9333 6.3124 30.6276
#
#
#
# Elastic Compliance Matrix: (Units=1/GPa)
#
#
# Indices 1 2 3 4 5 6 
#
# 1 0.018644 -0.002972 -0.003651 0.002092 0.001590 0.000487
# 2 -0.002972 0.010048 -0.002232 -0.000281 -0.001505 -0.003066
# 3 -0.003651 -0.002232 0.010476 0.002009 -0.002262 0.000614
# 4 0.002092 -0.000281 0.002009 0.025800 -0.002552 -0.001962
# 5 0.001590 -0.001505 -0.002262 -0.002552 0.046444 -0.008710
# 6 0.000487 -0.003066 0.000614 -0.001962 -0.008710 0.035680
#
#
# Mechanical properties :
#
#
# Convention : Reuss Voigt Hill
#
# Bulk Modulus (GPa) = 46.60291 53.21558 49.90924
# Shear Modulus (GPa) = 29.07766 32.89750 30.98758
#
# Velocity S-wave (km/s) = 3.68906 3.92389 3.80829
# Velocity P-wave (km/s) = 6.32115 6.74059 6.53424
#
# Compressibility (1/GPa) = 0.02145789
#
# Stress axis : x y z
#
# Youngs Moduli (GPa) = 53.63717 99.52294 95.46023
#
# Poissons Ratio (x) = 0.29576 0.34853
# Poissons Ratio (y) = 0.15940 0.21306
# Poissons Ratio (z) = 0.19583 0.22212
#
# Static dielectric constant tensor:
#      x y z
#    x 3.736600 0.183330 -0.110290 
#    y 0.183330 3.896810 0.117920 
#    z -0.110290 0.117920 3.943260 
# 
# 
# High freq. dielectric constant tensor:
#      x y z
#    x 1.818940 0.007630 -0.009200 
#    y 0.007630 1.846210 0.010520 
#    z -0.009200 0.010520 1.847990 
# 
# From -- ./inp_files/392035.got.cif
#   From: 2010.06.25/outbox.ucp.g09.slc.cvg/sg2_197_cif.got.tgz:392035.got - 2010.06.28 11:54:26.
