data_PCOD8038137
_publ_section_title
;
Structure prediction by ZEFSAII (Michael W. Deem and Ramdas Pophale) SiO2 
 PCOD8038137
Probable space group: P -1
;
_chemical_formula_sum "Si O2"
_cell_formula_units_Z 16
_cell_length_a 29.269784
_cell_length_b 12.864073
_cell_length_c 10.055534
_cell_angle_alpha 53.094277
_cell_angle_beta 36.821942
_cell_angle_gamma 25.468840
_cell_volume 859.114526
_symmetry_space_group_name_H-M "P -1"
_symmetry_group_IT_number 2
_symmetry_cell_setting 'triclinic'
loop_
_space_group_symop_operation_xyz
x,y,z
-x,-y,-z
loop_
_atom_site_type_symbol
_atom_site_label
_atom_site_fract_x
_atom_site_fract_y
_atom_site_fract_z
Si Si1 0.166018 0.542204 0.555462
Si Si2 0.164318 0.518951 0.872055
Si Si3 0.179631 0.006641 0.006706
Si Si4 0.188376 0.937746 0.729410
Si Si5 0.298057 0.106018 0.712881
Si Si6 0.398257 0.281427 0.004660
Si Si7 0.499825 0.411905 0.701505
Si Si8 0.329551 0.447686 0.754341
O O1 0.152083 0.615586 0.684387
O O2 0.254991 0.267141 0.566196
O O3 0.268889 0.485229 0.268794
O O4 0.991312 0.792071 0.699614
O O5 0.246540 0.254828 0.856764
O O6 0.275882 0.429822 0.779821
O O7 0.984040 0.770840 0.159871
O O8 0.176868 0.000133 0.859829
O O9 0.331340 0.697096 0.950322
O O10 0.192761 0.135542 0.921724
O O11 0.341667 0.788107 0.427111
O O12 0.217900 0.741330 0.790231
O O13 0.486019 0.788784 0.519575
O O14 0.507602 0.247373 0.776491
O O15 0.308309 0.408166 0.975544
O O16 0.500000 0.000000 0.000000
O O17 0.500000 0.500000 0.500000
#
# Coordination Sequence:
#
# PCOD8038137 Si02
#       8
#     2   2   2   2   2   2   2   2
#     4   9  22  33  52  90 114 143 183 245 286 324
#     4   9  22  35  56  87 115 152 189 235 279 345
#     4  10  17  34  55  85 111 144 193 237 276 334
#     4  10  19  34  59  84 108 148 202 236 268 330
#     4  10  19  33  58  84 112 147 191 231 280 331
#     4  12  22  34  57  90 116 145 186 244 292 323
#     4  10  19  34  57  84 110 147 193 237 275 335
#     4  12  19  37  58  84 116 153 194 227 281 350
#
# _framework density 18.623828
#
# number of rings (size 3 to 8) (size 9 to 14) (size 15 to 20)
#    0.750    1.000    5.000    1.875    0.000    0.500 
#    0.000    0.000    0.000    5.250    0.000    0.000 
#    0.000    0.000    0.000    0.000    0.000    0.000 
#
# Total GULP energy -198237.214161 kJ/mol
# GULP energy per Si atom -12389.825885 kJ/mol
# Density = 1.858144 g / cm^3
# Si number density = 18.623828 Si / 1000 Ang^3
#
#
#
# Elastic Constant Matrix: (Units=GPa)
#
#
# Indices 1 2 3 4 5 6 
#
# 1 69.7214 11.0987 12.9280 -3.1745 -0.7632 20.4685
# 2 11.0987 71.5973 17.1840 1.2146 0.9880 21.1186
# 3 12.9280 17.1840 67.8929 4.8260 -5.4129 -2.9638
# 4 -3.1745 1.2146 4.8260 30.5901 -1.4609 -11.0020
# 5 -0.7632 0.9880 -5.4129 -1.4609 13.1460 -4.4580
# 6 20.4685 21.1186 -2.9638 -11.0020 -4.4580 26.7025
#
#
#
# Elastic Compliance Matrix: (Units=1/GPa)
#
#
# Indices 1 2 3 4 5 6 
#
# 1 0.022987 0.007632 -0.008144 -0.008157 -0.013745 -0.030216
# 2 0.007632 0.026539 -0.010427 -0.012682 -0.019632 -0.036499
# 3 -0.008144 -0.010427 0.020854 0.004848 0.016761 0.021600
# 4 -0.008157 -0.012682 0.004848 0.046853 0.021129 0.039652
# 5 -0.013745 -0.019632 0.016761 0.021129 0.104324 0.054046
# 6 -0.030216 -0.036499 0.021600 0.039652 0.054046 0.117236
#
#
# Mechanical properties :
#
#
# Convention : Reuss Voigt Hill
#
# Bulk Modulus (GPa) = 20.61849 32.40367 26.51108
# Shear Modulus (GPa) = 13.26835 25.28778 19.27806
#
# Velocity S-wave (km/s) = 2.67205 3.68886 3.22083
# Velocity P-wave (km/s) = 4.54036 5.96493 5.30072
#
# Compressibility (1/GPa) = 0.04850017
#
# Stress axis : x y z
#
# Youngs Moduli (GPa) = 43.50344 37.68101 47.95319
#
# Poissons Ratio (x) = -0.28758 0.39052
# Poissons Ratio (y) = -0.33201 0.50003
# Poissons Ratio (z) = 0.35429 0.39291
#
# Static dielectric constant tensor:
#      x y z
#    x 3.238060 0.053610 -0.256750 
#    y 0.053610 3.606150 0.659510 
#    z -0.256750 0.659510 4.024970 
# 
# 
# High freq. dielectric constant tensor:
#      x y z
#    x 1.690410 0.024610 -0.027660 
#    y 0.024610 1.722100 0.031890 
#    z -0.027660 0.031890 1.714400 
# 
# From -- ./inp_files/477556.got.cif
#   From: 2010.06.25/outbox.cif.g09.slc.cpg/sg2_239_cif.got.tgz:477556.got - 2010.06.27 13:26:56.
