data_PCOD8038047
_publ_section_title
;
Structure prediction by ZEFSAII (Michael W. Deem and Ramdas Pophale) SiO2 
 PCOD8038047
Probable space group: P -1
;
_chemical_formula_sum "Si O2"
_cell_formula_units_Z 16
_cell_length_a 15.295878
_cell_length_b 11.296063
_cell_length_c 9.019230
_cell_angle_alpha 126.133815
_cell_angle_beta 45.051316
_cell_angle_gamma 101.576271
_cell_volume 824.770614
_symmetry_space_group_name_H-M "P -1"
_symmetry_group_IT_number 2
_symmetry_cell_setting 'triclinic'
loop_
_space_group_symop_operation_xyz
x,y,z
-x,-y,-z
loop_
_atom_site_type_symbol
_atom_site_label
_atom_site_fract_x
_atom_site_fract_y
_atom_site_fract_z
Si Si1 0.787697 0.146741 0.798728
Si Si2 0.307584 0.354260 0.332048
Si Si3 0.864188 0.640287 0.719555
Si Si4 0.088887 0.317202 0.754266
Si Si5 0.352404 0.508592 0.667284
Si Si6 0.058355 0.127453 0.402360
Si Si7 0.563308 0.066126 0.843042
Si Si8 0.273306 0.245603 0.728310
O O1 0.678048 0.118954 0.808484
O O2 0.922756 0.101796 0.503813
O O3 0.818996 0.036523 0.827866
O O4 0.745925 0.326533 0.030973
O O5 0.218417 0.425337 0.344954
O O6 0.228073 0.272665 0.466185
O O7 0.324345 0.493226 0.514074
O O8 0.450429 0.220355 0.019138
O O9 0.900354 0.780076 0.707402
O O10 0.000000 0.500000 0.500000
O O11 0.763097 0.714183 0.028576
O O12 0.014527 0.224258 0.684024
O O13 0.134817 0.258633 0.822477
O O14 0.000000 0.500000 0.000000
O O15 0.500000 0.500000 0.500000
O O16 0.332886 0.368237 0.679459
O O17 0.619462 0.933138 0.549997
O O18 0.500000 0.000000 0.000000
#
# Coordination Sequence:
#
# PCOD8038047 Si02
#       8
#     2   2   2   2   2   2   2   2
#     4  11  21  36  64  92 125 156 206 265 308 359
#     4  10  21  36  61  90 121 163 203 254 305 361
#     4  11  23  42  62  90 128 163 208 257 307 377
#     4  10  17  33  59  89 114 151 211 254 291 355
#     4  11  20  37  64  94 120 159 206 257 311 361
#     4  10  21  38  60  89 122 161 203 259 315 358
#     4  12  19  39  62  91 125 157 208 264 300 367
#     4  11  22  36  65  93 117 169 208 250 314 364
#
# _framework density 19.399332999999999
#
# number of rings (size 3 to 8) (size 9 to 14) (size 15 to 20)
#    0.000    1.250    5.000    4.500    0.000    0.500 
#    0.000    1.250    2.750    0.000    0.000    0.000 
#    0.000    0.000    0.000    0.000    0.000    0.000 
#
# Total GULP energy -198294.999283 kJ/mol
# GULP energy per Si atom -12393.437455 kJ/mol
# Density = 1.935518 g / cm^3
# Si number density = 19.399333 Si / 1000 Ang^3
#
#
#
# Elastic Constant Matrix: (Units=GPa)
#
#
# Indices 1 2 3 4 5 6 
#
# 1 137.6385 38.4002 47.3534 -6.7850 -4.2763 3.6128
# 2 38.4002 78.0216 36.1921 3.9115 1.5637 1.8005
# 3 47.3534 36.1921 119.0292 14.9781 1.4614 0.8608
# 4 -6.7850 3.9115 14.9781 37.2215 -4.0379 0.0498
# 5 -4.2763 1.5637 1.4614 -4.0379 39.8757 1.5698
# 6 3.6128 1.8005 0.8608 0.0498 1.5698 27.2603
#
#
#
# Elastic Compliance Matrix: (Units=1/GPa)
#
#
# Indices 1 2 3 4 5 6 
#
# 1 0.009589 -0.003404 -0.003245 0.003596 0.001686 -0.001047
# 2 -0.003404 0.016157 -0.003411 -0.001049 -0.000962 -0.000451
# 3 -0.003245 -0.003411 0.011361 -0.004930 -0.001144 0.000372
# 4 0.003596 -0.001049 -0.004930 0.030014 0.003667 -0.000518
# 5 0.001686 -0.000962 -0.001144 0.003667 0.025773 -0.001615
# 6 -0.001047 -0.000451 0.000372 -0.000518 -0.001615 0.036934
#
#
# Mechanical properties :
#
#
# Convention : Reuss Voigt Hill
#
# Bulk Modulus (GPa) = 58.87236 64.28677 61.57956
# Shear Modulus (GPa) = 32.13124 35.05441 33.59283
#
# Velocity S-wave (km/s) = 4.07419 4.25548 4.16582
# Velocity P-wave (km/s) = 7.24883 7.57338 7.41288
#
# Compressibility (1/GPa) = 0.01698590
#
# Stress axis : x y z
#
# Youngs Moduli (GPa) = 104.28935 61.89267 88.01758
#
# Poissons Ratio (x) = 0.21067 0.28565
# Poissons Ratio (y) = 0.35498 0.30027
# Poissons Ratio (z) = 0.33845 0.21114
#
# Static dielectric constant tensor:
#      x y z
#    x 3.966420 0.187420 -0.043770 
#    y 0.187420 3.658980 0.246060 
#    z -0.043770 0.246060 3.773690 
# 
# 
# High freq. dielectric constant tensor:
#      x y z
#    x 1.767080 0.017300 -0.015720 
#    y 0.017300 1.727080 0.019600 
#    z -0.015720 0.019600 1.759630 
# 
# From -- ./inp_files/216694.got.cif
#   From: 2010.06.25/outbox.cif.g09.slc.cpg/sg2_109_cif.got.tgz:216694.got - 2010.06.27 13:26:56.
