data_PCOD8038766
_publ_section_title
;
Structure prediction by ZEFSAII (Michael W. Deem and Ramdas Pophale) SiO2 
 PCOD8038766
Probable space group: P -1
;
_chemical_formula_sum "Si O2"
_cell_formula_units_Z 16
_cell_length_a 5.326267
_cell_length_b 8.533577
_cell_length_c 23.318065
_cell_angle_alpha 52.634693
_cell_angle_beta 103.342215
_cell_angle_gamma 89.239429
_cell_volume 803.347377
_symmetry_space_group_name_H-M "P -1"
_symmetry_group_IT_number 2
_symmetry_cell_setting 'triclinic'
loop_
_space_group_symop_operation_xyz
x,y,z
-x,-y,-z
loop_
_atom_site_type_symbol
_atom_site_label
_atom_site_fract_x
_atom_site_fract_y
_atom_site_fract_z
Si Si1 0.407946 0.697074 0.914215
Si Si2 0.651642 0.186802 0.679741
Si Si3 0.432557 0.727979 0.465828
Si Si4 0.663375 0.844537 0.149074
Si Si5 0.144710 0.381274 0.675972
Si Si6 0.153714 0.175215 0.144461
Si Si7 0.904336 0.072832 0.916228
Si Si8 0.989626 0.785780 0.523741
O O1 0.621346 0.690601 0.876002
O O2 0.117543 0.687641 0.877307
O O3 0.381097 0.915437 0.894640
O O4 0.500000 0.500000 0.000000
O O5 0.635451 0.126148 0.625788
O O6 0.356538 0.287788 0.660041
O O7 0.856779 0.334912 0.661169
O O8 0.759907 0.001667 0.767315
O O9 0.500000 0.500000 0.500000
O O10 0.684329 0.782897 0.497623
O O11 0.170985 0.751432 0.484790
O O12 0.742132 0.702312 0.238837
O O13 0.390555 0.795754 0.121646
O O14 0.894635 0.789731 0.126404
O O15 0.105629 0.621821 0.615029
O O16 0.106628 0.099835 0.093844
O O17 0.000000 0.000000 0.000000
O O18 0.000000 0.000000 0.500000
#
# Coordination Sequence:
#
# PCOD8038766 Si02
#       8
#     2   2   2   2   2   2   2   2
#     4  10  18  30  52  76 111 140 178 238 304 363
#     4  12  20  35  64  91 121 151 215 279 300 359
#     4  12  23  40  67 101 127 167 229 272 312 387
#     4  10  19  33  52  83 104 143 209 232 300 363
#     4  12  19  37  63  88 118 164 207 263 316 381
#     4  10  19  34  50  85 108 147 197 240 314 354
#     4  10  18  31  52  77 110 141 183 250 293 351
#     4  12  26  43  64  96 139 175 208 268 346 391
#
# _framework density 19.916664999999998
#
# number of rings (size 3 to 8) (size 9 to 14) (size 15 to 20)
#    0.000    1.000    7.500    2.250    0.000    0.000 
#    0.000    0.000    0.000   18.000    0.000    0.000 
#    0.000    0.000    0.000    0.000    0.000    0.000 
#
# Total GULP energy -198228.077238 kJ/mol
# GULP energy per Si atom -12389.254827 kJ/mol
# Density = 1.987133 g / cm^3
# Si number density = 19.916665 Si / 1000 Ang^3
#
#
#
# Elastic Constant Matrix: (Units=GPa)
#
#
# Indices 1 2 3 4 5 6 
#
# 1 173.3894 6.9339 39.0871 -3.3962 -14.8614 15.5655
# 2 6.9339 40.1302 44.0070 -10.7835 0.2568 4.4501
# 3 39.0871 44.0070 178.2557 -7.1007 -7.8740 1.3140
# 4 -3.3962 -10.7835 -7.1007 34.4735 2.3060 1.5595
# 5 -14.8614 0.2568 -7.8740 2.3060 34.1506 2.2024
# 6 15.5655 4.4501 1.3140 1.5595 2.2024 17.0366
#
#
#
# Elastic Compliance Matrix: (Units=1/GPa)
#
#
# Indices 1 2 3 4 5 6 
#
# 1 0.007019 0.001750 -0.001744 0.001003 0.003037 -0.007220
# 2 0.001750 0.039620 -0.009707 0.011227 -0.001759 -0.012000
# 3 -0.001744 -0.009707 0.008344 -0.001723 0.001129 0.003497
# 4 0.001003 0.011227 -0.001723 0.032679 -0.001835 -0.006470
# 5 0.003037 -0.001759 0.001129 -0.001835 0.031407 -0.006294
# 6 -0.007220 -0.012000 0.003497 -0.006470 -0.006294 0.069564
#
#
# Mechanical properties :
#
#
# Convention : Reuss Voigt Hill
#
# Bulk Modulus (GPa) = 28.10447 63.53683 45.82065
# Shear Modulus (GPa) = 22.73822 37.24863 29.99342
#
# Velocity S-wave (km/s) = 3.38252 4.32930 3.88486
# Velocity P-wave (km/s) = 5.42190 7.54725 6.57107
#
# Compressibility (1/GPa) = 0.03558153
#
# Stress axis : x y z
#
# Youngs Moduli (GPa) = 142.48015 25.23985 119.84447
#
# Poissons Ratio (x) = -0.04418 0.20898
# Poissons Ratio (y) = -0.24937 1.16333
# Poissons Ratio (z) = 0.24845 0.24500
#
# Static dielectric constant tensor:
#      x y z
#    x 3.366580 -0.941400 -1.257050 
#    y -0.941400 2.187020 -1.121270 
#    z -1.257050 -1.121270 2.623590 
# 
# 
# High freq. dielectric constant tensor:
#      x y z
#    x 1.825740 0.011990 -0.003120 
#    y 0.011990 1.703990 -0.003190 
#    z -0.003120 -0.003190 1.792880 
# 
# From -- ./inp_files/581660.got.cif
#   From: 2010.06.25/outbox.cif.g09.slc.cpg/sg2_291_cif.got.tgz:581660.got - 2010.06.27 13:26:56.
