data_PCOD8038353
_publ_section_title
;
Structure prediction by ZEFSAII (Michael W. Deem and Ramdas Pophale) SiO2 
 PCOD8038353
Probable space group: P -1
;
_chemical_formula_sum "Si O2"
_cell_formula_units_Z 16
_cell_length_a 11.630910
_cell_length_b 13.010429
_cell_length_c 9.092694
_cell_angle_alpha 57.644866
_cell_angle_beta 51.198719
_cell_angle_gamma 87.921214
_cell_volume 806.955556
_symmetry_space_group_name_H-M "P -1"
_symmetry_group_IT_number 2
_symmetry_cell_setting 'triclinic'
loop_
_space_group_symop_operation_xyz
x,y,z
-x,-y,-z
loop_
_atom_site_type_symbol
_atom_site_label
_atom_site_fract_x
_atom_site_fract_y
_atom_site_fract_z
Si Si1 0.355826 0.015938 0.186802
Si Si2 0.192840 0.469362 0.159346
Si Si3 0.096173 0.698503 0.146068
Si Si4 0.564839 0.310798 0.735219
Si Si5 0.468597 0.665659 0.583898
Si Si6 0.717148 0.583688 0.572564
Si Si7 0.626504 0.104627 0.431283
Si Si8 0.853865 0.234022 0.611006
O O1 0.342364 0.975604 0.399055
O O2 0.188166 0.914761 0.310908
O O3 0.398692 0.175584 0.022093
O O4 0.500000 0.000000 0.000000
O O5 0.137052 0.570873 0.210930
O O6 0.281108 0.418607 0.249899
O O7 0.031984 0.340469 0.324839
O O8 0.311998 0.537089 0.876207
O O9 0.149173 0.772734 0.204466
O O10 0.902106 0.644528 0.311633
O O11 0.197827 0.804981 0.856455
O O12 0.531188 0.362215 0.567291
O O13 0.600907 0.429925 0.730696
O O14 0.721121 0.279824 0.620180
O O15 0.637662 0.681006 0.510266
O O16 0.457655 0.804782 0.511345
O O17 0.500000 0.000000 0.500000
#
# Coordination Sequence:
#
# PCOD8038353 Si02
#       8
#     2   2   2   2   2   2   2   2
#     4  10  20  34  57  85 111 149 190 235 278 331
#     4  10  20  36  59  86 112 149 192 240 275 327
#     4  10  20  35  63  86 109 150 194 238 276 328
#     4  11  20  36  58  84 116 153 184 231 288 342
#     4  11  24  35  57  90 116 149 186 235 291 338
#     4  11  21  40  58  85 120 149 186 232 293 338
#     4  11  22  37  60  89 112 147 198 238 274 334
#     4  10  17  35  58  83 111 146 194 233 277 330
#
# _framework density 19.82761
#
# number of rings (size 3 to 8) (size 9 to 14) (size 15 to 20)
#    0.000    1.500    5.000    3.000    1.750    1.500 
#    0.000    0.625    0.000    1.500    0.000    0.000 
#    0.000    0.000    0.000    0.000    0.000    0.000 
#
# Total GULP energy -198419.600410 kJ/mol
# GULP energy per Si atom -12401.225026 kJ/mol
# Density = 1.978248 g / cm^3
# Si number density = 19.827610 Si / 1000 Ang^3
#
#
#
# Elastic Constant Matrix: (Units=GPa)
#
#
# Indices 1 2 3 4 5 6 
#
# 1 108.1713 33.1269 59.0099 -6.6655 7.8731 12.7552
# 2 33.1269 58.0866 34.1975 -19.0543 -6.4500 21.6996
# 3 59.0099 34.1975 122.5891 -12.0708 11.4108 11.9223
# 4 -6.6655 -19.0543 -12.0708 23.0887 7.5362 -8.9046
# 5 7.8731 -6.4500 11.4108 7.5362 29.9786 -1.8472
# 6 12.7552 21.6996 11.9223 -8.9046 -1.8472 34.8394
#
#
#
# Elastic Compliance Matrix: (Units=1/GPa)
#
#
# Indices 1 2 3 4 5 6 
#
# 1 0.013871 -0.006002 -0.005039 -0.003035 -0.002285 -0.000513
# 2 -0.006002 0.034329 -0.004181 0.017684 0.005310 -0.012952
# 3 -0.005039 -0.004181 0.012514 0.003655 -0.005207 0.000825
# 4 -0.003035 0.017684 0.003655 0.064966 -0.012827 0.004771
# 5 -0.002285 0.005310 -0.005207 -0.012827 0.040193 -0.001836
# 6 -0.000513 -0.012952 0.000825 0.004771 -0.001836 0.037798
#
#
# Mechanical properties :
#
#
# Convention : Reuss Voigt Hill
#
# Bulk Modulus (GPa) = 33.03563 60.16840 46.60201
# Shear Modulus (GPa) = 20.47461 28.41551 24.44506
#
# Velocity S-wave (km/s) = 3.21694 3.78977 3.51505
# Velocity P-wave (km/s) = 5.52231 7.03999 6.32682
#
# Compressibility (1/GPa) = 0.03027035
#
# Stress axis : x y z
#
# Youngs Moduli (GPa) = 72.09094 29.12994 79.91287
#
# Poissons Ratio (x) = 0.17484 0.40270
# Poissons Ratio (y) = 0.43268 0.33409
# Poissons Ratio (z) = 0.36328 0.12178
#
# Static dielectric constant tensor:
#      x y z
#    x 3.635240 0.230820 -0.032610 
#    y 0.230820 3.711330 -0.327670 
#    z -0.032610 -0.327670 3.878250 
# 
# 
# High freq. dielectric constant tensor:
#      x y z
#    x 1.765490 0.023310 0.005040 
#    y 0.023310 1.755170 -0.011840 
#    z 0.005040 -0.011840 1.781650 
# 
# From -- ./inp_files/224097.got.cif
#   From: 2010.06.25/outbox.cif.g09.slc.cpg/sg2_113_cif.got.tgz:224097.got - 2010.06.27 13:26:56.
