data_PCOD8038738
_publ_section_title
;
Structure prediction by ZEFSAII (Michael W. Deem and Ramdas Pophale) SiO2 
 PCOD8038738
Probable space group: P -1
;
_chemical_formula_sum "Si O2"
_cell_formula_units_Z 16
_cell_length_a 26.871244
_cell_length_b 9.351057
_cell_length_c 14.090197
_cell_angle_alpha 137.337727
_cell_angle_beta 156.405972
_cell_angle_gamma 54.904710
_cell_volume 894.152602
_symmetry_space_group_name_H-M "P -1"
_symmetry_group_IT_number 2
_symmetry_cell_setting 'triclinic'
loop_
_space_group_symop_operation_xyz
x,y,z
-x,-y,-z
loop_
_atom_site_type_symbol
_atom_site_label
_atom_site_fract_x
_atom_site_fract_y
_atom_site_fract_z
Si Si1 0.317651 0.310558 0.305098
Si Si2 0.471454 0.222351 0.153724
Si Si3 0.321633 0.001197 0.613815
Si Si4 0.125465 0.552077 0.119946
Si Si5 0.619078 0.911165 0.875992
Si Si6 0.482779 0.136987 0.626201
Si Si7 0.824430 0.369664 0.535318
Si Si8 0.634380 0.559440 0.202961
O O1 0.438526 0.550558 0.630202
O O2 0.179105 0.348850 0.092584
O O3 0.318744 0.183064 0.146924
O O4 0.344952 0.178929 0.382138
O O5 0.431368 0.267971 0.212989
O O6 0.545887 0.044321 0.205823
O O7 0.340539 0.109359 0.805185
O O8 0.306465 0.180907 0.600481
O O9 0.193007 0.767591 0.273770
O O10 0.161037 0.637167 0.330309
O O11 0.968565 0.455050 0.778438
O O12 0.492733 0.982301 0.657550
O O13 0.740696 0.121775 0.231191
O O14 0.500000 0.000000 0.500000
O O15 0.601332 0.382654 0.970063
O O16 0.750637 0.540256 0.463039
O O17 0.500000 0.500000 0.000000
#
# Coordination Sequence:
#
# PCOD8038738 Si02
#       8
#     2   2   2   2   2   2   2   2
#     4  10  19  32  52  75 103 135 166 208 260 305
#     4  10  18  30  49  79 104 129 163 211 257 299
#     4  10  19  31  52  75 104 134 165 210 252 302
#     4  10  21  36  51  72 103 139 173 206 251 297
#     4  10  19  32  51  77 103 130 171 213 252 299
#     4   9  18  30  46  73 103 126 155 203 252 293
#     4  10  21  35  52  74 102 135 174 212 243 301
#     4  11  20  32  55  79  99 130 166 208 258 304
#
# _framework density 17.894037000000001
#
# number of rings (size 3 to 8) (size 9 to 14) (size 15 to 20)
#    0.000    2.000    2.500    2.625    1.750    1.000 
#    0.000    0.000    0.000    0.000    0.000    0.875 
#    0.000    0.000    0.000    0.000    0.000    0.000 
#
# Total GULP energy -198250.984820 kJ/mol
# GULP energy per Si atom -12390.686551 kJ/mol
# Density = 1.785331 g / cm^3
# Si number density = 17.894037 Si / 1000 Ang^3
#
#
#
# Elastic Constant Matrix: (Units=GPa)
#
#
# Indices 1 2 3 4 5 6 
#
# 1 61.0658 21.5910 27.8991 -5.6119 4.3078 -4.9214
# 2 21.5910 84.9759 27.7629 -7.0618 13.0120 -5.6277
# 3 27.8991 27.7629 55.2467 -15.7919 4.8632 -5.3257
# 4 -5.6119 -7.0618 -15.7919 25.1558 -7.4587 -0.8890
# 5 4.3078 13.0120 4.8632 -7.4587 28.5051 4.0986
# 6 -4.9214 -5.6277 -5.3257 -0.8890 4.0986 25.2562
#
#
#
# Elastic Compliance Matrix: (Units=1/GPa)
#
#
# Indices 1 2 3 4 5 6 
#
# 1 0.021888 -0.001995 -0.010508 -0.002673 -0.001557 0.001763
# 2 -0.001995 0.015401 -0.006481 -0.002035 -0.006539 0.002666
# 3 -0.010508 -0.006481 0.031451 0.016602 0.003060 0.003228
# 4 -0.002673 -0.002035 0.016602 0.052627 0.011919 0.002445
# 5 -0.001557 -0.006539 0.003060 0.011919 0.041978 -0.007508
# 6 0.001763 0.002666 0.003228 0.002445 -0.007508 0.042517
#
#
# Mechanical properties :
#
#
# Convention : Reuss Voigt Hill
#
# Bulk Modulus (GPa) = 32.49629 39.53271 36.01450
# Shear Modulus (GPa) = 19.67825 24.05246 21.86536
#
# Velocity S-wave (km/s) = 3.31979 3.67026 3.49941
# Velocity P-wave (km/s) = 5.73537 6.33259 6.04136
#
# Compressibility (1/GPa) = 0.03077274
#
# Stress axis : x y z
#
# Youngs Moduli (GPa) = 45.68683 64.93023 31.79548
#
# Poissons Ratio (x) = 0.12956 0.33409
# Poissons Ratio (y) = 0.09116 0.20606
# Poissons Ratio (z) = 0.48006 0.42081
#
# Static dielectric constant tensor:
#      x y z
#    x 3.400560 0.032870 -0.191870 
#    y 0.032870 3.631670 -0.037990 
#    z -0.191870 -0.037990 3.198080 
# 
# 
# High freq. dielectric constant tensor:
#      x y z
#    x 1.683270 0.002570 -0.023450 
#    y 0.002570 1.702590 0.004490 
#    z -0.023450 0.004490 1.668130 
# 
# From -- ./inp_files/226139.got.cif
#   From: 2010.06.25/outbox.cif.g09.slc.cpg/sg2_114_cif.got.tgz:226139.got - 2010.06.27 13:26:56.
