data_PCOD8038393
_publ_section_title
;
Structure prediction by ZEFSAII (Michael W. Deem and Ramdas Pophale) SiO2 
 PCOD8038393
Probable space group: P -1
;
_chemical_formula_sum "Si O2"
_cell_formula_units_Z 16
_cell_length_a 9.135208
_cell_length_b 20.239582
_cell_length_c 11.898329
_cell_angle_alpha 51.720094
_cell_angle_beta 65.836246
_cell_angle_gamma 29.911621
_cell_volume 814.087775
_symmetry_space_group_name_H-M "P -1"
_symmetry_group_IT_number 2
_symmetry_cell_setting 'triclinic'
loop_
_space_group_symop_operation_xyz
x,y,z
-x,-y,-z
loop_
_atom_site_type_symbol
_atom_site_label
_atom_site_fract_x
_atom_site_fract_y
_atom_site_fract_z
Si Si1 0.624491 0.448494 0.332909
Si Si2 0.912904 0.230888 0.171446
Si Si3 0.319205 0.281074 0.798885
Si Si4 0.351429 0.968817 0.846430
Si Si5 0.749425 0.844464 0.663350
Si Si6 0.656812 0.299041 0.674411
Si Si7 0.480355 0.949587 0.165642
Si Si8 0.711962 0.481663 0.845567
O O1 0.657249 0.356785 0.504541
O O2 0.447578 0.605271 0.281494
O O3 0.419987 0.512191 0.223927
O O4 0.969917 0.324292 0.318212
O O5 0.568890 0.347271 0.176721
O O6 0.089517 0.153915 0.315956
O O7 0.122401 0.086548 0.167274
O O8 0.890378 0.337571 0.023407
O O9 0.414812 0.333120 0.691406
O O10 0.955168 0.444035 0.773603
O O11 0.348446 0.214595 0.743179
O O12 0.534515 0.142568 0.972448
O O13 0.995842 0.106274 0.787845
O O14 0.570076 0.857132 0.785603
O O15 0.365977 0.063380 0.770060
O O16 0.500000 0.000000 0.500000
O O17 0.500000 0.000000 0.000000
#
# Coordination Sequence:
#
# PCOD8038393 Si02
#       8
#     2   2   2   2   2   2   2   2
#     4  10  23  37  58  80 107 158 185 220 281 333
#     4   9  18  31  57  85 105 142 188 228 265 328
#     4  11  21  35  57  85 114 144 180 239 276 314
#     4  10  19  36  58  84 109 145 185 228 274 332
#     4  10  17  35  62  82 104 140 195 227 266 331
#     4  11  23  38  52  83 119 143 187 228 278 334
#     4   9  16  31  55  85 101 137 185 216 278 319
#     4  10  18  35  57  78 111 144 189 224 268 331
#
# _framework density 19.653901000000001
#
# number of rings (size 3 to 8) (size 9 to 14) (size 15 to 20)
#    0.000    2.000    5.000    1.125    1.750    0.500 
#    0.000    1.875    0.000    3.750    0.000    0.000 
#    0.000    0.000    0.000    0.000    0.000    0.000 
#
# Total GULP energy -198292.736780 kJ/mol
# GULP energy per Si atom -12393.296049 kJ/mol
# Density = 1.960917 g / cm^3
# Si number density = 19.653901 Si / 1000 Ang^3
#
#
#
# Elastic Constant Matrix: (Units=GPa)
#
#
# Indices 1 2 3 4 5 6 
#
# 1 65.8541 36.3219 15.0328 7.9243 -6.9891 -13.1884
# 2 36.3219 157.5855 22.4571 25.5889 -8.9316 -25.0508
# 3 15.0328 22.4571 49.5489 4.7606 12.8739 2.6498
# 4 7.9243 25.5889 4.7606 26.8539 -6.1041 5.1083
# 5 -6.9891 -8.9316 12.8739 -6.1041 24.6719 0.0924
# 6 -13.1884 -25.0508 2.6498 5.1083 0.0924 27.4033
#
#
#
# Elastic Compliance Matrix: (Units=1/GPa)
#
#
# Indices 1 2 3 4 5 6 
#
# 1 0.021288 -0.000685 -0.008772 -0.004089 0.009306 0.011198
# 2 -0.000685 0.011339 -0.005589 -0.011097 0.004034 0.012631
# 3 -0.008772 -0.005589 0.031473 -0.000080 -0.020904 -0.012288
# 4 -0.004089 -0.011097 -0.000080 0.055261 0.008622 -0.022435
# 5 0.009306 0.004034 -0.020904 0.008622 0.057638 0.008386
# 6 0.011198 0.012631 -0.012288 -0.022435 0.008386 0.058770
#
#
# Mechanical properties :
#
#
# Convention : Reuss Voigt Hill
#
# Bulk Modulus (GPa) = 29.40517 46.73468 38.06992
# Shear Modulus (GPa) = 18.03783 29.06426 23.55104
#
# Velocity S-wave (km/s) = 3.03276 3.84969 3.46539
# Velocity P-wave (km/s) = 5.22087 6.60232 5.95181
#
# Compressibility (1/GPa) = 0.03400762
#
# Stress axis : x y z
#
# Youngs Moduli (GPa) = 46.97585 88.19405 31.77375
#
# Poissons Ratio (x) = 0.06042 0.27872
# Poissons Ratio (y) = 0.03218 0.17757
# Poissons Ratio (z) = 0.41207 0.49288
#
# Static dielectric constant tensor:
#      x y z
#    x 3.508350 -0.002840 0.215900 
#    y -0.002840 4.218520 0.268930 
#    z 0.215900 0.268930 3.379150 
# 
# 
# High freq. dielectric constant tensor:
#      x y z
#    x 1.723510 -0.020260 0.028940 
#    y -0.020260 1.793940 0.017870 
#    z 0.028940 0.017870 1.747730 
# 
# From -- ./inp_files/331740.got.cif
#   From: 2010.06.25/outbox.cif.g09.slc.cpg/sg2_166_cif.got.tgz:331740.got - 2010.06.27 13:26:56.
