data_PCOD8038168
_publ_section_title
;
Structure prediction by ZEFSAII (Michael W. Deem and Ramdas Pophale) SiO2 
 PCOD8038168
Probable space group: P -1
;
_chemical_formula_sum "Si O2"
_cell_formula_units_Z 16
_cell_length_a 12.145385
_cell_length_b 8.223622
_cell_length_c 14.680996
_cell_angle_alpha 75.905901
_cell_angle_beta 144.072306
_cell_angle_gamma 120.391179
_cell_volume 701.037734
_symmetry_space_group_name_H-M "P -1"
_symmetry_group_IT_number 2
_symmetry_cell_setting 'triclinic'
loop_
_space_group_symop_operation_xyz
x,y,z
-x,-y,-z
loop_
_atom_site_type_symbol
_atom_site_label
_atom_site_fract_x
_atom_site_fract_y
_atom_site_fract_z
Si Si1 0.686381 0.625429 0.185021
Si Si2 0.489469 0.644591 0.643538
Si Si3 0.148228 0.074533 0.293826
Si Si4 0.134563 0.938351 0.754863
Si Si5 0.371396 0.917377 0.762344
Si Si6 0.847804 0.247450 0.547114
Si Si7 0.270457 0.230942 0.611207
Si Si8 0.687528 0.788559 0.953868
O O1 0.735460 0.650029 0.322140
O O2 0.438793 0.416154 0.037780
O O3 0.884804 0.603701 0.280618
O O4 0.709655 0.830116 0.137266
O O5 0.278463 0.668129 0.494418
O O6 0.402441 0.412074 0.601942
O O7 0.630733 0.735102 0.818010
O O8 0.646061 0.761602 0.647633
O O9 0.228966 0.972785 0.434958
O O10 0.034073 0.178779 0.257959
O O11 0.953935 0.899360 0.124249
O O12 0.272462 0.854976 0.809773
O O13 0.980148 0.934954 0.568407
O O14 0.210838 0.764431 0.598047
O O15 0.605868 0.933409 0.913523
O O16 0.414586 0.135136 0.742891
#
# Coordination Sequence:
#
# PCOD8038168 Si02
#       8
#     2   2   2   2   2   2   2   2
#     4   9  17  33  57  88 103 138 180 226 280 316
#     4  10  23  36  60  78 107 151 192 216 261 325
#     4  11  22  39  53  81 117 148 179 220 271 323
#     4  10  19  33  60  80 116 136 173 234 282 317
#     4  10  18  36  57  85 107 140 181 227 280 319
#     4  10  19  35  61  84 107 134 187 239 267 309
#     4  10  17  34  57  85 108 139 179 232 270 319
#     4  10  23  35  60  79 112 147 183 221 269 330
#
# _framework density 22.823308000000001
#
# number of rings (size 3 to 8) (size 9 to 14) (size 15 to 20)
#    0.000    2.000    3.750    1.500    1.750    4.500 
#    0.000    0.625    8.250    0.000    0.000    0.000 
#    0.000    0.000    0.000    0.000    0.000    0.000 
#
# Total GULP energy -198245.036586 kJ/mol
# GULP energy per Si atom -12390.314787 kJ/mol
# Density = 2.277136 g / cm^3
# Si number density = 22.823308 Si / 1000 Ang^3
#
#
#
# Elastic Constant Matrix: (Units=GPa)
#
#
# Indices 1 2 3 4 5 6 
#
# 1 109.4318 22.5996 13.7822 7.3386 4.7743 4.1856
# 2 22.5996 65.0634 8.2692 4.7375 9.5559 -4.0189
# 3 13.7822 8.2692 80.6734 7.0481 7.6122 -3.5489
# 4 7.3386 4.7375 7.0481 29.4433 2.1008 -0.3495
# 5 4.7743 9.5559 7.6122 2.1008 23.0425 3.4029
# 6 4.1856 -4.0189 -3.5489 -0.3495 3.4029 29.9634
#
#
#
# Elastic Compliance Matrix: (Units=1/GPa)
#
#
# Indices 1 2 3 4 5 6 
#
# 1 0.010197 -0.003405 -0.001355 -0.001709 0.000211 -0.002086
# 2 -0.003405 0.017954 -0.000310 -0.001420 -0.007044 0.003630
# 3 -0.001355 -0.000310 0.013359 -0.002492 -0.004096 0.002166
# 4 -0.001709 -0.001420 -0.002492 0.035326 -0.001504 0.000336
# 5 0.000211 -0.007044 -0.004096 -0.001504 0.048803 -0.007019
# 6 -0.002086 0.003630 0.002166 0.000336 -0.007019 0.035210
#
#
# Mechanical properties :
#
#
# Convention : Reuss Voigt Hill
#
# Bulk Modulus (GPa) = 31.87900 38.27452 35.07676
# Shear Modulus (GPa) = 27.55644 30.52433 29.04038
#
# Velocity S-wave (km/s) = 3.47851 3.66104 3.57094
# Velocity P-wave (km/s) = 5.48921 5.88874 5.69248
#
# Compressibility (1/GPa) = 0.03136862
#
# Stress axis : x y z
#
# Youngs Moduli (GPa) = 98.06615 55.69776 74.85860
#
# Poissons Ratio (x) = 0.18965 0.10146
# Poissons Ratio (y) = 0.33392 0.02322
# Poissons Ratio (z) = 0.13292 0.01727
#
# Static dielectric constant tensor:
#      x y z
#    x 4.181380 0.026530 -0.232000 
#    y 0.026530 4.026170 0.006480 
#    z -0.232000 0.006480 4.219840 
# 
# 
# High freq. dielectric constant tensor:
#      x y z
#    x 1.896910 -0.000010 -0.023610 
#    y -0.000010 1.877750 -0.002060 
#    z -0.023610 -0.002060 1.913490 
# 
# From -- ./inp_files/176517.got.cif
#   From: 2010.06.25/outbox.cif.g09.slc.cpg/sg2_89_cif.got.tgz:176517.got - 2010.06.27 13:26:56.
