data_PCOD8038391
_publ_section_title
;
Structure prediction by ZEFSAII (Michael W. Deem and Ramdas Pophale) SiO2 
 PCOD8038391
Probable space group: P -1
;
_chemical_formula_sum "Si O2"
_cell_formula_units_Z 14
_cell_length_a 12.282421
_cell_length_b 7.844986
_cell_length_c 9.129681
_cell_angle_alpha 108.633224
_cell_angle_beta 46.022486
_cell_angle_gamma 95.902441
_cell_volume 590.648237
_symmetry_space_group_name_H-M "P -1"
_symmetry_group_IT_number 2
_symmetry_cell_setting 'triclinic'
loop_
_space_group_symop_operation_xyz
x,y,z
-x,-y,-z
loop_
_atom_site_type_symbol
_atom_site_label
_atom_site_fract_x
_atom_site_fract_y
_atom_site_fract_z
Si Si1 0.168306 0.889608 0.836737
Si Si2 0.159863 0.303477 0.423569
Si Si3 0.185865 0.652110 0.308511
Si Si4 0.339352 0.401256 0.866925
Si Si5 0.682879 0.925693 0.023691
Si Si6 0.378108 0.853995 0.379054
Si Si7 0.835380 0.518981 0.234201
O O1 0.282962 0.961149 0.631610
O O2 0.172929 0.676947 0.741349
O O3 0.231879 0.915279 0.948909
O O4 0.000000 0.000000 0.000000
O O5 0.195542 0.485522 0.365594
O O6 0.186078 0.323756 0.578164
O O7 0.988358 0.268717 0.547746
O O8 0.271863 0.126494 0.201625
O O9 0.259337 0.813636 0.356011
O O10 0.283258 0.593005 0.054197
O O11 0.250044 0.251219 0.985123
O O12 0.522225 0.336142 0.702240
O O13 0.300813 0.421569 0.737559
O O14 0.496984 0.974747 0.230354
O O15 0.000000 0.500000 0.000000
#
# Coordination Sequence:
#
# PCOD8038391 Si02
#       7
#     2   2   2   2   2   2   2
#     4  12  24  40  65  93 128 170 209 256 316 379
#     4  10  20  35  66  92 123 164 216 254 302 370
#     4  10  17  35  61  96 117 162 214 259 293 372
#     4   9  21  36  65  93 129 153 212 261 317 355
#     4   9  22  41  63  95 122 164 212 253 314 376
#     4  10  21  38  67  94 123 164 214 259 310 372
#     4  12  23  41  63 100 128 161 210 267 310 367
#
# _framework density 23.702772
#
# number of rings (size 3 to 8) (size 9 to 14) (size 15 to 20)
#    0.857    0.857    2.857    2.571    2.000    0.571 
#    0.000    0.714    3.143    1.714    0.000    0.000 
#    0.000    0.000    0.000    0.000    0.000    0.000 
#
# Total GULP energy -173560.661106 kJ/mol
# GULP energy per Si atom -12397.190079 kJ/mol
# Density = 2.364882 g / cm^3
# Si number density = 23.702772 Si / 1000 Ang^3
#
#
#
# Elastic Constant Matrix: (Units=GPa)
#
#
# Indices 1 2 3 4 5 6 
#
# 1 128.8770 19.2538 54.1779 -2.2293 16.9395 25.2909
# 2 19.2538 19.7482 7.9192 1.3669 -1.1323 16.5286
# 3 54.1779 7.9192 183.2455 12.1665 8.9726 18.3874
# 4 -2.2293 1.3669 12.1665 19.1221 8.9844 7.1628
# 5 16.9395 -1.1323 8.9726 8.9844 47.7413 4.9775
# 6 25.2909 16.5286 18.3874 7.1628 4.9775 36.3730
#
#
#
# Elastic Compliance Matrix: (Units=1/GPa)
#
#
# Indices 1 2 3 4 5 6 
#
# 1 0.011705 -0.007691 -0.002998 0.007552 -0.004780 -0.003961
# 2 -0.007691 0.089193 0.001660 0.001924 0.008081 -0.037507
# 3 -0.002998 0.001660 0.006663 -0.004644 0.000854 -0.001240
# 4 0.007552 0.001924 -0.004644 0.067820 -0.012922 -0.015364
# 5 -0.004780 0.008081 0.000854 -0.012922 0.025282 -0.001695
# 6 -0.003961 -0.037507 -0.001240 -0.015364 -0.001695 0.051175
#
#
# Mechanical properties :
#
#
# Convention : Reuss Voigt Hill
#
# Bulk Modulus (GPa) = 11.17312 54.95250 33.06281
# Shear Modulus (GPa) = 16.68163 37.34860 27.01511
#
# Velocity S-wave (km/s) = 2.65577 3.97382 3.37967
# Velocity P-wave (km/s) = 3.75875 6.65502 5.40452
#
# Compressibility (1/GPa) = 0.08950053
#
# Stress axis : x y z
#
# Youngs Moduli (GPa) = 85.43340 11.21170 150.08651
#
# Poissons Ratio (x) = 0.08623 0.44998
# Poissons Ratio (y) = 0.65709 -0.24907
# Poissons Ratio (z) = 0.25614 -0.01861
#
# Static dielectric constant tensor:
#      x y z
#    x 4.049300 0.211040 0.091070 
#    y 0.211040 3.761370 0.056370 
#    z 0.091070 0.056370 4.361490 
# 
# 
# High freq. dielectric constant tensor:
#      x y z
#    x 1.935650 0.019850 0.005560 
#    y 0.019850 1.896680 0.005560 
#    z 0.005560 0.005560 1.951150 
# 
# From -- ./inp_files/240130.got.cif
#   From: 2010.06.25/outbox.cif.g09.slc.cpg/sg2_121_cif.got.tgz:240130.got - 2010.06.27 13:26:56.
