data_PCOD8038642
_publ_section_title
;
Structure prediction by ZEFSAII (Michael W. Deem and Ramdas Pophale) SiO2 
 PCOD8038642
Probable space group: P -1
;
_chemical_formula_sum "Si O2"
_cell_formula_units_Z 16
_cell_length_a 12.529480
_cell_length_b 19.782514
_cell_length_c 14.895927
_cell_angle_alpha 33.022873
_cell_angle_beta 28.439093
_cell_angle_gamma 27.717235
_cell_volume 787.195485
_symmetry_space_group_name_H-M "P -1"
_symmetry_group_IT_number 2
_symmetry_cell_setting 'triclinic'
loop_
_space_group_symop_operation_xyz
x,y,z
-x,-y,-z
loop_
_atom_site_type_symbol
_atom_site_label
_atom_site_fract_x
_atom_site_fract_y
_atom_site_fract_z
Si Si1 0.080080 0.913253 0.173800
Si Si2 0.797068 0.563666 0.662548
Si Si3 0.214179 0.594545 0.796083
Si Si4 0.145747 0.272506 0.412515
Si Si5 0.339485 0.553079 0.951662
Si Si6 0.307550 0.791561 0.954099
Si Si7 0.360634 0.291855 0.936238
Si Si8 0.379396 0.435992 0.595690
O O1 0.362660 0.866304 0.064598
O O2 0.940229 0.842776 0.407837
O O3 0.126619 0.844058 0.117771
O O4 0.877684 0.094543 0.117098
O O5 0.810057 0.695186 0.552976
O O6 0.486536 0.635739 0.777972
O O7 0.000000 0.500000 0.500000
O O8 0.864435 0.437089 0.831330
O O9 0.189908 0.615098 0.898325
O O10 0.342447 0.420560 0.868607
O O11 0.417522 0.636501 0.560056
O O12 0.913484 0.703561 0.852162
O O13 0.431230 0.201331 0.228842
O O14 0.925260 0.433126 0.352425
O O15 0.594579 0.376510 0.954922
O O16 0.371229 0.313985 0.796465
O O17 0.500000 0.500000 0.500000
#
# Coordination Sequence:
#
# PCOD8038642 Si02
#       8
#     2   2   2   2   2   2   2   2
#     4  11  20  32  47  72 105 136 167 189 236 300
#     4  10  20  30  53  71  96 130 161 211 253 284
#     4  10  18  30  48  69 103 128 157 206 247 291
#     4  11  20  34  49  75 103 127 166 202 249 295
#     4  10  19  35  48  75 100 126 168 203 247 293
#     4  10  21  32  49  67 104 140 162 199 233 289
#     4  10  19  28  47  72  99 135 159 193 248 293
#     4  10  18  28  47  70  99 130 156 200 246 292
#
# _framework density 20.325319
#
# number of rings (size 3 to 8) (size 9 to 14) (size 15 to 20)
#    0.000    1.750    3.750    3.375    3.500    0.000 
#    0.000    0.000    0.000    0.000    0.000   14.000 
#    0.000   29.250    0.000    0.000    0.000    0.000 
#
# Total GULP energy -198252.813947 kJ/mol
# GULP energy per Si atom -12390.800872 kJ/mol
# Density = 2.027906 g / cm^3
# Si number density = 20.325319 Si / 1000 Ang^3
#
#
#
# Elastic Constant Matrix: (Units=GPa)
#
#
# Indices 1 2 3 4 5 6 
#
# 1 81.9982 14.0469 10.7480 3.3254 3.3986 -18.1350
# 2 14.0469 66.5580 10.1121 6.0883 -16.0168 -30.6316
# 3 10.7480 10.1121 70.4480 19.0379 12.6167 -10.2355
# 4 3.3254 6.0883 19.0379 21.6813 -3.6871 -2.7531
# 5 3.3986 -16.0168 12.6167 -3.6871 33.6842 10.3642
# 6 -18.1350 -30.6316 -10.2355 -2.7531 10.3642 35.5234
#
#
#
# Elastic Compliance Matrix: (Units=1/GPa)
#
#
# Indices 1 2 3 4 5 6 
#
# 1 0.014312 -0.000035 0.000503 -0.002311 -0.004538 0.008565
# 2 -0.000035 0.026337 -0.001313 -0.002562 0.006519 0.020213
# 3 0.000503 -0.001313 0.024339 -0.022511 -0.014949 0.008754
# 4 -0.002311 -0.002562 -0.022511 0.068778 0.017988 -0.009793
# 5 -0.004538 0.006519 -0.014949 0.017988 0.044706 -0.012652
# 6 0.008565 0.020213 0.008754 -0.009793 -0.012652 0.055408
#
#
# Mechanical properties :
#
#
# Convention : Reuss Voigt Hill
#
# Bulk Modulus (GPa) = 15.79854 32.09090 23.94472
# Shear Modulus (GPa) = 19.48023 30.45095 24.96559
#
# Velocity S-wave (km/s) = 3.09920 3.87483 3.50851
# Velocity P-wave (km/s) = 4.53833 5.98682 5.31217
#
# Compressibility (1/GPa) = 0.06329700
#
# Stress axis : x y z
#
# Youngs Moduli (GPa) = 69.87305 37.96877 41.08617
#
# Poissons Ratio (x) = 0.00135 -0.02068
# Poissons Ratio (y) = 0.00248 0.05397
# Poissons Ratio (z) = -0.03517 0.04987
#
# Static dielectric constant tensor:
#      x y z
#    x 4.072340 -0.222720 0.107000 
#    y -0.222720 3.265150 0.198940 
#    z 0.107000 0.198940 4.341200 
# 
# 
# High freq. dielectric constant tensor:
#      x y z
#    x 1.790990 -0.030120 0.007080 
#    y -0.030120 1.724710 0.025810 
#    z 0.007080 0.025810 1.810750 
# 
# From -- ./inp_files/449896.got.cif
#   From: 2010.06.25/outbox.cif.g09.slc.cpg/sg2_225_cif.got.tgz:449896.got - 2010.06.27 13:26:56.
