data_PCOD8038092
_publ_section_title
;
Structure prediction by ZEFSAII (Michael W. Deem and Ramdas Pophale) SiO2 
 PCOD8038092
Probable space group: P -1
;
_chemical_formula_sum "Si O2"
_cell_formula_units_Z 16
_cell_length_a 12.578841
_cell_length_b 14.217856
_cell_length_c 8.469760
_cell_angle_alpha 31.058724
_cell_angle_beta 70.560651
_cell_angle_gamma 78.562455
_cell_volume 725.120221
_symmetry_space_group_name_H-M "P -1"
_symmetry_group_IT_number 2
_symmetry_cell_setting 'triclinic'
loop_
_space_group_symop_operation_xyz
x,y,z
-x,-y,-z
loop_
_atom_site_type_symbol
_atom_site_label
_atom_site_fract_x
_atom_site_fract_y
_atom_site_fract_z
Si Si1 0.273765 0.770108 0.987177
Si Si2 0.545214 0.310893 0.732958
Si Si3 0.677801 0.981435 0.688508
Si Si4 0.825469 0.561069 0.707041
Si Si5 0.120327 0.056848 0.773934
Si Si6 0.733157 0.308812 0.407657
Si Si7 0.901764 0.845736 0.702661
Si Si8 0.054860 0.535985 0.752533
O O1 0.336920 0.893626 0.636407
O O2 0.184686 0.883453 0.954957
O O3 0.370520 0.724402 0.119348
O O4 0.211583 0.569383 0.238556
O O5 0.500000 0.500000 0.500000
O O6 0.609187 0.325679 0.512140
O O7 0.441663 0.139724 0.029934
O O8 0.771848 0.856850 0.790391
O O9 0.726979 0.106708 0.631206
O O10 0.798934 0.773267 0.411024
O O11 0.965029 0.599915 0.585488
O O12 0.768970 0.464402 0.033327
O O13 0.086536 0.154321 0.491163
O O14 0.000000 0.000000 0.000000
O O15 0.824542 0.322825 0.488040
O O16 0.919265 0.657434 0.047367
O O17 0.000000 0.000000 0.500000
O O18 0.000000 0.500000 0.000000
#
# Coordination Sequence:
#
# PCOD8038092 Si02
#       8
#     2   2   2   2   2   2   2   2
#     4  10  25  47  67  95 137 179 222 275 338 401
#     4  12  26  45  67  98 128 170 228 292 329 385
#     4  10  23  44  67  94 133 176 225 270 337 401
#     4  10  22  44  65  98 135 183 218 267 341 408
#     4  11  24  40  64  98 140 175 219 269 337 407
#     4  10  21  41  67  94 129 171 224 277 326 392
#     4  11  20  37  65  96 128 173 216 265 332 398
#     4  10  17  33  63  90 128 166 209 263 319 391
#
# _framework density 22.065306
#
# number of rings (size 3 to 8) (size 9 to 14) (size 15 to 20)
#    0.000    1.500    2.500    4.500    3.500    0.500 
#    9.000    1.250    0.000    0.000    0.000    0.000 
#    0.000    0.000    0.000    0.000    0.000    0.000 
#
# Total GULP energy -198285.617703 kJ/mol
# GULP energy per Si atom -12392.851106 kJ/mol
# Density = 2.201508 g / cm^3
# Si number density = 22.065306 Si / 1000 Ang^3
#
#
#
# Elastic Constant Matrix: (Units=GPa)
#
#
# Indices 1 2 3 4 5 6 
#
# 1 110.1703 41.3156 48.3322 -5.9596 -17.9444 -2.0082
# 2 41.3156 115.4077 60.5092 -29.8486 -15.9179 -8.8712
# 3 48.3322 60.5092 98.0618 -19.6892 -27.2145 -3.1759
# 4 -5.9596 -29.8486 -19.6892 33.2128 -3.1539 -17.3413
# 5 -17.9444 -15.9179 -27.2145 -3.1539 43.3942 -2.7015
# 6 -2.0082 -8.8712 -3.1759 -17.3413 -2.7015 29.9075
#
#
#
# Elastic Compliance Matrix: (Units=1/GPa)
#
#
# Indices 1 2 3 4 5 6 
#
# 1 0.012370 -0.003967 -0.005494 -0.007432 -0.000656 -0.005298
# 2 -0.003967 0.023542 -0.001979 0.034546 0.009973 0.027438
# 3 -0.005494 -0.001979 0.021725 0.018118 0.012754 0.013009
# 4 -0.007432 0.034546 0.018118 0.116996 0.034610 0.082636
# 5 -0.000656 0.009973 0.012754 0.034610 0.038678 0.027830
# 6 -0.005298 0.027438 0.013009 0.082636 0.027830 0.093030
#
#
# Mechanical properties :
#
#
# Convention : Reuss Voigt Hill
#
# Bulk Modulus (GPa) = 28.77168 69.32821 49.04994
# Shear Modulus (GPa) = 14.67104 32.86843 23.76973
#
# Velocity S-wave (km/s) = 2.58135 3.86372 3.28570
# Velocity P-wave (km/s) = 4.68531 7.16883 6.05575
#
# Compressibility (1/GPa) = 0.03475640
#
# Stress axis : x y z
#
# Youngs Moduli (GPa) = 80.84295 42.47689 46.02930
#
# Poissons Ratio (x) = 0.16852 0.25290
# Poissons Ratio (y) = 0.32073 0.09108
# Poissons Ratio (z) = 0.44418 0.08405
#
# Static dielectric constant tensor:
#      x y z
#    x 4.036140 -0.119000 -0.028200 
#    y -0.119000 4.250670 -0.047570 
#    z -0.028200 -0.047570 3.886880 
# 
# 
# High freq. dielectric constant tensor:
#      x y z
#    x 1.852520 -0.005670 -0.010300 
#    y -0.005670 1.883880 -0.011210 
#    z -0.010300 -0.011210 1.876850 
# 
# From -- ./inp_files/271345.got.cif
#   From: 2010.06.25/outbox.cif.g09.slc.cpg/sg2_136_cif.got.tgz:271345.got - 2010.06.27 13:26:56.
