data_PCOD8038422
_publ_section_title
;
Structure prediction by ZEFSAII (Michael W. Deem and Ramdas Pophale) SiO2 
 PCOD8038422
Probable space group: P -1
;
_chemical_formula_sum "Si O2"
_cell_formula_units_Z 16
_cell_length_a 18.282614
_cell_length_b 8.532307
_cell_length_c 9.317197
_cell_angle_alpha 95.216293
_cell_angle_beta 148.528435
_cell_angle_gamma 89.670334
_cell_volume 748.412328
_symmetry_space_group_name_H-M "P -1"
_symmetry_group_IT_number 2
_symmetry_cell_setting 'triclinic'
loop_
_space_group_symop_operation_xyz
x,y,z
-x,-y,-z
loop_
_atom_site_type_symbol
_atom_site_label
_atom_site_fract_x
_atom_site_fract_y
_atom_site_fract_z
Si Si1 0.555520 0.997679 0.330972
Si Si2 0.304821 0.007860 0.732381
Si Si3 0.838105 0.524741 0.739821
Si Si4 0.749014 0.803405 0.796000
Si Si5 0.671020 0.575048 0.901116
Si Si6 0.375326 0.660925 0.433565
Si Si7 0.008894 0.027393 0.186870
Si Si8 0.798168 0.677553 0.405416
O O1 0.582053 0.150062 0.493321
O O2 0.635421 0.049832 0.321007
O O3 0.609368 0.848724 0.486692
O O4 0.389562 0.953223 0.007640
O O5 0.320166 0.202062 0.771717
O O6 0.137966 0.938375 0.457315
O O7 0.826165 0.686004 0.818837
O O8 0.742902 0.377595 0.644343
O O9 0.776521 0.541552 0.478480
O O10 0.000000 0.500000 0.000000
O O11 0.705443 0.729776 0.870112
O O12 0.862867 0.962203 0.016113
O O13 0.511141 0.572571 0.692004
O O14 0.685343 0.412652 0.826085
O O15 0.783480 0.589903 0.219917
O O16 0.046784 0.216164 0.302654
O O17 0.000000 0.000000 0.000000
#
# Coordination Sequence:
#
# PCOD8038422 Si02
#       8
#     2   2   2   2   2   2   2   2
#     4  11  19  38  65  98 125 161 208 268 309 370
#     4   9  20  33  64  98 127 143 213 273 314 343
#     4  11  24  39  67  95 119 167 216 262 317 372
#     4  11  22  39  69  92 130 170 208 254 322 384
#     4  10  23  45  59  91 133 171 208 247 319 385
#     4  10  23  40  65  87 129 173 206 247 316 388
#     4  10  17  35  65  91 120 161 204 256 324 346
#     4  10  20  41  62  91 128 159 206 275 306 366
#
# _framework density 21.378589000000002
#
# number of rings (size 3 to 8) (size 9 to 14) (size 15 to 20)
#    0.750    1.000    5.000    0.000    3.500    1.500 
#    0.000    3.750    5.500    0.000    0.000    0.000 
#    0.000    0.000    0.000    0.000    0.000    0.000 
#
# Total GULP energy -198308.080276 kJ/mol
# GULP energy per Si atom -12394.255017 kJ/mol
# Density = 2.132993 g / cm^3
# Si number density = 21.378589 Si / 1000 Ang^3
#
#
#
# Elastic Constant Matrix: (Units=GPa)
#
#
# Indices 1 2 3 4 5 6 
#
# 1 81.2599 17.1497 50.3774 -3.8748 -4.2543 3.5143
# 2 17.1497 48.4362 26.4137 4.2339 -10.3821 -17.0980
# 3 50.3774 26.4137 144.2387 0.2278 -9.6668 -4.3345
# 4 -3.8748 4.2339 0.2278 38.8415 -11.2299 1.3298
# 5 -4.2543 -10.3821 -9.6668 -11.2299 38.1225 4.6214
# 6 3.5143 -17.0980 -4.3345 1.3298 4.6214 23.3717
#
#
#
# Elastic Compliance Matrix: (Units=1/GPa)
#
#
# Indices 1 2 3 4 5 6 
#
# 1 0.017404 -0.006537 -0.005093 0.003009 0.000809 -0.008675
# 2 -0.006537 0.034726 -0.003064 -0.004238 0.003630 0.025342
# 3 -0.005093 -0.003064 0.009340 0.000050 0.000973 0.000061
# 4 0.003009 -0.004238 0.000050 0.029245 0.008648 -0.006917
# 5 0.000809 0.003630 0.000973 0.008648 0.030568 -0.003822
# 6 -0.008675 0.025342 0.000061 -0.006917 -0.003822 0.063791
#
#
# Mechanical properties :
#
#
# Convention : Reuss Voigt Hill
#
# Bulk Modulus (GPa) = 31.17093 51.31292 41.24192
# Shear Modulus (GPa) = 22.20692 32.06674 27.13683
#
# Velocity S-wave (km/s) = 3.22645 3.87712 3.56665
# Velocity P-wave (km/s) = 5.33780 6.64054 6.02449
#
# Compressibility (1/GPa) = 0.03208118
#
# Stress axis : x y z
#
# Youngs Moduli (GPa) = 57.45776 28.79714 107.06850
#
# Poissons Ratio (x) = 0.18824 0.54528
# Poissons Ratio (y) = 0.37560 0.32811
# Poissons Ratio (z) = 0.29262 0.08825
#
# Static dielectric constant tensor:
#      x y z
#    x 3.710260 -0.022780 0.090150 
#    y -0.022780 3.697310 0.167460 
#    z 0.090150 0.167460 3.974470 
# 
# 
# High freq. dielectric constant tensor:
#      x y z
#    x 1.819050 -0.010130 0.002480 
#    y -0.010130 1.817070 0.008750 
#    z 0.002480 0.008750 1.840140 
# 
# From -- ./inp_files/343605.got.cif
#   From: 2010.06.25/outbox.cif.g09.slc.cpg/sg2_172_cif.got.tgz:343605.got - 2010.06.27 13:26:56.
