data_PCOD8038863
_publ_section_title
;
Structure prediction by ZEFSAII (Michael W. Deem and Ramdas Pophale) SiO2 
 PCOD8038863
Probable space group: P -1
;
_chemical_formula_sum "Si O2"
_cell_formula_units_Z 16
_cell_length_a 11.047513
_cell_length_b 27.358448
_cell_length_c 28.193809
_cell_angle_alpha 169.453030
_cell_angle_beta 141.752775
_cell_angle_gamma 36.268217
_cell_volume 920.611931
_symmetry_space_group_name_H-M "P -1"
_symmetry_group_IT_number 2
_symmetry_cell_setting 'triclinic'
loop_
_space_group_symop_operation_xyz
x,y,z
-x,-y,-z
loop_
_atom_site_type_symbol
_atom_site_label
_atom_site_fract_x
_atom_site_fract_y
_atom_site_fract_z
Si Si1 0.792629 0.900148 0.152101
Si Si2 0.431652 0.564581 0.347724
Si Si3 0.771016 0.099288 0.476918
Si Si4 0.644959 0.267209 0.260889
Si Si5 0.811486 0.839306 0.334783
Si Si6 0.631054 0.117956 0.216336
Si Si7 0.872680 0.284152 0.255850
Si Si8 0.902744 0.235476 0.806734
O O1 0.022165 0.828611 0.176786
O O2 0.634812 0.170160 0.385037
O O3 0.807261 0.976208 0.173649
O O4 0.714029 0.629967 0.875180
O O5 0.410177 0.676252 0.393170
O O6 0.665083 0.396801 0.269452
O O7 0.681832 0.992492 0.395034
O O8 0.883951 0.836972 0.226992
O O9 0.946168 0.242329 0.682643
O O10 0.734419 0.160996 0.239320
O O11 0.512749 0.589551 0.529192
O O12 0.831386 0.228624 0.245100
O O13 0.504623 0.088209 0.028096
O O14 0.768014 0.040558 0.560109
O O15 0.762143 0.554839 0.061292
O O16 0.000000 0.500000 0.500000
O O17 0.000000 0.000000 0.000000
#
# Coordination Sequence:
#
# PCOD8038863 Si02
#       8
#     2   2   2   2   2   2   2   2
#     4  11  16  28  44  65  88 113 142 184 220 266
#     4  11  20  30  43  64  84 119 158 183 222 265
#     4   8  17  23  39  52  84 111 148 173 203 262
#     4  10  20  33  49  69  86 114 152 189 245 274
#     4   9  15  23  35  56  82 113 146 162 211 256
#     4  10  18  31  51  69  90 111 145 198 231 286
#     4  12  23  36  49  64  91 124 160 201 226 264
#     4   9  15  22  34  57  81 112 138 163 205 261
#
# _framework density 17.379746000000001
#
# number of rings (size 3 to 8) (size 9 to 14) (size 15 to 20)
#    0.750    1.250    3.750    1.875    0.000    0.000 
#    0.000    0.000    0.000    0.000    0.000    0.000 
#    0.000    0.000    0.000    6.750    0.000    0.000 
#
# Total GULP energy -198238.710557 kJ/mol
# GULP energy per Si atom -12389.919410 kJ/mol
# Density = 1.734019 g / cm^3
# Si number density = 17.379746 Si / 1000 Ang^3
#
#
#
# Elastic Constant Matrix: (Units=GPa)
#
#
# Indices 1 2 3 4 5 6 
#
# 1 72.9475 35.3066 24.3299 3.5790 -1.2380 24.9967
# 2 35.3066 110.9700 18.8541 8.2963 -0.8818 45.7741
# 3 24.3299 18.8541 114.8933 10.8454 0.0344 12.5192
# 4 3.5790 8.2963 10.8454 21.6532 4.0417 0.6679
# 5 -1.2380 -0.8818 0.0344 4.0417 16.7144 0.3573
# 6 24.9967 45.7741 12.5192 0.6679 0.3573 32.2621
#
#
#
# Elastic Compliance Matrix: (Units=1/GPa)
#
#
# Indices 1 2 3 4 5 6 
#
# 1 0.019509 0.000548 -0.002384 -0.002215 0.002334 -0.014948
# 2 0.000548 0.023285 0.000570 -0.009042 0.004171 -0.033542
# 3 -0.002384 0.000570 0.009870 -0.004885 0.001072 -0.002702
# 4 -0.002215 -0.009042 -0.004885 0.054628 -0.014171 0.015466
# 5 0.002334 0.004171 0.001072 -0.014171 0.063829 -0.008556
# 6 -0.014948 -0.033542 -0.002702 0.015466 -0.008556 0.090991
#
#
# Mechanical properties :
#
#
# Convention : Reuss Voigt Hill
#
# Bulk Modulus (GPa) = 19.94715 50.64357 35.29536
# Shear Modulus (GPa) = 17.77115 28.81396 23.29256
#
# Velocity S-wave (km/s) = 3.20116 4.07616 3.66486
# Velocity P-wave (km/s) = 5.01651 7.16631 6.18552
#
# Compressibility (1/GPa) = 0.05013247
#
# Stress axis : x y z
#
# Youngs Moduli (GPa) = 51.25893 42.94568 101.31426
#
# Poissons Ratio (x) = -0.02354 0.24153
# Poissons Ratio (y) = -0.02809 -0.05774
# Poissons Ratio (z) = 0.12220 -0.02448
#
# Static dielectric constant tensor:
#      x y z
#    x 2.789320 0.513640 -0.022070 
#    y 0.513640 3.395650 -0.001760 
#    z -0.022070 -0.001760 3.364230 
# 
# 
# High freq. dielectric constant tensor:
#      x y z
#    x 1.597680 0.052920 -0.003370 
#    y 0.052920 1.668970 0.002590 
#    z -0.003370 0.002590 1.694660 
# 
# From -- ./inp_files/618837.got.cif
#   From: 2010.06.25/outbox.cif.g09.slc.cpg/sg2_310_cif.got.tgz:618837.got - 2010.06.27 13:26:56.
