data_PCOD8038068
_publ_section_title
;
Structure prediction by ZEFSAII (Michael W. Deem and Ramdas Pophale) SiO2 
 PCOD8038068
Probable space group: P -1
;
_chemical_formula_sum "Si O2"
_cell_formula_units_Z 16
_cell_length_a 9.404177
_cell_length_b 18.805129
_cell_length_c 12.462344
_cell_angle_alpha 121.448517
_cell_angle_beta 109.340102
_cell_angle_gamma 29.918631
_cell_volume 899.046446
_symmetry_space_group_name_H-M "P -1"
_symmetry_group_IT_number 2
_symmetry_cell_setting 'triclinic'
loop_
_space_group_symop_operation_xyz
x,y,z
-x,-y,-z
loop_
_atom_site_type_symbol
_atom_site_label
_atom_site_fract_x
_atom_site_fract_y
_atom_site_fract_z
Si Si1 0.152532 0.187364 0.343181
Si Si2 0.644506 0.953006 0.111446
Si Si3 0.658410 0.506785 0.340926
Si Si4 0.455853 0.317696 0.720056
Si Si5 0.458290 0.893726 0.481945
Si Si6 0.243904 0.579842 0.934075
Si Si7 0.904741 0.184575 0.434262
Si Si8 0.138122 0.987812 0.685534
O O1 0.294904 0.157910 0.463548
O O2 0.945158 0.355846 0.368381
O O3 0.966974 0.194764 0.340214
O O4 0.415967 0.033765 0.209573
O O5 0.734177 0.008078 0.190077
O O6 0.933065 0.758532 0.042932
O O7 0.500000 0.000000 0.000000
O O8 0.628613 0.614851 0.370899
O O9 0.697226 0.427123 0.183735
O O10 0.362183 0.634323 0.437718
O O11 0.385730 0.253346 0.667177
O O12 0.262776 0.469824 0.869757
O O13 0.801625 0.171206 0.716124
O O14 0.193592 0.062744 0.483962
O O15 0.326955 0.907163 0.561515
O O16 0.500000 0.500000 0.000000
O O17 0.832866 0.120787 0.349545
#
# Coordination Sequence:
#
# PCOD8038068 Si02
#       8
#     2   2   2   2   2   2   2   2
#     4  11  24  33  54  83 117 140 165 233 282 313
#     4  11  20  37  54  80 108 139 184 221 265 312
#     4  10  19  35  55  81 108 139 177 225 266 325
#     4   9  16  31  56  82  98 135 185 222 250 308
#     4  10  18  35  55  82 107 137 185 223 267 310
#     4  10  18  33  58  81 101 138 189 222 250 315
#     4  11  20  38  55  81 109 144 182 214 275 329
#     4  10  17  33  61  78 102 143 185 224 252 321
#
# _framework density 17.796634000000001
#
# number of rings (size 3 to 8) (size 9 to 14) (size 15 to 20)
#    0.750    1.000    5.000    1.500    1.750    0.500 
#    2.250    0.625    0.000    3.000    0.000    0.000 
#    0.000    0.000    0.000    0.000    0.000    0.000 
#
# Total GULP energy -198208.913743 kJ/mol
# GULP energy per Si atom -12388.057109 kJ/mol
# Density = 1.775613 g / cm^3
# Si number density = 17.796634 Si / 1000 Ang^3
#
#
#
# Elastic Constant Matrix: (Units=GPa)
#
#
# Indices 1 2 3 4 5 6 
#
# 1 66.2732 21.9041 35.0784 6.9465 -3.4239 4.6358
# 2 21.9041 105.1671 42.4444 17.1990 2.7726 -6.7243
# 3 35.0784 42.4444 91.0447 13.6221 7.7082 -3.6006
# 4 6.9465 17.1990 13.6221 32.0586 -6.9142 3.7744
# 5 -3.4239 2.7726 7.7082 -6.9142 23.9530 -0.8873
# 6 4.6358 -6.7243 -3.6006 3.7744 -0.8873 12.5153
#
#
#
# Elastic Compliance Matrix: (Units=1/GPa)
#
#
# Indices 1 2 3 4 5 6 
#
# 1 0.021293 -0.002445 -0.008577 0.003189 0.006557 -0.012166
# 2 -0.002445 0.013189 -0.003703 -0.006481 -0.002232 0.008723
# 3 -0.008577 -0.003703 0.017979 -0.006465 -0.008163 0.007731
# 4 0.003189 -0.006481 -0.006465 0.042045 0.014751 -0.018158
# 5 0.006557 -0.002232 -0.008163 0.014751 0.049573 -0.006911
# 6 -0.012166 0.008723 0.007731 -0.018158 -0.006911 0.096305
#
#
# Mechanical properties :
#
#
# Convention : Reuss Voigt Hill
#
# Bulk Modulus (GPa) = 43.46034 51.25987 47.36010
# Shear Modulus (GPa) = 18.01779 24.57594 21.29686
#
# Velocity S-wave (km/s) = 3.18532 3.72012 3.46306
# Velocity P-wave (km/s) = 6.16457 6.87881 6.53146
#
# Compressibility (1/GPa) = 0.02300949
#
# Stress axis : x y z
#
# Youngs Moduli (GPa) = 46.96460 75.82162 55.62145
#
# Poissons Ratio (x) = 0.18542 0.47708
# Poissons Ratio (y) = 0.11485 0.20595
# Poissons Ratio (z) = 0.40282 0.28075
#
# Static dielectric constant tensor:
#      x y z
#    x 3.103580 -0.010490 0.176160 
#    y -0.010490 3.215210 0.008820 
#    z 0.176160 0.008820 3.295890 
# 
# 
# High freq. dielectric constant tensor:
#      x y z
#    x 1.656290 -0.001650 0.014880 
#    y -0.001650 1.699860 0.010820 
#    z 0.014880 0.010820 1.680500 
# 
# From -- ./inp_files/216473.got.cif
#   From: 2010.06.25/outbox.cif.g09.slc.cpg/sg2_109_cif.got.tgz:216473.got - 2010.06.27 13:26:56.
