data_PCOD8038895
_publ_section_title
;
Structure prediction by ZEFSAII (Michael W. Deem and Ramdas Pophale) SiO2 
 PCOD8038895
Probable space group: P -1
;
_chemical_formula_sum "Si O2"
_cell_formula_units_Z 16
_cell_length_a 7.839788
_cell_length_b 19.617910
_cell_length_c 10.740379
_cell_angle_alpha 35.578931
_cell_angle_beta 64.298841
_cell_angle_gamma 73.687636
_cell_volume 857.846229
_symmetry_space_group_name_H-M "P -1"
_symmetry_group_IT_number 2
_symmetry_cell_setting 'triclinic'
loop_
_space_group_symop_operation_xyz
x,y,z
-x,-y,-z
loop_
_atom_site_type_symbol
_atom_site_label
_atom_site_fract_x
_atom_site_fract_y
_atom_site_fract_z
Si Si1 0.711128 0.600660 0.377253
Si Si2 0.091288 0.143043 0.516746
Si Si3 0.240736 0.189542 0.786580
Si Si4 0.736823 0.756473 0.917096
Si Si5 0.609579 0.931896 0.288970
Si Si6 0.128583 0.838514 0.195840
Si Si7 0.767598 0.971944 0.746141
Si Si8 0.357583 0.649947 0.290233
O O1 0.771282 0.673809 0.375735
O O2 0.481384 0.600364 0.435532
O O3 0.754893 0.465340 0.574557
O O4 0.817354 0.666464 0.123771
O O5 0.175163 0.251956 0.236622
O O6 0.275260 0.087696 0.592636
O O7 0.966865 0.191010 0.594871
O O8 0.961607 0.046627 0.618760
O O9 0.386668 0.178949 0.641989
O O10 0.032159 0.127991 0.898706
O O11 0.314131 0.121520 0.982009
O O12 0.803708 0.892724 0.733622
O O13 0.503037 0.729136 0.031546
O O14 0.389833 0.944163 0.366630
O O15 0.708162 0.050158 0.011262
O O16 0.206527 0.723416 0.289993
#
# Coordination Sequence:
#
# PCOD8038895 Si02
#       8
#     2   2   2   2   2   2   2   2
#     4   8  18  35  57  75  96 138 186 218 252 308
#     4  11  22  33  50  81 118 134 168 220 262 318
#     4  10  18  31  53  79 109 132 175 231 245 304
#     4   9  19  35  52  76 107 142 169 219 268 304
#     4  11  20  33  52  81 110 143 175 206 265 314
#     4  11  19  33  53  81 105 141 177 213 262 310
#     4  11  19  32  54  75 108 148 173 205 261 318
#     4   9  18  35  57  76  96 139 187 213 258 308
#
# _framework density 18.65136
#
# number of rings (size 3 to 8) (size 9 to 14) (size 15 to 20)
#    0.750    1.250    3.750    1.500    1.750    1.000 
#    0.000    0.625    0.000    3.000    0.000    0.000 
#    0.000    0.000    0.000    0.000    0.000    0.000 
#
# Total GULP energy -198255.232801 kJ/mol
# GULP energy per Si atom -12390.952050 kJ/mol
# Density = 1.860891 g / cm^3
# Si number density = 18.651360 Si / 1000 Ang^3
#
#
#
# Elastic Constant Matrix: (Units=GPa)
#
#
# Indices 1 2 3 4 5 6 
#
# 1 55.8518 20.6307 16.1924 3.9301 1.0083 5.1039
# 2 20.6307 92.1387 54.4915 -6.3159 -1.6516 3.4023
# 3 16.1924 54.4915 68.2591 0.1776 -2.8672 5.3189
# 4 3.9301 -6.3159 0.1776 25.7029 -0.9083 -2.1636
# 5 1.0083 -1.6516 -2.8672 -0.9083 12.0065 -6.8141
# 6 5.1039 3.4023 5.3189 -2.1636 -6.8141 21.8391
#
#
#
# Elastic Compliance Matrix: (Units=1/GPa)
#
#
# Indices 1 2 3 4 5 6 
#
# 1 0.020883 -0.003989 -0.001535 -0.004945 -0.006715 -0.006470
# 2 -0.003989 0.022073 -0.016841 0.006420 0.001339 0.002649
# 3 -0.001535 -0.016841 0.028858 -0.004343 0.002229 -0.003781
# 4 -0.004945 0.006420 -0.004343 0.042212 0.007919 0.007866
# 5 -0.006715 0.001339 0.002229 0.007919 0.104599 0.034239
# 6 -0.006470 0.002649 -0.003781 0.007866 0.034239 0.059272
#
#
# Mechanical properties :
#
#
# Convention : Reuss Voigt Hill
#
# Bulk Modulus (GPa) = 36.92147 44.31987 40.62067
# Shear Modulus (GPa) = 15.07590 20.23871 17.65730
#
# Velocity S-wave (km/s) = 2.84615 3.29767 3.08019
# Velocity P-wave (km/s) = 5.53528 6.18978 5.87165
#
# Compressibility (1/GPa) = 0.02708451
#
# Stress axis : x y z
#
# Youngs Moduli (GPa) = 47.88520 45.30465 34.65206
#
# Poissons Ratio (x) = 0.18071 0.05318
# Poissons Ratio (y) = 0.19100 0.58359
# Poissons Ratio (z) = 0.07349 0.76300
#
# Static dielectric constant tensor:
#      x y z
#    x 3.313090 0.118310 -0.048790 
#    y 0.118310 3.440910 -0.111200 
#    z -0.048790 -0.111200 3.151790 
# 
# 
# High freq. dielectric constant tensor:
#      x y z
#    x 1.712730 0.007890 -0.008920 
#    y 0.007890 1.721600 -0.005980 
#    z -0.008920 -0.005980 1.683250 
# 
# From -- ./inp_files/285925.got.cif
#   From: 2010.06.25/outbox.cif.g09.slc.cpg/sg2_143_cif.got.tgz:285925.got - 2010.06.27 13:26:56.
