data_PCOD8038022
_publ_section_title
;
Structure prediction by ZEFSAII (Michael W. Deem and Ramdas Pophale) SiO2 
 PCOD8038022
Probable space group: P -1
;
_chemical_formula_sum "Si O2"
_cell_formula_units_Z 16
_cell_length_a 11.366087
_cell_length_b 10.176361
_cell_length_c 10.884334
_cell_angle_alpha 114.037867
_cell_angle_beta 127.812397
_cell_angle_gamma 49.880238
_cell_volume 760.406146
_symmetry_space_group_name_H-M "P -1"
_symmetry_group_IT_number 2
_symmetry_cell_setting 'triclinic'
loop_
_space_group_symop_operation_xyz
x,y,z
-x,-y,-z
loop_
_atom_site_type_symbol
_atom_site_label
_atom_site_fract_x
_atom_site_fract_y
_atom_site_fract_z
Si Si1 0.237315 0.741051 0.084498
Si Si2 0.967101 0.906498 0.769272
Si Si3 0.959565 0.910460 0.302960
Si Si4 0.296373 0.832198 0.578133
Si Si5 0.319499 0.115684 0.010005
Si Si6 0.356597 0.056650 0.536610
Si Si7 0.500700 0.793199 0.141957
Si Si8 0.600097 0.626673 0.874623
O O1 0.421951 0.702031 0.132795
O O2 0.279809 0.578389 0.131302
O O3 0.154238 0.904278 0.179385
O O4 0.102053 0.766109 0.899473
O O5 0.839803 0.848800 0.613313
O O6 0.078415 0.925834 0.740458
O O7 0.174230 0.775610 0.408934
O O8 0.853986 0.984661 0.390444
O O9 0.868957 0.819772 0.148758
O O10 0.418640 0.693861 0.707472
O O11 0.401017 0.882700 0.570788
O O12 0.305133 0.290643 0.104439
O O13 0.343294 0.994592 0.093815
O O14 0.500000 0.000000 0.000000
O O15 0.354532 0.196109 0.680005
O O16 0.500000 0.000000 0.500000
O O17 0.575548 0.687959 0.023734
#
# Coordination Sequence:
#
# PCOD8038022 Si02
#       8
#     2   2   2   2   2   2   2   2
#     4  11  22  38  59  86 123 158 198 246 297 360
#     4  10  22  39  60  84 119 163 203 237 297 361
#     4  10  18  34  59  87 116 156 200 240 287 354
#     4  10  19  34  60  91 118 148 197 252 292 343
#     4  10  17  33  58  86 114 149 200 238 288 347
#     4  11  21  37  63  89 113 159 203 241 290 362
#     4  11  19  36  63  87 117 158 200 241 288 365
#     4  11  21  36  59  95 120 151 198 251 302 341
#
# _framework density 21.041384999999998
#
# number of rings (size 3 to 8) (size 9 to 14) (size 15 to 20)
#    0.000    1.500    6.250    1.125    0.000    0.000 
#    0.000    5.000    0.000    0.000    0.000    0.000 
#    0.000    0.000    0.000    0.000    0.000    0.000 
#
# Total GULP energy -198243.795444 kJ/mol
# GULP energy per Si atom -12390.237215 kJ/mol
# Density = 2.099349 g / cm^3
# Si number density = 21.041385 Si / 1000 Ang^3
#
#
#
# Elastic Constant Matrix: (Units=GPa)
#
#
# Indices 1 2 3 4 5 6 
#
# 1 73.5533 12.2259 25.2044 -0.4204 7.2529 13.4353
# 2 12.2259 78.1918 35.7708 -14.4133 12.2621 14.8102
# 3 25.2044 35.7708 167.7204 -2.4763 31.2289 5.1316
# 4 -0.4204 -14.4133 -2.4763 22.3331 7.6240 -0.2608
# 5 7.2529 12.2621 31.2289 7.6240 38.9432 4.8106
# 6 13.4353 14.8102 5.1316 -0.2608 4.8106 18.0554
#
#
#
# Elastic Compliance Matrix: (Units=1/GPa)
#
#
# Indices 1 2 3 4 5 6 
#
# 1 0.016488 0.000915 -0.002264 0.000549 -0.000128 -0.012334
# 2 0.000915 0.020219 -0.002802 0.014381 -0.005270 -0.014858
# 3 -0.002264 -0.002802 0.007855 0.000965 -0.005586 0.003252
# 4 0.000549 0.014381 0.000965 0.059611 -0.016172 -0.007310
# 5 -0.000128 -0.005270 -0.005586 -0.016172 0.035461 -0.003676
# 6 -0.012334 -0.014858 0.003252 -0.007310 -0.003676 0.076700
#
#
# Mechanical properties :
#
#
# Convention : Reuss Voigt Hill
#
# Bulk Modulus (GPa) = 27.57739 51.76308 39.67023
# Shear Modulus (GPa) = 21.12189 32.28397 26.70293
#
# Velocity S-wave (km/s) = 3.17176 3.92127 3.56626
# Velocity P-wave (km/s) = 5.15249 6.71981 5.98765
#
# Compressibility (1/GPa) = 0.03626159
#
# Stress axis : x y z
#
# Youngs Moduli (GPa) = 60.65068 49.45767 127.31107
#
# Poissons Ratio (x) = -0.04526 0.28819
# Poissons Ratio (y) = -0.05550 0.35667
# Poissons Ratio (z) = 0.13729 0.13856
#
# Static dielectric constant tensor:
#      x y z
#    x 3.942870 0.500660 0.029880 
#    y 0.500660 3.544060 0.051210 
#    z 0.029880 0.051210 4.306690 
# 
# 
# High freq. dielectric constant tensor:
#      x y z
#    x 1.822390 0.031030 0.002780 
#    y 0.031030 1.761780 0.006080 
#    z 0.002780 0.006080 1.850560 
# 
# From -- ./inp_files/419561.got.cif
#   From: 2010.06.25/outbox.cif.g09.slc.cpg/sg2_210_cif.got.tgz:419561.got - 2010.06.27 13:26:56.
