data_PCOD8038217
_publ_section_title
;
Structure prediction by ZEFSAII (Michael W. Deem and Ramdas Pophale) SiO2 
 PCOD8038217
Probable space group: P -1
;
_chemical_formula_sum "Si O2"
_cell_formula_units_Z 16
_cell_length_a 10.905342
_cell_length_b 11.732479
_cell_length_c 10.540162
_cell_angle_alpha 51.994363
_cell_angle_beta 92.079589
_cell_angle_gamma 127.236052
_cell_volume 714.164995
_symmetry_space_group_name_H-M "P -1"
_symmetry_group_IT_number 2
_symmetry_cell_setting 'triclinic'
loop_
_space_group_symop_operation_xyz
x,y,z
-x,-y,-z
loop_
_atom_site_type_symbol
_atom_site_label
_atom_site_fract_x
_atom_site_fract_y
_atom_site_fract_z
Si Si1 0.600969 0.351442 0.429288
Si Si2 0.117862 0.238589 0.696837
Si Si3 0.825900 0.026690 0.047442
Si Si4 0.284165 0.784467 0.640879
Si Si5 0.596969 0.608642 0.796333
Si Si6 0.176966 0.965558 0.371391
Si Si7 0.309245 0.871729 0.851431
Si Si8 0.519075 0.787488 0.003099
O O1 0.701511 0.508932 0.446857
O O2 0.747169 0.386138 0.327463
O O3 0.528290 0.411829 0.291816
O O4 0.443195 0.114547 0.641692
O O5 0.171379 0.117542 0.771880
O O6 0.019302 0.192606 0.593637
O O7 0.989948 0.163857 0.861788
O O8 0.846742 0.184041 0.033399
O O9 0.630459 0.871370 0.079357
O O10 0.500000 0.000000 0.500000
O O11 0.169242 0.816099 0.558199
O O12 0.222756 0.714081 0.834021
O O13 0.784669 0.860141 0.657580
O O14 0.500000 0.500000 0.000000
O O15 0.624114 0.472043 0.832004
O O16 0.341429 0.093432 0.190725
O O17 0.410380 0.842675 0.962496
#
# Coordination Sequence:
#
# PCOD8038217 Si02
#       8
#     2   2   2   2   2   2   2   2
#     4  11  20  38  64  91 118 159 203 248 290 357
#     4  10  23  40  60  87 124 161 199 237 307 364
#     4  10  22  40  59  85 127 163 193 247 303 356
#     4  10  17  34  59  89 117 152 199 247 298 341
#     4  10  18  31  61  90 113 156 209 243 277 354
#     4  10  18  35  60  87 118 158 198 245 292 358
#     4  11  21  37  64  91 122 152 203 255 294 344
#     4  10  18  35  59  89 116 156 207 245 290 348
#
# _framework density 22.403787000000001
#
# number of rings (size 3 to 8) (size 9 to 14) (size 15 to 20)
#    0.000    1.750    6.250    1.125    1.750    1.000 
#    0.000    1.250    0.000    0.000    0.000    0.000 
#    0.000    0.000    0.000    0.000    0.000    0.000 
#
# Total GULP energy -198329.958135 kJ/mol
# GULP energy per Si atom -12395.622383 kJ/mol
# Density = 2.235279 g / cm^3
# Si number density = 22.403787 Si / 1000 Ang^3
#
#
#
# Elastic Constant Matrix: (Units=GPa)
#
#
# Indices 1 2 3 4 5 6 
#
# 1 107.3461 24.7285 36.9884 14.3062 32.7863 -5.9355
# 2 24.7285 87.8913 7.1471 11.8942 12.7135 11.7580
# 3 36.9884 7.1471 43.6368 5.3706 29.9897 9.8029
# 4 14.3062 11.8942 5.3706 25.6890 2.5757 7.3316
# 5 32.7863 12.7135 29.9897 2.5757 36.3777 11.7186
# 6 -5.9355 11.7580 9.8029 7.3316 11.7186 38.1482
#
#
#
# Elastic Compliance Matrix: (Units=1/GPa)
#
#
# Indices 1 2 3 4 5 6 
#
# 1 0.018251 -0.003093 -0.008697 -0.008986 -0.011165 0.011185
# 2 -0.003093 0.013540 0.004735 -0.004027 -0.004352 -0.003761
# 3 -0.008697 0.004735 0.059058 -0.004284 -0.040698 -0.004664
# 4 -0.008986 -0.004027 -0.004284 0.048935 0.013650 -0.012654
# 5 -0.011165 -0.004352 -0.040698 0.013650 0.076868 -0.016174
# 6 0.011185 -0.003761 -0.004664 -0.012654 -0.016174 0.037712
#
#
# Mechanical properties :
#
#
# Convention : Reuss Voigt Hill
#
# Bulk Modulus (GPa) = 13.03112 41.84469 27.43791
# Shear Modulus (GPa) = 17.00372 31.37701 24.19036
#
# Velocity S-wave (km/s) = 2.75792 3.74642 3.28951
# Velocity P-wave (km/s) = 3.99633 6.11819 5.16734
#
# Compressibility (1/GPa) = 0.07673936
#
# Stress axis : x y z
#
# Youngs Moduli (GPa) = 54.79090 73.85304 16.93263
#
# Poissons Ratio (x) = 0.22842 0.14726
# Poissons Ratio (y) = 0.16946 -0.08018
# Poissons Ratio (z) = 0.47652 -0.34970
#
# Static dielectric constant tensor:
#      x y z
#    x 4.123070 -0.416970 0.246840 
#    y -0.416970 4.527860 0.185730 
#    z 0.246840 0.185730 3.793610 
# 
# 
# High freq. dielectric constant tensor:
#      x y z
#    x 1.870920 -0.014840 0.028900 
#    y -0.014840 1.891030 0.013900 
#    z 0.028900 0.013900 1.860610 
# 
# From -- ./inp_files/389117.got.cif
#   From: 2010.06.25/outbox.cif.g09.slc.cpg/sg2_195_cif.got.tgz:389117.got - 2010.06.27 13:26:56.
