data_PCOD8038024
_publ_section_title
;
Structure prediction by ZEFSAII (Michael W. Deem and Ramdas Pophale) SiO2 
 PCOD8038024
Probable space group: P -1
;
_chemical_formula_sum "Si O2"
_cell_formula_units_Z 16
_cell_length_a 15.282084
_cell_length_b 11.350221
_cell_length_c 14.986772
_cell_angle_alpha 46.649696
_cell_angle_beta 140.407450
_cell_angle_gamma 154.090240
_cell_volume 723.713769
_symmetry_space_group_name_H-M "P -1"
_symmetry_group_IT_number 2
_symmetry_cell_setting 'triclinic'
loop_
_space_group_symop_operation_xyz
x,y,z
-x,-y,-z
loop_
_atom_site_type_symbol
_atom_site_label
_atom_site_fract_x
_atom_site_fract_y
_atom_site_fract_z
Si Si1 0.636759 0.259505 0.415806
Si Si2 0.961937 0.298315 0.023389
Si Si3 0.600911 0.104375 0.736274
Si Si4 0.350764 0.154127 0.609989
Si Si5 0.294058 0.204501 0.188450
Si Si6 0.874571 0.630233 0.071970
Si Si7 0.233553 0.267370 0.301415
Si Si8 0.005492 0.576748 0.672430
O O1 0.539132 0.349202 0.306296
O O2 0.897782 0.505330 0.526481
O O3 0.500000 0.000000 0.500000
O O4 0.608820 0.178303 0.333625
O O5 0.025665 0.201917 0.183769
O O6 0.129814 0.436594 0.998644
O O7 0.000000 0.500000 0.000000
O O8 0.699849 0.063147 0.904797
O O9 0.514247 0.182551 0.674302
O O10 0.810412 0.362435 0.703769
O O11 0.217250 0.136497 0.442010
O O12 0.512916 0.411885 0.667946
O O13 0.160846 0.878831 0.661835
O O14 0.202393 0.137939 0.252416
O O15 0.307530 0.394161 0.051487
O O16 0.124501 0.931159 0.140806
O O17 0.827833 0.425736 0.201415
#
# Coordination Sequence:
#
# PCOD8038024 Si02
#       8
#     2   2   2   2   2   2   2   2
#     4  10  17  33  58  87 115 152 190 235 296 343
#     4  10  17  35  62  83 112 156 193 236 296 352
#     4  10  20  38  62  87 117 156 193 243 294 353
#     4  11  23  40  58  88 123 152 201 245 288 353
#     4  10  17  35  59  84 119 155 193 241 292 350
#     4   9  19  33  59  90 112 151 200 238 292 350
#     4  10  22  36  58  86 119 161 191 242 303 340
#     4  10  21  38  61  91 114 155 202 238 293 352
#
# _framework density 22.108188999999999
#
# number of rings (size 3 to 8) (size 9 to 14) (size 15 to 20)
#    0.000    2.000    5.000    1.500    0.000    0.500 
#    0.000   12.500    0.000    1.500    0.000    0.000 
#    0.000    0.000    0.000    0.000    0.000    0.000 
#
# Total GULP energy -198225.631413 kJ/mol
# GULP energy per Si atom -12389.101963 kJ/mol
# Density = 2.205787 g / cm^3
# Si number density = 22.108189 Si / 1000 Ang^3
#
#
#
# Elastic Constant Matrix: (Units=GPa)
#
#
# Indices 1 2 3 4 5 6 
#
# 1 71.3851 12.7369 21.6615 -3.5250 4.2123 -17.8516
# 2 12.7369 60.9034 23.4783 -7.7823 4.9719 -12.7050
# 3 21.6615 23.4783 175.6725 -7.0484 27.0964 -3.9560
# 4 -3.5250 -7.7823 -7.0484 23.6360 -14.4340 4.2904
# 5 4.2123 4.9719 27.0964 -14.4340 32.3479 4.8024
# 6 -17.8516 -12.7050 -3.9560 4.2904 4.8024 19.6743
#
#
#
# Elastic Compliance Matrix: (Units=1/GPa)
#
#
# Indices 1 2 3 4 5 6 
#
# 1 0.019636 0.000590 -0.001132 -0.005423 -0.007224 0.020916
# 2 0.000590 0.020359 -0.002014 0.002218 -0.002520 0.013409
# 3 -0.001132 -0.002014 0.007125 -0.003464 -0.007301 0.001642
# 4 -0.005423 0.002218 -0.003464 0.070217 0.038903 -0.028994
# 5 -0.007224 -0.002520 -0.007301 0.038903 0.060605 -0.032928
# 6 0.020916 0.013409 0.001642 -0.028994 -0.032928 0.093156
#
#
# Mechanical properties :
#
#
# Convention : Reuss Voigt Hill
#
# Bulk Modulus (GPa) = 23.80525 47.07938 35.44231
# Shear Modulus (GPa) = 17.22874 31.80393 24.51634
#
# Velocity S-wave (km/s) = 2.79461 3.79695 3.33367
# Velocity P-wave (km/s) = 4.60479 6.36896 5.55733
#
# Compressibility (1/GPa) = 0.04200754
#
# Stress axis : x y z
#
# Youngs Moduli (GPa) = 50.92698 49.11880 140.34407
#
# Poissons Ratio (x) = -0.02898 0.15892
# Poissons Ratio (y) = -0.03005 0.28266
# Poissons Ratio (z) = 0.05767 0.09893
#
# Static dielectric constant tensor:
#      x y z
#    x 3.787770 -0.474860 0.093620 
#    y -0.474860 3.609570 0.238110 
#    z 0.093620 0.238110 4.990510 
# 
# 
# High freq. dielectric constant tensor:
#      x y z
#    x 1.852290 -0.039530 0.011700 
#    y -0.039530 1.820660 0.010320 
#    z 0.011700 0.010320 1.907940 
# 
# From -- ./inp_files/422783.got.cif
#   From: 2010.06.25/outbox.cif.g09.slc.cpg/sg2_212_cif.got.tgz:422783.got - 2010.06.27 13:26:56.
