data_PCOD8038896
_publ_section_title
;
Structure prediction by ZEFSAII (Michael W. Deem and Ramdas Pophale) SiO2 
 PCOD8038896
Probable space group: P -1
;
_chemical_formula_sum "Si O2"
_cell_formula_units_Z 16
_cell_length_a 14.390975
_cell_length_b 9.277445
_cell_length_c 14.474872
_cell_angle_alpha 53.983577
_cell_angle_beta 121.943772
_cell_angle_gamma 152.757264
_cell_volume 715.445754
_symmetry_space_group_name_H-M "P -1"
_symmetry_group_IT_number 2
_symmetry_cell_setting 'triclinic'
loop_
_space_group_symop_operation_xyz
x,y,z
-x,-y,-z
loop_
_atom_site_type_symbol
_atom_site_label
_atom_site_fract_x
_atom_site_fract_y
_atom_site_fract_z
Si Si1 0.869270 0.710072 0.278746
Si Si2 0.476365 0.161595 0.970577
Si Si3 0.920893 0.790356 0.949890
Si Si4 0.534241 0.872738 0.629963
Si Si5 0.300367 0.878682 0.685645
Si Si6 0.657791 0.147411 0.794504
Si Si7 0.100046 0.654466 0.854275
Si Si8 0.826832 0.115186 0.553680
O O1 0.684149 0.518393 0.319090
O O2 0.789976 0.431391 0.283226
O O3 0.061590 0.921234 0.364567
O O4 0.940476 0.968751 0.154849
O O5 0.688761 0.545231 0.910382
O O6 0.276426 0.979807 0.889395
O O7 0.500000 0.000000 0.000000
O O8 0.452018 0.127039 0.082444
O O9 0.940440 0.605398 0.041498
O O10 0.000000 0.000000 0.000000
O O11 0.500000 0.000000 0.500000
O O12 0.642320 0.054614 0.716887
O O13 0.675838 0.928313 0.630918
O O14 0.167809 0.762904 0.743965
O O15 0.296654 0.032503 0.550755
O O16 0.537246 0.171095 0.727239
O O17 0.894245 0.488762 0.819545
O O18 0.000000 0.500000 0.500000
#
# Coordination Sequence:
#
# PCOD8038896 Si02
#       8
#     2   2   2   2   2   2   2   2
#     4  10  20  33  51  79 120 146 179 229 292 321
#     4  10  21  39  58  81 113 153 192 230 278 342
#     4  11  20  38  56  82 121 148 183 238 285 338
#     4  11  19  31  52  86 117 141 190 237 277 332
#     4  10  18  33  54  87 111 142 191 234 275 335
#     4  11  19  34  56  84 112 142 194 237 275 329
#     4  11  22  36  62  84 111 157 190 226 285 337
#     4  10  18  31  53  79 116 150 183 230 286 330
#
# _framework density 22.363679000000001
#
# number of rings (size 3 to 8) (size 9 to 14) (size 15 to 20)
#    0.000    1.500    7.500    2.625    0.000    0.000 
#    2.250    3.125    0.000    0.750    0.000    5.250 
#    0.000    0.000    0.000    0.000    0.000    0.000 
#
# Total GULP energy -198259.945209 kJ/mol
# GULP energy per Si atom -12391.246576 kJ/mol
# Density = 2.231278 g / cm^3
# Si number density = 22.363679 Si / 1000 Ang^3
#
#
#
# Elastic Constant Matrix: (Units=GPa)
#
#
# Indices 1 2 3 4 5 6 
#
# 1 39.9201 37.4764 27.5361 -4.7821 -6.8013 32.7030
# 2 37.4764 139.4830 54.6473 4.7813 1.1635 47.6205
# 3 27.5361 54.6473 137.4068 -5.1677 -23.1325 22.7058
# 4 -4.7821 4.7813 -5.1677 37.5126 18.3498 -1.2239
# 5 -6.8013 1.1635 -23.1325 18.3498 31.1634 -1.7244
# 6 32.7030 47.6205 22.7058 -1.2239 -1.7244 47.8097
#
#
#
# Elastic Compliance Matrix: (Units=1/GPa)
#
#
# Indices 1 2 3 4 5 6 
#
# 1 0.063350 -0.002378 -0.004079 0.003197 0.006862 -0.038698
# 2 -0.002378 0.012410 -0.003584 -0.000910 -0.003615 -0.009186
# 3 -0.004079 -0.003584 0.010666 -0.002933 0.008973 0.001543
# 4 0.003197 -0.000910 -0.002933 0.038605 -0.024164 0.000229
# 5 0.006862 -0.003615 0.008973 -0.024164 0.054389 -0.004012
# 6 -0.038698 -0.009186 0.001543 0.000229 -0.004012 0.055664
#
#
# Mechanical properties :
#
#
# Convention : Reuss Voigt Hill
#
# Bulk Modulus (GPa) = 15.07313 61.79217 38.43265
# Shear Modulus (GPa) = 18.03235 36.44049 27.23642
#
# Velocity S-wave (km/s) = 2.84266 4.04102 3.49361
# Velocity P-wave (km/s) = 4.18676 7.03305 5.78760
#
# Compressibility (1/GPa) = 0.06634323
#
# Stress axis : x y z
#
# Youngs Moduli (GPa) = 15.78539 80.58195 93.75797
#
# Poissons Ratio (x) = 0.19161 0.38247
# Poissons Ratio (y) = 0.03753 0.33601
# Poissons Ratio (z) = 0.06439 0.28879
#
# Static dielectric constant tensor:
#      x y z
#    x 3.630550 0.861730 -0.442060 
#    y 0.861730 4.365840 0.750430 
#    z -0.442060 0.750430 3.551990 
# 
# 
# High freq. dielectric constant tensor:
#      x y z
#    x 1.843570 0.051080 -0.017760 
#    y 0.051080 1.873190 0.014810 
#    z -0.017760 0.014810 1.897280 
# 
# From -- ./inp_files/538246.got.cif
#   From: 2010.06.25/outbox.cif.g09.slc.cpg/sg2_270_cif.got.tgz:538246.got - 2010.06.27 13:26:56.
