data_PCOD8038082
_publ_section_title
;
Structure prediction by ZEFSAII (Michael W. Deem and Ramdas Pophale) SiO2 
 PCOD8038082
Probable space group: P -1
;
_chemical_formula_sum "Si O2"
_cell_formula_units_Z 16
_cell_length_a 11.458067
_cell_length_b 9.094760
_cell_length_c 13.045556
_cell_angle_alpha 121.625095
_cell_angle_beta 87.248503
_cell_angle_gamma 51.863440
_cell_volume 757.281310
_symmetry_space_group_name_H-M "P -1"
_symmetry_group_IT_number 2
_symmetry_cell_setting 'triclinic'
loop_
_space_group_symop_operation_xyz
x,y,z
-x,-y,-z
loop_
_atom_site_type_symbol
_atom_site_label
_atom_site_fract_x
_atom_site_fract_y
_atom_site_fract_z
Si Si1 0.160442 0.187002 0.600223
Si Si2 0.673818 0.093489 0.909214
Si Si3 0.281154 0.217042 0.795800
Si Si4 0.646879 0.496869 0.074700
Si Si5 0.431788 0.856074 0.841226
Si Si6 0.500945 0.604460 0.341854
Si Si7 0.207796 0.391784 0.323701
Si Si8 0.337069 0.284406 0.494505
O O1 0.139433 0.277552 0.751543
O O2 0.236444 0.257908 0.556355
O O3 0.969413 0.337212 0.622803
O O4 0.295530 0.875742 0.475968
O O5 0.479966 0.315644 0.946669
O O6 0.798535 0.812452 0.745372
O O7 0.756628 0.196226 0.937402
O O8 0.657674 0.049556 0.010370
O O9 0.222948 0.483363 0.909690
O O10 0.294016 0.107209 0.863734
O O11 0.472799 0.005936 0.653246
O O12 0.528046 0.595203 0.216148
O O13 0.464992 0.629168 0.710375
O O14 0.619892 0.746268 0.800114
O O15 0.637273 0.570960 0.388089
O O16 0.220212 0.454827 0.460759
#
# Coordination Sequence:
#
# PCOD8038082 Si02
#       8
#     2   2   2   2   2   2   2   2
#     4  11  20  33  56  81 118 138 171 227 270 332
#     4  10  20  35  57  80 108 139 188 227 257 311
#     4  10  18  34  57  84 101 143 186 214 273 310
#     4  10  17  33  62  83  98 135 194 227 250 310
#     4  10  22  36  58  78 109 145 182 228 255 321
#     4  10  19  36  59  85 103 140 187 217 270 310
#     4  11  22  34  51  87 113 144 171 215 292 313
#     4  10  18  34  58  79 108 139 182 224 257 323
#
# _framework density 21.128211
#
# number of rings (size 3 to 8) (size 9 to 14) (size 15 to 20)
#    0.000    1.750    5.000    1.500    0.000    5.000 
#    0.000    1.250    0.000    0.000    0.000    0.000 
#    0.000    0.000    0.000    0.000    0.000    0.000 
#
# Total GULP energy -198379.179111 kJ/mol
# GULP energy per Si atom -12398.698694 kJ/mol
# Density = 2.108012 g / cm^3
# Si number density = 21.128211 Si / 1000 Ang^3
#
#
#
# Elastic Constant Matrix: (Units=GPa)
#
#
# Indices 1 2 3 4 5 6 
#
# 1 53.8217 33.6038 17.3235 0.5883 22.9510 -1.7187
# 2 33.6038 85.4303 16.8864 -19.0538 2.3209 -6.2929
# 3 17.3235 16.8864 40.2155 -5.8925 18.7123 -1.4210
# 4 0.5883 -19.0538 -5.8925 30.6785 6.4214 11.5828
# 5 22.9510 2.3209 18.7123 6.4214 27.8713 1.5256
# 6 -1.7187 -6.2929 -1.4210 11.5828 1.5256 40.8366
#
#
#
# Elastic Compliance Matrix: (Units=1/GPa)
#
#
# Indices 1 2 3 4 5 6 
#
# 1 0.044643 -0.018390 0.005864 -0.003778 -0.038393 0.001755
# 2 -0.018390 0.022047 -0.007498 0.009580 0.016187 -0.000959
# 3 0.005864 -0.007498 0.044176 0.011881 -0.036525 -0.001377
# 4 -0.003778 0.009580 0.011881 0.048624 -0.016239 -0.011454
# 5 -0.038393 0.016187 -0.036525 -0.016239 0.094373 0.000688
# 6 0.001755 -0.000959 -0.001377 -0.011454 0.000688 0.027589
#
#
# Mechanical properties :
#
#
# Convention : Reuss Voigt Hill
#
# Bulk Modulus (GPa) = 14.12049 35.01056 24.56553
# Shear Modulus (GPa) = 14.48832 27.32086 20.90459
#
# Velocity S-wave (km/s) = 2.62149 3.59987 3.14891
# Velocity P-wave (km/s) = 3.98255 5.82110 4.98728
#
# Compressibility (1/GPa) = 0.07081905
#
# Stress axis : x y z
#
# Youngs Moduli (GPa) = 22.39972 45.35722 22.63694
#
# Poissons Ratio (x) = 0.83410 -0.13274
# Poissons Ratio (y) = 0.41192 0.16973
# Poissons Ratio (z) = -0.13135 0.34008
#
# Static dielectric constant tensor:
#      x y z
#    x 3.780620 0.103540 0.564240 
#    y 0.103540 3.901620 -0.167770 
#    z 0.564240 -0.167770 3.824170 
# 
# 
# High freq. dielectric constant tensor:
#      x y z
#    x 1.807220 0.012580 0.039210 
#    y 0.012580 1.827720 -0.022720 
#    z 0.039210 -0.022720 1.815170 
# 
# From -- ./inp_files/201480.got.cif
#   From: 2010.06.25/outbox.cif.g09.slc.cpg/sg2_101_cif.got.tgz:201480.got - 2010.06.27 13:26:56.
