data_PCOD8038419
_publ_section_title
;
Structure prediction by ZEFSAII (Michael W. Deem and Ramdas Pophale) SiO2 
 PCOD8038419
Probable space group: P -1
;
_chemical_formula_sum "Si O2"
_cell_formula_units_Z 16
_cell_length_a 18.824642
_cell_length_b 12.608968
_cell_length_c 8.790416
_cell_angle_alpha 57.788115
_cell_angle_beta 65.739654
_cell_angle_gamma 27.872831
_cell_volume 815.660322
_symmetry_space_group_name_H-M "P -1"
_symmetry_group_IT_number 2
_symmetry_cell_setting 'triclinic'
loop_
_space_group_symop_operation_xyz
x,y,z
-x,-y,-z
loop_
_atom_site_type_symbol
_atom_site_label
_atom_site_fract_x
_atom_site_fract_y
_atom_site_fract_z
Si Si1 0.741902 0.731247 0.445208
Si Si2 0.811408 0.272649 0.099835
Si Si3 0.529996 0.818492 0.463256
Si Si4 0.218436 0.070090 0.870539
Si Si5 0.380560 0.487448 0.633835
Si Si6 0.025360 0.762172 0.211888
Si Si7 0.360523 0.730312 0.242977
Si Si8 0.436330 0.436187 0.149427
O O1 0.620099 0.825343 0.374928
O O2 0.823293 0.725473 0.273472
O O3 0.878681 0.452957 0.590987
O O4 0.648621 0.913147 0.536345
O O5 0.753695 0.376298 0.242939
O O6 0.867785 0.328551 0.945430
O O7 0.675334 0.402576 0.019395
O O8 0.950648 0.980299 0.204718
O O9 0.540198 0.738059 0.351462
O O10 0.617618 0.606918 0.667888
O O11 0.103988 0.144463 0.819094
O O12 0.389875 0.828721 0.841926
O O13 0.223732 0.012707 0.086492
O O14 0.303755 0.697665 0.428320
O O15 0.512370 0.366122 0.710948
O O16 0.428980 0.575315 0.145344
#
# Coordination Sequence:
#
# PCOD8038419 Si02
#       8
#     2   2   2   2   2   2   2   2
#     4  10  21  39  61  85 117 162 207 235 285 359
#     4  11  21  37  63  93 115 154 193 254 296 348
#     4   9  20  38  63  88 113 155 202 255 282 341
#     4  11  20  34  61  86 119 158 196 244 284 349
#     4  10  21  35  61  94 123 144 194 259 301 336
#     4  11  23  37  60  92 122 152 201 242 295 358
#     4  10  19  34  57  94 120 144 194 248 299 344
#     4  10  17  35  65  87 112 151 208 243 288 339
#
# _framework density 19.616008000000001
#
# number of rings (size 3 to 8) (size 9 to 14) (size 15 to 20)
#    0.000    1.750    3.750    1.500    0.000    1.000 
#    0.000    5.000    0.000    2.250    0.000    0.000 
#    0.000    0.000    0.000    0.000    0.000    0.000 
#
# Total GULP energy -198320.489629 kJ/mol
# GULP energy per Si atom -12395.030602 kJ/mol
# Density = 1.957136 g / cm^3
# Si number density = 19.616008 Si / 1000 Ang^3
#
#
#
# Elastic Constant Matrix: (Units=GPa)
#
#
# Indices 1 2 3 4 5 6 
#
# 1 71.3695 23.1005 19.5457 1.2225 -14.8143 10.6478
# 2 23.1005 66.9827 32.0022 1.4258 6.6333 6.1274
# 3 19.5457 32.0022 79.5240 -16.0951 -3.9044 12.7116
# 4 1.2225 1.4258 -16.0951 34.1101 3.7855 4.8474
# 5 -14.8143 6.6333 -3.9044 3.7855 29.4609 0.7623
# 6 10.6478 6.1274 12.7116 4.8474 0.7623 26.1517
#
#
#
# Elastic Compliance Matrix: (Units=1/GPa)
#
#
# Indices 1 2 3 4 5 6 
#
# 1 0.019909 -0.007113 -0.000690 -0.001170 0.011833 -0.006232
# 2 -0.007113 0.022493 -0.009166 -0.004421 -0.009370 0.003174
# 3 -0.000690 -0.009166 0.020357 0.011018 0.003247 -0.009603
# 4 -0.001170 -0.004421 0.011018 0.036523 -0.002553 -0.010539
# 5 0.011833 -0.009370 0.003247 -0.002553 0.042890 -0.004978
# 6 -0.006232 0.003174 -0.009603 -0.010539 -0.004978 0.046799
#
#
# Mechanical properties :
#
#
# Convention : Reuss Voigt Hill
#
# Bulk Modulus (GPa) = 34.69660 40.79700 37.74680
# Shear Modulus (GPa) = 21.50382 27.49307 24.49845
#
# Velocity S-wave (km/s) = 3.31454 3.74781 3.53781
# Velocity P-wave (km/s) = 5.68986 6.29055 5.99773
#
# Compressibility (1/GPa) = 0.02882127
#
# Stress axis : x y z
#
# Youngs Moduli (GPa) = 50.22879 44.45824 49.12204
#
# Poissons Ratio (x) = 0.31623 0.03392
# Poissons Ratio (y) = 0.35728 0.45023
# Poissons Ratio (z) = 0.03468 0.40749
#
# Static dielectric constant tensor:
#      x y z
#    x 3.658790 0.005460 -0.393730 
#    y 0.005460 3.441130 -0.043940 
#    z -0.393730 -0.043940 4.148620 
# 
# 
# High freq. dielectric constant tensor:
#      x y z
#    x 1.768180 -0.004450 -0.019380 
#    y -0.004450 1.731880 -0.009330 
#    z -0.019380 -0.009330 1.773330 
# 
# From -- ./inp_files/201445.got.cif
#   From: 2010.06.25/outbox.cif.g09.slc.cpg/sg2_101_cif.got.tgz:201445.got - 2010.06.27 13:26:56.
