data_PCOD8038907
_publ_section_title
;
Structure prediction by ZEFSAII (Michael W. Deem and Ramdas Pophale) SiO2 
 PCOD8038907
Probable space group: P -1
;
_chemical_formula_sum "Si O2"
_cell_formula_units_Z 16
_cell_length_a 9.479596
_cell_length_b 14.309716
_cell_length_c 18.186661
_cell_angle_alpha 39.454438
_cell_angle_beta 149.670788
_cell_angle_gamma 135.191210
_cell_volume 784.499394
_symmetry_space_group_name_H-M "P -1"
_symmetry_group_IT_number 2
_symmetry_cell_setting 'triclinic'
loop_
_space_group_symop_operation_xyz
x,y,z
-x,-y,-z
loop_
_atom_site_type_symbol
_atom_site_label
_atom_site_fract_x
_atom_site_fract_y
_atom_site_fract_z
Si Si1 0.756511 0.097489 0.924557
Si Si2 0.371652 0.762974 0.595929
Si Si3 0.429758 0.712685 0.386222
Si Si4 0.845934 0.986388 0.736418
Si Si5 0.167295 0.390716 0.485402
Si Si6 0.757379 0.140057 0.123361
Si Si7 0.740691 0.678498 0.690258
Si Si8 0.370885 0.650796 0.178679
O O1 0.750035 0.157109 0.801195
O O2 0.760580 0.245745 0.885295
O O3 0.482784 0.977135 0.880114
O O4 0.032588 0.023944 0.119026
O O5 0.555846 0.877122 0.663732
O O6 0.572665 0.666806 0.699512
O O7 0.162766 0.661263 0.618164
O O8 0.207091 0.848507 0.409043
O O9 0.214681 0.561012 0.377955
O O10 0.698497 0.706758 0.456533
O O11 0.553507 0.745948 0.502849
O O12 0.087895 0.946661 0.815044
O O13 0.314806 0.372280 0.641788
O O14 0.971736 0.208260 0.241756
O O15 0.621737 0.275598 0.942942
O O16 0.811085 0.513633 0.803100
#
# Coordination Sequence:
#
# PCOD8038907 Si02
#       8
#     2   2   2   2   2   2   2   2
#     4  10  18  33  55  74 101 142 179 208 245 308
#     4  10  19  33  54  78 106 133 170 215 263 307
#     4   9  19  33  51  75 104 135 175 211 248 303
#     4   9  18  32  52  77 102 137 177 212 250 308
#     4   9  17  33  54  74 100 141 175 205 249 310
#     4  10  18  31  54  80 104 133 174 218 257 296
#     4  10  21  33  51  83 111 130 161 221 270 298
#     4   9  17  31  53  78 102 128 173 222 253 288
#
# _framework density 20.395173
#
# number of rings (size 3 to 8) (size 9 to 14) (size 15 to 20)
#    0.000    2.500    0.000    4.875    0.000    2.500 
#    0.000    1.250    0.000    1.500    0.000    0.000 
#    0.000    0.000    0.000    0.000    0.000    0.000 
#
# Total GULP energy -198300.411834 kJ/mol
# GULP energy per Si atom -12393.775740 kJ/mol
# Density = 2.034875 g / cm^3
# Si number density = 20.395173 Si / 1000 Ang^3
#
#
#
# Elastic Constant Matrix: (Units=GPa)
#
#
# Indices 1 2 3 4 5 6 
#
# 1 49.5795 32.6814 13.3649 9.8873 -6.6095 12.7209
# 2 32.6814 93.7410 35.9262 5.3262 -1.7835 9.5084
# 3 13.3649 35.9262 82.5270 -6.2334 -15.3894 20.0491
# 4 9.8873 5.3262 -6.2334 26.9618 6.0070 0.8664
# 5 -6.6095 -1.7835 -15.3894 6.0070 26.0031 -0.5581
# 6 12.7209 9.5084 20.0491 0.8664 -0.5581 26.6107
#
#
#
# Elastic Compliance Matrix: (Units=1/GPa)
#
#
# Indices 1 2 3 4 5 6 
#
# 1 0.034340 -0.011274 0.004584 -0.011726 0.013051 -0.015186
# 2 -0.011274 0.017013 -0.008024 0.000171 -0.006375 0.005216
# 3 0.004584 -0.008024 0.020944 0.002529 0.012105 -0.014932
# 4 -0.011726 0.000171 0.002529 0.044486 -0.011707 0.001945
# 5 0.013051 -0.006375 0.012105 -0.011707 0.050956 -0.011631
# 6 -0.015186 0.005216 -0.014932 0.001945 -0.011631 0.053917
#
#
# Mechanical properties :
#
#
# Convention : Reuss Voigt Hill
#
# Bulk Modulus (GPa) = 23.32663 43.31028 33.31845
# Shear Modulus (GPa) = 18.84136 25.50679 22.17407
#
# Velocity S-wave (km/s) = 3.04273 3.54026 3.30088
# Velocity P-wave (km/s) = 4.87918 6.16384 5.55875
#
# Compressibility (1/GPa) = 0.04286946
#
# Stress axis : x y z
#
# Youngs Moduli (GPa) = 29.12060 58.77812 47.74683
#
# Poissons Ratio (x) = 0.66267 -0.21887
# Poissons Ratio (y) = 0.32831 0.38310
# Poissons Ratio (z) = -0.13348 0.47161
#
# Static dielectric constant tensor:
#      x y z
#    x 3.302520 -0.020820 -0.285750 
#    y -0.020820 3.686520 -0.057430 
#    z -0.285750 -0.057430 4.123910 
# 
# 
# High freq. dielectric constant tensor:
#      x y z
#    x 1.750100 -0.000360 -0.017490 
#    y -0.000360 1.799320 -0.003270 
#    z -0.017490 -0.003270 1.801250 
# 
# From -- ./inp_files/258938.got.cif
#   From: 2010.06.25/outbox.cif.g09.slc.cpg/sg2_130_cif.got.tgz:258938.got - 2010.06.27 13:26:56.
