data_PCOD8038592
_publ_section_title
;
Structure prediction by ZEFSAII (Michael W. Deem and Ramdas Pophale) SiO2 
 PCOD8038592
Probable space group: P -1
;
_chemical_formula_sum "Si O2"
_cell_formula_units_Z 16
_cell_length_a 22.698929
_cell_length_b 20.374621
_cell_length_c 9.101833
_cell_angle_alpha 150.971937
_cell_angle_beta 138.161344
_cell_angle_gamma 23.537179
_cell_volume 780.109112
_symmetry_space_group_name_H-M "P -1"
_symmetry_group_IT_number 2
_symmetry_cell_setting 'triclinic'
loop_
_space_group_symop_operation_xyz
x,y,z
-x,-y,-z
loop_
_atom_site_type_symbol
_atom_site_label
_atom_site_fract_x
_atom_site_fract_y
_atom_site_fract_z
Si Si1 0.576779 0.136622 0.602664
Si Si2 0.053598 0.965545 0.694292
Si Si3 0.405498 0.613516 0.695297
Si Si4 0.616792 0.849759 0.789819
Si Si5 0.391478 0.834140 0.606649
Si Si6 0.096747 0.391523 0.817370
Si Si7 0.051359 0.158886 0.572423
Si Si8 0.946181 0.331048 0.393285
O O1 0.445296 0.192213 0.516831
O O2 0.543460 0.243460 0.590260
O O3 0.724236 0.854645 0.304747
O O4 0.592917 0.236573 0.944068
O O5 0.231030 0.787493 0.680897
O O6 0.022190 0.881415 0.577500
O O7 0.000000 0.000000 0.500000
O O8 0.940952 0.223951 0.050291
O O9 0.500000 0.500000 0.500000
O O10 0.483197 0.406640 0.540979
O O11 0.779959 0.591432 0.646062
O O12 0.500000 0.000000 0.000000
O O13 0.627914 0.988221 0.014750
O O14 0.228732 0.959636 0.557423
O O15 0.035951 0.344852 0.511416
O O16 0.000000 0.500000 0.000000
O O17 0.056142 0.588437 0.061806
O O18 0.040816 0.162119 0.382148
#
# Coordination Sequence:
#
# PCOD8038592 Si02
#       8
#     2   2   2   2   2   2   2   2
#     4  11  22  40  68  98 129 165 207 257 322 376
#     4  12  28  45  63  90 126 175 220 257 309 374
#     4  12  28  46  62  87 132 175 212 261 313 375
#     4  10  22  36  65 105 132 159 200 264 322 376
#     4  11  21  41  66 100 129 159 205 265 323 375
#     4  10  17  38  66  98 128 156 198 266 319 373
#     4  11  21  39  70  98 127 160 206 267 318 374
#     4  11  21  41  69  96 130 163 213 258 314 375
#
# _framework density 20.509951999999998
#
# number of rings (size 3 to 8) (size 9 to 14) (size 15 to 20)
#    0.000    1.000    5.000    3.750    8.750    0.000 
#    0.000    2.500    0.000    0.000    0.000    0.000 
#    0.000    0.000    0.000    0.000    0.000    0.000 
#
# Total GULP energy -198287.104631 kJ/mol
# GULP energy per Si atom -12392.944039 kJ/mol
# Density = 2.046327 g / cm^3
# Si number density = 20.509952 Si / 1000 Ang^3
#
#
#
# Elastic Constant Matrix: (Units=GPa)
#
#
# Indices 1 2 3 4 5 6 
#
# 1 33.4356 17.0071 43.9918 -12.2521 -1.3117 -23.2544
# 2 17.0071 122.6042 47.3618 -2.3664 0.4638 -14.5252
# 3 43.9918 47.3618 136.7390 -12.1226 14.0776 4.8578
# 4 -12.2521 -2.3664 -12.1226 41.4556 -8.1333 5.8058
# 5 -1.3117 0.4638 14.0776 -8.1333 27.3432 -9.2175
# 6 -23.2544 -14.5252 4.8578 5.8058 -9.2175 30.3902
#
#
#
# Elastic Compliance Matrix: (Units=1/GPa)
#
#
# Indices 1 2 3 4 5 6 
#
# 1 -0.073778 -0.013362 0.035760 -0.010914 -0.052773 -0.082478
# 2 -0.013362 0.008311 0.001973 -0.002855 -0.005210 -0.007602
# 3 0.035760 0.001973 -0.007379 0.007537 0.019134 0.033849
# 4 -0.010914 -0.002855 0.007537 0.024740 -0.002530 -0.016414
# 5 -0.052773 -0.005210 0.019134 -0.002530 0.009140 -0.042675
# 6 -0.082478 -0.007602 0.033849 -0.016414 -0.042675 -0.049059
#
#
# Mechanical properties :
#
#
# Convention : Reuss Voigt Hill
#
# Bulk Modulus (GPa) = -41.48766 56.61114 7.56174
# Shear Modulus (GPa) = -34.53012 32.13234 -1.19889
#
# Velocity S-wave (km/s) = -4.10760 3.96241 -0.76538
# Velocity P-wave (km/s) = 6.53976 6.97108 1.70698
#
# Compressibility (1/GPa) = -0.02410355
#
# Stress axis : x y z
#
# Youngs Moduli (GPa) = -13.55420 120.31558 -135.51616
#
# Poissons Ratio (x) = 1.60768 4.84603
# Poissons Ratio (y) = -0.18111 0.26743
# Poissons Ratio (z) = 0.48470 -0.23743
#
# Static dielectric constant tensor:
#      x y z
#    x 3.773330 -0.321270 0.618470 
#    y -0.321270 3.908830 -0.338690 
#    z 0.618470 -0.338690 3.363900 
# 
# 
# High freq. dielectric constant tensor:
#      x y z
#    x 1.771020 -0.028090 0.029840 
#    y -0.028090 1.812410 0.001810 
#    z 0.029840 0.001810 1.818730 
# 
# From -- ./inp_files/355326.got.cif
#   From: 2010.06.25/outbox.cif.g09.slc.cpg/sg2_178_cif.got.tgz:355326.got - 2010.06.27 13:26:56.
