data_PCOD8038198
_publ_section_title
;
Structure prediction by ZEFSAII (Michael W. Deem and Ramdas Pophale) SiO2 
 PCOD8038198
Probable space group: P -1
;
_chemical_formula_sum "Si O2"
_cell_formula_units_Z 16
_cell_length_a 15.000000
_cell_length_b 15.000000
_cell_length_c 12.000000
_cell_angle_alpha 140.000000
_cell_angle_beta 120.000000
_cell_angle_gamma 30.000000
_cell_volume 747.221570
_symmetry_space_group_name_H-M "P -1"
_symmetry_group_IT_number 2
_symmetry_cell_setting 'triclinic'
loop_
_space_group_symop_operation_xyz
x,y,z
-x,-y,-z
loop_
_atom_site_type_symbol
_atom_site_label
_atom_site_fract_x
_atom_site_fract_y
_atom_site_fract_z
Si Si1 0.574340 0.828170 0.778060
Si Si2 0.796578 0.288189 0.956773
Si Si3 0.865604 0.906210 0.937638
Si Si4 0.018589 0.448866 0.659877
Si Si5 0.615006 0.222733 0.309926
Si Si6 0.680468 0.124778 0.799722
Si Si7 0.821220 0.632761 0.081398
Si Si8 0.977972 0.158917 0.715525
O O1 0.552759 0.692305 0.669895
O O2 0.812941 0.591821 0.679341
O O3 0.413635 0.041610 0.779352
O O4 0.500000 0.000000 0.000000
O O5 0.781631 0.141595 0.823728
O O6 0.908072 0.175378 0.802197
O O7 0.561259 0.620368 0.134513
O O8 0.951802 0.190130 0.043121
O O9 0.969361 0.634237 0.724820
O O10 0.707562 0.117342 0.940888
O O11 0.718989 0.066242 0.107011
O O12 0.113518 0.412305 0.793991
O O13 0.199164 0.148377 0.431428
O O14 0.500000 0.500000 0.500000
O O15 0.801971 0.019436 0.319091
O O16 0.818983 0.471141 0.889327
O O17 0.000000 0.500000 0.000000
O O18 0.000000 0.000000 0.500000
#
# Coordination Sequence:
#
# PCOD8038198 Si02
#       8
#     2   2   2   2   2   2   2   2
#     4  12  24  42  70 102 139 179 214 276 351 402
#     4  10  25  48  65  98 138 174 231 285 331 401
#     4  11  23  48  67  98 135 175 233 284 332 404
#     4  12  26  44  70 103 135 177 233 275 342 410
#     4  11  25  42  66 107 139 170 224 277 344 416
#     4  11  27  45  71  93 132 189 231 277 338 403
#     4  12  23  45  66 101 146 169 218 287 332 413
#     4  11  25  42  71 102 134 180 219 276 353 403
#
# _framework density 21.412658
#
# number of rings (size 3 to 8) (size 9 to 14) (size 15 to 20)
#    0.000    0.750    6.250    0.750   10.500    1.500 
#    2.250    0.000    0.000    0.000    0.000    0.000 
#    0.000    0.000    0.000    0.000    0.000    0.000 
#
# Total GULP energy -198254.184937 kJ/mol
# GULP energy per Si atom -12390.886559 kJ/mol
# Density = 2.136392 g / cm^3
# Si number density = 21.412658 Si / 1000 Ang^3
#
#
#
# Elastic Constant Matrix: (Units=GPa)
#
#
# Indices 1 2 3 4 5 6 
#
# 1 88.2749 17.6915 15.2547 -4.4587 23.6864 -17.9908
# 2 17.6915 72.6832 20.9195 3.1724 3.3066 -4.2034
# 3 15.2547 20.9195 105.3911 5.6287 25.2024 -5.4819
# 4 -4.4587 3.1724 5.6287 31.6423 -1.2600 3.9846
# 5 23.6864 3.3066 25.2024 -1.2600 34.3352 5.6760
# 6 -17.9908 -4.2034 -5.4819 3.9846 5.6760 34.1289
#
#
#
# Elastic Compliance Matrix: (Units=1/GPa)
#
#
# Indices 1 2 3 4 5 6 
#
# 1 0.018611 -0.003832 0.002632 0.000314 -0.016450 0.012460
# 2 -0.003832 0.015489 -0.003430 -0.001185 0.003818 -0.001160
# 3 0.002632 -0.003430 0.013113 -0.002781 -0.012107 0.005410
# 4 0.000314 -0.001185 -0.002781 0.033042 0.003969 -0.004945
# 5 -0.016450 0.003818 -0.012107 0.003969 0.052330 -0.019312
# 6 0.012460 -0.001160 0.005410 -0.004945 -0.019312 0.040384
#
#
# Mechanical properties :
#
#
# Convention : Reuss Voigt Hill
#
# Bulk Modulus (GPa) = 26.34832 41.56452 33.95642
# Shear Modulus (GPa) = 25.65669 34.18684 29.92177
#
# Velocity S-wave (km/s) = 3.46526 4.00005 3.74222
# Velocity P-wave (km/s) = 5.32376 6.38648 5.87918
#
# Compressibility (1/GPa) = 0.03795308
#
# Stress axis : x y z
#
# Youngs Moduli (GPa) = 53.73237 64.56094 76.25764
#
# Poissons Ratio (x) = 0.24741 -0.20070
# Poissons Ratio (y) = 0.20592 0.26155
# Poissons Ratio (z) = -0.14142 0.22144
#
# Static dielectric constant tensor:
#      x y z
#    x 7.295460 -2.799390 0.347140 
#    y -2.799390 6.681810 0.025560 
#    z 0.347140 0.025560 3.979660 
# 
# 
# High freq. dielectric constant tensor:
#      x y z
#    x 1.858660 -0.016710 0.016310 
#    y -0.016710 1.855480 0.006690 
#    z 0.016310 0.006690 1.839220 
# 
# From -- ./inp_files/333294.got.cif
#   From: 2010.06.25/outbox.ucp.g09.slc.cvg/sg2_167_cif.got.tgz:333294.got - 2010.06.28 11:54:26.
