data_PCOD8038396
_publ_section_title
;
Structure prediction by ZEFSAII (Michael W. Deem and Ramdas Pophale) SiO2 
 PCOD8038396
Probable space group: P -1
;
_chemical_formula_sum "Si O2"
_cell_formula_units_Z 14
_cell_length_a 9.346715
_cell_length_b 10.920178
_cell_length_c 22.714272
_cell_angle_alpha 24.705212
_cell_angle_beta 45.631536
_cell_angle_gamma 57.781440
_cell_volume 650.964241
_symmetry_space_group_name_H-M "P -1"
_symmetry_group_IT_number 2
_symmetry_cell_setting 'triclinic'
loop_
_space_group_symop_operation_xyz
x,y,z
-x,-y,-z
loop_
_atom_site_type_symbol
_atom_site_label
_atom_site_fract_x
_atom_site_fract_y
_atom_site_fract_z
Si Si1 0.547844 0.456527 0.938114
Si Si2 0.733458 0.607670 0.228184
Si Si3 0.846350 0.414221 0.026070
Si Si4 0.998043 0.790654 0.700556
Si Si5 0.999261 0.451972 0.427503
Si Si6 0.049538 0.086747 0.851409
Si Si7 0.341872 0.743655 0.294729
O O1 0.391811 0.590246 0.886162
O O2 0.800458 0.642847 0.776126
O O3 0.500000 0.500000 0.000000
O O4 0.502111 0.097944 0.091195
O O5 0.803955 0.795975 0.185793
O O6 0.477586 0.516901 0.340713
O O7 0.803453 0.303581 0.338313
O O8 0.829703 0.825889 0.048857
O O9 0.827346 0.071851 0.158589
O O10 0.936146 0.673958 0.836044
O O11 0.000000 0.500000 0.000000
O O12 0.073359 0.162807 0.515881
O O13 0.162597 0.692504 0.319236
O O14 0.994424 0.629278 0.291384
O O15 0.766269 0.328821 0.578306
#
# Coordination Sequence:
#
# PCOD8038396 Si02
#       7
#     2   2   2   2   2   2   2
#     4  10  17  35  62  86 115 170 202 241 294 378
#     4  10  22  43  62  86 126 172 206 249 304 389
#     4  10  19  34  60  93 122 161 208 253 296 375
#     4  10  22  41  64  87 127 165 208 253 311 367
#     4  11  24  39  63  96 127 158 205 269 310 359
#     4  10  22  39  64  90 125 162 211 255 308 367
#     4  11  22  39  65  92 128 162 204 258 319 361
#
# _framework density 21.506557999999998
#
# number of rings (size 3 to 8) (size 9 to 14) (size 15 to 20)
#    0.000    1.714    2.857    4.286    2.000    2.286 
#    0.000    2.857    0.000    0.000    0.000    0.000 
#    0.000    0.000    0.000    0.000    0.000    0.000 
#
# Total GULP energy -173600.180089 kJ/mol
# GULP energy per Si atom -12400.012863 kJ/mol
# Density = 2.145761 g / cm^3
# Si number density = 21.506558 Si / 1000 Ang^3
#
#
#
# Elastic Constant Matrix: (Units=GPa)
#
#
# Indices 1 2 3 4 5 6 
#
# 1 108.1545 35.9700 24.9962 -2.3401 8.9826 -12.4062
# 2 35.9700 118.9753 31.2461 -17.1157 5.4447 -27.9506
# 3 24.9962 31.2461 73.1237 -28.3059 15.2739 1.1028
# 4 -2.3401 -17.1157 -28.3059 29.8650 -5.7370 -1.3166
# 5 8.9826 5.4447 15.2739 -5.7370 26.5170 -5.6727
# 6 -12.4062 -27.9506 1.1028 -1.3166 -5.6727 37.5857
#
#
#
# Elastic Compliance Matrix: (Units=1/GPa)
#
#
# Indices 1 2 3 4 5 6 
#
# 1 0.011308 -0.002535 -0.004416 -0.004972 -0.001505 0.001575
# 2 -0.002535 0.012908 -0.003632 0.004829 0.003388 0.009550
# 3 -0.004416 -0.003632 0.027062 0.021045 -0.010018 -0.005727
# 4 -0.004972 0.004829 0.021045 0.056251 0.001496 0.003529
# 5 -0.001505 0.003388 -0.010018 0.001496 0.045599 0.009251
# 6 0.001575 0.009550 -0.005727 0.003529 0.009251 0.035915
#
#
# Mechanical properties :
#
#
# Convention : Reuss Voigt Hill
#
# Bulk Modulus (GPa) = 33.20863 53.85313 43.53088
# Shear Modulus (GPa) = 22.70162 32.66296 27.68229
#
# Velocity S-wave (km/s) = 3.25247 3.90134 3.59159
# Velocity P-wave (km/s) = 5.43870 6.73710 6.12242
#
# Compressibility (1/GPa) = 0.03011265
#
# Stress axis : x y z
#
# Youngs Moduli (GPa) = 88.43295 77.46858 36.95152
#
# Poissons Ratio (x) = 0.19640 0.16319
# Poissons Ratio (y) = 0.22420 0.13419
# Poissons Ratio (z) = 0.39055 0.28134
#
# Static dielectric constant tensor:
#      x y z
#    x 4.071660 -0.304290 -0.073090 
#    y -0.304290 4.071310 -0.079920 
#    z -0.073090 -0.079920 3.593640 
# 
# 
# High freq. dielectric constant tensor:
#      x y z
#    x 1.845240 -0.012490 -0.002320 
#    y -0.012490 1.851530 -0.020780 
#    z -0.002320 -0.020780 1.810550 
# 
# From -- ./inp_files/319774.got.cif
#   From: 2010.06.25/outbox.cif.g09.slc.cpg/sg2_160_cif.got.tgz:319774.got - 2010.06.27 13:26:56.
