data_PCOD8038762
_publ_section_title
;
Structure prediction by ZEFSAII (Michael W. Deem and Ramdas Pophale) SiO2 
 PCOD8038762
Probable space group: P -1
;
_chemical_formula_sum "Si O2"
_cell_formula_units_Z 16
_cell_length_a 9.816421
_cell_length_b 14.443131
_cell_length_c 15.061669
_cell_angle_alpha 41.748084
_cell_angle_beta 62.277553
_cell_angle_gamma 94.829108
_cell_volume 858.017834
_symmetry_space_group_name_H-M "P -1"
_symmetry_group_IT_number 2
_symmetry_cell_setting 'triclinic'
loop_
_space_group_symop_operation_xyz
x,y,z
-x,-y,-z
loop_
_atom_site_type_symbol
_atom_site_label
_atom_site_fract_x
_atom_site_fract_y
_atom_site_fract_z
Si Si1 0.979911 0.714368 0.324278
Si Si2 0.189627 0.933590 0.675001
Si Si3 0.883875 0.383887 0.890881
Si Si4 0.314917 0.233823 0.560798
Si Si5 0.406817 0.791836 0.746520
Si Si6 0.321104 0.011725 0.864593
Si Si7 0.221032 0.497283 0.854054
Si Si8 0.818441 0.339636 0.549425
O O1 0.806556 0.700934 0.434761
O O2 0.832820 0.507228 0.460697
O O3 0.131955 0.736799 0.334164
O O4 0.149487 0.915704 0.067576
O O5 0.343323 0.913447 0.687380
O O6 0.178231 0.056583 0.655874
O O7 0.322592 0.056221 0.454220
O O8 0.931803 0.716535 0.893730
O O9 0.083288 0.473248 0.832910
O O10 0.991986 0.553517 0.661613
O O11 0.693338 0.342147 0.036497
O O12 0.763811 0.170722 0.038644
O O13 0.562410 0.432509 0.305368
O O14 0.326509 0.158423 0.703595
O O15 0.286560 0.657456 0.790184
O O16 0.571211 0.143456 0.728654
#
# Coordination Sequence:
#
# PCOD8038762 Si02
#       8
#     2   2   2   2   2   2   2   2
#     4  10  24  39  53  75 105 144 179 218 263 314
#     4   9  17  29  46  77 115 132 164 213 261 310
#     4  10  18  32  54  80 110 134 177 217 257 310
#     4  11  20  33  54  82 109 135 172 221 269 306
#     4   9  17  28  50  80 111 140 166 210 267 307
#     4  11  20  35  57  79 105 135 178 225 262 307
#     4  10  18  30  51  83 112 138 167 210 269 312
#     4  10  22  40  55  73 105 142 184 215 256 317
#
# _framework density 18.647629999999999
#
# number of rings (size 3 to 8) (size 9 to 14) (size 15 to 20)
#    0.000    2.000    3.750    2.250    0.000    2.500 
#    0.000    0.000    0.000    3.000    0.000   11.375 
#    0.000    0.000    0.000    0.000    0.000    0.000 
#
# Total GULP energy -198304.375038 kJ/mol
# GULP energy per Si atom -12394.023440 kJ/mol
# Density = 1.860519 g / cm^3
# Si number density = 18.647630 Si / 1000 Ang^3
#
#
#
# Elastic Constant Matrix: (Units=GPa)
#
#
# Indices 1 2 3 4 5 6 
#
# 1 35.7599 24.2426 23.6729 0.2657 -5.0974 -11.7499
# 2 24.2426 88.3145 50.8524 18.2107 -2.1810 -10.1333
# 3 23.6729 50.8524 131.1353 13.7183 -20.8767 -15.6101
# 4 0.2657 18.2107 13.7183 31.2060 -2.2806 -10.0101
# 5 -5.0974 -2.1810 -20.8767 -2.2806 11.8750 1.6918
# 6 -11.7499 -10.1333 -15.6101 -10.0101 1.6918 15.9718
#
#
#
# Elastic Compliance Matrix: (Units=1/GPa)
#
#
# Indices 1 2 3 4 5 6 
#
# 1 0.055103 -0.015960 0.003031 0.023982 0.024125 0.045850
# 2 -0.015960 0.021611 -0.008595 -0.014390 -0.018838 -0.013453
# 3 0.003031 -0.008595 0.015558 0.003776 0.026149 0.011579
# 4 0.023982 -0.014390 0.003776 0.054085 0.018386 0.044154
# 5 0.024125 -0.018838 0.026149 0.018386 0.136560 0.028411
# 6 0.045850 -0.013453 0.011579 0.044154 0.028411 0.123785
#
#
# Mechanical properties :
#
#
# Convention : Reuss Voigt Hill
#
# Bulk Modulus (GPa) = 20.31462 50.30505 35.30983
# Shear Modulus (GPa) = 10.72597 22.24001 16.48299
#
# Velocity S-wave (km/s) = 2.40092 3.45722 2.97630
# Velocity P-wave (km/s) = 4.31317 6.55528 5.54865
#
# Compressibility (1/GPa) = 0.04922564
#
# Stress axis : x y z
#
# Youngs Moduli (GPa) = 18.14778 46.27171 64.27730
#
# Poissons Ratio (x) = 0.73850 -0.19485
# Poissons Ratio (y) = 0.28964 0.55243
# Poissons Ratio (z) = -0.05501 0.39768
#
# Static dielectric constant tensor:
#      x y z
#    x 2.842500 0.082540 -0.094940 
#    y 0.082540 3.549300 0.325060 
#    z -0.094940 0.325060 4.093040 
# 
# 
# High freq. dielectric constant tensor:
#      x y z
#    x 1.658270 0.005220 -0.014770 
#    y 0.005220 1.733550 0.012670 
#    z -0.014770 0.012670 1.753170 
# 
# From -- ./inp_files/399240.got.cif
#   From: 2010.06.25/outbox.cif.g09.slc.cpg/sg2_200_cif.got.tgz:399240.got - 2010.06.27 13:26:56.
