data_PCOD8038385
_publ_section_title
;
Structure prediction by ZEFSAII (Michael W. Deem and Ramdas Pophale) SiO2 
 PCOD8038385
Probable space group: P -1
;
_chemical_formula_sum "Si O2"
_cell_formula_units_Z 16
_cell_length_a 12.196304
_cell_length_b 8.365337
_cell_length_c 20.815170
_cell_angle_alpha 137.025418
_cell_angle_beta 39.263876
_cell_angle_gamma 142.412482
_cell_volume 780.518284
_symmetry_space_group_name_H-M "P -1"
_symmetry_group_IT_number 2
_symmetry_cell_setting 'triclinic'
loop_
_space_group_symop_operation_xyz
x,y,z
-x,-y,-z
loop_
_atom_site_type_symbol
_atom_site_label
_atom_site_fract_x
_atom_site_fract_y
_atom_site_fract_z
Si Si1 0.156166 0.184891 0.704657
Si Si2 0.862708 0.606662 0.012141
Si Si3 0.384213 0.967013 0.260245
Si Si4 0.258971 0.665181 0.886151
Si Si5 0.054670 0.594921 0.208227
Si Si6 0.577503 0.537554 0.548015
Si Si7 0.314093 0.872703 0.595422
Si Si8 0.305552 0.006057 0.778693
O O1 0.149615 0.352087 0.817741
O O2 0.382362 0.353837 0.625234
O O3 0.990752 0.166689 0.723580
O O4 0.125754 0.889895 0.654275
O O5 0.720403 0.360913 0.054498
O O6 0.809250 0.841182 0.104020
O O7 0.823129 0.464135 0.918509
O O8 0.101298 0.762157 0.969379
O O9 0.523814 0.129029 0.183085
O O10 0.314894 0.148851 0.384514
O O11 0.496236 0.873144 0.230973
O O12 0.185138 0.695787 0.243752
O O13 0.838101 0.319569 0.238246
O O14 0.500000 0.500000 0.500000
O O15 0.738302 0.435701 0.454348
O O16 0.374974 0.051776 0.686358
O O17 0.500000 0.000000 0.500000
#
# Coordination Sequence:
#
# PCOD8038385 Si02
#       8
#     2   2   2   2   2   2   2   2
#     4   9  17  36  57  85 115 149 197 242 290 350
#     4  10  20  36  63  87 118 162 196 241 294 350
#     4  11  23  38  61  87 124 157 196 244 297 357
#     4   9  18  37  60  85 118 158 197 235 298 349
#     4  11  23  39  59  91 122 160 195 241 299 354
#     4  10  17  35  61  86 109 153 196 243 300 346
#     4  10  20  34  68  87 108 157 203 244 298 348
#     4  12  21  40  62  88 123 155 198 245 296 354
#
# _framework density 20.499199000000001
#
# number of rings (size 3 to 8) (size 9 to 14) (size 15 to 20)
#    0.000    1.750    6.250    0.375    0.000    1.000 
#    0.000    4.375    0.000    0.000    0.000    0.000 
#    0.000    0.000    0.000    0.000    0.000    0.000 
#
# Total GULP energy -198273.095087 kJ/mol
# GULP energy per Si atom -12392.068443 kJ/mol
# Density = 2.045254 g / cm^3
# Si number density = 20.499199 Si / 1000 Ang^3
#
#
#
# Elastic Constant Matrix: (Units=GPa)
#
#
# Indices 1 2 3 4 5 6 
#
# 1 143.8811 36.4100 63.2031 21.0551 -12.2790 -5.3886
# 2 36.4100 21.6047 15.1455 9.3717 -3.3982 -1.2503
# 3 63.2031 15.1455 118.8828 17.2036 -12.2212 -10.1632
# 4 21.0551 9.3717 17.2036 26.1965 -14.9579 -0.7283
# 5 -12.2790 -3.3982 -12.2212 -14.9579 50.1814 8.4405
# 6 -5.3886 -1.2503 -10.1632 -0.7283 8.4405 28.4905
#
#
#
# Elastic Compliance Matrix: (Units=1/GPa)
#
#
# Indices 1 2 3 4 5 6 
#
# 1 0.014457 -0.020547 -0.004916 -0.000587 0.000803 -0.000174
# 2 -0.020547 0.086753 0.002221 -0.018428 -0.004363 0.001535
# 3 -0.004916 0.002221 0.011655 -0.004457 -0.000087 0.003237
# 4 -0.000587 -0.018428 -0.004457 0.056801 0.015399 -0.005620
# 5 0.000803 -0.004363 -0.000087 0.015399 0.025620 -0.007267
# 6 -0.000174 0.001535 0.003237 -0.005620 -0.007267 0.038298
#
#
# Mechanical properties :
#
#
# Convention : Reuss Voigt Hill
#
# Bulk Modulus (GPa) = 15.06445 57.09845 36.08145
# Shear Modulus (GPa) = 16.54560 32.28103 24.41331
#
# Velocity S-wave (km/s) = 2.84409 3.97261 3.45474
# Velocity P-wave (km/s) = 4.26027 6.99690 5.79252
#
# Compressibility (1/GPa) = 0.06638145
#
# Stress axis : x y z
#
# Youngs Moduli (GPa) = 69.17065 11.52694 85.80111
#
# Poissons Ratio (x) = 0.23685 0.42177
# Poissons Ratio (y) = 1.42126 -0.19056
# Poissons Ratio (z) = 0.34002 -0.02560
#
# Static dielectric constant tensor:
#      x y z
#    x 3.916900 -0.488610 -0.170870 
#    y -0.488610 3.185350 0.232670 
#    z -0.170870 0.232670 4.111260 
# 
# 
# High freq. dielectric constant tensor:
#      x y z
#    x 1.805150 -0.037540 -0.003290 
#    y -0.037540 1.738540 -0.005550 
#    z -0.003290 -0.005550 1.829470 
# 
# From -- ./inp_files/215872.got.cif
#   From: 2010.06.25/outbox.cif.g09.slc.cpg/sg2_108_cif.got.tgz:215872.got - 2010.06.27 13:26:56.
