data_PCOD8038902
_publ_section_title
;
Structure prediction by ZEFSAII (Michael W. Deem and Ramdas Pophale) SiO2 
 PCOD8038902
Probable space group: P -1
;
_chemical_formula_sum "Si O2"
_cell_formula_units_Z 12
_cell_length_a 11.864173
_cell_length_b 5.302509
_cell_length_c 13.486620
_cell_angle_alpha 85.366572
_cell_angle_beta 135.178454
_cell_angle_gamma 105.242722
_cell_volume 570.015987
_symmetry_space_group_name_H-M "P -1"
_symmetry_group_IT_number 2
_symmetry_cell_setting 'triclinic'
loop_
_space_group_symop_operation_xyz
x,y,z
-x,-y,-z
loop_
_atom_site_type_symbol
_atom_site_label
_atom_site_fract_x
_atom_site_fract_y
_atom_site_fract_z
Si Si1 0.606937 0.802764 0.050141
Si Si2 0.836169 0.767083 0.797785
Si Si3 0.802231 0.893130 0.363075
Si Si4 0.876482 0.299980 0.721269
Si Si5 0.170381 0.165480 0.992030
Si Si6 0.832652 0.390541 0.463132
O O1 0.760068 0.864707 0.221483
O O2 0.680396 0.857608 0.984065
O O3 0.500000 0.500000 0.000000
O O4 0.500000 0.000000 0.000000
O O5 0.776083 0.992469 0.693537
O O6 0.038896 0.872802 0.934687
O O7 0.788340 0.492391 0.717016
O O8 0.753148 0.720667 0.856903
O O9 0.730417 0.606377 0.380822
O O10 0.723837 0.107104 0.359353
O O11 0.000000 0.000000 0.500000
O O12 0.877664 0.357148 0.604773
O O13 0.070254 0.356540 0.874452
O O14 0.000000 0.500000 0.500000
#
# Coordination Sequence:
#
# PCOD8038902 Si02
#       6
#     2   2   2   2   2   2
#     4  12  27  40  60  91 130 166 190 240 314 372
#     4   9  20  31  57  84 116 155 194 262 295 331
#     4  10  21  38  57  84 115 158 203 241 289 347
#     4  10  18  31  53  89 117 139 196 256 308 323
#     4   9  21  35  56  80 126 150 207 236 308 348
#     4  10  19  29  53  82 113 146 184 246 298 336
#
# _framework density 21.052042
#
# number of rings (size 3 to 8) (size 9 to 14) (size 15 to 20)
#    1.000    1.000    0.000    4.500    7.000    0.000 
#    0.000    0.000    0.000    0.000    0.000   23.333 
#    0.000    0.000    0.000    0.000    0.000    0.000 
#
# Total GULP energy -148690.912504 kJ/mol
# GULP energy per Si atom -12390.909375 kJ/mol
# Density = 2.100413 g / cm^3
# Si number density = 21.052042 Si / 1000 Ang^3
#
#
#
# Elastic Constant Matrix: (Units=GPa)
#
#
# Indices 1 2 3 4 5 6 
#
# 1 111.9137 47.6632 52.0916 -2.4672 -41.4950 -9.2482
# 2 47.6632 191.5406 41.6308 0.5889 -25.5810 -28.8316
# 3 52.0916 41.6308 103.5053 -3.8257 -41.0562 -2.2538
# 4 -2.4672 0.5889 -3.8257 32.9348 4.6441 -8.9766
# 5 -41.4950 -25.5810 -41.0562 4.6441 45.8139 3.3598
# 6 -9.2482 -28.8316 -2.2538 -8.9766 3.3598 19.6764
#
#
#
# Elastic Compliance Matrix: (Units=1/GPa)
#
#
# Indices 1 2 3 4 5 6 
#
# 1 0.014722 -0.001230 -0.002983 0.000297 0.009705 0.003253
# 2 -0.001230 0.007767 -0.002050 0.002700 0.000250 0.011758
# 3 -0.002983 -0.002050 0.016294 -0.001252 0.011252 -0.005032
# 4 0.000297 0.002700 -0.001252 0.036703 -0.004642 0.021490
# 5 0.009705 0.000250 0.011252 -0.004642 0.041531 -0.002993
# 6 0.003253 0.011758 -0.005032 0.021490 -0.002993 0.079318
#
#
# Mechanical properties :
#
#
# Convention : Reuss Voigt Hill
#
# Bulk Modulus (GPa) = 38.08459 76.63675 57.36067
# Shear Modulus (GPa) = 22.97643 37.38996 30.18319
#
# Velocity S-wave (km/s) = 3.30724 4.21892 3.79059
# Velocity P-wave (km/s) = 5.71959 7.75983 6.81647
#
# Compressibility (1/GPa) = 0.02625734
#
# Stress axis : x y z
#
# Youngs Moduli (GPa) = 67.92757 128.74338 61.37073
#
# Poissons Ratio (x) = 0.15836 0.18305
# Poissons Ratio (y) = 0.08355 0.12582
# Poissons Ratio (z) = 0.20261 0.26395
#
# Static dielectric constant tensor:
#      x y z
#    x 3.362860 0.051330 -0.356670 
#    y 0.051330 2.524410 -0.025410 
#    z -0.356670 -0.025410 3.614090 
# 
# 
# High freq. dielectric constant tensor:
#      x y z
#    x 1.778320 -0.013210 -0.043940 
#    y -0.013210 1.845550 -0.005320 
#    z -0.043940 -0.005320 1.808210 
# 
# From -- ./inp_files/408670.got.cif
#   From: 2010.06.25/outbox.cif.g09.slc.cpg/sg2_205_cif.got.tgz:408670.got - 2010.06.27 13:26:56.
