data_PCOD8038771
_publ_section_title
;
Structure prediction by ZEFSAII (Michael W. Deem and Ramdas Pophale) SiO2 
 PCOD8038771
Probable space group: P -1
;
_chemical_formula_sum "Si O2"
_cell_formula_units_Z 16
_cell_length_a 19.824394
_cell_length_b 17.550601
_cell_length_c 11.188548
_cell_angle_alpha 38.259927
_cell_angle_beta 129.307495
_cell_angle_gamma 159.560447
_cell_volume 741.675204
_symmetry_space_group_name_H-M "P -1"
_symmetry_group_IT_number 2
_symmetry_cell_setting 'triclinic'
loop_
_space_group_symop_operation_xyz
x,y,z
-x,-y,-z
loop_
_atom_site_type_symbol
_atom_site_label
_atom_site_fract_x
_atom_site_fract_y
_atom_site_fract_z
Si Si1 0.178725 0.704691 0.774395
Si Si2 0.229674 0.381188 0.144245
Si Si3 0.337896 0.899516 0.962115
Si Si4 0.090316 0.874115 0.756684
Si Si5 0.513599 0.972010 0.683407
Si Si6 0.945613 0.820292 0.425788
Si Si7 0.921301 0.560971 0.568647
Si Si8 0.566848 0.423058 0.636796
O O1 0.273822 0.882628 0.785918
O O2 0.360781 0.849921 0.749347
O O3 0.147328 0.773589 0.552611
O O4 0.963996 0.340830 0.014784
O O5 0.292053 0.371897 0.337174
O O6 0.019827 0.191366 0.179432
O O7 0.434378 0.726688 0.900307
O O8 0.143394 0.175702 0.197578
O O9 0.462036 0.153625 0.875622
O O10 0.134122 0.574809 0.199437
O O11 0.500000 0.000000 0.000000
O O12 0.990072 0.783861 0.628982
O O13 0.356724 0.243101 0.608186
O O14 0.500000 0.000000 0.500000
O O15 0.762617 0.318238 0.581226
O O16 0.934412 0.725366 0.406266
O O17 0.721278 0.606863 0.465272
#
# Coordination Sequence:
#
# PCOD8038771 Si02
#       8
#     2   2   2   2   2   2   2   2
#     4  11  20  33  58  89 115 142 186 231 273 325
#     4  10  22  37  50  78 112 146 184 228 271 324
#     4  12  16  30  55  86 120 147 174 221 273 332
#     4  10  18  30  52  81 115 154 179 209 264 338
#     4  11  24  43  62  77 102 147 200 242 274 314
#     4  11  22  32  51  82 120 145 173 217 279 340
#     4  12  21  36  58  85 115 147 182 229 279 327
#     4  11  18  30  51  79 117 152 177 208 265 333
#
# _framework density 21.572785
#
# number of rings (size 3 to 8) (size 9 to 14) (size 15 to 20)
#    0.000    1.000    6.250    3.375    0.000    2.500 
#    0.000    0.625    0.000    0.750    0.000    0.000 
#    0.000    0.000    0.000    0.000    0.000    0.000 
#
# Total GULP energy -198209.780152 kJ/mol
# GULP energy per Si atom -12388.111259 kJ/mol
# Density = 2.152368 g / cm^3
# Si number density = 21.572785 Si / 1000 Ang^3
#
#
#
# Elastic Constant Matrix: (Units=GPa)
#
#
# Indices 1 2 3 4 5 6 
#
# 1 32.5926 26.9067 19.8200 3.4638 17.5401 -6.0946
# 2 26.9067 118.8778 18.7705 3.9175 12.2132 -3.5784
# 3 19.8200 18.7705 45.9261 0.1256 15.2903 -15.5643
# 4 3.4638 3.9175 0.1256 30.2332 -8.3230 8.7248
# 5 17.5401 12.2132 15.2903 -8.3230 23.7896 -4.6482
# 6 -6.0946 -3.5784 -15.5643 8.7248 -4.6482 38.9606
#
#
#
# Elastic Compliance Matrix: (Units=1/GPa)
#
#
# Indices 1 2 3 4 5 6 
#
# 1 0.075845 -0.009367 -0.009329 -0.023622 -0.052140 0.006347
# 2 -0.009367 0.010443 -0.001357 0.000667 0.002475 -0.000903
# 3 -0.009329 -0.001357 0.035622 -0.006654 -0.015242 0.012318
# 4 -0.023622 0.000667 -0.006654 0.049427 0.036093 -0.013055
# 5 -0.052140 0.002475 -0.015242 0.036093 0.099636 -0.010213
# 6 0.006347 -0.000903 0.012318 -0.013055 -0.010213 0.033203
#
#
# Mechanical properties :
#
#
# Convention : Reuss Voigt Hill
#
# Bulk Modulus (GPa) = 12.22440 36.48788 24.35614
# Shear Modulus (GPa) = 13.45711 27.38998 20.42355
#
# Velocity S-wave (km/s) = 2.50031 3.56709 3.08023
# Velocity P-wave (km/s) = 3.74356 5.82375 4.89542
#
# Compressibility (1/GPa) = 0.08180361
#
# Stress axis : x y z
#
# Youngs Moduli (GPa) = 13.18475 95.75697 28.07251
#
# Poissons Ratio (x) = 0.89700 0.26188
# Poissons Ratio (y) = 0.12351 0.03810
# Poissons Ratio (z) = 0.12300 0.12996
#
# Static dielectric constant tensor:
#      x y z
#    x 4.042280 0.022760 0.406280 
#    y 0.022760 4.096000 -0.310200 
#    z 0.406280 -0.310200 3.584140 
# 
# 
# High freq. dielectric constant tensor:
#      x y z
#    x 1.846500 0.015290 0.050590 
#    y 0.015290 1.862590 -0.022620 
#    z 0.050590 -0.022620 1.795270 
# 
# From -- ./inp_files/457349.got.cif
#   From: 2010.06.25/outbox.cif.g09.slc.cpg/sg2_229_cif.got.tgz:457349.got - 2010.06.27 13:26:56.
