data_PCOD8038449
_publ_section_title
;
Structure prediction by ZEFSAII (Michael W. Deem and Ramdas Pophale) SiO2 
 PCOD8038449
Probable space group: P -1
;
_chemical_formula_sum "Si O2"
_cell_formula_units_Z 16
_cell_length_a 16.012774
_cell_length_b 10.093177
_cell_length_c 16.365862
_cell_angle_alpha 34.929282
_cell_angle_beta 142.003257
_cell_angle_gamma 143.741725
_cell_volume 830.373021
_symmetry_space_group_name_H-M "P -1"
_symmetry_group_IT_number 2
_symmetry_cell_setting 'triclinic'
loop_
_space_group_symop_operation_xyz
x,y,z
-x,-y,-z
loop_
_atom_site_type_symbol
_atom_site_label
_atom_site_fract_x
_atom_site_fract_y
_atom_site_fract_z
Si Si1 0.564166 0.037814 0.361875
Si Si2 0.474864 0.438519 0.171230
Si Si3 0.738959 0.847955 0.711139
Si Si4 0.743997 0.490823 0.160798
Si Si5 0.233944 0.122306 0.881957
Si Si6 0.757180 0.287585 0.779236
Si Si7 0.063911 0.302540 0.172957
Si Si8 0.948035 0.209133 0.823879
O O1 0.524110 0.216188 0.301350
O O2 0.648679 0.193845 0.266253
O O3 0.675259 0.946139 0.537734
O O4 0.409701 0.783485 0.347706
O O5 0.397187 0.382678 0.228050
O O6 0.620193 0.721911 0.142456
O O7 0.357027 0.426332 0.017240
O O8 0.844200 0.726930 0.818228
O O9 0.832008 0.091323 0.718958
O O10 0.790551 0.674895 0.182542
O O11 0.900245 0.532947 0.216274
O O12 0.082872 0.976155 0.783016
O O13 0.261740 0.919102 0.061018
O O14 0.828457 0.579671 0.724319
O O15 0.868648 0.288326 0.794091
O O16 0.000000 0.500000 0.000000
O O17 0.000000 0.000000 0.000000
#
# Coordination Sequence:
#
# PCOD8038449 Si02
#       8
#     2   2   2   2   2   2   2   2
#     4  11  22  37  59  91 127 149 191 244 310 342
#     4  11  20  35  64  92 119 150 198 247 292 341
#     4  12  23  38  60  94 117 154 198 248 292 349
#     4  11  19  35  63  90 119 154 194 248 289 348
#     4  10  17  36  58  86 115 153 198 241 288 342
#     4  11  20  37  59  84 121 161 187 242 295 352
#     4  10  23  39  59  84 120 161 198 237 295 352
#     4  12  19  34  62  89 115 147 209 244 282 343
#
# _framework density 19.268447999999999
#
# number of rings (size 3 to 8) (size 9 to 14) (size 15 to 20)
#    0.000    1.000    7.500    1.875    0.000    1.000 
#    0.000    3.750    0.000    1.500    0.000    0.000 
#    0.000    0.000    0.000    0.000    0.000    0.000 
#
# Total GULP energy -198400.122094 kJ/mol
# GULP energy per Si atom -12400.007631 kJ/mol
# Density = 1.922459 g / cm^3
# Si number density = 19.268448 Si / 1000 Ang^3
#
#
#
# Elastic Constant Matrix: (Units=GPa)
#
#
# Indices 1 2 3 4 5 6 
#
# 1 116.2450 48.2511 17.5792 -8.1085 2.7648 24.2759
# 2 48.2511 128.4979 13.1714 13.6747 4.3980 15.6371
# 3 17.5792 13.1714 67.3795 4.9121 -0.0978 5.9453
# 4 -8.1085 13.6747 4.9121 17.9047 3.0761 0.6832
# 5 2.7648 4.3980 -0.0978 3.0761 13.9944 3.4513
# 6 24.2759 15.6371 5.9453 0.6832 3.4513 37.6207
#
#
#
# Elastic Compliance Matrix: (Units=1/GPa)
#
#
# Indices 1 2 3 4 5 6 
#
# 1 0.013199 -0.005066 -0.002742 0.011173 -0.002012 -0.005997
# 2 -0.005066 0.010941 0.000058 -0.010655 0.000179 -0.001111
# 3 -0.002742 0.000058 0.016066 -0.006034 0.002180 -0.000884
# 4 0.011173 -0.010655 -0.006034 0.073275 -0.014558 -0.001823
# 5 -0.002012 0.000179 0.002180 -0.014558 0.076462 -0.005871
# 6 -0.005997 -0.001111 -0.000884 -0.001823 -0.005871 0.031624
#
#
# Mechanical properties :
#
#
# Convention : Reuss Voigt Hill
#
# Bulk Modulus (GPa) = 40.47290 52.23621 46.35455
# Shear Modulus (GPa) = 20.38292 29.44534 24.91413
#
# Velocity S-wave (km/s) = 3.25597 3.91341 3.59973
# Velocity P-wave (km/s) = 5.93174 6.89843 6.43327
#
# Compressibility (1/GPa) = 0.02470789
#
# Stress axis : x y z
#
# Youngs Moduli (GPa) = 75.76099 91.39537 62.24152
#
# Poissons Ratio (x) = 0.46299 0.17065
# Poissons Ratio (y) = 0.38379 -0.00360
# Poissons Ratio (z) = 0.20772 -0.00529
#
# Static dielectric constant tensor:
#      x y z
#    x 3.722420 0.294200 -0.007270 
#    y 0.294200 4.257060 0.274260 
#    z -0.007270 0.274260 3.251960 
# 
# 
# High freq. dielectric constant tensor:
#      x y z
#    x 1.748870 0.024860 0.003640 
#    y 0.024860 1.751990 0.019110 
#    z 0.003640 0.019110 1.719730 
# 
# From -- ./inp_files/205330.got.cif
#   From: 2010.06.25/outbox.cif.g09.slc.cpg/sg2_103_cif.got.tgz:205330.got - 2010.06.27 13:26:56.
