data_PCOD8038063
_publ_section_title
;
Structure prediction by ZEFSAII (Michael W. Deem and Ramdas Pophale) SiO2 
 PCOD8038063
Probable space group: P -1
;
_chemical_formula_sum "Si O2"
_cell_formula_units_Z 16
_cell_length_a 12.000000
_cell_length_b 9.000000
_cell_length_c 18.000000
_cell_angle_alpha 50.000000
_cell_angle_beta 40.000000
_cell_angle_gamma 80.000000
_cell_volume 729.599496
_symmetry_space_group_name_H-M "P -1"
_symmetry_group_IT_number 2
_symmetry_cell_setting 'triclinic'
loop_
_space_group_symop_operation_xyz
x,y,z
-x,-y,-z
loop_
_atom_site_type_symbol
_atom_site_label
_atom_site_fract_x
_atom_site_fract_y
_atom_site_fract_z
Si Si1 0.839603 0.606215 0.638309
Si Si2 0.804397 0.482730 0.863707
Si Si3 0.395267 0.234446 0.492426
Si Si4 0.491134 0.706148 0.223536
Si Si5 0.994726 0.021727 0.113816
Si Si6 0.647177 0.026505 0.707788
Si Si7 0.872022 0.605393 0.201095
Si Si8 0.215067 0.008530 0.501757
O O1 0.798222 0.467397 0.781853
O O2 0.684970 0.384422 0.726167
O O3 0.749373 0.760549 0.631752
O O4 0.115152 0.815933 0.417504
O O5 0.959639 0.433390 0.840508
O O6 0.538527 0.283570 0.087716
O O7 0.940458 0.775874 0.726441
O O8 0.400749 0.464772 0.396703
O O9 0.621786 0.338998 0.390195
O O10 0.361484 0.096262 0.474960
O O11 0.165852 0.026459 0.721797
O O12 0.488941 0.886464 0.221652
O O13 0.758653 0.868068 0.014163
O O14 0.856867 0.757600 0.223719
O O15 0.024648 0.229838 0.979546
O O16 0.697562 0.083609 0.575148
#
# Coordination Sequence:
#
# PCOD8038063 Si02
#       8
#     2   2   2   2   2   2   2   2
#     4  10  24  42  62  93 130 164 213 256 311 380
#     4  11  23  39  66  90 131 167 208 258 316 366
#     4  10  23  42  69  89 128 172 203 260 315 371
#     4  10  22  40  65 101 125 157 213 263 312 373
#     4  10  21  40  66  93 129 161 208 258 319 372
#     4  11  22  39  64  93 131 163 206 261 309 375
#     4  10  22  40  62  99 123 163 212 258 311 373
#     4  10  25  44  61  94 125 168 216 252 313 380
#
# _framework density 21.929839999999999
#
# number of rings (size 3 to 8) (size 9 to 14) (size 15 to 20)
#    0.000    1.750    1.250    2.250    3.500   10.000 
#    0.000    1.250    0.000    0.000    0.000    0.000 
#    0.000    0.000    0.000    0.000    0.000    0.000 
#
# Total GULP energy -198230.248634 kJ/mol
# GULP energy per Si atom -12389.390540 kJ/mol
# Density = 2.187993 g / cm^3
# Si number density = 21.929840 Si / 1000 Ang^3
#
#
#
# Elastic Constant Matrix: (Units=GPa)
#
#
# Indices 1 2 3 4 5 6 
#
# 1 166.2441 37.6127 57.9610 7.5896 -25.8487 29.3439
# 2 37.6127 76.2297 32.3773 -0.4033 -1.8952 23.8484
# 3 57.9610 32.3773 149.8816 3.8416 -28.7213 23.3476
# 4 7.5896 -0.4033 3.8416 30.3658 5.7025 -8.7486
# 5 -25.8487 -1.8952 -28.7213 5.7025 41.4479 -9.9747
# 6 29.3439 23.8484 23.3476 -8.7486 -9.9747 36.7671
#
#
#
# Elastic Compliance Matrix: (Units=1/GPa)
#
#
# Indices 1 2 3 4 5 6 
#
# 1 0.008525 -0.002176 -0.001299 -0.004000 0.003786 -0.004492
# 2 -0.002176 0.018210 -0.002358 -0.000967 -0.004434 -0.010011
# 3 -0.001299 -0.002358 0.009115 -0.002528 0.005163 -0.002423
# 4 -0.004000 -0.000967 -0.002528 0.039209 -0.006563 0.012974
# 5 0.003786 -0.004434 0.005163 -0.006563 0.031631 0.003595
# 6 -0.004492 -0.010011 -0.002423 0.012974 0.003595 0.042878
#
#
# Mechanical properties :
#
#
# Convention : Reuss Voigt Hill
#
# Bulk Modulus (GPa) = 41.34883 72.02862 56.68872
# Shear Modulus (GPa) = 29.53431 39.34312 34.43872
#
# Velocity S-wave (km/s) = 3.67381 4.24021 3.96713
# Velocity P-wave (km/s) = 6.07386 7.54247 6.84765
#
# Compressibility (1/GPa) = 0.02418448
#
# Stress axis : x y z
#
# Youngs Moduli (GPa) = 117.30694 54.91514 109.70820
#
# Poissons Ratio (x) = 0.11951 0.14247
# Poissons Ratio (y) = 0.25530 0.25865
# Poissons Ratio (z) = 0.15234 0.12947
#
# Static dielectric constant tensor:
#      x y z
#    x 4.297180 0.282450 -0.284590 
#    y 0.282450 3.790270 -0.364220 
#    z -0.284590 -0.364220 4.287710 
# 
# 
# High freq. dielectric constant tensor:
#      x y z
#    x 1.889280 0.016460 -0.017300 
#    y 0.016460 1.842380 -0.021400 
#    z -0.017300 -0.021400 1.881600 
# 
# From -- ./inp_files/566533.got.cif
#   From: 2010.06.25/outbox.ucp.g09.slc.cvg/sg2_284_cif.got.tgz:566533.got - 2010.06.28 11:54:26.
