data_PCOD8038291
_publ_section_title
;
Structure prediction by ZEFSAII (Michael W. Deem and Ramdas Pophale) SiO2 
 PCOD8038291
Probable space group: P -1
;
_chemical_formula_sum "Si O2"
_cell_formula_units_Z 16
_cell_length_a 18.387722
_cell_length_b 8.353509
_cell_length_c 14.003418
_cell_angle_alpha 42.169258
_cell_angle_beta 31.436415
_cell_angle_gamma 41.752164
_cell_volume 712.330125
_symmetry_space_group_name_H-M "P -1"
_symmetry_group_IT_number 2
_symmetry_cell_setting 'triclinic'
loop_
_space_group_symop_operation_xyz
x,y,z
-x,-y,-z
loop_
_atom_site_type_symbol
_atom_site_label
_atom_site_fract_x
_atom_site_fract_y
_atom_site_fract_z
Si Si1 0.154059 0.090989 0.499809
Si Si2 0.622102 0.901984 0.205191
Si Si3 0.161252 0.639129 0.799352
Si Si4 0.349669 0.835117 0.652949
Si Si5 0.347829 0.621521 0.942828
Si Si6 0.932363 0.787577 0.136158
Si Si7 0.959958 0.474945 0.691539
Si Si8 0.528674 0.910771 0.899046
O O1 0.064883 0.238948 0.442138
O O2 0.325345 0.045885 0.320965
O O3 0.094266 0.269629 0.578754
O O4 0.136637 0.815918 0.654566
O O5 0.755503 0.649671 0.190917
O O6 0.478624 0.899313 0.425564
O O7 0.670955 0.131645 0.084121
O O8 0.595620 0.936664 0.104778
O O9 0.260840 0.727587 0.724445
O O10 0.996541 0.682699 0.006489
O O11 0.411011 0.634348 0.759026
O O12 0.244665 0.087767 0.714050
O O13 0.187201 0.595088 0.127190
O O14 0.456472 0.384949 0.983363
O O15 0.991985 0.541690 0.245255
O O16 0.000000 0.000000 0.000000
O O17 0.500000 0.000000 0.000000
#
# Coordination Sequence:
#
# PCOD8038291 Si02
#       8
#     2   2   2   2   2   2   2   2
#     4  10  20  34  60  91 110 149 202 256 281 336
#     4  12  25  38  59  90 128 157 188 247 306 358
#     4  11  20  36  61  91 116 148 205 251 288 338
#     4  11  20  39  62  88 116 160 205 241 288 353
#     4  11  23  39  60  88 125 158 188 238 311 364
#     4  10  17  34  63  86 113 150 206 253 279 339
#     4  10  18  36  61  88 114 151 201 245 295 346
#     4  11  24  40  63  87 116 158 205 245 286 350
#
# _framework density 22.461496
#
# number of rings (size 3 to 8) (size 9 to 14) (size 15 to 20)
#    0.000    1.250    6.250    1.875    3.500    0.000 
#    0.000    2.500    0.000    0.750    0.000    0.000 
#    0.000    0.000    0.000    0.000    0.000    0.000 
#
# Total GULP energy -198324.090562 kJ/mol
# GULP energy per Si atom -12395.255660 kJ/mol
# Density = 2.241037 g / cm^3
# Si number density = 22.461496 Si / 1000 Ang^3
#
#
#
# Elastic Constant Matrix: (Units=GPa)
#
#
# Indices 1 2 3 4 5 6 
#
# 1 45.0733 21.6301 40.6650 -9.1472 24.2996 -13.4738
# 2 21.6301 147.8932 58.5477 -13.0397 12.0039 -13.4068
# 3 40.6650 58.5477 114.7814 -7.3102 30.1179 -9.8285
# 4 -9.1472 -13.0397 -7.3102 34.1822 -15.0895 12.9615
# 5 24.2996 12.0039 30.1179 -15.0895 31.9867 -7.9436
# 6 -13.4738 -13.4068 -9.8285 12.9615 -7.9436 33.5099
#
#
#
# Elastic Compliance Matrix: (Units=1/GPa)
#
#
# Indices 1 2 3 4 5 6 
#
# 1 0.047589 -0.000776 -0.008540 -0.006246 -0.027747 0.012158
# 2 -0.000776 0.008948 -0.004954 0.003274 0.003800 0.001449
# 3 -0.008540 -0.004954 0.016356 -0.004397 -0.009413 -0.001149
# 4 -0.006246 0.003274 -0.004397 0.044132 0.025095 -0.013612
# 5 -0.027747 0.003800 -0.009413 0.025095 0.070265 -0.005447
# 6 0.012158 0.001449 -0.001149 -0.013612 -0.005447 0.038947
#
#
# Mechanical properties :
#
#
# Convention : Reuss Voigt Hill
#
# Bulk Modulus (GPa) = 22.54613 61.04815 41.79714
# Shear Modulus (GPa) = 18.54867 32.39611 25.47239
#
# Velocity S-wave (km/s) = 2.87679 3.80188 3.37121
# Velocity P-wave (km/s) = 4.59282 6.81985 5.81397
#
# Compressibility (1/GPa) = 0.04435350
#
# Stress axis : x y z
#
# Youngs Moduli (GPa) = 21.01327 111.75872 61.13831
#
# Poissons Ratio (x) = 0.08669 0.52214
# Poissons Ratio (y) = 0.01630 0.30287
# Poissons Ratio (z) = 0.17946 0.55364
#
# Static dielectric constant tensor:
#      x y z
#    x 4.026570 -0.439900 0.535900 
#    y -0.439900 4.318530 -0.011470 
#    z 0.535900 -0.011470 4.469000 
# 
# 
# High freq. dielectric constant tensor:
#      x y z
#    x 1.861790 -0.027830 0.028320 
#    y -0.027830 1.885230 0.002800 
#    z 0.028320 0.002800 1.894450 
# 
# From -- ./inp_files/399855.got.cif
#   From: 2010.06.25/outbox.cif.g09.slc.cpg/sg2_200_cif.got.tgz:399855.got - 2010.06.27 13:26:56.
