data_PCOD8038363
_publ_section_title
;
Structure prediction by ZEFSAII (Michael W. Deem and Ramdas Pophale) SiO2 
 PCOD8038363
Probable space group: P -1
;
_chemical_formula_sum "Si O2"
_cell_formula_units_Z 16
_cell_length_a 9.256800
_cell_length_b 8.983658
_cell_length_c 17.348345
_cell_angle_alpha 56.000565
_cell_angle_beta 89.387559
_cell_angle_gamma 128.948160
_cell_volume 769.541089
_symmetry_space_group_name_H-M "P -1"
_symmetry_group_IT_number 2
_symmetry_cell_setting 'triclinic'
loop_
_space_group_symop_operation_xyz
x,y,z
-x,-y,-z
loop_
_atom_site_type_symbol
_atom_site_label
_atom_site_fract_x
_atom_site_fract_y
_atom_site_fract_z
Si Si1 0.079086 0.789358 0.997669
Si Si2 0.879576 0.555104 0.225925
Si Si3 0.392923 0.023898 0.558020
Si Si4 0.579901 0.738894 0.648807
Si Si5 0.742708 0.231211 0.598177
Si Si6 0.423203 0.628261 0.168403
Si Si7 0.326345 0.882808 0.193734
Si Si8 0.761603 0.453074 0.965701
O O1 0.911379 0.652364 0.110165
O O2 0.949151 0.729922 0.937723
O O3 0.137290 0.636036 0.038739
O O4 0.306032 0.118660 0.913085
O O5 0.691485 0.502371 0.280908
O O6 0.112225 0.801830 0.198522
O O7 0.813106 0.278079 0.312920
O O8 0.324709 0.135872 0.475984
O O9 0.591062 0.243670 0.555736
O O10 0.500000 0.000000 0.500000
O O11 0.657679 0.615503 0.708763
O O12 0.668851 0.965332 0.645783
O O13 0.696047 0.213294 0.693033
O O14 0.000000 0.500000 0.500000
O O15 0.340979 0.733506 0.176685
O O16 0.310349 0.499136 0.122124
O O17 0.545587 0.214358 0.089882
#
# Coordination Sequence:
#
# PCOD8038363 Si02
#       8
#     2   2   2   2   2   2   2   2
#     4  10  19  35  61  84 116 160 198 236 284 354
#     4  10  17  35  59  81 109 158 199 233 287 345
#     4   8  17  34  54  77 108 152 191 230 288 346
#     4  10  22  38  57  84 124 150 188 252 304 333
#     4  10  19  37  61  86 108 154 208 239 277 358
#     4  11  22  40  56  91 127 150 189 248 300 339
#     4  11  19  36  64  86 112 157 205 237 279 361
#     4  10  19  36  58  88 118 158 202 230 283 361
#
# _framework density 20.791612000000001
#
# number of rings (size 3 to 8) (size 9 to 14) (size 15 to 20)
#    0.000    2.250    2.500    4.500    0.000    0.500 
#    4.500    4.375    0.000    0.000    0.000    0.000 
#    0.000    0.000    0.000    0.000    0.000    0.000 
#
# Total GULP energy -198293.246564 kJ/mol
# GULP energy per Si atom -12393.327910 kJ/mol
# Density = 2.074429 g / cm^3
# Si number density = 20.791612 Si / 1000 Ang^3
#
#
#
# Elastic Constant Matrix: (Units=GPa)
#
#
# Indices 1 2 3 4 5 6 
#
# 1 37.4014 20.5588 10.3010 -0.8958 10.1027 21.9402
# 2 20.5588 95.4534 28.1599 21.2445 8.5543 37.4677
# 3 10.3010 28.1599 88.1577 23.1567 13.6992 14.9375
# 4 -0.8958 21.2445 23.1567 35.1255 9.4138 4.5521
# 5 10.1027 8.5543 13.6992 9.4138 38.8851 3.7894
# 6 21.9402 37.4677 14.9375 4.5521 3.7894 29.1649
#
#
#
# Elastic Compliance Matrix: (Units=1/GPa)
#
#
# Indices 1 2 3 4 5 6 
#
# 1 0.056708 0.007902 -0.000128 0.007004 -0.013041 -0.052145
# 2 0.007902 0.025836 0.000093 -0.010198 -0.001658 -0.037377
# 3 -0.000128 0.000093 0.014979 -0.008447 -0.002631 -0.006035
# 4 0.007004 -0.010198 -0.008447 0.041479 -0.007288 0.006631
# 5 -0.013041 -0.001658 -0.002631 -0.007288 0.031150 0.010379
# 6 -0.052145 -0.037377 -0.006035 0.006631 0.010379 0.122241
#
#
# Mechanical properties :
#
#
# Convention : Reuss Voigt Hill
#
# Bulk Modulus (GPa) = 8.82942 37.67245 23.25093
# Shear Modulus (GPa) = 15.90277 31.43461 23.66869
#
# Velocity S-wave (km/s) = 2.76862 3.89252 3.37764
# Velocity P-wave (km/s) = 3.80476 6.19360 5.13989
#
# Compressibility (1/GPa) = 0.11325772
#
# Stress axis : x y z
#
# Youngs Moduli (GPa) = 17.63415 38.70507 66.76116
#
# Poissons Ratio (x) = -0.30585 0.00856
# Poissons Ratio (y) = -0.13935 -0.00624
# Poissons Ratio (z) = 0.00226 -0.00361
#
# Static dielectric constant tensor:
#      x y z
#    x 3.602940 0.491410 0.215290 
#    y 0.491410 3.848870 0.120700 
#    z 0.215290 0.120700 4.265030 
# 
# 
# High freq. dielectric constant tensor:
#      x y z
#    x 1.780060 0.039210 -0.003040 
#    y 0.039210 1.803790 0.010970 
#    z -0.003040 0.010970 1.823580 
# 
# From -- ./inp_files/533265.got.cif
#   From: 2010.06.25/outbox.cif.g09.slc.cpg/sg2_267_cif.got.tgz:533265.got - 2010.06.27 13:26:56.
