data_PCOD8038723
_publ_section_title
;
Structure prediction by ZEFSAII (Michael W. Deem and Ramdas Pophale) SiO2 
 PCOD8038723
Probable space group: P -1
;
_chemical_formula_sum "Si O2"
_cell_formula_units_Z 16
_cell_length_a 22.387228
_cell_length_b 12.467460
_cell_length_c 12.148262
_cell_angle_alpha 64.310542
_cell_angle_beta 139.416219
_cell_angle_gamma 148.358435
_cell_volume 903.986470
_symmetry_space_group_name_H-M "P -1"
_symmetry_group_IT_number 2
_symmetry_cell_setting 'triclinic'
loop_
_space_group_symop_operation_xyz
x,y,z
-x,-y,-z
loop_
_atom_site_type_symbol
_atom_site_label
_atom_site_fract_x
_atom_site_fract_y
_atom_site_fract_z
Si Si1 0.190791 0.224858 0.500500
Si Si2 0.522136 0.366357 0.084157
Si Si3 0.533137 0.618943 0.645112
Si Si4 0.311160 0.654794 0.974640
Si Si5 0.646595 0.034728 0.092431
Si Si6 0.882273 0.121628 0.509467
Si Si7 0.460602 0.277110 0.618634
Si Si8 0.255388 0.200494 0.928367
O O1 0.308903 0.416598 0.683666
O O2 0.307970 0.387289 0.478304
O O3 0.165754 0.053542 0.548117
O O4 0.978895 0.045503 0.285028
O O5 0.606748 0.519898 0.018167
O O6 0.313355 0.188924 0.907571
O O7 0.470623 0.168537 0.080193
O O8 0.560723 0.517990 0.682415
O O9 0.586423 0.775700 0.554890
O O10 0.687984 0.807050 0.879582
O O11 0.278621 0.749241 0.939575
O O12 0.112655 0.384280 0.752937
O O13 0.371998 0.631464 0.164975
O O14 0.495419 0.874478 0.052198
O O15 0.839155 0.180286 0.338919
O O16 0.746579 0.980986 0.491045
#
# Coordination Sequence:
#
# PCOD8038723 Si02
#       8
#     2   2   2   2   2   2   2   2
#     4  10  19  30  50  75  97 125 156 193 241 287
#     4  10  19  31  47  71 100 126 156 195 236 280
#     4   9  18  31  48  71 101 124 152 198 240 282
#     4  10  20  33  50  70  97 130 160 191 232 283
#     4  10  20  33  48  70  99 129 159 193 232 279
#     4  10  18  31  50  73  99 123 156 197 238 283
#     4   9  18  32  48  71  97 126 158 194 239 281
#     4  10  18  30  47  71  99 126 155 194 240 282
#
# _framework density 17.699380999999999
#
# number of rings (size 3 to 8) (size 9 to 14) (size 15 to 20)
#    0.000    2.250    0.000    6.000    0.000    2.000 
#    0.000    3.750    0.000    3.000    0.000    5.250 
#    0.000    0.000    0.000    0.000    0.000    0.000 
#
# Total GULP energy -198295.994942 kJ/mol
# GULP energy per Si atom -12393.499684 kJ/mol
# Density = 1.765910 g / cm^3
# Si number density = 17.699381 Si / 1000 Ang^3
#
#
#
# Elastic Constant Matrix: (Units=GPa)
#
#
# Indices 1 2 3 4 5 6 
#
# 1 66.5893 30.2948 48.3887 -5.1085 -3.7042 -4.1495
# 2 30.2948 52.2495 44.0130 -13.9649 -5.7284 -5.6828
# 3 48.3887 44.0130 129.3335 -10.0199 7.9463 5.3866
# 4 -5.1085 -13.9649 -10.0199 23.2536 3.8141 -3.2477
# 5 -3.7042 -5.7284 7.9463 3.8141 28.9460 1.5987
# 6 -4.1495 -5.6828 5.3866 -3.2477 1.5987 22.9202
#
#
#
# Elastic Compliance Matrix: (Units=1/GPa)
#
#
# Indices 1 2 3 4 5 6 
#
# 1 0.023755 -0.008135 -0.006670 -0.002652 0.003432 0.003236
# 2 -0.008135 0.038942 -0.009711 0.018151 0.006244 0.012601
# 3 -0.006670 -0.009711 0.014097 -0.001149 -0.006126 -0.006664
# 4 -0.002652 0.018151 -0.001149 0.055285 -0.004403 0.012431
# 5 0.003432 0.006244 -0.006126 -0.004403 0.038467 0.000302
# 6 0.003236 0.012601 -0.006664 0.012431 0.000302 0.050646
#
#
# Mechanical properties :
#
#
# Convention : Reuss Voigt Hill
#
# Bulk Modulus (GPa) = 36.02097 54.84057 45.43077
# Shear Modulus (GPa) = 17.89047 23.38902 20.63974
#
# Velocity S-wave (km/s) = 3.18275 3.63913 3.41857
# Velocity P-wave (km/s) = 5.82257 6.97921 6.42696
#
# Compressibility (1/GPa) = 0.02776161
#
# Stress axis : x y z
#
# Youngs Moduli (GPa) = 42.09702 25.67920 70.93653
#
# Poissons Ratio (x) = 0.20890 0.47316
# Poissons Ratio (y) = 0.34246 0.68885
# Poissons Ratio (z) = 0.28080 0.24937
#
# Static dielectric constant tensor:
#      x y z
#    x 3.411440 -0.012950 0.142850 
#    y -0.012950 3.263330 -0.155230 
#    z 0.142850 -0.155230 3.332080 
# 
# 
# High freq. dielectric constant tensor:
#      x y z
#    x 1.679240 0.001190 0.007740 
#    y 0.001190 1.648090 0.001710 
#    z 0.007740 0.001710 1.690650 
# 
# From -- ./inp_files/128741.got.cif
#   From: 2010.06.25/outbox.cif.g09.slc.cpg/sg2_65_cif.got.tgz:128741.got - 2010.06.27 13:26:56.
