data_PCOD8038847
_publ_section_title
;
Structure prediction by ZEFSAII (Michael W. Deem and Ramdas Pophale) SiO2 
 PCOD8038847
Probable space group: P -1
;
_chemical_formula_sum "Si O2"
_cell_formula_units_Z 16
_cell_length_a 19.817861
_cell_length_b 7.768995
_cell_length_c 13.435675
_cell_angle_alpha 131.983604
_cell_angle_beta 30.858940
_cell_angle_gamma 131.306774
_cell_volume 768.454242
_symmetry_space_group_name_H-M "P -1"
_symmetry_group_IT_number 2
_symmetry_cell_setting 'triclinic'
loop_
_space_group_symop_operation_xyz
x,y,z
-x,-y,-z
loop_
_atom_site_type_symbol
_atom_site_label
_atom_site_fract_x
_atom_site_fract_y
_atom_site_fract_z
Si Si1 0.053339 0.518707 0.706578
Si Si2 0.555377 0.763466 0.823398
Si Si3 0.759451 0.075846 0.474657
Si Si4 0.150101 0.162849 0.559193
Si Si5 0.894232 0.833336 0.666026
Si Si6 0.497462 0.277467 0.348502
Si Si7 0.708809 0.427572 0.846529
Si Si8 0.778701 0.269796 0.915166
O O1 0.137777 0.787871 0.686622
O O2 0.100302 0.409906 0.706877
O O3 0.084470 0.353867 0.514514
O O4 0.891582 0.496198 0.902397
O O5 0.712526 0.808807 0.671847
O O6 0.547203 0.668804 0.684609
O O7 0.451832 0.568038 0.945325
O O8 0.500000 0.000000 0.000000
O O9 0.732781 0.250341 0.662235
O O10 0.825141 0.879854 0.371759
O O11 0.616881 0.948977 0.554411
O O12 0.037051 0.939422 0.577840
O O13 0.792489 0.694940 0.825397
O O14 0.837830 0.035557 0.760079
O O15 0.500000 0.500000 0.500000
O O16 0.646553 0.226321 0.135488
O O17 0.747891 0.324722 0.861957
#
# Coordination Sequence:
#
# PCOD8038847 Si02
#       8
#     2   2   2   2   2   2   2   2
#     4  10  20  29  51  85 108 144 171 221 277 320
#     4  10  19  33  57  78 103 142 181 223 271 310
#     4  10  19  33  53  76 109 140 181 220 270 317
#     4  10  18  31  49  75 117 137 172 217 273 318
#     4  10  20  28  50  85 114 138 172 219 280 320
#     4  10  22  37  57  78 108 149 184 222 273 319
#     4  10  18  31  51  82 107 141 176 221 272 321
#     4  10  20  34  54  77 116 140 177 222 268 323
#
# _framework density 20.821019
#
# number of rings (size 3 to 8) (size 9 to 14) (size 15 to 20)
#    0.000    2.000    2.500    3.750    3.500    3.000 
#    0.000    3.125    0.000   24.000    0.000    0.000 
#    0.000    0.000    0.000    0.000    0.000    0.000 
#
# Total GULP energy -198229.477548 kJ/mol
# GULP energy per Si atom -12389.342347 kJ/mol
# Density = 2.077363 g / cm^3
# Si number density = 20.821019 Si / 1000 Ang^3
#
#
#
# Elastic Constant Matrix: (Units=GPa)
#
#
# Indices 1 2 3 4 5 6 
#
# 1 50.5729 55.0866 21.4141 -10.0818 -4.9087 -1.3280
# 2 55.0866 156.7587 49.9730 -54.7458 -13.4628 3.9625
# 3 21.4141 49.9730 42.1621 -25.1857 -11.3950 18.3108
# 4 -10.0818 -54.7458 -25.1857 42.1446 15.2272 -2.3931
# 5 -4.9087 -13.4628 -11.3950 15.2272 23.8836 -4.3620
# 6 -1.3280 3.9625 18.3108 -2.3931 -4.3620 31.7293
#
#
#
# Elastic Compliance Matrix: (Units=1/GPa)
#
#
# Indices 1 2 3 4 5 6 
#
# 1 0.045209 -0.018247 -0.023822 -0.029643 0.009646 0.017009
# 2 -0.018247 0.022192 -0.004287 0.025309 -0.009506 -0.000459
# 3 -0.023822 -0.004287 0.080891 0.034015 0.001490 -0.044373
# 4 -0.029643 0.025309 0.034015 0.079553 -0.030373 -0.022207
# 5 0.009646 -0.009506 0.001490 -0.030373 0.059786 0.006659
# 6 0.017009 -0.000459 -0.044373 -0.022207 0.006659 0.057134
#
#
# Mechanical properties :
#
#
# Convention : Reuss Voigt Hill
#
# Bulk Modulus (GPa) = 17.99162 55.82680 36.90921
# Shear Modulus (GPa) = 10.96483 27.75282 19.35883
#
# Velocity S-wave (km/s) = 2.29732 3.65488 3.05253
# Velocity P-wave (km/s) = 3.96191 6.68445 5.49448
#
# Compressibility (1/GPa) = 0.05558144
#
# Stress axis : x y z
#
# Youngs Moduli (GPa) = 22.11951 45.06129 12.36226
#
# Poissons Ratio (x) = 0.82222 0.29449
# Poissons Ratio (y) = 0.40361 0.05300
# Poissons Ratio (z) = 0.52692 0.19319
#
# Static dielectric constant tensor:
#      x y z
#    x 3.790970 -0.132870 -0.141520 
#    y -0.132870 4.537480 -0.739240 
#    z -0.141520 -0.739240 3.307490 
# 
# 
# High freq. dielectric constant tensor:
#      x y z
#    x 1.794090 0.005950 -0.024400 
#    y 0.005950 1.821960 -0.048540 
#    z -0.024400 -0.048540 1.784390 
# 
# From -- ./inp_files/425643.got.cif
#   From: 2010.06.25/outbox.cif.g09.slc.cpg/sg2_213_cif.got.tgz:425643.got - 2010.06.27 13:26:56.
