data_PCOD8038497
_publ_section_title
;
Structure prediction by ZEFSAII (Michael W. Deem and Ramdas Pophale) SiO2 
 PCOD8038497
Probable space group: P -1
;
_chemical_formula_sum "Si O2"
_cell_formula_units_Z 16
_cell_length_a 9.831709
_cell_length_b 27.954823
_cell_length_c 13.494003
_cell_angle_alpha 159.112781
_cell_angle_beta 129.948690
_cell_angle_gamma 38.824739
_cell_volume 765.530689
_symmetry_space_group_name_H-M "P -1"
_symmetry_group_IT_number 2
_symmetry_cell_setting 'triclinic'
loop_
_space_group_symop_operation_xyz
x,y,z
-x,-y,-z
loop_
_atom_site_type_symbol
_atom_site_label
_atom_site_fract_x
_atom_site_fract_y
_atom_site_fract_z
Si Si1 0.995285 0.191760 0.812281
Si Si2 0.656076 0.016133 0.256635
Si Si3 0.507694 0.647276 0.061929
Si Si4 0.483332 0.657145 0.834907
Si Si5 0.659105 0.721451 0.688276
Si Si6 0.010763 0.986803 0.707694
Si Si7 0.154086 0.395472 0.236869
Si Si8 0.359688 0.632259 0.282850
O O1 0.719120 0.326629 0.962384
O O2 0.068010 0.025184 0.461633
O O3 0.118551 0.128608 0.852180
O O4 0.065638 0.288370 0.971189
O O5 0.486653 0.207155 0.603097
O O6 0.766997 0.021433 0.217448
O O7 0.534929 0.930279 0.017693
O O8 0.529246 0.645150 0.950402
O O9 0.700592 0.454309 0.831191
O O10 0.500000 0.500000 0.500000
O O11 0.687806 0.645139 0.860947
O O12 0.228392 0.830794 0.010571
O O13 0.688012 0.667626 0.712852
O O14 0.501080 0.688266 0.500205
O O15 0.920887 0.603023 0.534138
O O16 0.104245 0.815642 0.485159
O O17 0.500000 0.500000 0.000000
#
# Coordination Sequence:
#
# PCOD8038497 Si02
#       8
#     2   2   2   2   2   2   2   2
#     4  10  17  36  65  90 118 157 207 264 299 355
#     4  10  18  34  63  89 122 153 206 273 293 347
#     4  11  20  39  62  93 123 158 211 255 303 364
#     4  12  24  38  62  95 124 163 206 261 317 354
#     4  10  21  38  61  94 122 159 212 259 303 364
#     4  11  21  37  60  96 124 159 209 248 308 379
#     4  10  21  37  63  91 126 157 206 263 310 357
#     4  12  22  38  66  92 125 168 207 247 308 378
#
# _framework density 20.900534
#
# number of rings (size 3 to 8) (size 9 to 14) (size 15 to 20)
#    0.000    1.250    6.250    2.250    1.750    1.000 
#    0.000    2.500    0.000    4.500    0.000    0.000 
#    0.000    0.000    0.000    0.000    0.000    0.000 
#
# Total GULP energy -198292.715746 kJ/mol
# GULP energy per Si atom -12393.294734 kJ/mol
# Density = 2.085296 g / cm^3
# Si number density = 20.900534 Si / 1000 Ang^3
#
#
#
# Elastic Constant Matrix: (Units=GPa)
#
#
# Indices 1 2 3 4 5 6 
#
# 1 123.6474 24.8663 56.0915 -0.0532 -0.2570 8.6709
# 2 24.8663 44.1742 35.3866 3.4690 -0.1456 10.8848
# 3 56.0915 35.3866 144.3833 4.5645 14.5450 3.8259
# 4 -0.0532 3.4690 4.5645 40.8080 -3.0508 10.9319
# 5 -0.2570 -0.1456 14.5450 -3.0508 33.3268 1.4452
# 6 8.6709 10.8848 3.8259 10.9319 1.4452 20.7162
#
#
#
# Elastic Compliance Matrix: (Units=1/GPa)
#
#
# Indices 1 2 3 4 5 6 
#
# 1 0.010456 -0.002170 -0.003690 0.001726 0.001996 -0.003604
# 2 -0.002170 0.034002 -0.007572 0.002957 0.004463 -0.017430
# 3 -0.003690 -0.007572 0.010672 -0.002315 -0.005154 0.005133
# 4 0.001726 0.002957 -0.002315 0.029619 0.004520 -0.017794
# 5 0.001996 0.004463 -0.005154 0.004520 0.033004 -0.006916
# 6 -0.003604 -0.017430 0.005133 -0.017794 -0.006916 0.067863
#
#
# Mechanical properties :
#
#
# Convention : Reuss Voigt Hill
#
# Bulk Modulus (GPa) = 35.37892 60.54375 47.96134
# Shear Modulus (GPa) = 22.53257 32.02757 27.28007
#
# Velocity S-wave (km/s) = 3.28698 3.91881 3.61672
# Velocity P-wave (km/s) = 5.60087 7.03609 6.35910
#
# Compressibility (1/GPa) = 0.02826542
#
# Stress axis : x y z
#
# Youngs Moduli (GPa) = 95.64239 29.40976 93.70674
#
# Poissons Ratio (x) = 0.06383 0.34578
# Poissons Ratio (y) = 0.20759 0.70950
# Poissons Ratio (z) = 0.35293 0.22268
#
# Static dielectric constant tensor:
#      x y z
#    x 3.893970 0.217640 0.402870 
#    y 0.217640 3.725370 -0.005610 
#    z 0.402870 -0.005610 4.235000 
# 
# 
# High freq. dielectric constant tensor:
#      x y z
#    x 1.790640 0.020290 0.027240 
#    y 0.020290 1.803470 -0.003780 
#    z 0.027240 -0.003780 1.834630 
# 
# From -- ./inp_files/509165.got.cif
#   From: 2010.06.25/outbox.cif.g09.slc.cpg/sg2_255_cif.got.tgz:509165.got - 2010.06.27 13:26:56.
