data_PCOD8038488
_publ_section_title
;
Structure prediction by ZEFSAII (Michael W. Deem and Ramdas Pophale) SiO2 
 PCOD8038488
Probable space group: P -1
;
_chemical_formula_sum "Si O2"
_cell_formula_units_Z 16
_cell_length_a 12.619056
_cell_length_b 16.906722
_cell_length_c 12.726719
_cell_angle_alpha 113.622593
_cell_angle_beta 43.831655
_cell_angle_gamma 146.745857
_cell_volume 872.227414
_symmetry_space_group_name_H-M "P -1"
_symmetry_group_IT_number 2
_symmetry_cell_setting 'triclinic'
loop_
_space_group_symop_operation_xyz
x,y,z
-x,-y,-z
loop_
_atom_site_type_symbol
_atom_site_label
_atom_site_fract_x
_atom_site_fract_y
_atom_site_fract_z
Si Si1 0.355575 0.853399 0.665147
Si Si2 0.350602 0.160587 0.856425
Si Si3 0.615913 0.431720 0.665997
Si Si4 0.258267 0.803973 0.470439
Si Si5 0.302527 0.593153 0.834109
Si Si6 0.374966 0.657779 0.035181
Si Si7 0.778959 0.591237 0.056746
Si Si8 0.323586 0.644486 0.619145
O O1 0.195980 0.778130 0.625197
O O2 0.454623 0.804396 0.596035
O O3 0.653729 0.058327 0.561920
O O4 0.124840 0.778943 0.877342
O O5 0.547116 0.331823 0.755134
O O6 0.460731 0.122887 0.713443
O O7 0.398471 0.188893 0.963017
O O8 0.000000 0.000000 0.000000
O O9 0.406895 0.412425 0.816600
O O10 0.544204 0.352471 0.563912
O O11 0.964437 0.628333 0.526528
O O12 0.233449 0.459491 0.845163
O O13 0.451186 0.670817 0.653935
O O14 0.494865 0.729922 0.866674
O O15 0.000000 0.500000 0.000000
O O16 0.039459 0.534221 0.222720
O O17 0.349420 0.541013 0.007196
#
# Coordination Sequence:
#
# PCOD8038488 Si02
#       8
#     2   2   2   2   2   2   2   2
#     4  10  20  37  57  83 118 153 198 228 286 357
#     4  12  23  36  58  86 121 154 191 240 291 342
#     4  12  22  35  59  88 122 146 192 243 292 341
#     4  11  23  36  56  86 121 157 188 236 294 344
#     4   8  16  34  62  86 106 157 193 241 275 348
#     4   8  18  35  56  84 112 150 195 225 286 343
#     4   9  20  35  57  92 110 150 192 241 285 339
#     4  10  17  36  64  83 113 155 194 236 285 343
#
# _framework density 18.34384
#
# number of rings (size 3 to 8) (size 9 to 14) (size 15 to 20)
#    0.750    1.250    3.750    2.625    0.000    4.500 
#    0.000    0.000    0.000    7.500    0.000    0.000 
#    0.000    0.000    0.000    0.000    0.000    0.000 
#
# Total GULP energy -198259.392625 kJ/mol
# GULP energy per Si atom -12391.212039 kJ/mol
# Density = 1.830209 g / cm^3
# Si number density = 18.343840 Si / 1000 Ang^3
#
#
#
# Elastic Constant Matrix: (Units=GPa)
#
#
# Indices 1 2 3 4 5 6 
#
# 1 78.6146 40.6346 23.5495 8.7180 28.4003 2.1758
# 2 40.6346 78.7361 35.1947 -2.6904 8.2206 4.4495
# 3 23.5495 35.1947 67.0157 11.1495 8.0442 1.6356
# 4 8.7180 -2.6904 11.1495 25.2670 -7.2836 1.3005
# 5 28.4003 8.2206 8.0442 -7.2836 28.1401 4.9944
# 6 2.1758 4.4495 1.6356 1.3005 4.9944 28.5882
#
#
#
# Elastic Compliance Matrix: (Units=1/GPa)
#
#
# Indices 1 2 3 4 5 6 
#
# 1 0.045659 -0.023947 0.009059 -0.038282 -0.053505 0.010823
# 2 -0.023947 0.030233 -0.015046 0.026600 0.027963 -0.008117
# 3 0.009059 -0.015046 0.025286 -0.021382 -0.018286 0.004373
# 4 -0.038282 0.026600 -0.021382 0.083423 0.061140 -0.014479
# 5 -0.053505 0.027963 -0.018286 0.061140 0.106066 -0.020545
# 6 0.010823 -0.008117 0.004373 -0.014479 -0.020545 0.039417
#
#
# Mechanical properties :
#
#
# Convention : Reuss Voigt Hill
#
# Bulk Modulus (GPa) = 24.20759 47.01378 35.61069
# Shear Modulus (GPa) = 12.38475 24.73157 18.55816
#
# Velocity S-wave (km/s) = 2.60117 3.67580 3.18415
# Velocity P-wave (km/s) = 4.71664 6.61061 5.74225
#
# Compressibility (1/GPa) = 0.04130935
#
# Stress axis : x y z
#
# Youngs Moduli (GPa) = 21.90143 33.07647 39.54738
#
# Poissons Ratio (x) = 0.79207 -0.35824
# Poissons Ratio (y) = 0.52447 0.59505
# Poissons Ratio (z) = -0.19840 0.49768
#
# Static dielectric constant tensor:
#      x y z
#    x 1.124110 -0.753060 -1.302800 
#    y -0.753060 3.001320 -0.258780 
#    z -1.302800 -0.258780 2.281720 
# 
# 
# High freq. dielectric constant tensor:
#      x y z
#    x 1.705560 -0.008990 0.009790 
#    y -0.008990 1.692940 0.019790 
#    z 0.009790 0.019790 1.701770 
# 
# From -- ./inp_files/436805.got.cif
#   From: 2010.06.25/outbox.cif.g09.slc.cpg/sg2_219_cif.got.tgz:436805.got - 2010.06.27 13:26:56.
