data_PCOD8038991
_publ_section_title
;
Structure prediction by ZEFSAII (Michael W. Deem and Ramdas Pophale) SiO2 
 PCOD8038991
Probable space group: P -1
;
_chemical_formula_sum "Si O2"
_cell_formula_units_Z 16
_cell_length_a 9.486862
_cell_length_b 18.482469
_cell_length_c 10.752389
_cell_angle_alpha 34.679080
_cell_angle_beta 74.034710
_cell_angle_gamma 52.032361
_cell_volume 725.068559
_symmetry_space_group_name_H-M "P -1"
_symmetry_group_IT_number 2
_symmetry_cell_setting 'triclinic'
loop_
_space_group_symop_operation_xyz
x,y,z
-x,-y,-z
loop_
_atom_site_type_symbol
_atom_site_label
_atom_site_fract_x
_atom_site_fract_y
_atom_site_fract_z
Si Si1 0.612298 0.327595 0.544253
Si Si2 0.210222 0.589400 0.415209
Si Si3 0.303406 0.332130 0.941329
Si Si4 0.621491 0.517541 0.068084
Si Si5 0.232035 0.896742 0.559125
Si Si6 0.091274 0.028972 0.145990
Si Si7 0.244364 0.982755 0.696596
Si Si8 0.035611 0.343555 0.151055
O O1 0.370994 0.453847 0.457698
O O2 0.703913 0.356703 0.589683
O O3 0.625351 0.379452 0.329680
O O4 0.752784 0.113335 0.800803
O O5 0.170647 0.484474 0.650528
O O6 0.999872 0.776531 0.142336
O O7 0.338940 0.402257 0.949594
O O8 0.178641 0.280983 0.082998
O O9 0.538032 0.155851 0.083987
O O10 0.813956 0.413848 0.069917
O O11 0.399640 0.675652 0.828518
O O12 0.226325 0.966412 0.327359
O O13 0.297647 0.947972 0.584008
O O14 0.000000 0.000000 0.500000
O O15 0.903128 0.042587 0.189863
O O16 0.139788 0.185595 0.452535
O O17 0.000000 0.500000 0.000000
#
# Coordination Sequence:
#
# PCOD8038991 Si02
#       8
#     2   2   2   2   2   2   2   2
#     4  10  18  32  51  78 107 144 173 222 274 315
#     4  10  20  34  50  79 114 143 179 217 266 326
#     4   9  19  33  54  75 108 142 174 218 267 319
#     4   9  17  33  51  79 111 128 176 226 264 319
#     4   9  19  33  51  80 110 143 173 215 273 327
#     4  11  20  33  55  81 112 147 175 214 273 330
#     4  10  18  34  54  81 110 137 175 224 273 321
#     4  10  19  33  53  82 106 137 176 225 276 314
#
# _framework density 22.066880000000001
#
# number of rings (size 3 to 8) (size 9 to 14) (size 15 to 20)
#    0.000    2.250    1.250    4.500    0.000    0.500 
#    2.250    0.000    0.000    1.500    0.000    0.000 
#    0.000    0.000    0.000    0.000    0.000    0.000 
#
# Total GULP energy -198235.399652 kJ/mol
# GULP energy per Si atom -12389.712478 kJ/mol
# Density = 2.201665 g / cm^3
# Si number density = 22.066880 Si / 1000 Ang^3
#
#
#
# Elastic Constant Matrix: (Units=GPa)
#
#
# Indices 1 2 3 4 5 6 
#
# 1 22.5859 17.6279 23.2927 3.3255 2.7883 -13.8543
# 2 17.6279 90.3434 36.3846 -15.5372 9.1316 -17.0625
# 3 23.2927 36.3846 174.5505 -16.4586 8.4593 -16.6993
# 4 3.3255 -15.5372 -16.4586 39.1527 -3.0134 4.7055
# 5 2.7883 9.1316 8.4593 -3.0134 26.8395 -0.2573
# 6 -13.8543 -17.0625 -16.6993 4.7055 -0.2573 24.3856
#
#
#
# Elastic Compliance Matrix: (Units=1/GPa)
#
#
# Indices 1 2 3 4 5 6 
#
# 1 0.089021 -0.009119 -0.007484 -0.019908 -0.005611 0.042853
# 2 -0.009119 0.015231 -0.000903 0.005741 -0.003270 0.003716
# 3 -0.007484 -0.000903 0.007212 0.003317 -0.000822 -0.000594
# 4 -0.019908 0.005741 0.003317 0.032458 0.002606 -0.011258
# 5 -0.005611 -0.003270 -0.000822 0.002606 0.039447 -0.006125
# 6 0.042853 0.003716 -0.000594 -0.011258 -0.006125 0.069655
#
#
# Mechanical properties :
#
#
# Convention : Reuss Voigt Hill
#
# Bulk Modulus (GPa) = 13.08004 49.12115 31.10060
# Shear Modulus (GPa) = 15.94793 32.08719 24.01756
#
# Velocity S-wave (km/s) = 2.69124 3.81739 3.30267
# Velocity P-wave (km/s) = 3.94935 6.46052 5.35424
#
# Compressibility (1/GPa) = 0.07645236
#
# Stress axis : x y z
#
# Youngs Moduli (GPa) = 11.23329 65.65343 138.66440
#
# Poissons Ratio (x) = 0.59871 1.03776
# Poissons Ratio (y) = 0.10244 0.12518
# Poissons Ratio (z) = 0.08407 0.05927
#
# Static dielectric constant tensor:
#      x y z
#    x 3.742240 -0.330250 0.189880 
#    y -0.330250 4.536160 -0.141120 
#    z 0.189880 -0.141120 4.470330 
# 
# 
# High freq. dielectric constant tensor:
#      x y z
#    x 1.802240 -0.008350 0.004400 
#    y -0.008350 1.871290 -0.019980 
#    z 0.004400 -0.019980 1.882090 
# 
# From -- ./inp_files/423168.got.cif
#   From: 2010.06.25/outbox.cif.g09.slc.cpg/sg2_212_cif.got.tgz:423168.got - 2010.06.27 13:26:56.
