data_PCOD8038105
_publ_section_title
;
Structure prediction by ZEFSAII (Michael W. Deem and Ramdas Pophale) SiO2 
 PCOD8038105
Probable space group: P -1
;
_chemical_formula_sum "Si O2"
_cell_formula_units_Z 16
_cell_length_a 9.000000
_cell_length_b 12.000000
_cell_length_c 21.000000
_cell_angle_alpha 150.000000
_cell_angle_beta 50.000000
_cell_angle_gamma 140.000000
_cell_volume 727.418465
_symmetry_space_group_name_H-M "P -1"
_symmetry_group_IT_number 2
_symmetry_cell_setting 'triclinic'
loop_
_space_group_symop_operation_xyz
x,y,z
-x,-y,-z
loop_
_atom_site_type_symbol
_atom_site_label
_atom_site_fract_x
_atom_site_fract_y
_atom_site_fract_z
Si Si1 0.959526 0.393633 0.050354
Si Si2 0.796996 0.140345 0.593869
Si Si3 0.844608 0.944464 0.953699
Si Si4 0.928573 0.559074 0.659726
Si Si5 0.636527 0.702241 0.619603
Si Si6 0.954405 0.824581 0.330798
Si Si7 0.376487 0.850335 0.090243
Si Si8 0.314397 0.718482 0.536562
O O1 0.845811 0.557576 0.186438
O O2 0.225801 0.604719 0.059351
O O3 0.799540 0.192879 0.939351
O O4 0.962155 0.224515 0.024018
O O5 0.934061 0.398786 0.639744
O O6 0.916538 0.212285 0.664634
O O7 0.772248 0.880124 0.438973
O O8 0.530203 0.023833 0.624720
O O9 0.837679 0.735488 0.801335
O O10 0.587818 0.841706 0.998870
O O11 0.000000 0.000000 0.000000
O O12 0.783951 0.340964 0.537097
O O13 0.174168 0.739946 0.645363
O O14 0.500000 0.500000 0.500000
O O15 0.648247 0.521533 0.580731
O O16 0.529230 0.862782 0.759520
O O17 0.885569 0.923950 0.633892
#
# Coordination Sequence:
#
# PCOD8038105 Si02
#       8
#     2   2   2   2   2   2   2   2
#     4  10  23  46  66  97 133 175 228 275 327 397
#     4  11  22  39  62  97 125 166 212 273 326 377
#     4  12  27  42  68  96 138 182 217 273 330 414
#     4  11  26  43  59  94 133 173 220 254 330 400
#     4  11  21  40  69  96 129 164 221 281 327 379
#     4  10  22  37  67  97 129 161 216 281 327 379
#     4  10  25  43  69 100 129 179 225 277 332 391
#     4  11  24  41  64  91 128 174 210 272 324 384
#
# _framework density 21.995591999999998
#
# number of rings (size 3 to 8) (size 9 to 14) (size 15 to 20)
#    0.000    1.250    2.500    2.250    5.250    1.500 
#    0.000    0.000    0.000    0.000    0.000    0.000 
#    0.000    0.000    0.000    0.000    0.000    0.000 
#
# Total GULP energy -198246.865201 kJ/mol
# GULP energy per Si atom -12390.429075 kJ/mol
# Density = 2.194553 g / cm^3
# Si number density = 21.995592 Si / 1000 Ang^3
#
#
#
# Elastic Constant Matrix: (Units=GPa)
#
#
# Indices 1 2 3 4 5 6 
#
# 1 44.2904 28.3648 4.7638 -1.5556 7.7046 -2.2765
# 2 28.3648 102.2889 29.1466 -19.5777 5.7885 2.3926
# 3 4.7638 29.1466 148.5619 -18.8396 6.0243 16.3112
# 4 -1.5556 -19.5777 -18.8396 38.5258 0.5536 -6.8561
# 5 7.7046 5.7885 6.0243 0.5536 24.1400 -9.9184
# 6 -2.2765 2.3926 16.3112 -6.8561 -9.9184 32.4592
#
#
#
# Elastic Compliance Matrix: (Units=1/GPa)
#
#
# Indices 1 2 3 4 5 6 
#
# 1 0.029039 -0.008333 0.000741 -0.002702 -0.007652 -0.000630
# 2 -0.008333 0.013697 -0.001722 0.005868 -0.000137 0.000469
# 3 0.000741 -0.001722 0.007980 0.002314 -0.003707 -0.004475
# 4 -0.002702 0.005868 0.002314 0.030806 0.000128 0.004761
# 5 -0.007652 -0.000137 -0.003707 0.000128 0.051898 0.017221
# 6 -0.000630 0.000469 -0.004475 0.004761 0.017221 0.039246
#
#
# Mechanical properties :
#
#
# Convention : Reuss Voigt Hill
#
# Bulk Modulus (GPa) = 31.16414 46.63239 38.89827
# Shear Modulus (GPa) = 24.75343 34.54940 29.65142
#
# Velocity S-wave (km/s) = 3.35831 3.96756 3.67558
# Velocity P-wave (km/s) = 5.40710 6.49888 5.97797
#
# Compressibility (1/GPa) = 0.03208816
#
# Stress axis : x y z
#
# Youngs Moduli (GPa) = 34.43631 73.00625 125.30643
#
# Poissons Ratio (x) = 0.60836 -0.09279
# Poissons Ratio (y) = 0.28696 0.21577
# Poissons Ratio (z) = -0.02550 0.12571
#
# Static dielectric constant tensor:
#      x y z
#    x 14.806850 -4.693500 -9.412810 
#    y -4.693500 6.095280 3.621810 
#    z -9.412810 3.621810 12.455270 
# 
# 
# High freq. dielectric constant tensor:
#      x y z
#    x 1.845020 -0.021340 0.011020 
#    y -0.021340 1.889860 -0.013690 
#    z 0.011020 -0.013690 1.883370 
# 
# From -- ./inp_files/577897.got.cif
#   From: 2010.06.25/outbox.ucp.g09.slc.cvg/sg2_289_cif.got.tgz:577897.got - 2010.06.28 11:54:26.
