data_PCOD8038193
_publ_section_title
;
Structure prediction by ZEFSAII (Michael W. Deem and Ramdas Pophale) SiO2 
 PCOD8038193
Probable space group: P -1
;
_chemical_formula_sum "Si O2"
_cell_formula_units_Z 16
_cell_length_a 9.000000
_cell_length_b 12.000000
_cell_length_c 15.000000
_cell_angle_alpha 130.000000
_cell_angle_beta 110.000000
_cell_angle_gamma 110.000000
_cell_volume 728.972637
_symmetry_space_group_name_H-M "P -1"
_symmetry_group_IT_number 2
_symmetry_cell_setting 'triclinic'
loop_
_space_group_symop_operation_xyz
x,y,z
-x,-y,-z
loop_
_atom_site_type_symbol
_atom_site_label
_atom_site_fract_x
_atom_site_fract_y
_atom_site_fract_z
Si Si1 0.859982 0.688460 0.839114
Si Si2 0.801173 0.803533 0.283578
Si Si3 0.696869 0.884967 0.960732
Si Si4 0.150277 0.764429 0.096532
Si Si5 0.991564 0.080538 0.290205
Si Si6 0.785699 0.463016 0.416424
Si Si7 0.529221 0.740875 0.577185
Si Si8 0.738048 0.471472 0.010383
O O1 0.727571 0.748463 0.853889
O O2 0.645738 0.424709 0.626685
O O3 0.954982 0.698958 0.956983
O O4 0.096657 0.859265 0.908182
O O5 0.771560 0.605781 0.170780
O O6 0.522880 0.676363 0.173053
O O7 0.000000 0.000000 0.500000
O O8 0.915931 0.918734 0.269754
O O9 0.410243 0.732324 0.800859
O O10 0.743964 0.921037 0.094896
O O11 0.991750 0.646093 0.093592
O O12 0.398322 0.039347 0.305247
O O13 0.270878 0.702532 0.049317
O O14 0.070385 0.288910 0.458605
O O15 0.216436 0.174514 0.324379
O O16 0.621554 0.391215 0.430976
O O17 0.000000 0.500000 0.500000
#
# Coordination Sequence:
#
# PCOD8038193 Si02
#       8
#     2   2   2   2   2   2   2   2
#     4  11  21  36  71 101 129 178 223 279 331 400
#     4  11  26  47  71  98 139 183 230 283 350 405
#     4  11  21  40  67  97 135 177 226 272 332 409
#     4  11  23  43  72 100 138 175 231 295 336 394
#     4  12  24  44  71  98 132 186 228 280 335 414
#     4  12  27  42  64 106 147 175 220 277 343 415
#     4  12  22  42  69 100 134 177 229 270 335 418
#     4  10  25  46  68 102 133 178 238 287 342 404
#
# _framework density 21.948698
#
# number of rings (size 3 to 8) (size 9 to 14) (size 15 to 20)
#    0.000    0.750    6.250    1.125    3.500    3.500 
#    2.250    2.500    0.000    0.000    0.000    0.000 
#    0.000    0.000    0.000    0.000    0.000    0.000 
#
# Total GULP energy -198371.089758 kJ/mol
# GULP energy per Si atom -12398.193110 kJ/mol
# Density = 2.189874 g / cm^3
# Si number density = 21.948698 Si / 1000 Ang^3
#
#
#
# Elastic Constant Matrix: (Units=GPa)
#
#
# Indices 1 2 3 4 5 6 
#
# 1 100.8462 10.6584 36.7436 4.0625 7.7786 -22.5595
# 2 10.6584 43.0759 25.1853 0.5012 -3.0655 -5.9856
# 3 36.7436 25.1853 186.8288 -4.4671 2.9909 -13.0261
# 4 4.0625 0.5012 -4.4671 34.0411 -8.5520 -9.1861
# 5 7.7786 -3.0655 2.9909 -8.5520 33.0096 0.1124
# 6 -22.5595 -5.9856 -13.0261 -9.1861 0.1124 27.9577
#
#
#
# Elastic Compliance Matrix: (Units=1/GPa)
#
#
# Indices 1 2 3 4 5 6 
#
# 1 0.013009 -0.001125 -0.001695 0.000040 -0.003038 0.009491
# 2 -0.001125 0.025997 -0.003057 0.001133 0.003238 0.003593
# 3 -0.001695 -0.003057 0.006227 0.001404 -0.000090 0.001340
# 4 0.000040 0.001133 0.001404 0.035168 0.009038 0.012447
# 5 -0.003038 0.003238 -0.000090 0.009038 0.033657 0.001034
# 6 0.009491 0.003593 0.001340 0.012447 0.001034 0.048906
#
#
# Mechanical properties :
#
#
# Convention : Reuss Voigt Hill
#
# Bulk Modulus (GPa) = 29.87200 52.88060 41.37630
# Shear Modulus (GPa) = 26.89917 36.21260 31.55589
#
# Velocity S-wave (km/s) = 3.50458 4.06627 3.79583
# Velocity P-wave (km/s) = 5.47865 6.79641 6.17279
#
# Compressibility (1/GPa) = 0.03347617
#
# Stress axis : x y z
#
# Youngs Moduli (GPa) = 76.87141 38.46545 160.60385
#
# Poissons Ratio (x) = 0.04329 0.27228
# Poissons Ratio (y) = 0.08651 0.49104
# Poissons Ratio (z) = 0.13033 0.11761
#
# Static dielectric constant tensor:
#      x y z
#    x 3.971440 -0.170610 0.017750 
#    y -0.170610 3.939860 0.104040 
#    z 0.017750 0.104040 4.518520 
# 
# 
# High freq. dielectric constant tensor:
#      x y z
#    x 1.859510 -0.004610 0.003740 
#    y -0.004610 1.842760 0.014430 
#    z 0.003740 0.014430 1.883500 
# 
# From -- ./inp_files/273656.got.cif
#   From: 2010.06.25/outbox.ucp.g09.slc.cvg/sg2_137_cif.got.tgz:273656.got - 2010.06.28 11:54:26.
