data_PCOD8038641
_publ_section_title
;
Structure prediction by ZEFSAII (Michael W. Deem and Ramdas Pophale) SiO2 
 PCOD8038641
Probable space group: P -1
;
_chemical_formula_sum "Si O2"
_cell_formula_units_Z 16
_cell_length_a 11.018099
_cell_length_b 9.166160
_cell_length_c 12.451066
_cell_angle_alpha 70.789906
_cell_angle_beta 131.144252
_cell_angle_gamma 118.519548
_cell_volume 831.832120
_symmetry_space_group_name_H-M "P -1"
_symmetry_group_IT_number 2
_symmetry_cell_setting 'triclinic'
loop_
_space_group_symop_operation_xyz
x,y,z
-x,-y,-z
loop_
_atom_site_type_symbol
_atom_site_label
_atom_site_fract_x
_atom_site_fract_y
_atom_site_fract_z
Si Si1 0.420083 0.140959 0.840218
Si Si2 0.680702 0.321307 0.329912
Si Si3 0.055409 0.048884 0.900375
Si Si4 0.414865 0.303828 0.019888
Si Si5 0.910118 0.234139 0.634529
Si Si6 0.966694 0.414076 0.292952
Si Si7 0.197927 0.329547 0.597152
Si Si8 0.222872 0.834663 0.923145
O O1 0.322642 0.224112 0.683342
O O2 0.298747 0.948332 0.833443
O O3 0.453643 0.221114 0.957555
O O4 0.615352 0.167933 0.907964
O O5 0.493742 0.241391 0.184604
O O6 0.733818 0.199594 0.470507
O O7 0.816285 0.380640 0.299033
O O8 0.681418 0.480151 0.358674
O O9 0.896709 0.072999 0.736510
O O10 0.106516 0.904664 0.911603
O O11 0.209243 0.232028 0.939982
O O12 0.000000 0.000000 0.000000
O O13 0.500000 0.500000 0.000000
O O14 0.934188 0.387174 0.693519
O O15 0.070095 0.265186 0.638953
O O16 0.894729 0.346800 0.148556
O O17 0.093427 0.318981 0.428246
#
# Coordination Sequence:
#
# PCOD8038641 Si02
#       8
#     2   2   2   2   2   2   2   2
#     4  10  18  28  46  79 115 130 165 226 272 298
#     4   9  16  27  51  84 105 133 176 220 261 310
#     4  11  24  40  53  74 110 148 178 218 268 320
#     4  11  17  31  60  84 103 139 179 217 260 313
#     4   9  17  33  51  72 108 144 178 212 257 321
#     4   9  17  28  52  79 109 135 171 218 270 315
#     4   9  15  28  48  83 110 134 166 219 272 311
#     4  10  20  32  47  76 109 138 173 220 270 315
#
# _framework density 19.234649999999998
#
# number of rings (size 3 to 8) (size 9 to 14) (size 15 to 20)
#    0.000    2.250    5.000    2.250    0.000    0.500 
#    0.000    1.250    0.000    0.000    0.000    3.500 
#    0.000    0.000    0.000    0.000    0.000    0.000 
#
# Total GULP energy -198219.752981 kJ/mol
# GULP energy per Si atom -12388.734561 kJ/mol
# Density = 1.919087 g / cm^3
# Si number density = 19.234650 Si / 1000 Ang^3
#
#
#
# Elastic Constant Matrix: (Units=GPa)
#
#
# Indices 1 2 3 4 5 6 
#
# 1 43.9558 19.5064 26.6864 -10.9077 2.9252 -11.9401
# 2 19.5064 41.5119 9.7726 -0.6951 1.5931 -10.4844
# 3 26.6864 9.7726 95.2521 -16.2278 21.4928 -7.2961
# 4 -10.9077 -0.6951 -16.2278 35.1047 -8.9039 5.4195
# 5 2.9252 1.5931 21.4928 -8.9039 27.0578 -8.2889
# 6 -11.9401 -10.4844 -7.2961 5.4195 -8.2889 17.7210
#
#
#
# Elastic Compliance Matrix: (Units=1/GPa)
#
#
# Indices 1 2 3 4 5 6 
#
# 1 0.040893 -0.012149 -0.010306 0.007982 0.013188 0.019850
# 2 -0.012149 0.033195 -0.000264 -0.004814 0.002231 0.013861
# 3 -0.010306 -0.000264 0.016203 0.002032 -0.013300 -0.007271
# 4 0.007982 -0.004814 0.002032 0.034382 0.008090 -0.003364
# 5 0.013188 0.002231 -0.013300 0.008090 0.057567 0.029183
# 6 0.019850 0.013861 -0.007271 -0.003364 0.029183 0.089691
#
#
# Mechanical properties :
#
#
# Convention : Reuss Voigt Hill
#
# Bulk Modulus (GPa) = 22.29425 32.51674 27.40550
# Shear Modulus (GPa) = 15.04581 24.29367 19.66974
#
# Velocity S-wave (km/s) = 2.79986 3.55775 3.20131
# Velocity P-wave (km/s) = 4.69767 5.81539 5.28616
#
# Compressibility (1/GPa) = 0.04485461
#
# Stress axis : x y z
#
# Youngs Moduli (GPa) = 24.45378 30.12533 61.71676
#
# Poissons Ratio (x) = 0.36598 0.63605
# Poissons Ratio (y) = 0.29708 0.01628
# Poissons Ratio (z) = 0.25202 0.00795
#
# Static dielectric constant tensor:
#      x y z
#    x 3.055970 -0.286320 0.435610 
#    y -0.286320 4.176920 0.409560 
#    z 0.435610 0.409560 4.150090 
# 
# 
# High freq. dielectric constant tensor:
#      x y z
#    x 1.688320 -0.039250 0.034020 
#    y -0.039250 1.725650 0.002410 
#    z 0.034020 0.002410 1.759930 
# 
# From -- ./inp_files/268849.got.cif
#   From: 2010.06.25/outbox.cif.g09.slc.cpg/sg2_135_cif.got.tgz:268849.got - 2010.06.27 13:26:56.
