data_PCOD8038130
_publ_section_title
;
Structure prediction by ZEFSAII (Michael W. Deem and Ramdas Pophale) SiO2 
 PCOD8038130
Probable space group: P -1
;
_chemical_formula_sum "Si O2"
_cell_formula_units_Z 16
_cell_length_a 16.006737
_cell_length_b 8.980285
_cell_length_c 12.216575
_cell_angle_alpha 56.545164
_cell_angle_beta 37.897980
_cell_angle_gamma 45.493826
_cell_volume 769.280759
_symmetry_space_group_name_H-M "P -1"
_symmetry_group_IT_number 2
_symmetry_cell_setting 'triclinic'
loop_
_space_group_symop_operation_xyz
x,y,z
-x,-y,-z
loop_
_atom_site_type_symbol
_atom_site_label
_atom_site_fract_x
_atom_site_fract_y
_atom_site_fract_z
Si Si1 0.387097 0.676420 0.681386
Si Si2 0.285443 0.371762 0.678091
Si Si3 0.729231 0.910909 0.596730
Si Si4 0.852533 0.180884 0.324872
Si Si5 0.608385 0.730654 0.153229
Si Si6 0.865918 0.759942 0.286742
Si Si7 0.112835 0.859931 0.044102
Si Si8 0.164170 0.435932 0.205362
O O1 0.536084 0.705846 0.512932
O O2 0.301366 0.720445 0.635815
O O3 0.443464 0.438167 0.748664
O O4 0.262806 0.843592 0.831114
O O5 0.164709 0.619085 0.676336
O O6 0.281692 0.327874 0.828383
O O7 0.224976 0.242877 0.725371
O O8 0.742334 0.892349 0.457940
O O9 0.813342 0.683213 0.656149
O O10 0.825284 0.023363 0.492001
O O11 0.545330 0.039895 0.768746
O O12 0.026627 0.052505 0.139915
O O13 0.710523 0.727809 0.945779
O O14 0.975187 0.864585 0.102069
O O15 0.986613 0.526545 0.302925
O O16 0.182134 0.637456 0.126924
#
# Coordination Sequence:
#
# PCOD8038130 Si02
#       8
#     2   2   2   2   2   2   2   2
#     4  10  17  34  55  79 109 139 182 217 267 326
#     4  11  20  35  55  84 118 130 172 232 282 314
#     4  11  18  36  58  80 103 146 194 211 252 331
#     4  10  18  31  56  80 101 146 181 217 264 324
#     4  10  19  34  56  83 104 144 182 218 267 318
#     4   9  22  35  53  85 110 141 171 231 276 301
#     4   8  19  35  54  78 102 146 188 210 260 319
#     4   9  20  35  57  78 106 144 189 220 249 320
#
# _framework density 20.798649000000001
#
# number of rings (size 3 to 8) (size 9 to 14) (size 15 to 20)
#    0.750    1.500    2.500    1.875    0.000    1.000 
#    0.000    1.875    0.000    3.000    0.000    0.000 
#    0.000    0.000    0.000    0.000    0.000    0.000 
#
# Total GULP energy -198278.409633 kJ/mol
# GULP energy per Si atom -12392.400602 kJ/mol
# Density = 2.075131 g / cm^3
# Si number density = 20.798649 Si / 1000 Ang^3
#
#
#
# Elastic Constant Matrix: (Units=GPa)
#
#
# Indices 1 2 3 4 5 6 
#
# 1 59.9428 17.7856 19.9236 2.4136 -2.0713 14.3745
# 2 17.7856 79.0421 27.8324 22.0083 -4.9587 1.0191
# 3 19.9236 27.8324 94.6000 18.9660 -1.5834 5.8776
# 4 2.4136 22.0083 18.9660 39.0259 -4.4046 -1.0951
# 5 -2.0713 -4.9587 -1.5834 -4.4046 15.9898 0.4994
# 6 14.3745 1.0191 5.8776 -1.0951 0.4994 21.2124
#
#
#
# Elastic Compliance Matrix: (Units=1/GPa)
#
#
# Indices 1 2 3 4 5 6 
#
# 1 0.022298 -0.004294 -0.002999 0.002372 0.002351 -0.014006
# 2 -0.004294 0.016763 -0.002615 -0.007600 0.002215 0.002384
# 3 -0.002999 -0.002615 0.013029 -0.004853 -0.001194 -0.001675
# 4 0.002372 -0.007600 -0.004853 0.032900 0.006481 0.001648
# 5 0.002351 0.002215 -0.001194 0.006481 0.065279 -0.002571
# 6 -0.014006 0.002384 -0.001675 0.001648 -0.002571 0.057128
#
#
# Mechanical properties :
#
#
# Convention : Reuss Voigt Hill
#
# Bulk Modulus (GPa) = 30.98442 40.51866 35.75154
# Shear Modulus (GPa) = 21.01117 26.44852 23.72985
#
# Velocity S-wave (km/s) = 3.18184 3.56988 3.38143
# Velocity P-wave (km/s) = 5.33184 6.04283 5.69843
#
# Compressibility (1/GPa) = 0.03227429
#
# Stress axis : x y z
#
# Youngs Moduli (GPa) = 44.84783 59.65615 76.75273
#
# Poissons Ratio (x) = 0.25615 0.23017
# Poissons Ratio (y) = 0.19257 0.20070
# Poissons Ratio (z) = 0.13449 0.15599
#
# Static dielectric constant tensor:
#      x y z
#    x 3.074270 -0.011950 -0.039730 
#    y -0.011950 4.113840 0.125070 
#    z -0.039730 0.125070 3.787590 
# 
# 
# High freq. dielectric constant tensor:
#      x y z
#    x 1.735130 -0.008460 -0.004670 
#    y -0.008460 1.839710 0.017590 
#    z -0.004670 0.017590 1.823560 
# 
# From -- ./inp_files/445740.got.cif
#   From: 2010.06.25/outbox.cif.g09.slc.cpg/sg2_223_cif.got.tgz:445740.got - 2010.06.27 13:26:56.
