data_PCOD8038748
_publ_section_title
;
Structure prediction by ZEFSAII (Michael W. Deem and Ramdas Pophale) SiO2 
 PCOD8038748
Probable space group: P -1
;
_chemical_formula_sum "Si O2"
_cell_formula_units_Z 14
_cell_length_a 9.408626
_cell_length_b 12.951058
_cell_length_c 11.812035
_cell_angle_alpha 49.190676
_cell_angle_beta 140.055398
_cell_angle_gamma 120.455460
_cell_volume 699.396810
_symmetry_space_group_name_H-M "P -1"
_symmetry_group_IT_number 2
_symmetry_cell_setting 'triclinic'
loop_
_space_group_symop_operation_xyz
x,y,z
-x,-y,-z
loop_
_atom_site_type_symbol
_atom_site_label
_atom_site_fract_x
_atom_site_fract_y
_atom_site_fract_z
Si Si1 0.856063 0.829083 0.595387
Si Si2 0.817928 0.953635 0.010068
Si Si3 0.768545 0.615305 0.866610
Si Si4 0.501011 0.125036 0.826410
Si Si5 0.830060 0.044613 0.606043
Si Si6 0.775101 0.335733 0.976879
Si Si7 0.397122 0.185325 0.213025
O O1 0.700107 0.726161 0.649161
O O2 0.743623 0.844629 0.393122
O O3 0.878819 0.977723 0.561600
O O4 0.103615 0.765277 0.786111
O O5 0.939973 0.899848 0.237296
O O6 0.669371 0.834001 0.946342
O O7 0.664330 0.083423 0.853054
O O8 0.000000 0.000000 0.000000
O O9 0.671547 0.464879 0.886631
O O10 0.671003 0.664700 0.892226
O O11 0.038385 0.610418 0.038099
O O12 0.582741 0.259735 0.845108
O O13 0.500000 0.000000 0.000000
O O14 0.660821 0.168332 0.399821
O O15 0.732465 0.928147 0.711938
#
# Coordination Sequence:
#
# PCOD8038748 Si02
#       7
#     2   2   2   2   2   2   2
#     4   9  17  33  50  75 106 140 172 219 264 309
#     4  10  18  30  50  74 102 133 170 222 258 299
#     4   8  17  34  53  77 107 136 173 226 260 304
#     4  12  23  33  51  81 112 142 173 214 268 321
#     4   9  15  26  46  73 103 127 160 215 266 303
#     4   9  18  36  49  74 111 136 179 212 265 313
#     4   9  15  26  46  76 100 121 165 214 269 301
#
# _framework density 20.017247999999999
#
# number of rings (size 3 to 8) (size 9 to 14) (size 15 to 20)
#    0.857    1.714    2.857    0.857    2.000    1.143 
#    0.000    0.000    0.000    0.857    0.000    2.000 
#    0.000    0.000    0.000    0.000    0.000    0.000 
#
# Total GULP energy -173467.356191 kJ/mol
# GULP energy per Si atom -12390.525442 kJ/mol
# Density = 1.997169 g / cm^3
# Si number density = 20.017248 Si / 1000 Ang^3
#
#
#
# Elastic Constant Matrix: (Units=GPa)
#
#
# Indices 1 2 3 4 5 6 
#
# 1 9.7958 22.8902 8.4956 -2.4497 2.1304 -15.0586
# 2 22.8902 173.5687 64.2130 17.2911 9.0194 -37.7346
# 3 8.4956 64.2130 121.7059 34.0733 10.5967 -16.7423
# 4 -2.4497 17.2911 34.0733 34.4296 -3.7991 4.0358
# 5 2.1304 9.0194 10.5967 -3.7991 20.8302 -6.4022
# 6 -15.0586 -37.7346 -16.7423 4.0358 -6.4022 27.2189
#
#
#
# Elastic Compliance Matrix: (Units=1/GPa)
#
#
# Indices 1 2 3 4 5 6 
#
# 1 0.766227 -0.017045 0.001618 0.019618 0.058431 0.412109
# 2 -0.017045 0.010174 -0.002263 -0.004651 -0.001227 0.003684
# 3 0.001618 -0.002263 0.015448 -0.015785 -0.007516 0.007834
# 4 0.019618 -0.004651 -0.015785 0.051103 0.014443 -0.009483
# 5 0.058431 -0.001227 -0.007516 0.014443 0.060745 0.038149
# 6 0.412109 0.003684 0.007834 -0.009483 0.038149 0.285040
#
#
# Mechanical properties :
#
#
# Convention : Reuss Voigt Hill
#
# Bulk Modulus (GPa) = 1.32193 55.14091 28.23142
# Shear Modulus (GPa) = 3.38690 30.46050 16.92370
#
# Velocity S-wave (km/s) = 1.30218 3.90515 2.91083
# Velocity P-wave (km/s) = 1.70960 6.92388 5.04295
#
# Compressibility (1/GPa) = 0.75647108
#
# Stress axis : x y z
#
# Youngs Moduli (GPa) = 1.30510 98.28537 64.73129
#
# Poissons Ratio (x) = 1.67530 -0.10476
# Poissons Ratio (y) = 0.02225 0.14646
# Poissons Ratio (z) = -0.00211 0.22238
#
# Static dielectric constant tensor:
#      x y z
#    x 3.353110 -0.358950 0.170180 
#    y -0.358950 3.831550 0.252810 
#    z 0.170180 0.252810 3.727910 
# 
# 
# High freq. dielectric constant tensor:
#      x y z
#    x 1.750970 -0.026290 0.016810 
#    y -0.026290 1.764930 0.022010 
#    z 0.016810 0.022010 1.762870 
# 
# From -- ./inp_files/423350.got.cif
#   From: 2010.06.25/outbox.cif.g09.slc.cpg/sg2_212_cif.got.tgz:423350.got - 2010.06.27 13:26:56.
