data_PCOD8038367
_publ_section_title
;
Structure prediction by ZEFSAII (Michael W. Deem and Ramdas Pophale) SiO2 
 PCOD8038367
Probable space group: P -1
;
_chemical_formula_sum "Si O2"
_cell_formula_units_Z 16
_cell_length_a 25.015227
_cell_length_b 11.725875
_cell_length_c 18.141050
_cell_angle_alpha 30.754251
_cell_angle_beta 161.025071
_cell_angle_gamma 150.626267
_cell_volume 827.653507
_symmetry_space_group_name_H-M "P -1"
_symmetry_group_IT_number 2
_symmetry_cell_setting 'triclinic'
loop_
_space_group_symop_operation_xyz
x,y,z
-x,-y,-z
loop_
_atom_site_type_symbol
_atom_site_label
_atom_site_fract_x
_atom_site_fract_y
_atom_site_fract_z
Si Si1 0.408923 0.444028 0.137062
Si Si2 0.110237 0.055727 0.186426
Si Si3 0.396574 0.080058 0.443856
Si Si4 0.729291 0.971117 0.928359
Si Si5 0.880652 0.292057 0.815901
Si Si6 0.214320 0.267287 0.583957
Si Si7 0.955982 0.545652 0.334928
Si Si8 0.929891 0.821568 0.399359
O O1 0.456542 0.316106 0.340731
O O2 0.335265 0.265660 0.072752
O O3 0.584945 0.653549 0.225016
O O4 0.255049 0.544075 0.902190
O O5 0.045182 0.828217 0.281371
O O6 0.312020 0.125429 0.385552
O O7 0.000000 0.000000 0.000000
O O8 0.070357 0.273419 0.053257
O O9 0.562381 0.015397 0.721126
O O10 0.267707 0.863603 0.347959
O O11 0.835788 0.198873 0.891913
O O12 0.853499 0.945083 0.169008
O O13 0.888103 0.561383 0.672587
O O14 0.209553 0.260295 0.670453
O O15 0.114758 0.007076 0.565519
O O16 0.000000 0.500000 0.500000
O O17 0.036307 0.410245 0.457369
#
# Coordination Sequence:
#
# PCOD8038367 Si02
#       8
#     2   2   2   2   2   2   2   2
#     4  11  20  37  62  88 115 153 198 248 291 340
#     4  10  18  31  56  89 112 148 189 244 293 333
#     4  10  18  32  60  93 113 144 199 252 293 330
#     4  11  19  37  60  90 115 142 203 251 286 337
#     4  10  17  35  59  84 114 149 194 243 288 344
#     4  11  24  41  58  85 123 163 195 230 296 363
#     4  12  22  38  60  91 123 150 194 247 294 347
#     4  11  26  40  56  88 124 163 190 233 300 358
#
# _framework density 19.331761
#
# number of rings (size 3 to 8) (size 9 to 14) (size 15 to 20)
#    0.000    1.250    7.500    2.250    0.000    2.500 
#    0.000    0.000    0.000    0.750    0.000    0.000 
#    0.000    0.000    0.000    0.000    0.000    0.000 
#
# Total GULP energy -198402.022853 kJ/mol
# GULP energy per Si atom -12400.126428 kJ/mol
# Density = 1.928776 g / cm^3
# Si number density = 19.331761 Si / 1000 Ang^3
#
#
#
# Elastic Constant Matrix: (Units=GPa)
#
#
# Indices 1 2 3 4 5 6 
#
# 1 80.9452 16.0286 35.0896 7.9714 9.7340 18.9905
# 2 16.0286 42.5375 -2.1933 0.5231 -2.4967 13.0673
# 3 35.0896 -2.1933 83.9885 -2.7632 8.6637 0.8877
# 4 7.9714 0.5231 -2.7632 23.7995 9.4904 5.0451
# 5 9.7340 -2.4967 8.6637 9.4904 37.7288 -3.1956
# 6 18.9905 13.0673 0.8877 5.0451 -3.1956 27.9089
#
#
#
# Elastic Compliance Matrix: (Units=1/GPa)
#
#
# Indices 1 2 3 4 5 6 
#
# 1 0.020278 -0.004859 -0.008237 -0.003873 -0.003617 -0.010975
# 2 -0.004859 0.028808 0.002930 0.003329 0.000736 -0.010793
# 3 -0.008237 0.002930 0.015799 0.004910 -0.002326 0.002577
# 4 -0.003873 0.003329 0.004910 0.051368 -0.013670 -0.009931
# 5 -0.003617 0.000736 -0.002326 -0.013670 0.032166 0.008345
# 6 -0.010975 -0.010793 0.002577 -0.009931 0.008345 0.051021
#
#
# Mechanical properties :
#
#
# Convention : Reuss Voigt Hill
#
# Bulk Modulus (GPa) = 22.44513 33.92456 28.18484
# Shear Modulus (GPa) = 21.31065 28.45719 24.88392
#
# Velocity S-wave (km/s) = 3.32379 3.84088 3.59165
# Velocity P-wave (km/s) = 5.13476 6.10382 5.64014
#
# Compressibility (1/GPa) = 0.04455310
#
# Stress axis : x y z
#
# Youngs Moduli (GPa) = 49.31365 34.71202 63.29688
#
# Poissons Ratio (x) = 0.16866 0.52139
# Poissons Ratio (y) = 0.23961 -0.18546
# Poissons Ratio (z) = 0.40621 -0.10171
#
# Static dielectric constant tensor:
#      x y z
#    x 3.813660 0.214710 0.405920 
#    y 0.214710 3.181400 -0.174870 
#    z 0.405920 -0.174870 3.778560 
# 
# 
# High freq. dielectric constant tensor:
#      x y z
#    x 1.758880 0.025210 0.015950 
#    y 0.025210 1.718610 -0.019370 
#    z 0.015950 -0.019370 1.756060 
# 
# From -- ./inp_files/260762.got.cif
#   From: 2010.06.25/outbox.cif.g09.slc.cpg/sg2_131_cif.got.tgz:260762.got - 2010.06.27 13:26:56.
