data_PCOD8038559
_publ_section_title
;
Structure prediction by ZEFSAII (Michael W. Deem and Ramdas Pophale) SiO2 
 PCOD8038559
Probable space group: P -1
;
_chemical_formula_sum "Si O2"
_cell_formula_units_Z 16
_cell_length_a 10.246279
_cell_length_b 11.628586
_cell_length_c 14.413676
_cell_angle_alpha 104.840602
_cell_angle_beta 117.620816
_cell_angle_gamma 126.385962
_cell_volume 817.621756
_symmetry_space_group_name_H-M "P -1"
_symmetry_group_IT_number 2
_symmetry_cell_setting 'triclinic'
loop_
_space_group_symop_operation_xyz
x,y,z
-x,-y,-z
loop_
_atom_site_type_symbol
_atom_site_label
_atom_site_fract_x
_atom_site_fract_y
_atom_site_fract_z
Si Si1 0.325848 0.927022 0.164165
Si Si2 0.488906 0.168268 0.099379
Si Si3 0.003007 0.331355 0.829991
Si Si4 0.772947 0.602120 0.264388
Si Si5 0.151479 0.872957 0.617800
Si Si6 0.862050 0.500618 0.811364
Si Si7 0.905286 0.242228 0.227348
Si Si8 0.490477 0.322344 0.811040
O O1 0.174629 0.863314 0.195483
O O2 0.390930 0.086843 0.157007
O O3 0.591816 0.034801 0.297786
O O4 0.137745 0.713384 0.998697
O O5 0.565983 0.355117 0.145346
O O6 0.735313 0.248386 0.177311
O O7 0.257669 0.978424 0.912706
O O8 0.029936 0.274348 0.733038
O O9 0.848787 0.350256 0.762416
O O10 0.293147 0.553876 0.012450
O O11 0.600927 0.604067 0.200417
O O12 0.942695 0.712506 0.435612
O O13 0.002316 0.733779 0.634768
O O14 0.238058 0.068594 0.692607
O O15 0.610028 0.375401 0.760055
O O16 0.852297 0.561954 0.721206
#
# Coordination Sequence:
#
# PCOD8038559 Si02
#       8
#     2   2   2   2   2   2   2   2
#     4   9  18  34  62  85 106 140 191 237 272 316
#     4   9  18  35  55  86 111 141 187 235 271 320
#     4  11  19  38  61  86 104 141 198 237 266 317
#     4  12  25  35  53  87 123 146 178 224 286 336
#     4  11  21  37  56  82 118 151 180 223 281 337
#     4  10  17  37  65  85  99 143 203 229 265 323
#     4   9  18  34  63  82 105 144 194 229 270 324
#     4  11  22  40  58  80 114 153 183 227 278 333
#
# _framework density 19.568950999999998
#
# number of rings (size 3 to 8) (size 9 to 14) (size 15 to 20)
#    0.000    1.750    3.750    3.000    0.000    2.500 
#    0.000    7.500    0.000    0.000    0.000    0.000 
#    0.000    0.000    0.000    0.000    0.000    0.000 
#
# Total GULP energy -198403.040344 kJ/mol
# GULP energy per Si atom -12400.190022 kJ/mol
# Density = 1.952441 g / cm^3
# Si number density = 19.568951 Si / 1000 Ang^3
#
#
#
# Elastic Constant Matrix: (Units=GPa)
#
#
# Indices 1 2 3 4 5 6 
#
# 1 163.0452 44.4879 46.3188 -47.0730 14.7174 87.5755
# 2 44.4879 123.3175 14.6106 -7.0608 -23.4334 -9.5766
# 3 46.3188 14.6106 55.7658 -35.4978 -0.4807 51.8987
# 4 -47.0730 -7.0608 -35.4978 52.4007 -15.9584 -82.3767
# 5 14.7174 -23.4334 -0.4807 -15.9584 31.3430 49.0119
# 6 87.5755 -9.5766 51.8987 -82.3767 49.0119 196.1535
#
#
#
# Elastic Compliance Matrix: (Units=1/GPa)
#
#
# Indices 1 2 3 4 5 6 
#
# 1 0.010480 -0.004140 -0.005358 0.000536 -0.004533 -0.002106
# 2 -0.004140 0.011898 0.002677 0.003821 0.012516 0.000199
# 3 -0.005358 0.002677 0.041195 0.024001 0.024138 -0.004328
# 4 0.000536 0.003821 0.024001 0.076603 0.002763 0.025077
# 5 -0.004533 0.012516 0.024138 0.002763 0.080784 -0.022777
# 6 -0.002106 0.000199 -0.004328 0.025077 -0.022777 0.023415
#
#
# Mechanical properties :
#
#
# Convention : Reuss Voigt Hill
#
# Bulk Modulus (GPa) = 20.02757 61.44036 40.73397
# Shear Modulus (GPa) = 18.20425 71.76018 44.98221
#
# Velocity S-wave (km/s) = 3.05333 6.06218 4.79963
# Velocity P-wave (km/s) = 4.76309 8.97023 7.18165
#
# Compressibility (1/GPa) = 0.04993116
#
# Stress axis : x y z
#
# Youngs Moduli (GPa) = 95.41948 84.04730 24.27465
#
# Poissons Ratio (x) = 0.34796 0.13006
# Poissons Ratio (y) = 0.39505 -0.06498
# Poissons Ratio (z) = 0.51126 -0.22499
#
# Static dielectric constant tensor:
#      x y z
#    x 3.403250 0.281250 -0.150270 
#    y 0.281250 3.959180 -0.077830 
#    z -0.150270 -0.077830 3.226360 
# 
# 
# High freq. dielectric constant tensor:
#      x y z
#    x 1.738780 0.015240 -0.011940 
#    y 0.015240 1.783110 -0.006200 
#    z -0.011940 -0.006200 1.729710 
# 
# From -- ./inp_files/269453.got.cif
#   From: 2010.06.25/outbox.cif.g09.slc.cpg/sg2_135_cif.got.tgz:269453.got - 2010.06.27 13:26:56.
