data_PCOD8038070
_publ_section_title
;
Structure prediction by ZEFSAII (Michael W. Deem and Ramdas Pophale) SiO2 
 PCOD8038070
Probable space group: P -1
;
_chemical_formula_sum "Si O2"
_cell_formula_units_Z 16
_cell_length_a 16.843424
_cell_length_b 9.646160
_cell_length_c 9.406663
_cell_angle_alpha 66.343139
_cell_angle_beta 47.159871
_cell_angle_gamma 93.931919
_cell_volume 883.975451
_symmetry_space_group_name_H-M "P -1"
_symmetry_group_IT_number 2
_symmetry_cell_setting 'triclinic'
loop_
_space_group_symop_operation_xyz
x,y,z
-x,-y,-z
loop_
_atom_site_type_symbol
_atom_site_label
_atom_site_fract_x
_atom_site_fract_y
_atom_site_fract_z
Si Si1 0.496602 0.676609 0.412087
Si Si2 0.701611 0.998119 0.586316
Si Si3 0.726175 0.034799 0.083424
Si Si4 0.461663 0.799267 0.104411
Si Si5 0.306235 0.754092 0.732017
Si Si6 0.898551 0.056473 0.105876
Si Si7 0.973822 0.440623 0.895369
Si Si8 0.788220 0.241067 0.643466
O O1 0.500000 0.500000 0.500000
O O2 0.628928 0.844009 0.221093
O O3 0.460488 0.692749 0.288130
O O4 0.394001 0.669566 0.650638
O O5 0.670161 0.129448 0.485495
O O6 0.794037 0.956486 0.398704
O O7 0.770264 0.098089 0.606098
O O8 0.570339 0.816275 0.856073
O O9 0.659944 0.118373 0.225131
O O10 0.828579 0.015886 0.057043
O O11 0.795407 0.165184 0.816632
O O12 0.321571 0.707690 0.247071
O O13 0.500000 0.000000 0.000000
O O14 0.161758 0.595182 0.977492
O O15 0.976449 0.262363 0.956508
O O16 0.000000 0.000000 0.000000
O O17 0.078973 0.582861 0.606894
O O18 0.000000 0.500000 0.000000
#
# Coordination Sequence:
#
# PCOD8038070 Si02
#       8
#     2   2   2   2   2   2   2   2
#     4  12  22  36  58  93 122 146 197 255 295 342
#     4   9  16  35  62  80 106 156 206 226 273 358
#     4  10  22  37  60  85 112 157 199 238 296 355
#     4  10  17  33  61  86 111 152 200 239 276 344
#     4  10  20  36  56  86 117 157 193 243 291 349
#     4  10  23  39  56  84 126 154 182 245 312 344
#     4  10  18  34  62  84 105 154 212 230 269 358
#     4  11  17  34  65  88 106 149 217 236 268 344
#
# _framework density 18.100048999999999
#
# number of rings (size 3 to 8) (size 9 to 14) (size 15 to 20)
#    0.000    2.000    7.500    0.375    0.000    5.000 
#    0.000    3.125    0.000    4.500    0.000    0.000 
#    0.000    0.000    0.000    0.000    0.000    0.000 
#
# Total GULP energy -198329.284783 kJ/mol
# GULP energy per Si atom -12395.580299 kJ/mol
# Density = 1.805885 g / cm^3
# Si number density = 18.100049 Si / 1000 Ang^3
#
#
#
# Elastic Constant Matrix: (Units=GPa)
#
#
# Indices 1 2 3 4 5 6 
#
# 1 92.1851 37.5948 52.3457 11.5879 -0.5125 -11.9775
# 2 37.5948 66.2482 37.7420 6.1850 -5.3756 -15.9599
# 3 52.3457 37.7420 144.4209 3.2352 -6.7788 -8.6048
# 4 11.5879 6.1850 3.2352 28.3374 6.1769 -6.0409
# 5 -0.5125 -5.3756 -6.7788 6.1769 31.7385 5.2827
# 6 -11.9775 -15.9599 -8.6048 -6.0409 5.2827 33.8226
#
#
#
# Elastic Compliance Matrix: (Units=1/GPa)
#
#
# Indices 1 2 3 4 5 6 
#
# 1 0.016539 -0.006384 -0.004208 -0.004417 -0.001044 0.001148
# 2 -0.006384 0.022373 -0.002997 -0.000870 0.002040 0.007060
# 3 -0.004208 -0.002997 0.009239 0.000904 0.001321 -0.000599
# 4 -0.004417 -0.000870 0.000904 0.040641 -0.009089 0.006934
# 5 -0.001044 0.002040 0.001321 -0.009089 0.034911 -0.006147
# 6 0.001148 0.007060 -0.000599 0.006934 -0.006147 0.035350
#
#
# Mechanical properties :
#
#
# Convention : Reuss Voigt Hill
#
# Bulk Modulus (GPa) = 47.68165 62.02435 54.85300
# Shear Modulus (GPa) = 25.87704 30.45781 28.16742
#
# Velocity S-wave (km/s) = 3.78520 4.10658 3.94916
# Velocity P-wave (km/s) = 6.74568 7.53838 7.15302
#
# Compressibility (1/GPa) = 0.02097243
#
# Stress axis : x y z
#
# Youngs Moduli (GPa) = 60.46156 44.69761 108.24091
#
# Poissons Ratio (x) = 0.28536 0.45548
# Poissons Ratio (y) = 0.38601 0.32438
# Poissons Ratio (z) = 0.25442 0.13395
#
# Static dielectric constant tensor:
#      x y z
#    x 3.351380 0.182990 -0.213480 
#    y 0.182990 3.193550 0.099790 
#    z -0.213480 0.099790 3.868390 
# 
# 
# High freq. dielectric constant tensor:
#      x y z
#    x 1.695070 0.015390 -0.007880 
#    y 0.015390 1.669190 0.012850 
#    z -0.007880 0.012850 1.715850 
# 
# From -- ./inp_files/328696.got.cif
#   From: 2010.06.25/outbox.cif.g09.slc.cpg/sg2_165_cif.got.tgz:328696.got - 2010.06.27 13:26:56.
