data_PCOD8038188
_publ_section_title
;
Structure prediction by ZEFSAII (Michael W. Deem and Ramdas Pophale) SiO2 
 PCOD8038188
Probable space group: P -1
;
_chemical_formula_sum "Si O2"
_cell_formula_units_Z 16
_cell_length_a 27.000000
_cell_length_b 9.000000
_cell_length_c 15.000000
_cell_angle_alpha 50.000000
_cell_angle_beta 160.000000
_cell_angle_gamma 140.000000
_cell_volume 750.501489
_symmetry_space_group_name_H-M "P -1"
_symmetry_group_IT_number 2
_symmetry_cell_setting 'triclinic'
loop_
_space_group_symop_operation_xyz
x,y,z
-x,-y,-z
loop_
_atom_site_type_symbol
_atom_site_label
_atom_site_fract_x
_atom_site_fract_y
_atom_site_fract_z
Si Si1 0.843991 0.280347 0.883529
Si Si2 0.673208 0.094400 0.316295
Si Si3 0.398563 0.563139 0.614354
Si Si4 0.170051 0.047898 0.506388
Si Si5 0.777078 0.934650 0.217055
Si Si6 0.044477 0.335262 0.381889
Si Si7 0.762964 0.793360 0.875362
Si Si8 0.418066 0.326459 0.562212
O O1 0.679015 0.296916 0.603026
O O2 0.743526 0.005373 0.782369
O O3 0.000000 0.500000 0.000000
O O4 0.927432 0.314512 0.108894
O O5 0.785699 0.379704 0.422417
O O6 0.802097 0.064391 0.487745
O O7 0.606115 0.920848 0.357427
O O8 0.500000 0.000000 0.000000
O O9 0.259733 0.335345 0.533540
O O10 0.421021 0.455493 0.605852
O O11 0.589930 0.754538 0.915247
O O12 0.252550 0.020928 0.747421
O O13 0.951559 0.884318 0.204028
O O14 0.875589 0.810016 0.445641
O O15 0.907175 0.200526 0.286133
O O16 0.611566 0.526307 0.764753
O O17 0.746768 0.756814 0.754137
#
# Coordination Sequence:
#
# PCOD8038188 Si02
#       8
#     2   2   2   2   2   2   2   2
#     4  12  23  41  68 102 132 169 226 273 324 391
#     4  11  26  44  65  96 130 176 221 269 323 395
#     4  11  24  42  70  99 130 174 218 274 328 390
#     4  11  24  42  70  92 134 175 219 265 332 390
#     4  11  24  44  68  98 134 172 217 270 332 395
#     4  11  24  42  69  97 134 173 215 274 331 386
#     4  11  23  44  66  98 131 176 211 277 328 385
#     4  10  25  43  67  93 137 169 219 268 333 388
#
# _framework density 21.319078000000001
#
# number of rings (size 3 to 8) (size 9 to 14) (size 15 to 20)
#    0.000    1.000    2.500    3.375    5.250    5.500 
#    2.250    0.000    0.000    0.000    0.000    0.000 
#    0.000    0.000    0.000    0.000    0.000    0.000 
#
# Total GULP energy -198384.529066 kJ/mol
# GULP energy per Si atom -12399.033067 kJ/mol
# Density = 2.127056 g / cm^3
# Si number density = 21.319078 Si / 1000 Ang^3
#
#
#
# Elastic Constant Matrix: (Units=GPa)
#
#
# Indices 1 2 3 4 5 6 
#
# 1 87.5103 38.5929 40.2569 4.2497 -35.0301 30.9405
# 2 38.5929 132.2859 36.4552 16.1065 -11.0584 29.7558
# 3 40.2569 36.4552 137.6803 6.2956 -33.9055 11.4990
# 4 4.2497 16.1065 6.2956 43.9739 -3.1247 -3.0965
# 5 -35.0301 -11.0584 -33.9055 -3.1247 41.2319 -1.2054
# 6 30.9405 29.7558 11.4990 -3.0965 -1.2054 36.1324
#
#
#
# Elastic Compliance Matrix: (Units=1/GPa)
#
#
# Indices 1 2 3 4 5 6 
#
# 1 0.030849 -0.000874 -0.000526 -0.002592 0.024617 -0.024930
# 2 -0.000874 0.010519 -0.001652 -0.004063 0.000186 -0.007730
# 3 -0.000526 -0.001652 0.009686 -0.000307 0.007021 -0.001064
# 4 -0.002592 -0.004063 -0.000307 0.024968 -0.001425 0.007755
# 5 0.024617 0.000186 0.007021 -0.001425 0.050242 -0.021913
# 6 -0.024930 -0.007730 -0.001064 0.007755 -0.021913 0.055662
#
#
# Mechanical properties :
#
#
# Convention : Reuss Voigt Hill
#
# Bulk Modulus (GPa) = 22.24702 65.34293 43.79497
# Shear Modulus (GPa) = 24.62897 40.41241 32.52069
#
# Velocity S-wave (km/s) = 3.40259 4.35857 3.90991
# Velocity P-wave (km/s) = 5.08869 7.48639 6.40081
#
# Compressibility (1/GPa) = 0.04494984
#
# Stress axis : x y z
#
# Youngs Moduli (GPa) = 32.41629 95.06861 103.23823
#
# Poissons Ratio (x) = 0.08306 0.05428
# Poissons Ratio (y) = 0.02832 0.17060
# Poissons Ratio (z) = 0.01704 0.15710
#
# Static dielectric constant tensor:
#      x y z
#    x 4.339410 -0.104950 -0.173660 
#    y -0.104950 4.692190 -0.000670 
#    z -0.173660 -0.000670 3.901670 
# 
# 
# High freq. dielectric constant tensor:
#      x y z
#    x 1.843410 0.013730 -0.023270 
#    y 0.013730 1.855280 0.010840 
#    z -0.023270 0.010840 1.847380 
# 
# From -- ./inp_files/209449.got.cif
#   From: 2010.06.25/outbox.ucp.g09.slc.cvg/sg2_105_cif.got.tgz:209449.got - 2010.06.28 11:54:26.
