data_PCOD8038360
_publ_section_title
;
Structure prediction by ZEFSAII (Michael W. Deem and Ramdas Pophale) SiO2 
 PCOD8038360
Probable space group: P -1
;
_chemical_formula_sum "Si O2"
_cell_formula_units_Z 16
_cell_length_a 14.028606
_cell_length_b 13.818763
_cell_length_c 8.594325
_cell_angle_alpha 135.882412
_cell_angle_beta 116.254690
_cell_angle_gamma 41.941862
_cell_volume 760.007367
_symmetry_space_group_name_H-M "P -1"
_symmetry_group_IT_number 2
_symmetry_cell_setting 'triclinic'
loop_
_space_group_symop_operation_xyz
x,y,z
-x,-y,-z
loop_
_atom_site_type_symbol
_atom_site_label
_atom_site_fract_x
_atom_site_fract_y
_atom_site_fract_z
Si Si1 0.303700 0.557616 0.716407
Si Si2 0.025707 0.884257 0.032632
Si Si3 0.549689 0.504764 0.707325
Si Si4 0.645201 0.788072 0.714671
Si Si5 0.847607 0.247792 0.499704
Si Si6 0.425924 0.204515 0.981401
Si Si7 0.056446 0.336839 0.232960
Si Si8 0.103399 0.521367 0.031550
O O1 0.200390 0.701352 0.950051
O O2 0.458141 0.501996 0.768687
O O3 0.323414 0.376099 0.554957
O O4 0.226178 0.648775 0.598982
O O5 0.933833 0.824440 0.868841
O O6 0.000000 0.000000 0.000000
O O7 0.965503 0.018293 0.297906
O O8 0.500000 0.500000 0.500000
O O9 0.723757 0.318478 0.620574
O O10 0.515740 0.699191 0.926333
O O11 0.787357 0.752172 0.818235
O O12 0.535446 0.982182 0.758210
O O13 0.576509 0.791888 0.828614
O O14 0.926166 0.314110 0.698624
O O15 0.268190 0.319054 0.926334
O O16 0.000000 0.500000 0.500000
O O17 0.938749 0.417564 0.106268
O O18 0.000000 0.500000 0.000000
#
# Coordination Sequence:
#
# PCOD8038360 Si02
#       8
#     2   2   2   2   2   2   2   2
#     4  10  17  35  58  91 126 167 208 265 309 380
#     4  10  23  37  61  91 131 164 218 262 321 382
#     4   9  16  30  55  85 119 165 207 253 312 368
#     4  11  20  35  61  98 124 157 225 254 317 378
#     4   9  19  35  59  90 121 167 213 260 318 372
#     4  10  21  35  61  94 125 162 213 270 308 380
#     4  12  25  40  67  95 128 173 213 267 332 391
#     4  11  21  42  64  93 135 166 210 277 326 370
#
# _framework density 21.052426000000001
#
# number of rings (size 3 to 8) (size 9 to 14) (size 15 to 20)
#    0.000    1.750    6.250    0.000    7.000    0.500 
#    0.000    0.625    0.000    4.500    0.000    0.000 
#    0.000    0.000    0.000    0.000    0.000    0.000 
#
# Total GULP energy -198298.927493 kJ/mol
# GULP energy per Si atom -12393.682968 kJ/mol
# Density = 2.100451 g / cm^3
# Si number density = 21.052426 Si / 1000 Ang^3
#
#
#
# Elastic Constant Matrix: (Units=GPa)
#
#
# Indices 1 2 3 4 5 6 
#
# 1 150.5520 33.2521 61.9499 22.6666 24.9497 -18.4055
# 2 33.2521 85.6005 53.0007 24.4340 9.1334 -12.6192
# 3 61.9499 53.0007 141.5110 37.4726 10.9520 -12.7729
# 4 22.6666 24.4340 37.4726 41.3932 -3.0937 -4.2285
# 5 24.9497 9.1334 10.9520 -3.0937 33.4411 2.0374
# 6 -18.4055 -12.6192 -12.7729 -4.2285 2.0374 27.6655
#
#
#
# Elastic Compliance Matrix: (Units=1/GPa)
#
#
# Indices 1 2 3 4 5 6 
#
# 1 0.010045 0.000231 -0.002520 -0.003329 -0.007385 0.005660
# 2 0.000231 0.017190 -0.003992 -0.006434 -0.004490 0.005499
# 3 -0.002520 -0.003992 0.011690 -0.006863 -0.001552 0.000965
# 4 -0.003329 -0.006434 -0.006863 0.036388 0.010068 -0.003498
# 5 -0.007385 -0.004490 -0.001552 0.010068 0.038626 -0.008983
# 6 0.005660 0.005499 0.000965 -0.003498 -0.008983 0.042992
#
#
# Mechanical properties :
#
#
# Convention : Reuss Voigt Hill
#
# Bulk Modulus (GPa) = 37.93187 74.89656 56.41421
# Shear Modulus (GPa) = 28.04556 35.79735 31.92145
#
# Velocity S-wave (km/s) = 3.65386 4.12805 3.89817
# Velocity P-wave (km/s) = 5.98814 7.64032 6.86412
#
# Compressibility (1/GPa) = 0.02636306
#
# Stress axis : x y z
#
# Youngs Moduli (GPa) = 99.54976 58.17221 85.54682
#
# Poissons Ratio (x) = -0.01343 0.21557
# Poissons Ratio (y) = -0.02298 0.34150
# Poissons Ratio (z) = 0.25086 0.23222
#
# Static dielectric constant tensor:
#      x y z
#    x 4.455930 -0.363370 -0.070870 
#    y -0.363370 3.875570 0.469230 
#    z -0.070870 0.469230 4.100760 
# 
# 
# High freq. dielectric constant tensor:
#      x y z
#    x 1.839290 -0.008210 0.010370 
#    y -0.008210 1.794950 0.026950 
#    z 0.010370 0.026950 1.814780 
# 
# From -- ./inp_files/314262.got.cif
#   From: 2010.06.25/outbox.cif.g09.slc.cpg/sg2_158_cif.got.tgz:314262.got - 2010.06.27 13:26:56.
