data_PCOD8038454
_publ_section_title
;
Structure prediction by ZEFSAII (Michael W. Deem and Ramdas Pophale) SiO2 
 PCOD8038454
Probable space group: P -1
;
_chemical_formula_sum "Si O2"
_cell_formula_units_Z 14
_cell_length_a 11.240381
_cell_length_b 7.070345
_cell_length_c 12.200985
_cell_angle_alpha 79.450531
_cell_angle_beta 141.024325
_cell_angle_gamma 90.653977
_cell_volume 586.001159
_symmetry_space_group_name_H-M "P -1"
_symmetry_group_IT_number 2
_symmetry_cell_setting 'triclinic'
loop_
_space_group_symop_operation_xyz
x,y,z
-x,-y,-z
loop_
_atom_site_type_symbol
_atom_site_label
_atom_site_fract_x
_atom_site_fract_y
_atom_site_fract_z
Si Si1 0.248463 0.249678 0.974420
Si Si2 0.444801 0.828696 0.624931
Si Si3 0.501996 0.238102 0.561596
Si Si4 0.136103 0.094279 0.513834
Si Si5 0.726547 0.215588 0.936105
Si Si6 0.417508 0.212685 0.873699
Si Si7 0.048375 0.381807 0.240579
O O1 0.306907 0.322968 0.887988
O O2 0.038986 0.385096 0.836861
O O3 0.406033 0.299359 0.168790
O O4 0.234590 0.022231 0.998933
O O5 0.414593 0.710548 0.503475
O O6 0.539831 0.005129 0.631311
O O7 0.243380 0.917028 0.531109
O O8 0.619330 0.308844 0.738050
O O9 0.275757 0.342388 0.385418
O O10 0.281642 0.193857 0.675759
O O11 0.008292 0.269406 0.334366
O O12 0.000000 0.000000 0.500000
O O13 0.589781 0.304092 0.933707
O O14 0.928648 0.288038 0.072644
O O15 0.500000 0.000000 0.000000
#
# Coordination Sequence:
#
# PCOD8038454 Si02
#       7
#     2   2   2   2   2   2   2
#     4  10  21  37  61  94 126 166 204 259 317 364
#     4   9  18  38  64  84 127 174 194 260 322 352
#     4   9  19  41  63  87 127 166 212 256 305 372
#     4  11  20  37  61  94 127 163 210 254 311 382
#     4  10  20  42  63  86 131 168 203 261 310 366
#     4  10  17  36  59  82 125 162 195 253 309 359
#     4  11  23  38  63  99 120 164 216 251 312 375
#
# _framework density 23.890737000000001
#
# number of rings (size 3 to 8) (size 9 to 14) (size 15 to 20)
#    0.000    2.000    5.714    1.714    0.000    1.714 
#    0.000   17.857    0.000    0.000    0.000    1.000 
#    0.000    0.000    0.000    0.000    0.000    0.000 
#
# Total GULP energy -173446.460170 kJ/mol
# GULP energy per Si atom -12389.032869 kJ/mol
# Density = 2.383636 g / cm^3
# Si number density = 23.890737 Si / 1000 Ang^3
#
#
#
# Elastic Constant Matrix: (Units=GPa)
#
#
# Indices 1 2 3 4 5 6 
#
# 1 107.0821 37.4842 58.7103 1.6918 -18.0235 -34.9753
# 2 37.4842 49.3496 54.7986 -4.2058 -2.2481 -14.3094
# 3 58.7103 54.7986 160.2948 9.9480 8.6764 -28.4103
# 4 1.6918 -4.2058 9.9480 37.1257 -8.8393 -0.9575
# 5 -18.0235 -2.2481 8.6764 -8.8393 26.5876 6.5753
# 6 -34.9753 -14.3094 -28.4103 -0.9575 6.5753 27.9176
#
#
#
# Elastic Compliance Matrix: (Units=1/GPa)
#
#
# Indices 1 2 3 4 5 6 
#
# 1 0.020681 -0.006839 -0.002969 0.002118 0.010940 0.016879
# 2 -0.006839 0.039742 -0.012379 0.009616 0.006452 -0.001985
# 3 -0.002969 -0.012379 0.013810 -0.007584 -0.011691 0.006483
# 4 0.002118 0.009616 -0.007584 0.033862 0.016701 -0.002907
# 5 0.010940 0.006452 -0.011691 0.016701 0.056845 -0.007700
# 6 0.016879 -0.001985 0.006483 -0.002907 -0.007700 0.064259
#
#
# Mechanical properties :
#
#
# Convention : Reuss Voigt Hill
#
# Bulk Modulus (GPa) = 33.49014 68.74587 51.11801
# Shear Modulus (GPa) = 17.63498 29.37505 23.50502
#
# Velocity S-wave (km/s) = 2.71984 3.51031 3.14005
# Velocity P-wave (km/s) = 4.88998 6.72810 5.88129
#
# Compressibility (1/GPa) = 0.02985953
#
# Stress axis : x y z
#
# Youngs Moduli (GPa) = 48.35261 25.16214 72.40926
#
# Poissons Ratio (x) = 0.17208 0.21498
# Poissons Ratio (y) = 0.33068 0.89638
# Poissons Ratio (z) = 0.14356 0.31149
#
# Static dielectric constant tensor:
#      x y z
#    x 4.630710 -0.297330 -0.225700 
#    y -0.297330 4.374720 1.245310 
#    z -0.225700 1.245310 7.827100 
# 
# 
# High freq. dielectric constant tensor:
#      x y z
#    x 1.941250 -0.012200 -0.017950 
#    y -0.012200 1.919480 -0.003220 
#    z -0.017950 -0.003220 1.965770 
# 
# From -- ./inp_files/417231.got.cif
#   From: 2010.06.25/outbox.cif.g09.slc.cpg/sg2_209_cif.got.tgz:417231.got - 2010.06.27 13:26:56.
