data_PCOD8038513
_publ_section_title
;
Structure prediction by ZEFSAII (Michael W. Deem and Ramdas Pophale) SiO2 
 PCOD8038513
Probable space group: P -1
;
_chemical_formula_sum "Si O2"
_cell_formula_units_Z 16
_cell_length_a 17.023403
_cell_length_b 9.048774
_cell_length_c 14.917980
_cell_angle_alpha 65.485295
_cell_angle_beta 145.415172
_cell_angle_gamma 138.228675
_cell_volume 738.740660
_symmetry_space_group_name_H-M "P -1"
_symmetry_group_IT_number 2
_symmetry_cell_setting 'triclinic'
loop_
_space_group_symop_operation_xyz
x,y,z
-x,-y,-z
loop_
_atom_site_type_symbol
_atom_site_label
_atom_site_fract_x
_atom_site_fract_y
_atom_site_fract_z
Si Si1 0.051350 0.730957 0.508543
Si Si2 0.972488 0.821810 0.582307
Si Si3 0.250156 0.260350 0.856745
Si Si4 0.999214 0.056572 0.135999
Si Si5 0.253720 0.981328 0.337650
Si Si6 0.964613 0.594817 0.021709
Si Si7 0.538757 0.809652 0.332543
Si Si8 0.368792 0.470983 0.519730
O O1 0.018189 0.709866 0.590367
O O2 0.000000 0.500000 0.500000
O O3 0.889136 0.706094 0.309397
O O4 0.306480 0.003413 0.653516
O O5 0.728185 0.595156 0.454597
O O6 0.154970 0.009770 0.783987
O O7 0.000000 0.000000 0.500000
O O8 0.500000 0.500000 0.000000
O O9 0.222031 0.202865 0.951281
O O10 0.085573 0.976853 0.187923
O O11 0.949022 0.148859 0.993461
O O12 0.175790 0.298751 0.308317
O O13 0.338891 0.006533 0.509899
O O14 0.467644 0.229620 0.418446
O O15 0.121732 0.713889 0.228200
O O16 0.706883 0.343544 0.871342
O O17 0.000000 0.500000 0.000000
O O18 0.505847 0.585211 0.362148
#
# Coordination Sequence:
#
# PCOD8038513 Si02
#       8
#     2   2   2   2   2   2   2   2
#     4  11  23  42  64  94 130 171 214 261 331 388
#     4   9  18  36  59  92 119 166 212 253 310 375
#     4  10  21  38  65  93 125 166 222 269 307 382
#     4  10  19  40  60  90 125 163 216 259 312 382
#     4  11  21  40  69  92 116 173 217 252 324 375
#     4  12  27  39  59 100 135 163 210 266 328 388
#     4  11  21  43  65  90 132 164 211 273 313 384
#     4  10  17  36  70  90 116 165 219 258 306 375
#
# _framework density 21.658481999999999
#
# number of rings (size 3 to 8) (size 9 to 14) (size 15 to 20)
#    0.000    1.500    7.500    1.125    0.000    5.500 
#    4.500    0.625    0.000    0.000    0.000    0.000 
#    0.000    0.000    0.000    0.000    0.000    0.000 
#
# Total GULP energy -198301.017129 kJ/mol
# GULP energy per Si atom -12393.813571 kJ/mol
# Density = 2.160919 g / cm^3
# Si number density = 21.658482 Si / 1000 Ang^3
#
#
#
# Elastic Constant Matrix: (Units=GPa)
#
#
# Indices 1 2 3 4 5 6 
#
# 1 149.9240 26.0048 44.3439 23.0593 2.0543 6.7026
# 2 26.0048 38.3488 13.5170 12.9225 6.5313 1.4319
# 3 44.3439 13.5170 85.2073 26.3104 11.0009 2.2211
# 4 23.0593 12.9225 26.3104 23.7935 7.2760 -0.1977
# 5 2.0543 6.5313 11.0009 7.2760 38.9692 15.3341
# 6 6.7026 1.4319 2.2211 -0.1977 15.3341 41.1712
#
#
#
# Elastic Compliance Matrix: (Units=1/GPa)
#
#
# Indices 1 2 3 4 5 6 
#
# 1 0.008944 -0.004038 -0.003105 -0.003870 0.002652 -0.002155
# 2 -0.004038 0.033951 0.001975 -0.015692 -0.003313 0.000529
# 3 -0.003105 0.001975 0.018998 -0.018416 -0.002139 0.000120
# 4 -0.003870 -0.015692 -0.018416 0.077370 -0.008686 0.005776
# 5 0.002652 -0.003313 -0.002139 -0.008686 0.033275 -0.012636
# 6 -0.002155 0.000529 0.000120 0.005776 -0.012636 0.029349
#
#
# Mechanical properties :
#
#
# Convention : Reuss Voigt Hill
#
# Bulk Modulus (GPa) = 19.39604 49.02348 34.20976
# Shear Modulus (GPa) = 21.79520 33.42775 27.61147
#
# Velocity S-wave (km/s) = 3.17568 3.93288 3.57439
# Velocity P-wave (km/s) = 4.73513 6.58083 5.73275
#
# Compressibility (1/GPa) = 0.05155691
#
# Stress axis : x y z
#
# Youngs Moduli (GPa) = 111.80486 29.45449 52.63582
#
# Poissons Ratio (x) = 0.11893 0.16346
# Poissons Ratio (y) = 0.45143 -0.10395
# Poissons Ratio (z) = 0.34720 -0.05817
#
# Static dielectric constant tensor:
#      x y z
#    x 2.645820 -1.116380 0.571200 
#    y -1.116380 2.926780 0.595990 
#    z 0.571200 0.595990 3.505380 
# 
# 
# High freq. dielectric constant tensor:
#      x y z
#    x 1.874090 0.015810 0.000180 
#    y 0.015810 1.825350 0.019570 
#    z 0.000180 0.019570 1.828580 
# 
# From -- ./inp_files/529690.got.cif
#   From: 2010.06.25/outbox.cif.g09.slc.cpg/sg2_265_cif.got.tgz:529690.got - 2010.06.27 13:26:56.
