data_PCOD8038371
_publ_section_title
;
Structure prediction by ZEFSAII (Michael W. Deem and Ramdas Pophale) SiO2 
 PCOD8038371
Probable space group: P -1
;
_chemical_formula_sum "Si O2"
_cell_formula_units_Z 14
_cell_length_a 25.875093
_cell_length_b 17.181100
_cell_length_c 9.067141
_cell_angle_alpha 30.899666
_cell_angle_beta 138.322553
_cell_angle_gamma 158.909672
_cell_volume 712.741776
_symmetry_space_group_name_H-M "P -1"
_symmetry_group_IT_number 2
_symmetry_cell_setting 'triclinic'
loop_
_space_group_symop_operation_xyz
x,y,z
-x,-y,-z
loop_
_atom_site_type_symbol
_atom_site_label
_atom_site_fract_x
_atom_site_fract_y
_atom_site_fract_z
Si Si1 0.693847 0.146945 0.414107
Si Si2 0.192486 0.453909 0.240573
Si Si3 0.354013 0.555575 0.675670
Si Si4 0.043198 0.276421 0.798229
Si Si5 0.145298 0.125877 0.194113
Si Si6 0.234314 0.075357 0.051880
Si Si7 0.146042 0.066848 0.601400
O O1 0.796344 0.379445 0.390009
O O2 0.524601 0.886039 0.532932
O O3 0.731562 0.035539 0.642776
O O4 0.714581 0.267417 0.107818
O O5 0.277980 0.554773 0.410135
O O6 0.179311 0.287912 0.376677
O O7 0.032400 0.259733 0.254073
O O8 0.270933 0.405717 0.899603
O O9 0.353136 0.388108 0.870207
O O10 0.048892 0.102812 0.098407
O O11 0.964781 0.177273 0.633005
O O12 0.934046 0.151499 0.897137
O O13 0.214166 0.159224 0.430873
O O14 0.233473 0.087684 0.852208
#
# Coordination Sequence:
#
# PCOD8038371 Si02
#       7
#     2   2   2   2   2   2   2
#     4  12  21  36  58  88 116 139 188 233 275 330
#     4  10  19  34  59  86 105 142 195 236 266 313
#     4  10  23  37  58  82 116 152 178 223 287 336
#     4  10  19  34  59  83 106 143 189 233 270 313
#     4  10  19  37  58  80 114 147 188 224 276 333
#     4  10  21  37  60  83 111 149 185 228 281 325
#     4  10  17  35  60  82 106 147 191 229 269 322
#
# _framework density 19.642458000000001
#
# number of rings (size 3 to 8) (size 9 to 14) (size 15 to 20)
#    0.000    1.714    2.857    4.714    0.000    0.571 
#    0.000    1.429    6.286    0.000    0.000    0.000 
#    0.000    0.000    0.000    0.000    0.000    0.000 
#
# Total GULP energy -173529.629808 kJ/mol
# GULP energy per Si atom -12394.973558 kJ/mol
# Density = 1.959775 g / cm^3
# Si number density = 19.642458 Si / 1000 Ang^3
#
#
#
# Elastic Constant Matrix: (Units=GPa)
#
#
# Indices 1 2 3 4 5 6 
#
# 1 54.3562 28.1491 34.1925 13.0921 -21.6630 -5.4583
# 2 28.1491 93.6466 47.3587 -15.4180 -21.9212 -3.7561
# 3 34.1925 47.3587 97.1612 9.5979 -13.1608 0.4339
# 4 13.0921 -15.4180 9.5979 27.6773 -3.4488 -6.2027
# 5 -21.6630 -21.9212 -13.1608 -3.4488 37.1487 5.9075
# 6 -5.4583 -3.7561 0.4339 -6.2027 5.9075 24.9137
#
#
#
# Elastic Compliance Matrix: (Units=1/GPa)
#
#
# Indices 1 2 3 4 5 6 
#
# 1 0.034768 -0.008143 -0.004829 -0.017986 0.012233 -0.000905
# 2 -0.008143 0.023871 -0.010120 0.022876 0.006915 0.006047
# 3 -0.004829 -0.010120 0.017652 -0.010930 -0.002760 -0.004958
# 4 -0.017986 0.022876 -0.010930 0.064923 0.002747 0.015211
# 5 0.012233 0.006915 -0.002760 0.002747 0.038140 -0.004589
# 6 -0.000905 0.006047 -0.004958 0.015211 -0.004589 0.045813
#
#
# Mechanical properties :
#
#
# Convention : Reuss Voigt Hill
#
# Bulk Modulus (GPa) = 33.21310 51.61828 42.41569
# Shear Modulus (GPa) = 17.76909 26.97886 22.37397
#
# Velocity S-wave (km/s) = 3.01096 3.71009 3.37866
# Velocity P-wave (km/s) = 5.38827 6.68499 6.07134
#
# Compressibility (1/GPa) = 0.03010860
#
# Stress axis : x y z
#
# Youngs Moduli (GPa) = 28.76194 41.89109 56.65058
#
# Poissons Ratio (x) = 0.34112 0.27354
# Poissons Ratio (y) = 0.23421 0.57330
# Poissons Ratio (z) = 0.13888 0.42394
#
# Static dielectric constant tensor:
#      x y z
#    x 3.381530 -0.240190 -0.190710 
#    y -0.240190 3.669160 0.124500 
#    z -0.190710 0.124500 3.620310 
# 
# 
# High freq. dielectric constant tensor:
#      x y z
#    x 1.739930 -0.014500 -0.015820 
#    y -0.014500 1.764300 0.005180 
#    z -0.015820 0.005180 1.756530 
# 
# From -- ./inp_files/154264.got.cif
#   From: 2010.06.25/outbox.cif.g09.slc.cpg/sg2_78_cif.got.tgz:154264.got - 2010.06.27 13:26:56.
