data_PCOD8038883
_publ_section_title
;
Structure prediction by ZEFSAII (Michael W. Deem and Ramdas Pophale) SiO2 
 PCOD8038883
Probable space group: P -1
;
_chemical_formula_sum "Si O2"
_cell_formula_units_Z 14
_cell_length_a 20.914664
_cell_length_b 11.476498
_cell_length_c 12.718545
_cell_angle_alpha 33.179556
_cell_angle_beta 152.052641
_cell_angle_gamma 143.656720
_cell_volume 756.511811
_symmetry_space_group_name_H-M "P -1"
_symmetry_group_IT_number 2
_symmetry_cell_setting 'triclinic'
loop_
_space_group_symop_operation_xyz
x,y,z
-x,-y,-z
loop_
_atom_site_type_symbol
_atom_site_label
_atom_site_fract_x
_atom_site_fract_y
_atom_site_fract_z
Si Si1 0.529753 0.261698 0.218249
Si Si2 0.176535 0.870878 0.789769
Si Si3 0.430388 0.298655 0.624076
Si Si4 0.504973 0.099664 0.074396
Si Si5 0.806177 0.515117 0.771812
Si Si6 0.709053 0.145690 0.738974
Si Si7 0.034728 0.923876 0.750853
O O1 0.669920 0.252596 0.494059
O O2 0.403531 0.077423 0.224098
O O3 0.500000 0.500000 0.000000
O O4 0.556207 0.213697 0.172274
O O5 0.134836 0.988855 0.744695
O O6 0.338223 0.980984 0.915092
O O7 0.151816 0.610295 0.970797
O O8 0.067659 0.911180 0.510215
O O9 0.500000 0.500000 0.500000
O O10 0.533477 0.281902 0.885018
O O11 0.284598 0.324066 0.440269
O O12 0.405388 0.077407 0.684680
O O13 0.718940 0.328630 0.706603
O O14 0.941402 0.671257 0.793191
O O15 0.858356 0.077273 0.995242
#
# Coordination Sequence:
#
# PCOD8038883 Si02
#       7
#     2   2   2   2   2   2   2
#     4  11  22  35  56  78 118 152 180 223 267 336
#     4  10  18  31  52  81 117 135 175 225 274 335
#     4  11  21  34  57  78 114 145 182 237 275 320
#     4  11  21  36  53  84 111 143 188 225 275 324
#     4  11  19  34  57  87 113 143 179 226 287 328
#     4  10  21  35  53  86 117 144 181 219 277 340
#     4  10  20  32  55  82 119 144 168 234 282 329
#
# _framework density 18.505990000000001
#
# number of rings (size 3 to 8) (size 9 to 14) (size 15 to 20)
#    0.000    1.429    5.714    2.571    0.000    2.286 
#    0.000    0.000    0.000    0.857    0.000    3.000 
#    0.000    0.000    0.000    0.000    0.000    0.000 
#
# Total GULP energy -173467.465167 kJ/mol
# GULP energy per Si atom -12390.533226 kJ/mol
# Density = 1.846387 g / cm^3
# Si number density = 18.505990 Si / 1000 Ang^3
#
#
#
# Elastic Constant Matrix: (Units=GPa)
#
#
# Indices 1 2 3 4 5 6 
#
# 1 59.5084 31.9956 32.3375 -0.0601 -16.8020 -7.0306
# 2 31.9956 74.1062 59.3876 -9.4522 -9.8711 -8.1333
# 3 32.3375 59.3876 170.6905 -7.8979 -15.4802 -15.0567
# 4 -0.0601 -9.4522 -7.8979 29.7569 5.9493 0.6497
# 5 -16.8020 -9.8711 -15.4802 5.9493 34.2819 -4.9088
# 6 -7.0306 -8.1333 -15.0567 0.6497 -4.9088 31.6704
#
#
#
# Elastic Compliance Matrix: (Units=1/GPa)
#
#
# Indices 1 2 3 4 5 6 
#
# 1 0.025960 -0.009528 -0.000371 -0.005478 0.011484 0.005032
# 2 -0.009528 0.023050 -0.006045 0.006033 -0.001732 0.000538
# 3 -0.000371 -0.006045 0.008479 -0.000198 0.002336 0.002762
# 4 -0.005478 0.006033 -0.000198 0.037037 -0.007711 -0.001716
# 5 0.011484 -0.001732 0.002336 -0.007711 0.038019 0.009266
# 6 0.005032 0.000538 0.002762 -0.001716 0.009266 0.035615
#
#
# Mechanical properties :
#
#
# Convention : Reuss Voigt Hill
#
# Bulk Modulus (GPa) = 39.06208 61.30517 50.18363
# Shear Modulus (GPa) = 23.97139 31.18078 27.57609
#
# Velocity S-wave (km/s) = 3.60298 4.10921 3.86439
# Velocity P-wave (km/s) = 6.20179 7.46413 6.86205
#
# Compressibility (1/GPa) = 0.02560027
#
# Stress axis : x y z
#
# Youngs Moduli (GPa) = 38.52051 43.38388 117.94538
#
# Poissons Ratio (x) = 0.41335 0.04381
# Poissons Ratio (y) = 0.36701 0.71300
# Poissons Ratio (z) = 0.01431 0.26226
#
# Static dielectric constant tensor:
#      x y z
#    x 3.469930 0.107090 -0.063520 
#    y 0.107090 3.144700 -0.147650 
#    z -0.063520 -0.147650 4.166820 
# 
# 
# High freq. dielectric constant tensor:
#      x y z
#    x 1.702860 0.022640 -0.006530 
#    y 0.022640 1.678200 -0.026910 
#    z -0.006530 -0.026910 1.747140 
# 
# From -- ./inp_files/418125.got.cif
#   From: 2010.06.25/outbox.cif.g09.slc.cpg/sg2_210_cif.got.tgz:418125.got - 2010.06.27 13:26:56.
