data_PCOD8038282
_publ_section_title
;
Structure prediction by ZEFSAII (Michael W. Deem and Ramdas Pophale) SiO2 
 PCOD8038282
Probable space group: P -1
;
_chemical_formula_sum "Si O2"
_cell_formula_units_Z 16
_cell_length_a 16.434884
_cell_length_b 15.515899
_cell_length_c 8.884213
_cell_angle_alpha 139.127026
_cell_angle_beta 33.156779
_cell_angle_gamma 141.042826
_cell_volume 741.730565
_symmetry_space_group_name_H-M "P -1"
_symmetry_group_IT_number 2
_symmetry_cell_setting 'triclinic'
loop_
_space_group_symop_operation_xyz
x,y,z
-x,-y,-z
loop_
_atom_site_type_symbol
_atom_site_label
_atom_site_fract_x
_atom_site_fract_y
_atom_site_fract_z
Si Si1 0.673157 0.514686 0.946675
Si Si2 0.377609 0.846746 0.055894
Si Si3 0.501288 0.026016 0.359582
Si Si4 0.832035 0.688620 0.503194
Si Si5 0.833082 0.200064 0.947047
Si Si6 0.403232 0.279790 0.865399
Si Si7 0.299835 0.543239 0.832586
Si Si8 0.065091 0.495380 0.671183
O O1 0.632304 0.648376 0.133914
O O2 0.856094 0.539217 0.647774
O O3 0.560495 0.379455 0.844527
O O4 0.642730 0.493014 0.143223
O O5 0.373818 0.881381 0.285034
O O6 0.208691 0.798800 0.164871
O O7 0.420076 0.704031 0.800277
O O8 0.500000 0.000000 0.000000
O O9 0.686649 0.064885 0.069888
O O10 0.500000 0.000000 0.500000
O O11 0.434935 0.146067 0.578536
O O12 0.748508 0.764779 0.841835
O O13 0.700569 0.579467 0.446055
O O14 0.912214 0.594795 0.343063
O O15 0.989258 0.808600 0.332218
O O16 0.839400 0.338985 0.210492
O O17 0.121497 0.542489 0.126678
#
# Coordination Sequence:
#
# PCOD8038282 Si02
#       8
#     2   2   2   2   2   2   2   2
#     4  10  21  34  59  90 123 152 185 264 302 350
#     4  10  21  33  59  86 118 157 202 240 273 353
#     4  11  23  41  62  84 116 164 205 239 279 361
#     4  10  20  36  64  89 122 154 183 265 307 346
#     4  10  18  38  59  88 113 154 206 234 298 344
#     4  10  22  40  56  86 126 157 193 236 323 347
#     4  11  19  35  59  99 115 149 206 245 300 350
#     4  10  17  34  62  88 122 150 190 256 302 347
#
# _framework density 21.571176000000001
#
# number of rings (size 3 to 8) (size 9 to 14) (size 15 to 20)
#    0.000    1.750    3.750    1.875    0.000    0.500 
#    0.000    5.000    0.000    0.000    0.000    0.000 
#    0.000    0.000    0.000    0.000    0.000    0.000 
#
# Total GULP energy -198224.542855 kJ/mol
# GULP energy per Si atom -12389.033928 kJ/mol
# Density = 2.152208 g / cm^3
# Si number density = 21.571176 Si / 1000 Ang^3
#
#
#
# Elastic Constant Matrix: (Units=GPa)
#
#
# Indices 1 2 3 4 5 6 
#
# 1 95.6702 36.2826 9.4178 1.7923 14.5591 -15.3798
# 2 36.2826 76.9041 23.0395 -0.1792 6.1197 5.5030
# 3 9.4178 23.0395 39.1803 -7.4039 1.1041 6.3289
# 4 1.7923 -0.1792 -7.4039 24.5957 3.6359 6.2975
# 5 14.5591 6.1197 1.1041 3.6359 31.0746 -4.8594
# 6 -15.3798 5.5030 6.3289 6.2975 -4.8594 17.5614
#
#
#
# Elastic Compliance Matrix: (Units=1/GPa)
#
#
# Indices 1 2 3 4 5 6 
#
# 1 0.018393 -0.008835 -0.004410 -0.008252 -0.002187 0.022819
# 2 -0.008835 0.020452 -0.007391 0.002110 -0.001867 -0.012756
# 3 -0.004410 -0.007391 0.038117 0.018081 -0.003504 -0.022736
# 4 -0.008252 0.002110 0.018081 0.057882 -0.009891 -0.037897
# 5 -0.002187 -0.001867 -0.003504 -0.009891 0.037000 0.013717
# 6 0.022819 -0.012756 -0.022736 -0.037897 0.013717 0.106504
#
#
# Mechanical properties :
#
#
# Convention : Reuss Voigt Hill
#
# Bulk Modulus (GPa) = 28.01813 38.80384 33.41098
# Shear Modulus (GPa) = 15.08221 24.18065 19.63143
#
# Velocity S-wave (km/s) = 2.64708 3.35172 3.02002
# Velocity P-wave (km/s) = 4.72859 5.74513 5.26147
#
# Compressibility (1/GPa) = 0.03569118
#
# Stress axis : x y z
#
# Youngs Moduli (GPa) = 54.36853 48.89533 26.23476
#
# Poissons Ratio (x) = 0.43197 0.11569
# Poissons Ratio (y) = 0.48033 0.19390
# Poissons Ratio (z) = 0.23975 0.36139
#
# Static dielectric constant tensor:
#      x y z
#    x 4.045630 0.244690 0.242610 
#    y 0.244690 4.451220 0.151540 
#    z 0.242610 0.151540 4.014640 
# 
# 
# High freq. dielectric constant tensor:
#      x y z
#    x 1.846850 0.008920 0.012600 
#    y 0.008920 1.835040 -0.011900 
#    z 0.012600 -0.011900 1.836200 
# 
# From -- ./inp_files/261675.got.cif
#   From: 2010.06.25/outbox.cif.g09.slc.cpg/sg2_131_cif.got.tgz:261675.got - 2010.06.27 13:26:56.
