data_PCOD8038313
_publ_section_title
;
Structure prediction by ZEFSAII (Michael W. Deem and Ramdas Pophale) SiO2 
 PCOD8038313
Probable space group: P -1
;
_chemical_formula_sum "Si O2"
_cell_formula_units_Z 16
_cell_length_a 15.000000
_cell_length_b 15.000000
_cell_length_c 12.000000
_cell_angle_alpha 150.000000
_cell_angle_beta 60.000000
_cell_angle_gamma 140.000000
_cell_volume 747.221570
_symmetry_space_group_name_H-M "P -1"
_symmetry_group_IT_number 2
_symmetry_cell_setting 'triclinic'
loop_
_space_group_symop_operation_xyz
x,y,z
-x,-y,-z
loop_
_atom_site_type_symbol
_atom_site_label
_atom_site_fract_x
_atom_site_fract_y
_atom_site_fract_z
Si Si1 0.186675 0.489378 0.678122
Si Si2 0.355016 0.298262 0.659731
Si Si3 0.841482 0.220885 0.146076
Si Si4 0.185285 0.597570 0.274853
Si Si5 0.158602 0.144106 0.826765
Si Si6 0.675504 0.682451 0.550745
Si Si7 0.700362 0.931395 0.162780
Si Si8 0.184242 0.696669 0.124832
O O1 0.222863 0.680115 0.762956
O O2 0.304234 0.479494 0.575525
O O3 0.232394 0.627974 0.921240
O O4 0.011818 0.162691 0.436537
O O5 0.275662 0.279192 0.795845
O O6 0.293337 0.292615 0.574282
O O7 0.312644 0.030652 0.402382
O O8 0.540043 0.606601 0.884152
O O9 0.032771 0.496870 0.314256
O O10 0.783189 0.105793 0.183699
O O11 0.799865 0.996280 0.853383
O O12 0.192124 0.614699 0.153900
O O13 0.325113 0.916758 0.584862
O O14 0.173973 0.379358 0.093135
O O15 0.201552 0.087170 0.848322
O O16 0.500000 0.500000 0.500000
O O17 0.000000 0.500000 0.000000
#
# Coordination Sequence:
#
# PCOD8038313 Si02
#       8
#     2   2   2   2   2   2   2   2
#     4  12  25  44  78 105 135 181 239 293 350 410
#     4  12  24  47  72 101 147 180 229 293 353 415
#     4  12  24  46  72  99 141 185 235 287 343 419
#     4  12  25  44  71 103 138 183 241 284 343 417
#     4  12  26  44  75 103 134 189 235 290 350 409
#     4  12  26  48  69 105 142 181 230 294 356 412
#     4  12  27  47  66  99 148 189 229 289 341 417
#     4  12  21  43  76 105 137 181 231 293 350 408
#
# _framework density 21.412658
#
# number of rings (size 3 to 8) (size 9 to 14) (size 15 to 20)
#    0.000    0.000    8.750    1.500    0.000    3.500 
#    2.250    0.000    0.000    0.000    0.000    0.000 
#    0.000    0.000    0.000    0.000    0.000    0.000 
#
# Total GULP energy -198210.039647 kJ/mol
# GULP energy per Si atom -12388.127478 kJ/mol
# Density = 2.136392 g / cm^3
# Si number density = 21.412658 Si / 1000 Ang^3
#
#
#
# Elastic Constant Matrix: (Units=GPa)
#
#
# Indices 1 2 3 4 5 6 
#
# 1 140.7860 56.4629 54.5970 -8.1479 -32.5607 -39.4936
# 2 56.4629 122.5209 23.3135 3.0382 -1.5677 -38.7812
# 3 54.5970 23.3135 174.9448 10.1029 -17.4740 -14.6932
# 4 -8.1479 3.0382 10.1029 32.8887 -11.4327 -0.2765
# 5 -32.5607 -1.5677 -17.4740 -11.4327 47.6881 3.4579
# 6 -39.4936 -38.7812 -14.6932 -0.2765 3.4579 46.9174
#
#
#
# Elastic Compliance Matrix: (Units=1/GPa)
#
#
# Indices 1 2 3 4 5 6 
#
# 1 0.014902 -0.003980 -0.002933 0.008673 0.010497 0.007613
# 2 -0.003980 0.012253 0.000031 -0.003324 -0.003610 0.007034
# 3 -0.002933 0.000031 0.006746 -0.002872 -0.000194 -0.000333
# 4 0.008673 -0.003324 -0.002872 0.038564 0.013798 0.002865
# 5 0.010497 -0.003610 -0.000194 0.013798 0.030994 0.003588
# 6 0.007613 0.007034 -0.000333 0.002865 0.003588 0.033184
#
#
# Mechanical properties :
#
#
# Convention : Reuss Voigt Hill
#
# Bulk Modulus (GPa) = 49.66204 78.55540 64.10872
# Shear Modulus (GPa) = 31.82274 45.75737 38.79005
#
# Velocity S-wave (km/s) = 3.85926 4.62771 4.26085
# Velocity P-wave (km/s) = 6.56519 8.08210 7.36281
#
# Compressibility (1/GPa) = 0.02013610
#
# Stress axis : x y z
#
# Youngs Moduli (GPa) = 67.10481 81.61359 148.24060
#
# Poissons Ratio (x) = 0.32486 0.43483
# Poissons Ratio (y) = 0.26711 -0.00467
# Poissons Ratio (z) = 0.19684 -0.00257
#
# Static dielectric constant tensor:
#      x y z
#    x 4.259650 -0.336320 -0.280640 
#    y -0.336320 4.002090 0.120270 
#    z -0.280640 0.120270 5.335560 
# 
# 
# High freq. dielectric constant tensor:
#      x y z
#    x 1.842080 -0.034710 -0.008770 
#    y -0.034710 1.851240 0.010650 
#    z -0.008770 0.010650 1.889130 
# 
# From -- ./inp_files/451617.got.cif
#   From: 2010.06.25/outbox.ucp.g09.slc.cvg/sg2_226_cif.got.tgz:451617.got - 2010.06.28 11:54:26.
