data_PCOD8038709
_publ_section_title
;
Structure prediction by ZEFSAII (Michael W. Deem and Ramdas Pophale) SiO2 
 PCOD8038709
Probable space group: P -1
;
_chemical_formula_sum "Si O2"
_cell_formula_units_Z 12
_cell_length_a 14.584938
_cell_length_b 10.012814
_cell_length_c 10.148840
_cell_angle_alpha 73.551952
_cell_angle_beta 151.561083
_cell_angle_gamma 106.739312
_cell_volume 674.446100
_symmetry_space_group_name_H-M "P -1"
_symmetry_group_IT_number 2
_symmetry_cell_setting 'triclinic'
loop_
_space_group_symop_operation_xyz
x,y,z
-x,-y,-z
loop_
_atom_site_type_symbol
_atom_site_label
_atom_site_fract_x
_atom_site_fract_y
_atom_site_fract_z
Si Si1 0.616497 0.144356 0.579329
Si Si2 0.967063 0.857370 0.840485
Si Si3 0.106178 0.847941 0.295672
Si Si4 0.474157 0.429712 0.345862
Si Si5 0.862889 0.563195 0.700257
Si Si6 0.956428 0.557252 0.287446
O O1 0.683406 0.159087 0.505559
O O2 0.481710 0.263873 0.416431
O O3 0.500000 0.000000 0.500000
O O4 0.808172 0.153326 0.911035
O O5 0.844554 0.728276 0.652474
O O6 0.943869 0.845295 0.974380
O O7 0.896202 0.007129 0.664903
O O8 0.050624 0.716873 0.355884
O O9 0.500000 0.500000 0.500000
O O10 0.648562 0.488141 0.455830
O O11 0.272755 0.457891 0.018261
O O12 0.947417 0.537735 0.671348
O O13 0.000000 0.500000 0.000000
O O14 0.000000 0.500000 0.500000
#
# Coordination Sequence:
#
# PCOD8038709 Si02
#       6
#     2   2   2   2   2   2
#     4  10  18  29  53  90 117 142 194 246 296 340
#     4   9  17  32  60  81 119 147 190 255 295 323
#     4   9  18  36  54  84 123 154 187 252 293 342
#     4  12  22  34  65  89 116 154 204 241 298 347
#     4  12  19  40  58  90 123 148 201 254 285 351
#     4  12  25  41  59  88 126 162 196 243 302 359
#
# _framework density 17.792380000000001
#
# number of rings (size 3 to 8) (size 9 to 14) (size 15 to 20)
#    1.000    0.333    6.667    1.000    2.333    0.667 
#    0.000    0.833    0.000    1.000    0.000    0.000 
#    0.000    0.000    0.000    0.000    0.000    0.000 
#
# Total GULP energy -148743.166546 kJ/mol
# GULP energy per Si atom -12395.263879 kJ/mol
# Density = 1.775188 g / cm^3
# Si number density = 17.792380 Si / 1000 Ang^3
#
#
#
# Elastic Constant Matrix: (Units=GPa)
#
#
# Indices 1 2 3 4 5 6 
#
# 1 107.7665 57.9756 55.0851 -4.1962 2.8905 3.8233
# 2 57.9756 182.9552 43.2963 -2.4508 -2.8723 -2.8176
# 3 55.0851 43.2963 80.0357 -1.7425 7.8983 5.1438
# 4 -4.1962 -2.4508 -1.7425 20.6548 4.7733 7.7636
# 5 2.8905 -2.8723 7.8983 4.7733 29.8571 0.6816
# 6 3.8233 -2.8176 5.1438 7.7636 0.6816 37.5779
#
#
#
# Elastic Compliance Matrix: (Units=1/GPa)
#
#
# Indices 1 2 3 4 5 6 
#
# 1 0.015540 -0.002746 -0.009120 0.002385 0.000286 -0.001037
# 2 -0.002746 0.006858 -0.002067 -0.000730 0.001562 0.001199
# 3 -0.009120 -0.002067 0.020563 0.001646 -0.004966 -0.002292
# 4 0.002385 -0.000730 0.001646 0.055559 -0.009349 -0.011832
# 5 0.000286 0.001562 -0.004966 -0.009349 0.036377 0.002039
# 6 -0.001037 0.001199 -0.002292 -0.011832 0.002039 0.029528
#
#
# Mechanical properties :
#
#
# Convention : Reuss Voigt Hill
#
# Bulk Modulus (GPa) = 66.24630 75.94125 71.09378
# Shear Modulus (GPa) = 25.33906 31.91134 28.62520
#
# Velocity S-wave (km/s) = 3.77789 4.23961 4.01539
# Velocity P-wave (km/s) = 7.50625 8.16948 7.84487
#
# Compressibility (1/GPa) = 0.01509518
#
# Stress axis : x y z
#
# Youngs Moduli (GPa) = 64.34970 145.80750 48.63122
#
# Poissons Ratio (x) = 0.40034 0.44351
# Poissons Ratio (y) = 0.17668 0.10054
# Poissons Ratio (z) = 0.58687 0.30145
#
# Static dielectric constant tensor:
#      x y z
#    x 3.174220 -0.135720 0.335400 
#    y -0.135720 3.677360 0.038170 
#    z 0.335400 0.038170 2.978900 
# 
# 
# High freq. dielectric constant tensor:
#      x y z
#    x 1.674850 -0.005410 0.038570 
#    y -0.005410 1.711830 0.003520 
#    z 0.038570 0.003520 1.640020 
# 
# From -- ./inp_files/230153.got.cif
#   From: 2010.06.25/outbox.cif.g09.slc.cpg/sg2_116_cif.got.tgz:230153.got - 2010.06.27 13:26:56.
