data_PCOD8038067
_publ_section_title
;
Structure prediction by ZEFSAII (Michael W. Deem and Ramdas Pophale) SiO2 
 PCOD8038067
Probable space group: P -1
;
_chemical_formula_sum "Si O2"
_cell_formula_units_Z 16
_cell_length_a 7.824215
_cell_length_b 19.003629
_cell_length_c 8.089053
_cell_angle_alpha 55.777007
_cell_angle_beta 110.990049
_cell_angle_gamma 136.611761
_cell_volume 680.452912
_symmetry_space_group_name_H-M "P -1"
_symmetry_group_IT_number 2
_symmetry_cell_setting 'triclinic'
loop_
_space_group_symop_operation_xyz
x,y,z
-x,-y,-z
loop_
_atom_site_type_symbol
_atom_site_label
_atom_site_fract_x
_atom_site_fract_y
_atom_site_fract_z
Si Si1 0.832296 0.400308 0.440256
Si Si2 0.995923 0.149556 0.723331
Si Si3 0.569509 0.607914 0.579577
Si Si4 0.575389 0.169957 0.827732
Si Si5 0.412927 0.991105 0.769891
Si Si6 0.843127 0.991134 0.600637
Si Si7 0.383967 0.216378 0.999261
Si Si8 0.297618 0.529408 0.240971
O O1 0.580450 0.379190 0.357400
O O2 0.771841 0.284351 0.632041
O O3 0.000000 0.500000 0.500000
O O4 0.995260 0.444545 0.268362
O O5 0.153860 0.270236 0.521999
O O6 0.113368 0.170479 0.919181
O O7 0.712312 0.086146 0.735468
O O8 0.001691 0.068039 0.714228
O O9 0.406875 0.553891 0.429580
O O10 0.620063 0.526761 0.765960
O O11 0.364364 0.056481 0.790078
O O12 0.461271 0.203590 0.865039
O O13 0.696085 0.131926 0.031975
O O14 0.292814 0.969264 0.577981
O O15 0.633434 0.857639 0.763462
O O16 0.000000 0.000000 0.500000
O O17 0.581604 0.348189 0.960079
#
# Coordination Sequence:
#
# PCOD8038067 Si02
#       8
#     2   2   2   2   2   2   2   2
#     4  10  17  33  60  95 123 159 202 267 307 371
#     4  11  21  40  65  91 124 164 207 263 310 375
#     4   9  18  32  58  92 124 158 205 257 314 363
#     4  11  21  39  64  95 124 158 220 247 318 375
#     4  11  26  39  63  94 125 167 208 264 313 379
#     4  12  27  43  60  90 130 168 210 257 321 374
#     4  11  22  40  67  90 129 166 207 258 313 379
#     4   9  18  35  57  97 125 156 209 265 309 367
#
# _framework density 23.513749000000001
#
# number of rings (size 3 to 8) (size 9 to 14) (size 15 to 20)
#    0.000    1.500    5.000    2.250    3.500    1.000 
#    0.000    0.000    0.000    5.250    0.000    0.000 
#    0.000    0.000    0.000    0.000    0.000    0.000 
#
# Total GULP energy -198239.018500 kJ/mol
# GULP energy per Si atom -12389.938656 kJ/mol
# Density = 2.346023 g / cm^3
# Si number density = 23.513749 Si / 1000 Ang^3
#
#
#
# Elastic Constant Matrix: (Units=GPa)
#
#
# Indices 1 2 3 4 5 6 
#
# 1 110.1401 26.8892 20.6615 -16.4838 5.5866 -0.3502
# 2 26.8892 68.9069 48.9114 -39.6377 9.1518 -2.4603
# 3 20.6615 48.9114 106.8073 -28.0036 6.6373 -4.4228
# 4 -16.4838 -39.6377 -28.0036 38.0327 -4.2950 11.8000
# 5 5.5866 9.1518 6.6373 -4.2950 25.2997 -9.2415
# 6 -0.3502 -2.4603 -4.4228 11.8000 -9.2415 26.3226
#
#
#
# Elastic Compliance Matrix: (Units=1/GPa)
#
#
# Indices 1 2 3 4 5 6 
#
# 1 0.010096 -0.002592 -0.000275 0.001758 -0.001451 -0.001452
# 2 -0.002592 0.058510 -0.010946 0.058782 -0.018416 -0.029221
# 3 -0.000275 -0.010946 0.013973 -0.001911 0.000947 0.002510
# 4 0.001758 0.058782 -0.001911 0.098980 -0.021401 -0.046688
# 5 -0.001451 -0.018416 0.000947 -0.021401 0.052255 0.026358
# 6 -0.001452 -0.029221 0.002510 -0.046688 0.026358 0.065845
#
#
# Mechanical properties :
#
#
# Convention : Reuss Voigt Hill
#
# Bulk Modulus (GPa) = 18.19778 53.19761 35.69769
# Shear Modulus (GPa) = 14.46755 30.55716 22.51235
#
# Velocity S-wave (km/s) = 2.48318 3.60883 3.09756
# Velocity P-wave (km/s) = 3.99719 6.32756 5.29224
#
# Compressibility (1/GPa) = 0.05495177
#
# Stress axis : x y z
#
# Youngs Moduli (GPa) = 99.04995 17.09111 71.56877
#
# Poissons Ratio (x) = 0.04430 0.01967
# Poissons Ratio (y) = 0.25676 0.78341
# Poissons Ratio (z) = 0.02723 0.18708
#
# Static dielectric constant tensor:
#      x y z
#    x 3.545650 0.439800 -1.179030 
#    y 0.439800 4.113740 0.322550 
#    z -1.179030 0.322550 2.904720 
# 
# 
# High freq. dielectric constant tensor:
#      x y z
#    x 1.942390 -0.004440 0.005260 
#    y -0.004440 1.913180 -0.032810 
#    z 0.005260 -0.032810 1.904350 
# 
# From -- ./inp_files/221876.got.cif
#   From: 2010.06.25/outbox.cif.g09.slc.cpg/sg2_111_cif.got.tgz:221876.got - 2010.06.27 13:26:56.
