data_PCOD8038271
_publ_section_title
;
Structure prediction by ZEFSAII (Michael W. Deem and Ramdas Pophale) SiO2 
 PCOD8038271
Probable space group: P -1
;
_chemical_formula_sum "Si O2"
_cell_formula_units_Z 16
_cell_length_a 15.000000
_cell_length_b 9.000000
_cell_length_c 24.000000
_cell_angle_alpha 130.000000
_cell_angle_beta 150.000000
_cell_angle_gamma 30.000000
_cell_volume 731.734496
_symmetry_space_group_name_H-M "P -1"
_symmetry_group_IT_number 2
_symmetry_cell_setting 'triclinic'
loop_
_space_group_symop_operation_xyz
x,y,z
-x,-y,-z
loop_
_atom_site_type_symbol
_atom_site_label
_atom_site_fract_x
_atom_site_fract_y
_atom_site_fract_z
Si Si1 0.795698 0.229536 0.768081
Si Si2 0.344960 0.034422 0.873830
Si Si3 0.584125 0.432577 0.242201
Si Si4 0.457814 0.194417 0.779748
Si Si5 0.252566 0.115416 0.030250
Si Si6 0.809551 0.843885 0.618971
Si Si7 0.695105 0.616860 0.717294
Si Si8 0.258778 0.881407 0.464653
O O1 0.605878 0.403046 0.764250
O O2 0.635180 0.475191 0.687594
O O3 0.865271 0.942134 0.724357
O O4 0.104579 0.081707 0.903043
O O5 0.986582 0.347905 0.769094
O O6 0.483018 0.697181 0.862595
O O7 0.448243 0.056186 0.878831
O O8 0.500000 0.000000 0.000000
O O9 0.516104 0.679599 0.226869
O O10 0.936733 0.106828 0.370951
O O11 0.108363 0.452538 0.671615
O O12 0.630244 0.113291 0.908834
O O13 0.673081 0.820833 0.794173
O O14 0.000000 0.500000 0.000000
O O15 0.500000 0.000000 0.500000
O O16 0.773559 0.012533 0.588239
O O17 0.404096 0.911302 0.591566
O O18 0.500000 0.500000 0.500000
#
# Coordination Sequence:
#
# PCOD8038271 Si02
#       8
#     2   2   2   2   2   2   2   2
#     4  12  25  47  71  99 141 184 235 280 345 417
#     4  12  23  43  74  98 138 181 232 279 340 418
#     4  11  26  44  67 105 139 179 229 291 346 405
#     4  11  27  46  68 102 146 175 230 291 346 407
#     4  12  24  47  71 104 138 183 234 282 336 425
#     4  11  28  47  67 103 141 181 236 292 348 406
#     4  12  24  44  73 103 134 189 227 283 348 413
#     4  11  23  44  70  97 138 178 236 280 341 418
#
# _framework density 21.865853999999999
#
# number of rings (size 3 to 8) (size 9 to 14) (size 15 to 20)
#    0.000    0.500    6.250    0.750    5.250    3.500 
#    0.000    0.000    0.000    0.000    0.000    0.000 
#    0.000    0.000    0.000    0.000    0.000    0.000 
#
# Total GULP energy -198224.129632 kJ/mol
# GULP energy per Si atom -12389.008102 kJ/mol
# Density = 2.181609 g / cm^3
# Si number density = 21.865854 Si / 1000 Ang^3
#
#
#
# Elastic Constant Matrix: (Units=GPa)
#
#
# Indices 1 2 3 4 5 6 
#
# 1 136.0852 47.5846 33.3769 -12.2828 25.3509 -25.7895
# 2 47.5846 97.3336 6.0103 2.9758 8.8020 -15.7623
# 3 33.3769 6.0103 64.4593 5.0132 2.5480 -0.4483
# 4 -12.2828 2.9758 5.0132 37.7410 0.7875 0.2143
# 5 25.3509 8.8020 2.5480 0.7875 40.5061 -2.3875
# 6 -25.7895 -15.7623 -0.4483 0.2143 -2.3875 31.3192
#
#
#
# Elastic Compliance Matrix: (Units=1/GPa)
#
#
# Indices 1 2 3 4 5 6 
#
# 1 0.014203 -0.004651 -0.007051 0.006023 -0.007041 0.008676
# 2 -0.004651 0.012970 0.001423 -0.002745 0.000219 0.002754
# 3 -0.007051 0.001423 0.019281 -0.004999 0.002718 -0.004572
# 4 0.006023 -0.002745 -0.004999 0.029388 -0.003250 0.003058
# 5 -0.007041 0.000219 0.002718 -0.003250 0.028736 -0.003436
# 6 0.008676 0.002754 -0.004572 0.003058 -0.003436 0.040111
#
#
# Mechanical properties :
#
#
# Convention : Reuss Voigt Hill
#
# Bulk Modulus (GPa) = 38.61382 52.42461 45.51921
# Shear Modulus (GPa) = 28.75568 35.97368 32.36468
#
# Velocity S-wave (km/s) = 3.63036 4.06051 3.85144
# Velocity P-wave (km/s) = 5.93889 6.78316 6.37502
#
# Compressibility (1/GPa) = 0.02589746
#
# Stress axis : x y z
#
# Youngs Moduli (GPa) = 70.40643 77.10176 51.86382
#
# Poissons Ratio (x) = 0.35858 0.36567
# Poissons Ratio (y) = 0.32745 -0.07380
# Poissons Ratio (z) = 0.49640 -0.10971
#
# Static dielectric constant tensor:
#      x y z
#    x 4.531870 -0.351700 -0.289530 
#    y -0.351700 4.178840 -0.291990 
#    z -0.289530 -0.291990 5.026160 
# 
# 
# High freq. dielectric constant tensor:
#      x y z
#    x 1.878190 -0.019250 0.001640 
#    y -0.019250 1.862250 -0.000140 
#    z 0.001640 -0.000140 1.859860 
# 
# From -- ./inp_files/187107.got.cif
#   From: 2010.06.25/outbox.ucp.g09.slc.cvg/sg2_94_cif.got.tgz:187107.got - 2010.06.28 11:54:26.
