data_PCOD8038145
_publ_section_title
;
Structure prediction by ZEFSAII (Michael W. Deem and Ramdas Pophale) SiO2 
 PCOD8038145
Probable space group: P -1
;
_chemical_formula_sum "Si O2"
_cell_formula_units_Z 12
_cell_length_a 7.723582
_cell_length_b 9.196178
_cell_length_c 13.537214
_cell_angle_alpha 119.737710
_cell_angle_beta 135.413535
_cell_angle_gamma 51.432417
_cell_volume 525.363502
_symmetry_space_group_name_H-M "P -1"
_symmetry_group_IT_number 2
_symmetry_cell_setting 'triclinic'
loop_
_space_group_symop_operation_xyz
x,y,z
-x,-y,-z
loop_
_atom_site_type_symbol
_atom_site_label
_atom_site_fract_x
_atom_site_fract_y
_atom_site_fract_z
Si Si1 0.840351 0.295463 0.384598
Si Si2 0.921072 0.514162 0.328060
Si Si3 0.639277 0.398692 0.797072
Si Si4 0.110846 0.071016 0.782071
Si Si5 0.642470 0.080989 0.958861
Si Si6 0.065532 0.699158 0.924513
O O1 0.015425 0.338316 0.383896
O O2 0.512343 0.407079 0.260244
O O3 0.906981 0.368199 0.540029
O O4 0.925531 0.076741 0.355194
O O5 0.594470 0.645769 0.259096
O O6 0.990128 0.435750 0.218523
O O7 0.843675 0.406923 0.968573
O O8 0.812052 0.237973 0.735347
O O9 0.315450 0.145557 0.841577
O O10 0.245880 0.959268 0.898594
O O11 0.687711 0.257140 0.000689
O O12 0.796301 0.896712 0.891897
#
# Coordination Sequence:
#
# PCOD8038145 Si02
#       6
#     2   2   2   2   2   2
#     4   9  19  35  53  80 107 139 174 215 259 314
#     4   9  18  34  52  82 105 138 175 216 259 311
#     4   9  19  32  58  82 100 138 178 219 261 301
#     4  10  18  35  53  79 109 138 176 214 263 317
#     4   9  19  31  54  81 106 140 172 221 266 301
#     4  10  17  34  56  79 106 134 179 220 259 310
#
# _framework density 22.841328000000001
#
# number of rings (size 3 to 8) (size 9 to 14) (size 15 to 20)
#    1.000    1.667    1.667    0.500    0.000    0.667 
#    0.000   15.833    0.000    2.000    0.000    1.167 
#    0.000    0.000    0.000    0.000    0.000    0.000 
#
# Total GULP energy -148738.414161 kJ/mol
# GULP energy per Si atom -12394.867847 kJ/mol
# Density = 2.278934 g / cm^3
# Si number density = 22.841328 Si / 1000 Ang^3
#
#
#
# Elastic Constant Matrix: (Units=GPa)
#
#
# Indices 1 2 3 4 5 6 
#
# 1 52.9632 25.9033 26.5289 13.7381 0.6576 -13.5311
# 2 25.9033 75.7812 47.4589 22.2388 -11.1459 -26.3464
# 3 26.5289 47.4589 125.6926 33.5821 -22.8440 -17.9836
# 4 13.7381 22.2388 33.5821 36.1028 -3.7181 -0.7241
# 5 0.6576 -11.1459 -22.8440 -3.7181 12.6344 3.2183
# 6 -13.5311 -26.3464 -17.9836 -0.7241 3.2183 25.5223
#
#
#
# Elastic Compliance Matrix: (Units=1/GPa)
#
#
# Indices 1 2 3 4 5 6 
#
# 1 0.027055 -0.004567 -0.004687 -0.004751 -0.017447 0.008392
# 2 -0.004567 0.031015 0.000287 -0.015372 0.016649 0.027262
# 3 -0.004687 0.000287 0.018175 -0.012277 0.028030 0.006735
# 4 -0.004751 -0.015372 -0.012277 0.048351 -0.015235 -0.023746
# 5 -0.017447 0.016649 0.028030 -0.015235 0.138446 0.009797
# 6 0.008392 0.027262 0.006735 -0.023746 0.009797 0.074609
#
#
# Mechanical properties :
#
#
# Convention : Reuss Voigt Hill
#
# Bulk Modulus (GPa) = 17.14920 50.46879 33.80899
# Shear Modulus (GPa) = 13.33251 25.15497 19.24374
#
# Velocity S-wave (km/s) = 2.41861 3.32217 2.90573
# Velocity P-wave (km/s) = 3.91457 6.07117 5.10798
#
# Compressibility (1/GPa) = 0.05831177
#
# Stress axis : x y z
#
# Youngs Moduli (GPa) = 36.96131 32.24216 55.02072
#
# Poissons Ratio (x) = 0.14725 0.25787
# Poissons Ratio (y) = 0.16880 -0.01578
# Poissons Ratio (z) = 0.17323 -0.00925
#
# Static dielectric constant tensor:
#      x y z
#    x 3.864050 -0.210900 -0.030720 
#    y -0.210900 3.757450 0.042700 
#    z -0.030720 0.042700 3.922490 
# 
# 
# High freq. dielectric constant tensor:
#      x y z
#    x 1.874570 -0.014470 -0.005280 
#    y -0.014470 1.883650 0.009480 
#    z -0.005280 0.009480 1.886740 
# 
# From -- ./inp_files/241831.got.cif
#   From: 2010.06.25/outbox.cif.g09.slc.cpg/sg2_121_cif.got.tgz:241831.got - 2010.06.27 13:26:56.
