data_PCOD8038711
_publ_section_title
;
Structure prediction by ZEFSAII (Michael W. Deem and Ramdas Pophale) SiO2 
 PCOD8038711
Probable space group: P -1
;
_chemical_formula_sum "Si O2"
_cell_formula_units_Z 16
_cell_length_a 14.356189
_cell_length_b 11.829036
_cell_length_c 20.481122
_cell_angle_alpha 36.822881
_cell_angle_beta 28.230095
_cell_angle_gamma 31.845929
_cell_volume 848.966239
_symmetry_space_group_name_H-M "P -1"
_symmetry_group_IT_number 2
_symmetry_cell_setting 'triclinic'
loop_
_space_group_symop_operation_xyz
x,y,z
-x,-y,-z
loop_
_atom_site_type_symbol
_atom_site_label
_atom_site_fract_x
_atom_site_fract_y
_atom_site_fract_z
Si Si1 0.532474 0.119267 0.132194
Si Si2 0.847420 0.638498 0.130535
Si Si3 0.695649 0.047229 0.337961
Si Si4 0.419253 0.733639 0.831239
Si Si5 0.200558 0.744316 0.189868
Si Si6 0.465843 0.799251 0.100229
Si Si7 0.753481 0.414847 0.183648
Si Si8 0.809677 0.528071 0.900040
O O1 0.549619 0.126070 0.196427
O O2 0.267475 0.292486 0.193737
O O3 0.613610 0.872924 0.172213
O O4 0.695832 0.196335 0.963501
O O5 0.810150 0.453825 0.204490
O O6 0.937535 0.560559 0.185465
O O7 0.029161 0.666112 0.961441
O O8 0.672955 0.118497 0.244141
O O9 0.681515 0.232620 0.309862
O O10 0.500000 0.000000 0.500000
O O11 0.937405 0.825398 0.301447
O O12 0.664022 0.518296 0.763934
O O13 0.230526 0.672025 0.001080
O O14 0.221021 0.861353 0.190607
O O15 0.532727 0.649027 0.192371
O O16 0.640461 0.649698 0.007123
O O17 0.500000 0.000000 0.000000
#
# Coordination Sequence:
#
# PCOD8038711 Si02
#       8
#     2   2   2   2   2   2   2   2
#     4  10  18  31  55  82 111 137 168 218 294 333
#     4  10  18  29  54  79 114 139 160 226 291 321
#     4  12  24  38  54  76 109 158 195 215 254 312
#     4  10  20  36  50  80 112 138 181 229 260 335
#     4  10  19  34  52  79 110 142 173 224 278 314
#     4   9  16  27  50  77 111 137 162 212 284 333
#     4  10  18  35  48  79 118 137 181 222 262 333
#     4   9  17  28  44  79 108 134 167 204 276 334
#
# _framework density 18.846450999999998
#
# number of rings (size 3 to 8) (size 9 to 14) (size 15 to 20)
#    0.000    2.250    5.000    3.000    3.500    3.500 
#    0.000    0.000    0.000    0.750    0.000    1.750 
#    0.000    0.000    0.000    0.000    0.000    0.000 
#
# Total GULP energy -198245.877805 kJ/mol
# GULP energy per Si atom -12390.367363 kJ/mol
# Density = 1.880356 g / cm^3
# Si number density = 18.846451 Si / 1000 Ang^3
#
#
#
# Elastic Constant Matrix: (Units=GPa)
#
#
# Indices 1 2 3 4 5 6 
#
# 1 136.3766 52.4375 24.1569 -2.2219 -6.8664 -4.1874
# 2 52.4375 78.1814 21.0262 -6.3019 -6.8851 -2.0695
# 3 24.1569 21.0262 34.5312 -2.4371 -16.8518 -1.3558
# 4 -2.2219 -6.3019 -2.4371 11.9401 1.9396 -6.1886
# 5 -6.8664 -6.8851 -16.8518 1.9396 15.8761 -1.1122
# 6 -4.1874 -2.0695 -1.3558 -6.1886 -1.1122 41.4595
#
#
#
# Elastic Compliance Matrix: (Units=1/GPa)
#
#
# Indices 1 2 3 4 5 6 
#
# 1 0.010396 -0.005912 -0.005664 -0.001596 -0.003870 0.000228
# 2 -0.005912 0.019660 -0.009825 0.008793 -0.005448 0.001229
# 3 -0.005664 -0.009825 0.074371 -0.001229 0.072601 0.003134
# 4 -0.001596 0.008793 -0.001229 0.096792 -0.008995 0.014444
# 5 -0.003870 -0.005448 0.072601 -0.008995 0.137397 0.004055
# 6 0.000228 0.001229 0.003134 0.014444 0.004055 0.026572
#
#
# Mechanical properties :
#
#
# Convention : Reuss Voigt Hill
#
# Bulk Modulus (GPa) = 16.22756 49.37006 32.79881
# Shear Modulus (GPa) = 11.66774 23.95304 17.81039
#
# Velocity S-wave (km/s) = 2.49086 3.56892 3.07746
# Velocity P-wave (km/s) = 4.11116 6.57539 5.48349
#
# Compressibility (1/GPa) = 0.06162357
#
# Stress axis : x y z
#
# Youngs Moduli (GPa) = 96.19528 50.86425 13.44609
#
# Poissons Ratio (x) = 0.30073 0.07616
# Poissons Ratio (y) = 0.56875 0.13210
# Poissons Ratio (z) = 0.54489 0.49973
#
# Static dielectric constant tensor:
#      x y z
#    x 4.295320 -0.567710 -0.150850 
#    y -0.567710 3.730150 0.039720 
#    z -0.150850 0.039720 2.654350 
# 
# 
# High freq. dielectric constant tensor:
#      x y z
#    x 1.760980 -0.009560 -0.008320 
#    y -0.009560 1.743970 -0.003610 
#    z -0.008320 -0.003610 1.624340 
# 
# From -- ./inp_files/597818.got.cif
#   From: 2010.06.25/outbox.cif.g09.slc.cpg/sg2_299_cif.got.tgz:597818.got - 2010.06.27 13:26:56.
