data_PCOD8038197
_publ_section_title
;
Structure prediction by ZEFSAII (Michael W. Deem and Ramdas Pophale) SiO2 
 PCOD8038197
Probable space group: P -1
;
_chemical_formula_sum "Si O2"
_cell_formula_units_Z 16
_cell_length_a 7.669818
_cell_length_b 18.770365
_cell_length_c 11.371673
_cell_angle_alpha 144.078873
_cell_angle_beta 81.920526
_cell_angle_gamma 74.124762
_cell_volume 708.584457
_symmetry_space_group_name_H-M "P -1"
_symmetry_group_IT_number 2
_symmetry_cell_setting 'triclinic'
loop_
_space_group_symop_operation_xyz
x,y,z
-x,-y,-z
loop_
_atom_site_type_symbol
_atom_site_label
_atom_site_fract_x
_atom_site_fract_y
_atom_site_fract_z
Si Si1 0.754724 0.423753 0.924951
Si Si2 0.224597 0.372148 0.429258
Si Si3 0.486076 0.193157 0.787554
Si Si4 0.793861 0.444010 0.694850
Si Si5 0.463630 0.690233 0.481981
Si Si6 0.136850 0.269160 0.086312
Si Si7 0.223654 0.959148 0.679485
Si Si8 0.931591 0.941185 0.531563
O O1 0.888046 0.407155 0.772533
O O2 0.915239 0.251559 0.746504
O O3 0.500000 0.500000 0.000000
O O4 0.699862 0.550761 0.197365
O O5 0.454744 0.287012 0.373235
O O6 0.299364 0.271144 0.166257
O O7 0.018445 0.381114 0.514289
O O8 0.123980 0.552721 0.651611
O O9 0.577704 0.131264 0.563786
O O10 0.653879 0.054174 0.686771
O O11 0.431587 0.361395 0.037227
O O12 0.244929 0.231096 0.892103
O O13 0.702836 0.351872 0.541764
O O14 0.327264 0.861005 0.658668
O O15 0.119735 0.138941 0.953577
O O16 0.000922 0.975788 0.692197
O O17 0.000000 0.000000 0.500000
#
# Coordination Sequence:
#
# PCOD8038197 Si02
#       8
#     2   2   2   2   2   2   2   2
#     4  10  17  34  58  90 131 149 193 255 295 368
#     4  10  25  44  62  86 120 169 211 247 298 360
#     4  10  21  38  62  91 123 158 197 255 316 353
#     4  10  20  41  62  93 126 154 202 254 300 372
#     4  11  21  38  65  92 121 162 196 249 316 359
#     4  10  24  45  57  84 127 156 210 260 287 366
#     4  11  20  37  61  94 122 151 199 255 312 361
#     4  10  19  31  57  94 121 155 190 241 315 362
#
# _framework density 22.580228000000002
#
# number of rings (size 3 to 8) (size 9 to 14) (size 15 to 20)
#    0.000    1.750    3.750    2.625    5.250    2.000 
#    2.250    2.500    0.000    0.000    0.000    0.000 
#    0.000    0.000    0.000    0.000    0.000    0.000 
#
# Total GULP energy -198228.455401 kJ/mol
# GULP energy per Si atom -12389.278463 kJ/mol
# Density = 2.252883 g / cm^3
# Si number density = 22.580228 Si / 1000 Ang^3
#
#
#
# Elastic Constant Matrix: (Units=GPa)
#
#
# Indices 1 2 3 4 5 6 
#
# 1 51.7736 15.7779 10.0116 8.7633 10.5537 -0.8322
# 2 15.7779 97.6068 16.8834 29.9575 1.0600 -6.5267
# 3 10.0116 16.8834 52.5595 21.0802 4.7787 14.6556
# 4 8.7633 29.9575 21.0802 41.1762 1.1836 3.7893
# 5 10.5537 1.0600 4.7787 1.1836 20.1944 2.2875
# 6 -0.8322 -6.5267 14.6556 3.7893 2.2875 36.4916
#
#
#
# Elastic Compliance Matrix: (Units=1/GPa)
#
#
# Indices 1 2 3 4 5 6 
#
# 1 0.023237 -0.002565 -0.002415 -0.001689 -0.011558 0.001941
# 2 -0.002565 0.014019 -0.001486 -0.009286 0.001053 0.003944
# 3 -0.002415 -0.001486 0.027712 -0.011571 -0.003403 -0.010035
# 4 -0.001689 -0.009286 -0.011571 0.037364 0.002039 -0.001060
# 5 -0.011558 0.001053 -0.003403 0.002039 0.056468 -0.002460
# 6 0.001941 0.003944 -0.010035 -0.001060 -0.002460 0.032448
#
#
# Mechanical properties :
#
#
# Convention : Reuss Voigt Hill
#
# Bulk Modulus (GPa) = 19.21721 31.92061 25.56891
# Shear Modulus (GPa) = 22.57088 30.19025 26.38057
#
# Velocity S-wave (km/s) = 3.16505 3.66050 3.42175
# Velocity P-wave (km/s) = 4.67823 5.65976 5.19224
#
# Compressibility (1/GPa) = 0.05203668
#
# Stress axis : x y z
#
# Youngs Moduli (GPa) = 43.03548 71.33089 36.08577
#
# Poissons Ratio (x) = 0.18293 0.08715
# Poissons Ratio (y) = 0.11037 0.05362
# Poissons Ratio (z) = 0.10394 0.10598
#
# Static dielectric constant tensor:
#      x y z
#    x 5.249500 -1.140920 -1.152090 
#    y -1.140920 5.298740 1.043310 
#    z -1.152090 1.043310 5.032550 
# 
# 
# High freq. dielectric constant tensor:
#      x y z
#    x 1.861380 0.001990 0.009040 
#    y 0.001990 1.899570 0.015540 
#    z 0.009040 0.015540 1.881000 
# 
# From -- ./inp_files/392791.got.cif
#   From: 2010.06.25/outbox.cif.g09.slc.cpg/sg2_197_cif.got.tgz:392791.got - 2010.06.27 13:26:56.
