data_PCOD8038831
_publ_section_title
;
Structure prediction by ZEFSAII (Michael W. Deem and Ramdas Pophale) SiO2 
 PCOD8038831
Probable space group: P -1
;
_chemical_formula_sum "Si O2"
_cell_formula_units_Z 16
_cell_length_a 15.238248
_cell_length_b 16.054992
_cell_length_c 5.238324
_cell_angle_alpha 108.362471
_cell_angle_beta 90.672173
_cell_angle_gamma 57.506129
_cell_volume 1005.835005
_symmetry_space_group_name_H-M "P -1"
_symmetry_group_IT_number 2
_symmetry_cell_setting 'triclinic'
loop_
_space_group_symop_operation_xyz
x,y,z
-x,-y,-z
loop_
_atom_site_type_symbol
_atom_site_label
_atom_site_fract_x
_atom_site_fract_y
_atom_site_fract_z
Si Si1 0.658130 0.557327 0.766051
Si Si2 0.116206 0.498447 0.248918
Si Si3 0.057335 0.158122 0.949329
Si Si4 0.447712 0.420442 0.725156
Si Si5 0.875445 0.161671 0.738304
Si Si6 0.338325 0.624557 0.201198
Si Si7 0.998444 0.616211 0.865578
Si Si8 0.920435 0.947716 0.643043
O O1 0.757439 0.566798 0.789888
O O2 0.594299 0.607073 0.550209
O O3 0.698008 0.433235 0.664405
O O4 0.580922 0.621729 0.065796
O O5 0.067399 0.567548 0.567333
O O6 0.087282 0.412716 0.137602
O O7 0.075173 0.575049 0.074856
O O8 0.933240 0.197998 0.966795
O O9 0.121738 0.080916 0.636783
O O10 0.066807 0.257428 0.034200
O O11 0.107083 0.094291 0.151090
O O12 0.574017 0.362710 0.648925
O O13 0.391825 0.548439 0.878592
O O14 0.760275 0.260274 0.760273
O O15 0.951564 0.108173 0.438310
O O16 0.862705 0.074018 0.787819
#
# Coordination Sequence:
#
# PCOD8038831 Si02
#       8
#     2   2   2   2   2   2   2   2
#     4  10  18  31  45  61  92 121 147 182 222 263
#     4  10  20  31  45  68  92 118 157 190 218 269
#     4  10  18  31  45  61  92 121 147 182 222 263
#     4   9  20  31  42  67  90 116 156 185 213 268
#     4   9  19  30  46  65  90 123 148 186 220 266
#     4   9  19  30  46  65  90 123 148 186 220 266
#     4  10  20  31  45  68  92 118 157 190 218 269
#     4   9  20  31  42  67  90 116 156 185 213 268
#
# _framework density 15.907181
#
# number of rings (size 3 to 8) (size 9 to 14) (size 15 to 20)
#    1.500    1.000    0.000    3.000    3.500    0.000 
#    0.000    0.000    0.000    0.000    0.000    0.000 
#    0.000    6.000    0.000    0.000    0.000    0.000 
#
# Total GULP energy -198272.994430 kJ/mol
# GULP energy per Si atom -12392.062152 kJ/mol
# Density = 1.587098 g / cm^3
# Si number density = 15.907181 Si / 1000 Ang^3
#
#
#
# Elastic Constant Matrix: (Units=GPa)
#
#
# Indices 1 2 3 4 5 6 
#
# 1 60.4774 6.8646 19.0170 -3.4545 7.6103 -1.7537
# 2 6.8646 60.4770 28.3090 -4.9488 0.8116 6.1967
# 3 19.0170 28.3090 76.2404 -28.7735 3.8347 3.5924
# 4 -3.4545 -4.9488 -28.7735 26.8972 -5.4835 1.0341
# 5 7.6103 0.8116 3.8347 -5.4835 8.0243 2.7410
# 6 -1.7537 6.1967 3.5924 1.0341 2.7410 24.2235
#
#
#
# Elastic Compliance Matrix: (Units=1/GPa)
#
#
# Indices 1 2 3 4 5 6 
#
# 1 0.022552 0.000648 -0.009888 -0.013593 -0.028312 0.006717
# 2 0.000648 0.021195 -0.010692 -0.007696 -0.001795 -0.003258
# 3 -0.009888 -0.010692 0.032435 0.036216 0.022042 -0.006831
# 4 -0.013593 -0.007696 0.036216 0.085536 0.059875 -0.014813
# 5 -0.028312 -0.001795 0.022042 0.059875 0.191992 -0.029141
# 6 0.006717 -0.003258 -0.006831 -0.014813 -0.029141 0.047545
#
#
# Mechanical properties :
#
#
# Convention : Reuss Voigt Hill
#
# Bulk Modulus (GPa) = 27.53584 33.95288 30.74436
# Shear Modulus (GPa) = 11.03205 21.36260 16.19732
#
# Velocity S-wave (km/s) = 2.63635 3.66861 3.19445
# Velocity P-wave (km/s) = 5.15897 6.27181 5.74241
#
# Compressibility (1/GPa) = 0.03631631
#
# Stress axis : x y z
#
# Youngs Moduli (GPa) = 44.34194 47.18145 30.83132
#
# Poissons Ratio (x) = -0.03059 0.30487
# Poissons Ratio (y) = -0.02875 0.32966
# Poissons Ratio (z) = 0.43847 0.50448
#
# Static dielectric constant tensor:
#      x y z
#    x 2.793620 0.116580 0.060910 
#    y 0.116580 2.726530 -0.168930 
#    z 0.060910 -0.168930 2.982290 
# 
# 
# High freq. dielectric constant tensor:
#      x y z
#    x 1.585690 0.010850 0.007920 
#    y 0.010850 1.583280 -0.022700 
#    z 0.007920 -0.022700 1.609690 
# 
# From -- ./inp_files/96616.got.cif
#   From: 2010.06.25/outbox.cif.g09.slc.cpg/sg2_49_cif.got.tgz:96616.got - 2010.06.27 13:26:56.
