data_PCOD8038102
_publ_section_title
;
Structure prediction by ZEFSAII (Michael W. Deem and Ramdas Pophale) SiO2 
 PCOD8038102
Probable space group: P -1
;
_chemical_formula_sum "Si O2"
_cell_formula_units_Z 16
_cell_length_a 15.000000
_cell_length_b 18.000000
_cell_length_c 24.000000
_cell_angle_alpha 20.000000
_cell_angle_beta 20.000000
_cell_angle_gamma 30.000000
_cell_volume 749.971719
_symmetry_space_group_name_H-M "P -1"
_symmetry_group_IT_number 2
_symmetry_cell_setting 'triclinic'
loop_
_space_group_symop_operation_xyz
x,y,z
-x,-y,-z
loop_
_atom_site_type_symbol
_atom_site_label
_atom_site_fract_x
_atom_site_fract_y
_atom_site_fract_z
Si Si1 0.013693 0.074585 0.027457
Si Si2 0.237785 0.547055 0.589909
Si Si3 0.692817 0.426796 0.243989
Si Si4 0.557638 0.489002 0.774888
Si Si5 0.840051 0.783504 0.721013
Si Si6 0.348931 0.767010 0.255159
Si Si7 0.564868 0.003971 0.253429
Si Si8 0.979239 0.220240 0.664066
O O1 0.014545 0.991333 0.149908
O O2 0.089459 0.332174 0.800070
O O3 0.231457 0.974331 0.933346
O O4 0.727527 0.033465 0.194854
O O5 0.500000 0.500000 0.500000
O O6 0.281855 0.719300 0.392500
O O7 0.049448 0.633145 0.684563
O O8 0.556339 0.365624 0.307925
O O9 0.550122 0.615164 0.221204
O O10 0.631545 0.225427 0.464875
O O11 0.000000 0.500000 0.000000
O O12 0.765992 0.349096 0.725822
O O13 0.722696 0.656902 0.601874
O O14 0.318085 0.337767 0.049952
O O15 0.635512 0.822299 0.764127
O O16 0.000000 0.000000 0.500000
O O17 0.094546 0.796943 0.345619
O O18 0.500000 0.000000 0.000000
#
# Coordination Sequence:
#
# PCOD8038102 Si02
#       8
#     2   2   2   2   2   2   2   2
#     4  11  22  44  70 100 134 178 222 274 334 400
#     4  12  28  46  68  97 138 176 226 281 338 399
#     4  11  23  41  68  97 135 171 225 274 326 404
#     4  10  22  40  68 101 126 175 224 272 326 392
#     4  12  27  44  69  98 135 179 229 279 332 403
#     4  11  26  43  65  98 133 181 218 272 340 394
#     4  11  23  41  71 101 134 177 228 271 332 401
#     4  10  21  43  70  95 135 171 222 272 333 399
#
# _framework density 21.334137999999999
#
# number of rings (size 3 to 8) (size 9 to 14) (size 15 to 20)
#    0.000    1.000    3.750    2.250    8.750    0.500 
#    0.000    0.625    0.000    0.000    0.000    0.000 
#    0.000    0.000    0.000    0.000    0.000    0.000 
#
# Total GULP energy -198243.761397 kJ/mol
# GULP energy per Si atom -12390.235087 kJ/mol
# Density = 2.128558 g / cm^3
# Si number density = 21.334138 Si / 1000 Ang^3
#
#
#
# Elastic Constant Matrix: (Units=GPa)
#
#
# Indices 1 2 3 4 5 6 
#
# 1 112.5456 13.8782 20.9032 6.8394 7.1815 -16.7066
# 2 13.8782 56.3317 6.2589 14.5063 -16.6772 -21.5642
# 3 20.9032 6.2589 105.5105 8.9476 4.7735 1.4020
# 4 6.8394 14.5063 8.9476 33.1220 -6.2611 0.2511
# 5 7.1815 -16.6772 4.7735 -6.2611 36.8916 -7.3773
# 6 -16.7066 -21.5642 1.4020 0.2511 -7.3773 23.5355
#
#
#
# Elastic Compliance Matrix: (Units=1/GPa)
#
#
# Indices 1 2 3 4 5 6 
#
# 1 0.010613 0.002573 -0.002218 -0.002606 0.001015 0.010369
# 2 0.002573 0.060821 -0.005175 -0.019033 0.038455 0.070118
# 3 -0.002218 -0.005175 0.010663 -0.001071 -0.005182 -0.008564
# 4 -0.002606 -0.019033 -0.001071 0.038436 -0.005720 -0.021428
# 5 0.001015 0.038455 -0.005182 -0.005720 0.054684 0.053466
# 6 0.010369 0.070118 -0.008564 -0.021428 0.053466 0.131593
#
#
# Mechanical properties :
#
#
# Convention : Reuss Voigt Hill
#
# Bulk Modulus (GPa) = 13.80142 39.60761 26.70452
# Shear Modulus (GPa) = 14.67988 34.26631 24.47309
#
# Velocity S-wave (km/s) = 2.62600 4.01206 3.39061
# Velocity P-wave (km/s) = 3.95951 6.32991 5.27947
#
# Compressibility (1/GPa) = 0.07245630
#
# Stress axis : x y z
#
# Youngs Moduli (GPa) = 94.22657 16.44166 93.78097
#
# Poissons Ratio (x) = -0.04230 0.20800
# Poissons Ratio (y) = -0.24241 0.48532
# Poissons Ratio (z) = 0.20898 0.08509
#
# Static dielectric constant tensor:
#      x y z
#    x 4.097060 -0.320610 -0.090940 
#    y -0.320610 3.619280 0.065610 
#    z -0.090940 0.065610 3.982310 
# 
# 
# High freq. dielectric constant tensor:
#      x y z
#    x 1.855210 -0.028950 0.005390 
#    y -0.028950 1.811230 0.008750 
#    z 0.005390 0.008750 1.848650 
# 
# From -- ./inp_files/223217.got.cif
#   From: 2010.06.25/outbox.ucp.g09.slc.cvg/sg2_112_cif.got.tgz:223217.got - 2010.06.28 11:54:26.
