data_PCOD8038286
_publ_section_title
;
Structure prediction by ZEFSAII (Michael W. Deem and Ramdas Pophale) SiO2 
 PCOD8038286
Probable space group: P -1
;
_chemical_formula_sum "Si O2"
_cell_formula_units_Z 16
_cell_length_a 7.300112
_cell_length_b 19.327839
_cell_length_c 12.186493
_cell_angle_alpha 151.074953
_cell_angle_beta 115.533934
_cell_angle_gamma 70.515051
_cell_volume 746.641406
_symmetry_space_group_name_H-M "P -1"
_symmetry_group_IT_number 2
_symmetry_cell_setting 'triclinic'
loop_
_space_group_symop_operation_xyz
x,y,z
-x,-y,-z
loop_
_atom_site_type_symbol
_atom_site_label
_atom_site_fract_x
_atom_site_fract_y
_atom_site_fract_z
Si Si1 0.484787 0.831342 0.437700
Si Si2 0.955082 0.160320 0.724632
Si Si3 0.993220 0.289730 0.134615
Si Si4 0.780228 0.571179 0.425110
Si Si5 0.234564 0.936135 0.077551
Si Si6 0.587569 0.436603 0.824945
Si Si7 0.022989 0.795295 0.641493
Si Si8 0.126255 0.303922 0.750070
O O1 0.288529 0.836226 0.315811
O O2 0.409118 0.732004 0.384600
O O3 0.671372 0.774867 0.338767
O O4 0.543836 0.991091 0.726567
O O5 0.038973 0.254004 0.774308
O O6 0.070663 0.221951 0.949076
O O7 0.000000 0.000000 0.500000
O O8 0.866514 0.419420 0.248469
O O9 0.191381 0.344430 0.334585
O O10 0.850771 0.170325 0.997295
O O11 0.544764 0.542127 0.289131
O O12 0.894641 0.665580 0.490592
O O13 0.100786 0.067759 0.210398
O O14 0.229489 0.846452 0.835550
O O15 0.500000 0.500000 0.000000
O O16 0.810098 0.523609 0.985269
O O17 0.051869 0.734234 0.441114
#
# Coordination Sequence:
#
# PCOD8038286 Si02
#       8
#     2   2   2   2   2   2   2   2
#     4  10  21  39  63  90 116 163 213 257 310 360
#     4  12  26  41  58  92 132 167 206 251 314 381
#     4  10  22  35  59  92 130 169 200 253 312 380
#     4  10  18  36  63  94 122 161 213 253 313 366
#     4   9  17  33  60  89 118 161 204 251 305 368
#     4  10  17  34  62  92 116 151 207 265 304 356
#     4   9  16  32  60  90 119 155 208 254 303 358
#     4  10  21  37  63  91 120 159 205 262 307 364
#
# _framework density 21.429296999999998
#
# number of rings (size 3 to 8) (size 9 to 14) (size 15 to 20)
#    0.000    2.000    3.750    3.000    0.000    3.500 
#    0.000    1.250    0.000    0.000    0.000    0.000 
#    0.000    0.000    0.000    0.000    0.000    0.000 
#
# Total GULP energy -198246.471175 kJ/mol
# GULP energy per Si atom -12390.404448 kJ/mol
# Density = 2.138052 g / cm^3
# Si number density = 21.429297 Si / 1000 Ang^3
#
#
#
# Elastic Constant Matrix: (Units=GPa)
#
#
# Indices 1 2 3 4 5 6 
#
# 1 46.1674 20.7908 25.8420 -11.8348 12.3922 6.5637
# 2 20.7908 131.5751 69.3237 -11.1152 3.1799 18.6089
# 3 25.8420 69.3237 160.1681 -20.2809 20.1832 20.7312
# 4 -11.8348 -11.1152 -20.2809 59.0024 3.3985 2.9070
# 5 12.3922 3.1799 20.1832 3.3985 23.1367 -1.8166
# 6 6.5637 18.6089 20.7312 2.9070 -1.8166 29.9558
#
#
#
# Elastic Compliance Matrix: (Units=1/GPa)
#
#
# Indices 1 2 3 4 5 6 
#
# 1 0.030321 -0.003031 0.000429 0.007017 -0.017764 -0.006816
# 2 -0.003031 0.010591 -0.004214 -0.000135 0.003646 -0.002765
# 3 0.000429 -0.004214 0.010425 0.003714 -0.009733 -0.005642
# 4 0.007017 -0.000135 0.003714 0.020541 -0.010520 -0.006656
# 5 -0.017764 0.003646 -0.009733 -0.010520 0.063309 0.013223
# 6 -0.006816 -0.002765 -0.005642 -0.006656 0.013223 0.041946
#
#
# Mechanical properties :
#
#
# Convention : Reuss Voigt Hill
#
# Bulk Modulus (GPa) = 26.52112 63.31372 44.91742
# Shear Modulus (GPa) = 24.59020 37.21592 30.90306
#
# Velocity S-wave (km/s) = 3.39116 4.17188 3.80161
# Velocity P-wave (km/s) = 5.26652 7.26743 6.34633
#
# Compressibility (1/GPa) = 0.03770580
#
# Stress axis : x y z
#
# Youngs Moduli (GPa) = 32.98013 94.42280 95.92305
#
# Poissons Ratio (x) = 0.28621 -0.04116
# Poissons Ratio (y) = 0.09997 0.40417
# Poissons Ratio (z) = -0.01415 0.39785
#
# Static dielectric constant tensor:
#      x y z
#    x 3.386010 -0.105850 0.381860 
#    y -0.105850 4.053030 -0.179550 
#    z 0.381860 -0.179550 4.833600 
# 
# 
# High freq. dielectric constant tensor:
#      x y z
#    x 1.780410 -0.002350 0.017750 
#    y -0.002350 1.857270 -0.000710 
#    z 0.017750 -0.000710 1.872460 
# 
# From -- ./inp_files/403579.got.cif
#   From: 2010.06.25/outbox.cif.g09.slc.cpg/sg2_202_cif.got.tgz:403579.got - 2010.06.27 13:26:56.
