data_PCOD8038223
_publ_section_title
;
Structure prediction by ZEFSAII (Michael W. Deem and Ramdas Pophale) SiO2 
 PCOD8038223
Probable space group: P -1
;
_chemical_formula_sum "Si O2"
_cell_formula_units_Z 14
_cell_length_a 18.254386
_cell_length_b 12.104227
_cell_length_c 9.542437
_cell_angle_alpha 48.467981
_cell_angle_beta 151.123446
_cell_angle_gamma 132.943598
_cell_volume 732.069577
_symmetry_space_group_name_H-M "P -1"
_symmetry_group_IT_number 2
_symmetry_cell_setting 'triclinic'
loop_
_space_group_symop_operation_xyz
x,y,z
-x,-y,-z
loop_
_atom_site_type_symbol
_atom_site_label
_atom_site_fract_x
_atom_site_fract_y
_atom_site_fract_z
Si Si1 0.668376 0.966853 0.804643
Si Si2 0.354509 0.496791 0.652857
Si Si3 0.223940 0.136358 0.355713
Si Si4 0.292756 0.615180 0.713196
Si Si5 0.649811 0.812856 0.176513
Si Si6 0.620257 0.669428 0.791291
Si Si7 0.121247 0.848797 0.227890
O O1 0.673612 0.809088 0.871670
O O2 0.500000 0.000000 0.500000
O O3 0.795064 0.103280 0.823031
O O4 0.714796 0.950241 0.058483
O O5 0.248705 0.573908 0.507973
O O6 0.268103 0.324038 0.603161
O O7 0.431552 0.594840 0.561776
O O8 0.500000 0.500000 0.000000
O O9 0.303786 0.116211 0.652886
O O10 0.346901 0.270549 0.362234
O O11 0.189083 0.976408 0.351278
O O12 0.064960 0.185373 0.072870
O O13 0.159217 0.693154 0.475644
O O14 0.461106 0.742484 0.907338
O O15 0.285098 0.458566 0.916302
#
# Coordination Sequence:
#
# PCOD8038223 Si02
#       7
#     2   2   2   2   2   2   2
#     4  11  17  33  60  81  95 142 178 219 258 307
#     4   8  14  29  55  82  95 127 172 222 252 297
#     4  10  23  36  49  78 112 146 165 215 262 319
#     4  10  17  34  60  80  98 137 181 221 249 313
#     4  10  18  33  57  83 104 126 183 221 261 295
#     4   9  17  33  55  76 107 140 168 207 274 312
#     4  10  22  37  52  74 112 143 178 203 266 317
#
# _framework density 19.123867000000001
#
# number of rings (size 3 to 8) (size 9 to 14) (size 15 to 20)
#    0.000    2.571    5.714    0.000    0.000    4.000 
#    0.000    0.714    3.143    0.000    0.000    0.000 
#    0.000    0.000    0.000    0.000    0.000    0.000 
#
# Total GULP energy -173444.767893 kJ/mol
# GULP energy per Si atom -12388.911992 kJ/mol
# Density = 1.908034 g / cm^3
# Si number density = 19.123867 Si / 1000 Ang^3
#
#
#
# Elastic Constant Matrix: (Units=GPa)
#
#
# Indices 1 2 3 4 5 6 
#
# 1 105.4502 21.9979 48.5657 -3.1212 -20.1691 -4.9833
# 2 21.9979 46.5456 25.6283 -16.9791 -5.4818 -4.7126
# 3 48.5657 25.6283 57.9830 -13.8192 -11.0637 -9.7726
# 4 -3.1212 -16.9791 -13.8192 27.3038 -6.1788 5.3517
# 5 -20.1691 -5.4818 -11.0637 -6.1788 37.2464 -9.4628
# 6 -4.9833 -4.7126 -9.7726 5.3517 -9.4628 15.3893
#
#
#
# Elastic Compliance Matrix: (Units=1/GPa)
#
#
# Indices 1 2 3 4 5 6 
#
# 1 0.016799 -0.001827 -0.013684 -0.005335 0.004008 0.000510
# 2 -0.001827 0.033967 -0.008067 0.017637 0.004944 0.001594
# 3 -0.013684 -0.008067 0.041030 0.012462 0.011167 0.021686
# 4 -0.005335 0.017637 0.012462 0.056192 0.012692 -0.000149
# 5 0.004008 0.004944 0.011167 0.012692 0.043333 0.032134
# 6 0.000510 0.001594 0.021686 -0.000149 0.032134 0.099216
#
#
# Mechanical properties :
#
#
# Convention : Reuss Voigt Hill
#
# Bulk Modulus (GPa) = 22.40201 44.70696 33.55448
# Shear Modulus (GPa) = 14.18143 23.57371 18.87757
#
# Velocity S-wave (km/s) = 2.72611 3.51477 3.14526
# Velocity P-wave (km/s) = 4.65279 6.31663 5.54744
#
# Compressibility (1/GPa) = 0.04463885
#
# Stress axis : x y z
#
# Youngs Moduli (GPa) = 59.52604 29.44007 24.37270
#
# Poissons Ratio (x) = 0.05380 0.33351
# Poissons Ratio (y) = 0.10878 0.19662
# Poissons Ratio (z) = 0.81455 0.23750
#
# Static dielectric constant tensor:
#      x y z
#    x 4.000920 -0.092460 0.004300 
#    y -0.092460 3.563430 -0.334670 
#    z 0.004300 -0.334670 3.097920 
# 
# 
# High freq. dielectric constant tensor:
#      x y z
#    x 1.751860 -0.007310 -0.004520 
#    y -0.007310 1.737110 -0.030030 
#    z -0.004520 -0.030030 1.694620 
# 
# From -- ./inp_files/234393.got.cif
#   From: 2010.06.25/outbox.cif.g09.slc.cpg/sg2_118_cif.got.tgz:234393.got - 2010.06.27 13:26:56.
