data_PCOD8038059
_publ_section_title
;
Structure prediction by ZEFSAII (Michael W. Deem and Ramdas Pophale) SiO2 
 PCOD8038059
Probable space group: P -1
;
_chemical_formula_sum "Si O2"
_cell_formula_units_Z 12
_cell_length_a 10.370554
_cell_length_b 11.262045
_cell_length_c 8.853016
_cell_angle_alpha 92.209203
_cell_angle_beta 142.246855
_cell_angle_gamma 114.776561
_cell_volume 429.072245
_symmetry_space_group_name_H-M "P -1"
_symmetry_group_IT_number 2
_symmetry_cell_setting 'triclinic'
loop_
_space_group_symop_operation_xyz
x,y,z
-x,-y,-z
loop_
_atom_site_type_symbol
_atom_site_label
_atom_site_fract_x
_atom_site_fract_y
_atom_site_fract_z
Si Si1 0.478136 0.691065 0.903320
Si Si2 0.078961 0.369050 0.713214
Si Si3 0.779357 0.277409 0.723778
Si Si4 0.439877 0.352565 0.356344
Si Si5 0.854684 0.097583 0.979212
Si Si6 0.182563 0.941659 0.720979
O O1 0.382937 0.560170 0.940967
O O2 0.557069 0.645115 0.823773
O O3 0.212794 0.675054 0.614844
O O4 0.756778 0.890562 0.238965
O O5 0.067623 0.358547 0.885744
O O6 0.060692 0.223157 0.629059
O O7 0.739815 0.403205 0.703873
O O8 0.794852 0.213245 0.891938
O O9 0.458669 0.107657 0.332187
O O10 0.500000 0.500000 0.500000
O O11 0.119781 0.160931 0.112373
O O12 0.966402 0.139421 0.256171
O O13 0.500000 0.000000 0.000000
#
# Coordination Sequence:
#
# PCOD8038059 Si02
#       6
#     2   2   2   2   2   2
#     4   9  18  32  55  86 115 153 202 245 291 358
#     4   9  17  35  58  85 119 155 204 244 297 364
#     4  10  22  39  61  92 119 158 200 252 305 353
#     4  11  22  38  59  90 124 162 197 248 309 359
#     4  11  21  38  64  87 124 153 202 255 299 362
#     4  10  17  33  60  87 112 160 201 241 303 355
#
# _framework density 27.967320999999998
#
# number of rings (size 3 to 8) (size 9 to 14) (size 15 to 20)
#    0.000    2.000    5.000    1.500    0.000    2.000 
#    0.000    0.833    0.000   10.000    0.000    0.000 
#    0.000    0.000    0.000    0.000    0.000    0.000 
#
# Total GULP energy -148843.927134 kJ/mol
# GULP energy per Si atom -12403.660595 kJ/mol
# Density = 2.790367 g / cm^3
# Si number density = 27.967321 Si / 1000 Ang^3
#
#
#
# Elastic Constant Matrix: (Units=GPa)
#
#
# Indices 1 2 3 4 5 6 
#
# 1 185.2295 100.8380 39.9788 18.0771 -3.8211 7.1181
# 2 100.8380 184.2317 27.2029 22.9480 -15.2099 -4.9207
# 3 39.9788 27.2029 93.3140 14.1474 -10.0084 5.6894
# 4 18.0771 22.9480 14.1474 27.5023 3.3500 -0.7743
# 5 -3.8211 -15.2099 -10.0084 3.3500 43.7001 -2.0687
# 6 7.1181 -4.9207 5.6894 -0.7743 -2.0687 73.7594
#
#
#
# Elastic Compliance Matrix: (Units=1/GPa)
#
#
# Indices 1 2 3 4 5 6 
#
# 1 0.008274 -0.004248 -0.002298 -0.000582 -0.001281 -0.000947
# 2 -0.004248 0.008599 0.000331 -0.004906 0.003120 0.000994
# 3 -0.002298 0.000331 0.012881 -0.005811 0.003276 -0.000719
# 4 -0.000582 -0.004906 -0.005811 0.044629 -0.006488 0.000464
# 5 -0.001281 0.003120 0.003276 -0.006488 0.025139 0.000716
# 6 -0.000947 0.000994 -0.000719 0.000464 0.000716 0.013796
#
#
# Mechanical properties :
#
#
# Convention : Reuss Voigt Hill
#
# Bulk Modulus (GPa) = 57.72298 88.75717 73.24008
# Shear Modulus (GPa) = 38.01629 48.64272 43.32951
#
# Velocity S-wave (km/s) = 3.69088 4.17498 3.94037
# Velocity P-wave (km/s) = 6.23280 7.41927 6.85176
#
# Compressibility (1/GPa) = 0.01732412
#
# Stress axis : x y z
#
# Youngs Moduli (GPa) = 120.85999 116.28721 77.63549
#
# Poissons Ratio (x) = 0.49398 0.17840
# Poissons Ratio (y) = 0.51341 -0.02569
# Poissons Ratio (z) = 0.27773 -0.03848
#
# Static dielectric constant tensor:
#      x y z
#    x 5.394970 -0.159220 0.658900 
#    y -0.159220 5.451730 0.208680 
#    z 0.658900 0.208680 5.777800 
# 
# 
# High freq. dielectric constant tensor:
#      x y z
#    x 2.138900 -0.022120 0.029630 
#    y -0.022120 2.157000 -0.011900 
#    z 0.029630 -0.011900 2.163960 
# 
# From -- ./inp_files/180937.got.cif
#   From: 2010.06.25/outbox.cif.g09.slc.cpg/sg2_91_cif.got.tgz:180937.got - 2010.06.27 13:26:56.
