data_PCOD8038690
_publ_section_title
;
Structure prediction by ZEFSAII (Michael W. Deem and Ramdas Pophale) SiO2 
 PCOD8038690
Probable space group: P -1
;
_chemical_formula_sum "Si O2"
_cell_formula_units_Z 16
_cell_length_a 5.305603
_cell_length_b 21.555106
_cell_length_c 8.701034
_cell_angle_alpha 136.855001
_cell_angle_beta 80.428892
_cell_angle_gamma 79.341699
_cell_volume 597.806011
_symmetry_space_group_name_H-M "P -1"
_symmetry_group_IT_number 2
_symmetry_cell_setting 'triclinic'
loop_
_space_group_symop_operation_xyz
x,y,z
-x,-y,-z
loop_
_atom_site_type_symbol
_atom_site_label
_atom_site_fract_x
_atom_site_fract_y
_atom_site_fract_z
Si Si1 0.996640 0.721776 0.000694
Si Si2 0.957309 0.941459 0.543417
Si Si3 0.461548 0.909517 0.595157
Si Si4 0.343767 0.438098 0.840970
Si Si5 0.905000 0.850202 0.972084
Si Si6 0.458270 0.339651 0.947066
Si Si7 0.347271 0.546752 0.443775
Si Si8 0.418253 0.867834 0.870088
O O1 0.242295 0.695486 0.056705
O O2 0.069638 0.647677 0.709262
O O3 0.937662 0.827016 0.109030
O O4 0.711044 0.725077 0.110440
O O5 0.774323 0.876027 0.421007
O O6 0.270020 0.863151 0.441283
O O7 0.000000 0.000000 0.500000
O O8 0.754466 0.020769 0.834880
O O9 0.505973 0.879189 0.711157
O O10 0.255083 0.028227 0.804666
O O11 0.451678 0.418322 0.617130
O O12 0.500000 0.500000 0.000000
O O13 0.469457 0.335251 0.749674
O O14 0.000000 0.500000 0.000000
O O15 0.716201 0.804995 0.819621
O O16 0.221804 0.809520 0.790903
O O17 0.269390 0.462257 0.220177
O O18 0.500000 0.500000 0.500000
#
# Coordination Sequence:
#
# PCOD8038690 Si02
#       8
#     2   2   2   2   2   2   2   2
#     4  11  21  34  54  76 106 138 173 218 255 305
#     4  10  18  29  50  79 103 125 164 217 260 294
#     4  10  19  34  55  77 102 137 175 216 257 315
#     4  10  19  33  54  77 102 132 169 212 255 303
#     4  10  19  32  53  79 102 135 176 212 260 308
#     4  10  20  35  52  77 104 139 173 210 258 308
#     4   9  19  34  55  81 103 130 174 217 253 295
#     4  10  19  35  56  76 101 136 177 216 255 316
#
# _framework density 26.764536
#
# number of rings (size 3 to 8) (size 9 to 14) (size 15 to 20)
#    0.000    2.000    0.000    7.500    0.000    3.000 
#    0.000    0.000    0.000   24.000    0.000    0.000 
#    0.000    0.000    0.000    0.000    0.000    0.000 
#
# Total GULP energy -198228.374073 kJ/mol
# GULP energy per Si atom -12389.273380 kJ/mol
# Density = 2.670362 g / cm^3
# Si number density = 26.764536 Si / 1000 Ang^3
#
#
#
# Elastic Constant Matrix: (Units=GPa)
#
#
# Indices 1 2 3 4 5 6 
#
# 1 238.1872 74.3784 32.0534 -19.5805 -29.4613 4.7516
# 2 74.3784 185.5101 40.7359 -53.8065 -18.5827 -4.2565
# 3 32.0534 40.7359 69.6275 -32.4160 -12.0255 9.3143
# 4 -19.5805 -53.8065 -32.4160 48.6318 13.8650 3.0706
# 5 -29.4613 -18.5827 -12.0255 13.8650 32.5511 -3.2954
# 6 4.7516 -4.2565 9.3143 3.0706 -3.2954 58.3146
#
#
#
# Elastic Compliance Matrix: (Units=1/GPa)
#
#
# Indices 1 2 3 4 5 6 
#
# 1 0.005382 -0.002081 -0.001690 -0.002433 0.004099 0.000039
# 2 -0.002081 0.008800 -0.000188 0.008954 -0.000710 0.000330
# 3 -0.001690 -0.000188 0.022519 0.014347 0.000144 -0.004220
# 4 -0.002433 0.008954 0.014347 0.042231 -0.010208 -0.004240
# 5 0.004099 -0.000710 0.000144 -0.010208 0.038661 0.002313
# 6 0.000039 0.000330 -0.004220 -0.004240 0.002313 0.018197
#
#
# Mechanical properties :
#
#
# Convention : Reuss Voigt Hill
#
# Bulk Modulus (GPa) = 34.74411 87.51778 61.13095
# Shear Modulus (GPa) = 32.61506 50.97663 41.79584
#
# Velocity S-wave (km/s) = 3.49462 4.36895 3.95601
# Velocity P-wave (km/s) = 5.41228 7.63023 6.61487
#
# Compressibility (1/GPa) = 0.02878186
#
# Stress axis : x y z
#
# Youngs Moduli (GPa) = 185.81059 113.63807 44.40638
#
# Poissons Ratio (x) = 0.23647 0.07506
# Poissons Ratio (y) = 0.38665 0.00837
# Poissons Ratio (z) = 0.31407 0.02142
#
# Static dielectric constant tensor:
#      x y z
#    x 6.829380 0.053550 0.613350 
#    y 0.053550 5.707120 0.108350 
#    z 0.613350 0.108350 7.550760 
# 
# 
# High freq. dielectric constant tensor:
#      x y z
#    x 2.092070 0.005280 0.003610 
#    y 0.005280 2.089670 -0.013750 
#    z 0.003610 -0.013750 2.086180 
# 
# From -- ./inp_files/104786.got.cif
#   From: 2010.06.25/outbox.cif.g09.slc.cpg/sg2_53_cif.got.tgz:104786.got - 2010.06.27 13:26:56.
