data_PCOD8038851
_publ_section_title
;
Structure prediction by ZEFSAII (Michael W. Deem and Ramdas Pophale) SiO2 
 PCOD8038851
Probable space group: P -1
;
_chemical_formula_sum "Si O2"
_cell_formula_units_Z 14
_cell_length_a 9.297276
_cell_length_b 14.960060
_cell_length_c 15.210482
_cell_angle_alpha 36.374961
_cell_angle_beta 131.691399
_cell_angle_gamma 139.459679
_cell_volume 807.709613
_symmetry_space_group_name_H-M "P -1"
_symmetry_group_IT_number 2
_symmetry_cell_setting 'triclinic'
loop_
_space_group_symop_operation_xyz
x,y,z
-x,-y,-z
loop_
_atom_site_type_symbol
_atom_site_label
_atom_site_fract_x
_atom_site_fract_y
_atom_site_fract_z
Si Si1 0.804766 0.635712 0.704952
Si Si2 0.965435 0.204985 0.155569
Si Si3 0.866456 0.366297 0.837113
Si Si4 0.533119 0.872388 0.248500
Si Si5 0.640797 0.361722 0.478692
Si Si6 0.045870 0.620702 0.550907
Si Si7 0.048612 0.133076 0.578342
O O1 0.769057 0.461756 0.781442
O O2 0.563293 0.609094 0.648031
O O3 0.934850 0.662159 0.828166
O O4 0.959461 0.805240 0.573069
O O5 0.693317 0.083187 0.149887
O O6 0.015622 0.313264 0.999520
O O7 0.074184 0.079072 0.298777
O O8 0.660198 0.188983 0.853803
O O9 0.018871 0.492020 0.721602
O O10 0.428611 0.806056 0.355141
O O11 0.687023 0.786365 0.355395
O O12 0.727523 0.328910 0.447842
O O13 0.834779 0.533692 0.469006
O O14 0.066364 0.798762 0.454558
#
# Coordination Sequence:
#
# PCOD8038851 Si02
#       7
#     2   2   2   2   2   2   2
#     4  10  18  31  50  72  92 125 159 191 229 276
#     4  10  19  30  49  72 101 118 151 197 239 272
#     4  10  18  31  51  71  94 125 156 188 234 281
#     4   8  17  30  51  71  93 118 156 196 232 267
#     4   9  17  30  53  69  94 120 164 194 227 268
#     4   9  17  32  50  72  90 125 160 196 223 275
#     4   8  17  29  50  68  94 118 156 193 229 269
#
# _framework density 17.332961000000001
#
# number of rings (size 3 to 8) (size 9 to 14) (size 15 to 20)
#    0.857    2.000    0.000    2.143    0.000    3.429 
#    0.000    1.429    3.143    2.571    0.000    0.000 
#    0.000    0.000    0.000    0.000    0.000    0.000 
#
# Total GULP energy -173499.233830 kJ/mol
# GULP energy per Si atom -12392.802416 kJ/mol
# Density = 1.729351 g / cm^3
# Si number density = 17.332961 Si / 1000 Ang^3
#
#
#
# Elastic Constant Matrix: (Units=GPa)
#
#
# Indices 1 2 3 4 5 6 
#
# 1 116.6530 30.1753 32.8287 1.1592 -10.2878 -8.0930
# 2 30.1753 58.3456 25.5978 10.7437 -9.2206 -6.7121
# 3 32.8287 25.5978 86.2903 13.2752 -10.1688 -5.2944
# 4 1.1592 10.7437 13.2752 23.6113 -5.5035 -3.7300
# 5 -10.2878 -9.2206 -10.1688 -5.5035 15.9000 3.7038
# 6 -8.0930 -6.7121 -5.2944 -3.7300 3.7038 12.6981
#
#
#
# Elastic Compliance Matrix: (Units=1/GPa)
#
#
# Indices 1 2 3 4 5 6 
#
# 1 0.011034 -0.004234 -0.002990 0.004474 0.003420 0.003864
# 2 -0.004234 0.023416 -0.003414 -0.006541 0.005276 0.004796
# 3 -0.002990 -0.003414 0.015078 -0.005949 0.003730 -0.000259
# 4 0.004474 -0.006541 -0.005949 0.052531 0.011378 0.009026
# 5 0.003420 0.005276 0.003730 0.011378 0.077454 -0.012726
# 6 0.003864 0.004796 -0.000259 0.009026 -0.012726 0.090005
#
#
# Mechanical properties :
#
#
# Convention : Reuss Voigt Hill
#
# Bulk Modulus (GPa) = 35.39319 48.72138 42.05729
# Shear Modulus (GPa) = 16.65496 21.95436 19.30466
#
# Velocity S-wave (km/s) = 3.10318 3.56283 3.34092
# Velocity P-wave (km/s) = 5.77092 6.71529 6.26094
#
# Compressibility (1/GPa) = 0.02825402
#
# Stress axis : x y z
#
# Youngs Moduli (GPa) = 90.62624 42.70536 66.32257
#
# Poissons Ratio (x) = 0.18080 0.19831
# Poissons Ratio (y) = 0.38367 0.22639
# Poissons Ratio (z) = 0.27098 0.14578
#
# Static dielectric constant tensor:
#      x y z
#    x 3.015000 -0.078320 -0.114570 
#    y -0.078320 3.008490 0.033870 
#    z -0.114570 0.033870 3.128540 
# 
# 
# High freq. dielectric constant tensor:
#      x y z
#    x 1.642430 -0.013190 -0.010780 
#    y -0.013190 1.657070 0.006240 
#    z -0.010780 0.006240 1.663580 
# 
# From -- ./inp_files/233877.got.cif
#   From: 2010.06.25/outbox.cif.g09.slc.cpg/sg2_117_cif.got.tgz:233877.got - 2010.06.27 13:26:56.
