data_PCOD8038519
_publ_section_title
;
Structure prediction by ZEFSAII (Michael W. Deem and Ramdas Pophale) SiO2 
 PCOD8038519
Probable space group: P -1
;
_chemical_formula_sum "Si O2"
_cell_formula_units_Z 16
_cell_length_a 9.900213
_cell_length_b 9.822906
_cell_length_c 15.190244
_cell_angle_alpha 143.724398
_cell_angle_beta 64.243803
_cell_angle_gamma 114.314770
_cell_volume 781.952708
_symmetry_space_group_name_H-M "P -1"
_symmetry_group_IT_number 2
_symmetry_cell_setting 'triclinic'
loop_
_space_group_symop_operation_xyz
x,y,z
-x,-y,-z
loop_
_atom_site_type_symbol
_atom_site_label
_atom_site_fract_x
_atom_site_fract_y
_atom_site_fract_z
Si Si1 0.569617 0.662502 0.237322
Si Si2 0.633809 0.078013 0.314180
Si Si3 0.761070 0.386970 0.137155
Si Si4 0.487159 0.507562 0.362182
Si Si5 0.275227 0.109173 0.153721
Si Si6 0.637506 0.732003 0.982006
Si Si7 0.030469 0.275318 0.114365
Si Si8 0.027062 0.701401 0.667665
O O1 0.737234 0.592414 0.181485
O O2 0.464111 0.634331 0.339996
O O3 0.490899 0.487444 0.093932
O O4 0.585087 0.920303 0.330523
O O5 0.541402 0.303958 0.456803
O O6 0.810648 0.155728 0.314097
O O7 0.590994 0.936341 0.163896
O O8 0.654444 0.423254 0.272323
O O9 0.928380 0.367459 0.114195
O O10 0.697291 0.157101 0.979947
O O11 0.363947 0.281788 0.289105
O O12 0.339132 0.169565 0.070540
O O13 0.097014 0.122295 0.219738
O O14 0.798062 0.656820 0.931044
O O15 0.995439 0.405099 0.282815
O O16 0.000000 0.000000 0.000000
O O17 0.000000 0.500000 0.500000
#
# Coordination Sequence:
#
# PCOD8038519 Si02
#       8
#     2   2   2   2   2   2   2   2
#     4   9  23  36  58  82 116 160 184 228 280 346
#     4  12  19  37  56  89 114 148 200 227 277 339
#     4  10  19  36  58  87 112 150 190 227 294 330
#     4   9  21  32  58  80 112 149 185 236 275 330
#     4  10  17  37  56  84 107 148 186 233 284 332
#     4  10  20  35  61  85 108 156 190 234 272 340
#     4  11  19  37  61  81 108 149 189 236 282 332
#     4  11  21  34  60  88 110 143 191 239 282 330
#
# _framework density 20.461597000000001
#
# number of rings (size 3 to 8) (size 9 to 14) (size 15 to 20)
#    0.750    1.000    5.000    1.125    0.000    0.000 
#    0.000    6.250    0.000    3.000    0.000    0.000 
#    0.000    0.000    0.000    0.000    0.000    0.000 
#
# Total GULP energy -198226.609903 kJ/mol
# GULP energy per Si atom -12389.163119 kJ/mol
# Density = 2.041503 g / cm^3
# Si number density = 20.461597 Si / 1000 Ang^3
#
#
#
# Elastic Constant Matrix: (Units=GPa)
#
#
# Indices 1 2 3 4 5 6 
#
# 1 85.7273 -4.5287 18.9753 7.1349 -4.4505 3.2691
# 2 -4.5287 11.9012 4.7359 2.1373 -3.1525 3.7424
# 3 18.9753 4.7359 134.1985 -2.2881 2.8832 2.7330
# 4 7.1349 2.1373 -2.2881 21.5490 -2.4380 -4.6688
# 5 -4.4505 -3.1525 2.8832 -2.4380 32.4905 0.1984
# 6 3.2691 3.7424 2.7330 -4.6688 0.1984 15.0963
#
#
#
# Elastic Compliance Matrix: (Units=1/GPa)
#
#
# Indices 1 2 3 4 5 6 
#
# 1 0.013748 0.010462 -0.002341 -0.007144 0.002615 -0.007391
# 2 0.010462 0.107621 -0.005165 -0.020949 0.010973 -0.034633
# 3 -0.002341 -0.005165 0.008011 0.002207 -0.001373 0.001038
# 4 -0.007144 -0.020949 0.002207 0.056328 0.000875 0.023750
# 5 0.002615 0.010973 -0.001373 0.000875 0.032408 -0.003193
# 6 -0.007391 -0.034633 0.001038 0.023750 -0.003193 0.083627
#
#
# Mechanical properties :
#
#
# Convention : Reuss Voigt Hill
#
# Bulk Modulus (GPa) = 7.39133 30.02133 18.70633
# Shear Modulus (GPa) = 14.66591 28.00345 21.33468
#
# Velocity S-wave (km/s) = 2.68013 3.70345 3.23254
# Velocity P-wave (km/s) = 3.63285 5.74381 4.80567
#
# Compressibility (1/GPa) = 0.13529358
#
# Stress axis : x y z
#
# Youngs Moduli (GPa) = 72.73879 9.29186 124.83014
#
# Poissons Ratio (x) = -0.09722 0.29218
# Poissons Ratio (y) = -0.76103 0.64474
# Poissons Ratio (z) = 0.17025 0.04799
#
# Static dielectric constant tensor:
#      x y z
#    x 3.725380 0.205860 0.054680 
#    y 0.205860 3.350070 -0.055380 
#    z 0.054680 -0.055380 3.954000 
# 
# 
# High freq. dielectric constant tensor:
#      x y z
#    x 1.795140 0.008590 0.000750 
#    y 0.008590 1.754460 -0.005560 
#    z 0.000750 -0.005560 1.810380 
# 
# From -- ./inp_files/568333.got.cif
#   From: 2010.06.25/outbox.cif.g09.slc.cpg/sg2_285_cif.got.tgz:568333.got - 2010.06.27 13:26:56.
