data_PCOD8038721
_publ_section_title
;
Structure prediction by ZEFSAII (Michael W. Deem and Ramdas Pophale) SiO2 
 PCOD8038721
Probable space group: P -1
;
_chemical_formula_sum "Si O2"
_cell_formula_units_Z 16
_cell_length_a 6.294953
_cell_length_b 17.937260
_cell_length_c 15.369631
_cell_angle_alpha 140.817769
_cell_angle_beta 125.038699
_cell_angle_gamma 58.056979
_cell_volume 885.796473
_symmetry_space_group_name_H-M "P -1"
_symmetry_group_IT_number 2
_symmetry_cell_setting 'triclinic'
loop_
_space_group_symop_operation_xyz
x,y,z
-x,-y,-z
loop_
_atom_site_type_symbol
_atom_site_label
_atom_site_fract_x
_atom_site_fract_y
_atom_site_fract_z
Si Si1 0.293412 0.932117 0.014603
Si Si2 0.745891 0.674406 0.589172
Si Si3 0.076473 0.051687 0.475228
Si Si4 0.490857 0.907274 0.664470
Si Si5 0.788738 0.255203 0.032228
Si Si6 0.324630 0.581151 0.701894
Si Si7 0.424631 0.901825 0.289830
Si Si8 0.616417 0.745690 0.814941
O O1 0.478654 0.022491 0.175151
O O2 0.290506 0.825037 0.982267
O O3 0.414989 0.869427 0.897573
O O4 0.000000 0.000000 0.000000
O O5 0.685924 0.780229 0.599227
O O6 0.626475 0.561267 0.423403
O O7 0.603092 0.718320 0.685300
O O8 0.056496 0.641761 0.646057
O O9 0.302374 0.132139 0.622374
O O10 0.806519 0.122678 0.435975
O O11 0.190015 0.944047 0.339910
O O12 0.000000 0.000000 0.500000
O O13 0.563431 0.987729 0.673862
O O14 0.690537 0.387969 0.169420
O O15 0.097982 0.232568 0.066041
O O16 0.634249 0.220355 0.879203
O O17 0.556935 0.631496 0.752047
#
# Coordination Sequence:
#
# PCOD8038721 Si02
#       8
#     2   2   2   2   2   2   2   2
#     4  10  19  29  42  69 103 128 155 192 234 283
#     4  10  20  32  48  69  98 132 166 201 230 271
#     4   9  18  32  50  72  96 120 151 191 240 297
#     4  10  19  30  47  72  97 126 158 192 236 285
#     4   9  18  30  48  68  91 125 160 195 234 283
#     4   9  19  34  47  68  98 130 169 201 229 268
#     4   9  18  33  50  72  97 120 149 194 248 290
#     4  10  18  30  47  67  95 133 166 194 232 274
#
# _framework density 18.062840000000001
#
# number of rings (size 3 to 8) (size 9 to 14) (size 15 to 20)
#    0.000    2.500    0.000    3.375    0.000    6.000 
#    0.000    0.000    0.000    0.750    0.000    8.750 
#    0.000    0.000    0.000    0.000    0.000    0.000 
#
# Total GULP energy -198268.984821 kJ/mol
# GULP energy per Si atom -12391.811551 kJ/mol
# Density = 1.802173 g / cm^3
# Si number density = 18.062840 Si / 1000 Ang^3
#
#
#
# Elastic Constant Matrix: (Units=GPa)
#
#
# Indices 1 2 3 4 5 6 
#
# 1 79.0875 20.7786 43.6594 -0.4362 -5.6798 -11.9293
# 2 20.7786 48.8068 43.2069 5.4694 3.4992 -7.9923
# 3 43.6594 43.2069 149.2663 -1.6766 -1.6942 -10.1540
# 4 -0.4362 5.4694 -1.6766 25.8022 -0.6556 3.6664
# 5 -5.6798 3.4992 -1.6942 -0.6556 29.1874 -2.5482
# 6 -11.9293 -7.9923 -10.1540 3.6664 -2.5482 16.9899
#
#
#
# Elastic Compliance Matrix: (Units=1/GPa)
#
#
# Indices 1 2 3 4 5 6 
#
# 1 0.017021 -0.002908 -0.003464 -0.000529 0.004257 0.009265
# 2 -0.002908 0.031372 -0.007740 -0.008634 -0.004156 0.009330
# 3 -0.003464 -0.007740 0.009955 0.002321 0.000840 -0.000499
# 4 -0.000529 -0.008634 0.002321 0.042467 0.000967 -0.012065
# 5 0.004257 -0.004156 0.000840 0.000967 0.036249 0.006764
# 6 0.009265 0.009330 -0.000499 -0.012065 0.006764 0.073073
#
#
# Mechanical properties :
#
#
# Convention : Reuss Voigt Hill
#
# Bulk Modulus (GPa) = 33.19681 54.71670 43.95676
# Shear Modulus (GPa) = 20.12857 25.69694 22.91276
#
# Velocity S-wave (km/s) = 3.34183 3.77588 3.56547
# Velocity P-wave (km/s) = 5.77138 7.02623 6.42949
#
# Compressibility (1/GPa) = 0.03012337
#
# Stress axis : x y z
#
# Youngs Moduli (GPa) = 58.75111 31.87538 100.45516
#
# Poissons Ratio (x) = 0.09271 0.34797
# Poissons Ratio (y) = 0.17087 0.77750
# Poissons Ratio (z) = 0.20351 0.24671
#
# Static dielectric constant tensor:
#      x y z
#    x 3.493710 -0.159680 0.056450 
#    y -0.159680 3.067410 -0.089740 
#    z 0.056450 -0.089740 3.968750 
# 
# 
# High freq. dielectric constant tensor:
#      x y z
#    x 1.711080 -0.006370 0.000260 
#    y -0.006370 1.644780 -0.005370 
#    z 0.000260 -0.005370 1.713750 
# 
# From -- ./inp_files/66876.got.cif
#   From: 2010.06.25/outbox.cif.g09.slc.cpg/sg2_34_cif.got.tgz:66876.got - 2010.06.27 13:26:56.
