data_PCOD8038014
_publ_section_title
;
Structure prediction by ZEFSAII (Michael W. Deem and Ramdas Pophale) SiO2 
 PCOD8038014
Probable space group: P -1
;
_chemical_formula_sum "Si O2"
_cell_formula_units_Z 12
_cell_length_a 16.676265
_cell_length_b 13.637778
_cell_length_c 9.289761
_cell_angle_alpha 136.452606
_cell_angle_beta 32.832319
_cell_angle_gamma 149.192552
_cell_volume 586.632362
_symmetry_space_group_name_H-M "P -1"
_symmetry_group_IT_number 2
_symmetry_cell_setting 'triclinic'
loop_
_space_group_symop_operation_xyz
x,y,z
-x,-y,-z
loop_
_atom_site_type_symbol
_atom_site_label
_atom_site_fract_x
_atom_site_fract_y
_atom_site_fract_z
Si Si1 0.618980 0.213225 0.410693
Si Si2 0.531057 0.470307 0.759356
Si Si3 0.228951 0.814064 0.581222
Si Si4 0.478443 0.067309 0.957770
Si Si5 0.340786 0.296757 0.445898
Si Si6 0.109524 0.191694 0.949138
O O1 0.626714 0.375456 0.506018
O O2 0.774516 0.299123 0.400084
O O3 0.388802 0.040692 0.626678
O O4 0.671285 0.125808 0.119576
O O5 0.684921 0.666003 0.641289
O O6 0.319287 0.350963 0.876684
O O7 0.500000 0.500000 0.000000
O O8 0.307168 0.783916 0.287800
O O9 0.015466 0.742716 0.791650
O O10 0.401770 0.173075 0.218100
O O11 0.500000 0.000000 0.000000
O O12 0.500000 0.500000 0.500000
O O13 0.140222 0.171186 0.711914
O O14 0.000000 0.000000 0.000000
#
# Coordination Sequence:
#
# PCOD8038014 Si02
#       6
#     2   2   2   2   2   2
#     4   9  19  37  61  81 116 160 199 227 304 360
#     4  11  22  39  61  89 126 159 189 247 318 348
#     4   9  19  35  62  83 110 151 211 238 274 347
#     4  10  17  33  58  83 113 160 196 230 293 365
#     4  10  22  36  57  90 123 154 192 249 306 350
#     4  11  20  39  62  91 117 154 207 250 281 354
#
# _framework density 20.455742999999998
#
# number of rings (size 3 to 8) (size 9 to 14) (size 15 to 20)
#    1.000    1.000    1.667    4.000    0.000    0.000 
#    0.000   13.333    0.000    0.000    0.000    0.000 
#    0.000    0.000    0.000    0.000    0.000    0.000 
#
# Total GULP energy -148660.309021 kJ/mol
# GULP energy per Si atom -12388.359085 kJ/mol
# Density = 2.040918 g / cm^3
# Si number density = 20.455743 Si / 1000 Ang^3
#
#
#
# Elastic Constant Matrix: (Units=GPa)
#
#
# Indices 1 2 3 4 5 6 
#
# 1 121.1025 25.8509 26.9082 -8.0248 8.9148 -25.9445
# 2 25.8509 53.9712 20.2284 3.3802 6.2257 -23.9858
# 3 26.9082 20.2284 105.1360 1.1878 14.8932 -7.1684
# 4 -8.0248 3.3802 1.1878 38.5007 -9.8175 3.1276
# 5 8.9148 6.2257 14.8932 -9.8175 49.3508 -5.4578
# 6 -25.9445 -23.9858 -7.1684 3.1276 -5.4578 31.2137
#
#
#
# Elastic Compliance Matrix: (Units=1/GPa)
#
#
# Indices 1 2 3 4 5 6 
#
# 1 0.010641 -0.001230 -0.002012 0.001799 0.000001 0.007257
# 2 -0.001230 0.030816 -0.003910 -0.004894 -0.001018 0.022073
# 3 -0.002012 -0.003910 0.011032 -0.000960 -0.002947 -0.002563
# 4 0.001799 -0.004894 -0.000960 0.028639 0.005799 -0.004342
# 5 0.000001 -0.001018 -0.002947 0.005799 0.022647 0.001920
# 6 0.007257 0.022073 -0.002563 -0.004342 0.001920 0.055213
#
#
# Mechanical properties :
#
#
# Convention : Reuss Voigt Hill
#
# Bulk Modulus (GPa) = 26.18814 47.35385 36.77100
# Shear Modulus (GPa) = 26.87856 37.62788 32.25322
#
# Velocity S-wave (km/s) = 3.62883 4.29357 3.97512
# Velocity P-wave (km/s) = 5.51253 6.91226 6.25169
#
# Compressibility (1/GPa) = 0.03818522
#
# Stress axis : x y z
#
# Youngs Moduli (GPa) = 93.97535 32.45035 90.64230
#
# Poissons Ratio (x) = 0.03991 0.18241
# Poissons Ratio (y) = 0.11559 0.35440
# Poissons Ratio (z) = 0.18912 0.12688
#
# Static dielectric constant tensor:
#      x y z
#    x 3.967260 -0.533100 0.346920 
#    y -0.533100 3.721660 -0.315510 
#    z 0.346920 -0.315510 4.090480 
# 
# 
# High freq. dielectric constant tensor:
#      x y z
#    x 1.806070 -0.036290 0.012160 
#    y -0.036290 1.767230 0.008460 
#    z 0.012160 0.008460 1.800480 
# 
# From -- ./inp_files/304056.got.cif
#   From: 2010.06.25/outbox.cif.g09.slc.cpg/sg2_153_cif.got.tgz:304056.got - 2010.06.27 13:26:56.
