data_PCOD8038114
_publ_section_title
;
Structure prediction by ZEFSAII (Michael W. Deem and Ramdas Pophale) SiO2 
 PCOD8038114
Probable space group: P -1
;
_chemical_formula_sum "Si O2"
_cell_formula_units_Z 16
_cell_length_a 12.000000
_cell_length_b 12.000000
_cell_length_c 12.000000
_cell_angle_alpha 130.000000
_cell_angle_beta 100.000000
_cell_angle_gamma 120.000000
_cell_volume 763.164900
_symmetry_space_group_name_H-M "P -1"
_symmetry_group_IT_number 2
_symmetry_cell_setting 'triclinic'
loop_
_space_group_symop_operation_xyz
x,y,z
-x,-y,-z
loop_
_atom_site_type_symbol
_atom_site_label
_atom_site_fract_x
_atom_site_fract_y
_atom_site_fract_z
Si Si1 0.613169 0.397895 0.955018
Si Si2 0.744041 0.175739 0.473678
Si Si3 0.917039 0.466661 0.080536
Si Si4 0.727637 0.434484 0.518284
Si Si5 0.706987 0.028767 0.926227
Si Si6 0.333241 0.325471 0.272122
Si Si7 0.382366 0.340217 0.045924
Si Si8 0.119579 0.809565 0.715217
O O1 0.660937 0.561120 0.970255
O O2 0.442590 0.110068 0.707550
O O3 0.797823 0.490811 0.066953
O O4 0.553321 0.423758 0.072514
O O5 0.708164 0.311806 0.546634
O O6 0.829906 0.242411 0.409625
O O7 0.897592 0.290385 0.664348
O O8 0.799604 0.215826 0.961302
O O9 0.000000 0.500000 0.000000
O O10 0.789466 0.656140 0.720606
O O11 0.891627 0.567966 0.542597
O O12 0.523664 0.215858 0.278630
O O13 0.791244 0.950049 0.899673
O O14 0.767470 0.150475 0.136204
O O15 0.500000 0.500000 0.500000
O O16 0.442404 0.445296 0.248436
O O17 0.188144 0.042296 0.838145
#
# Coordination Sequence:
#
# PCOD8038114 Si02
#       8
#     2   2   2   2   2   2   2   2
#     4  10  23  46  67  88 131 168 214 263 306 379
#     4  11  24  41  62  98 126 168 213 254 326 372
#     4  12  27  41  62  96 129 169 214 259 315 382
#     4  11  21  37  65  94 129 165 197 264 318 373
#     4  10  22  42  60  95 127 159 211 257 321 370
#     4   9  21  37  60  94 123 158 209 254 312 373
#     4   9  21  43  67  92 123 175 210 255 321 365
#     4  10  22  40  65  96 126 157 213 264 310 379
#
# _framework density 20.965325
#
# number of rings (size 3 to 8) (size 9 to 14) (size 15 to 20)
#    0.000    1.750    2.500    0.375    1.750   10.000 
#    0.000    8.125    0.000    0.000    0.000    0.000 
#    0.000    0.000    0.000    0.000    0.000    0.000 
#
# Total GULP energy -198234.630373 kJ/mol
# GULP energy per Si atom -12389.664398 kJ/mol
# Density = 2.091761 g / cm^3
# Si number density = 20.965325 Si / 1000 Ang^3
#
#
#
# Elastic Constant Matrix: (Units=GPa)
#
#
# Indices 1 2 3 4 5 6 
#
# 1 88.6594 41.3849 39.2657 -2.2164 10.2958 -33.1606
# 2 41.3849 151.9049 34.7456 -2.9762 -3.8125 -25.6934
# 3 39.2657 34.7456 76.6107 -16.0982 16.6709 -5.4011
# 4 -2.2164 -2.9762 -16.0982 31.3957 -1.0124 -6.9329
# 5 10.2958 -3.8125 16.6709 -1.0124 24.2441 7.2520
# 6 -33.1606 -25.6934 -5.4011 -6.9329 7.2520 33.5257
#
#
#
# Elastic Compliance Matrix: (Units=1/GPa)
#
#
# Indices 1 2 3 4 5 6 
#
# 1 0.028541 -0.001223 -0.007548 0.004229 -0.016046 0.030422
# 2 -0.001223 0.008510 -0.003684 -0.000185 0.003190 0.003990
# 3 -0.007548 -0.003684 0.023364 0.010322 -0.012504 -0.001686
# 4 0.004229 -0.000185 0.010322 0.040735 -0.012240 0.016775
# 5 -0.016046 0.003190 -0.012504 -0.012240 0.066317 -0.032317
# 6 0.030422 0.003990 -0.001686 0.016775 -0.032317 0.073164
#
#
# Mechanical properties :
#
#
# Convention : Reuss Voigt Hill
#
# Bulk Modulus (GPa) = 28.16682 60.88526 44.52604
# Shear Modulus (GPa) = 18.02600 31.28502 24.65551
#
# Velocity S-wave (km/s) = 2.93542 3.86713 3.43303
# Velocity P-wave (km/s) = 4.99530 7.00311 6.08262
#
# Compressibility (1/GPa) = 0.03550277
#
# Stress axis : x y z
#
# Youngs Moduli (GPa) = 35.03784 117.50193 42.80132
#
# Poissons Ratio (x) = 0.14375 0.32307
# Poissons Ratio (y) = 0.04286 0.15770
# Poissons Ratio (z) = 0.26447 0.43293
#
# Static dielectric constant tensor:
#      x y z
#    x 5.443110 -0.105350 -1.136510 
#    y -0.105350 4.092590 0.198590 
#    z -1.136510 0.198590 4.297880 
# 
# 
# High freq. dielectric constant tensor:
#      x y z
#    x 1.820010 -0.015270 -0.010580 
#    y -0.015270 1.835590 0.009210 
#    z -0.010580 0.009210 1.810880 
# 
# From -- ./inp_files/428944.got.cif
#   From: 2010.06.25/outbox.ucp.g09.slc.cvg/sg2_215_cif.got.tgz:428944.got - 2010.06.28 11:54:26.
