data_PCOD8038604
_publ_section_title
;
Structure prediction by ZEFSAII (Michael W. Deem and Ramdas Pophale) SiO2 
 PCOD8038604
Probable space group: P -1
;
_chemical_formula_sum "Si O2"
_cell_formula_units_Z 16
_cell_length_a 11.494114
_cell_length_b 7.967587
_cell_length_c 11.044569
_cell_angle_alpha 109.737615
_cell_angle_beta 126.511081
_cell_angle_gamma 64.307674
_cell_volume 728.127765
_symmetry_space_group_name_H-M "P -1"
_symmetry_group_IT_number 2
_symmetry_cell_setting 'triclinic'
loop_
_space_group_symop_operation_xyz
x,y,z
-x,-y,-z
loop_
_atom_site_type_symbol
_atom_site_label
_atom_site_fract_x
_atom_site_fract_y
_atom_site_fract_z
Si Si1 0.914428 0.883523 0.194734
Si Si2 0.176398 0.822926 0.596760
Si Si3 0.596259 0.043740 0.911809
Si Si4 0.767546 0.111419 0.622420
Si Si5 0.494665 0.724372 0.864579
Si Si6 0.783833 0.700667 0.492705
Si Si7 0.462728 0.679045 0.277178
Si Si8 0.956792 0.609759 0.345580
O O1 0.067643 0.886781 0.221931
O O2 0.917681 0.677435 0.197748
O O3 0.920521 0.977519 0.355332
O O4 0.772696 0.978912 0.045947
O O5 0.245161 0.827295 0.508919
O O6 0.317374 0.748580 0.755690
O O7 0.079217 0.683304 0.511988
O O8 0.582030 0.143707 0.798340
O O9 0.546248 0.854066 0.828841
O O10 0.482631 0.193768 0.969048
O O11 0.638165 0.263088 0.652088
O O12 0.738121 0.913066 0.561245
O O13 0.578460 0.501548 0.847653
O O14 0.639582 0.627203 0.414371
O O15 0.941216 0.608176 0.643288
O O16 0.808409 0.670372 0.354440
#
# Coordination Sequence:
#
# PCOD8038604 Si02
#       8
#     2   2   2   2   2   2   2   2
#     4  10  20  41  64  86 118 163 211 249 298 357
#     4  10  17  39  63  87 118 153 207 256 298 358
#     4  10  24  42  66  87 119 167 210 257 291 356
#     4  11  22  38  62  90 128 162 189 256 318 368
#     4  10  22  42  65  91 118 161 211 256 300 355
#     4  11  21  36  59  97 123 154 198 255 314 361
#     4  12  25  41  60  94 132 160 200 247 315 376
#     4  10  19  34  63  89 120 149 205 257 297 358
#
# _framework density 21.974164999999999
#
# number of rings (size 3 to 8) (size 9 to 14) (size 15 to 20)
#    0.000    1.500    3.750    2.250    3.500    1.000 
#    6.750    0.625    0.000    0.000    0.000    0.000 
#    0.000    0.000    0.000    0.000    0.000    0.000 
#
# Total GULP energy -198279.351645 kJ/mol
# GULP energy per Si atom -12392.459478 kJ/mol
# Density = 2.192415 g / cm^3
# Si number density = 21.974165 Si / 1000 Ang^3
#
#
#
# Elastic Constant Matrix: (Units=GPa)
#
#
# Indices 1 2 3 4 5 6 
#
# 1 112.6534 40.6733 14.1367 12.0979 2.2770 -17.3429
# 2 40.6733 91.5742 16.5573 9.3476 -3.4399 -2.1280
# 3 14.1367 16.5573 27.4599 1.0189 1.3283 -9.7977
# 4 12.0979 9.3476 1.0189 24.8621 6.5790 3.3514
# 5 2.2770 -3.4399 1.3283 6.5790 28.6873 -3.0770
# 6 -17.3429 -2.1280 -9.7977 3.3514 -3.0770 39.4086
#
#
#
# Elastic Compliance Matrix: (Units=1/GPa)
#
#
# Indices 1 2 3 4 5 6 
#
# 1 0.011958 -0.004416 -0.001514 -0.004847 0.000248 0.005079
# 2 -0.004416 0.014642 -0.007452 -0.003509 0.002991 -0.002473
# 3 -0.001514 -0.007452 0.045310 0.000868 -0.002001 0.009966
# 4 -0.004847 -0.003509 0.000868 0.047955 -0.011836 -0.007109
# 5 0.000248 0.002991 -0.002001 -0.011836 0.038410 0.003779
# 6 0.005079 -0.002473 0.009966 -0.007109 0.003779 0.030854
#
#
# Mechanical properties :
#
#
# Convention : Reuss Voigt Hill
#
# Bulk Modulus (GPa) = 22.14978 41.60245 31.87611
# Shear Modulus (GPa) = 21.65050 29.27962 25.46506
#
# Velocity S-wave (km/s) = 3.14231 3.65424 3.40790
# Velocity P-wave (km/s) = 4.82362 6.06450 5.47930
#
# Compressibility (1/GPa) = 0.04514718
#
# Stress axis : x y z
#
# Youngs Moduli (GPa) = 83.62256 68.29758 22.07013
#
# Poissons Ratio (x) = 0.30158 0.03341
# Poissons Ratio (y) = 0.36925 0.16447
# Poissons Ratio (z) = 0.12658 0.50897
#
# Static dielectric constant tensor:
#      x y z
#    x 3.917130 0.037730 0.282640 
#    y 0.037730 4.166160 -0.015080 
#    z 0.282640 -0.015080 3.659960 
# 
# 
# High freq. dielectric constant tensor:
#      x y z
#    x 1.859330 0.007150 0.023680 
#    y 0.007150 1.870560 -0.012700 
#    z 0.023680 -0.012700 1.833310 
# 
# From -- ./inp_files/419810.got.cif
#   From: 2010.06.25/outbox.cif.g09.slc.cpg/sg2_210_cif.got.tgz:419810.got - 2010.06.27 13:26:56.
