data_PCOD8038191
_publ_section_title
;
Structure prediction by ZEFSAII (Michael W. Deem and Ramdas Pophale) SiO2 
 PCOD8038191
Probable space group: P -1
;
_chemical_formula_sum "Si O2"
_cell_formula_units_Z 16
_cell_length_a 12.000000
_cell_length_b 9.000000
_cell_length_c 15.000000
_cell_angle_alpha 70.000000
_cell_angle_beta 50.000000
_cell_angle_gamma 110.000000
_cell_volume 728.972637
_symmetry_space_group_name_H-M "P -1"
_symmetry_group_IT_number 2
_symmetry_cell_setting 'triclinic'
loop_
_space_group_symop_operation_xyz
x,y,z
-x,-y,-z
loop_
_atom_site_type_symbol
_atom_site_label
_atom_site_fract_x
_atom_site_fract_y
_atom_site_fract_z
Si Si1 0.034398 0.713138 0.424205
Si Si2 0.689469 0.938986 0.620918
Si Si3 0.621063 0.517663 0.755694
Si Si4 0.251747 0.269327 0.720659
Si Si5 0.850438 0.982593 0.847754
Si Si6 0.005460 0.755189 0.004619
Si Si7 0.211004 0.612445 0.966968
Si Si8 0.138605 0.317294 0.213826
O O1 0.783654 0.585181 0.581320
O O2 0.000000 0.500000 0.500000
O O3 0.192675 0.925648 0.373767
O O4 0.143068 0.845654 0.244513
O O5 0.593439 0.679621 0.722651
O O6 0.463452 0.857579 0.742018
O O7 0.865309 0.118243 0.412651
O O8 0.723592 0.567749 0.789222
O O9 0.375942 0.220227 0.931764
O O10 0.500000 0.500000 0.500000
O O11 0.209915 0.056191 0.821591
O O12 0.069326 0.157523 0.762057
O O13 0.213749 0.354739 0.807132
O O14 0.833673 0.826382 0.818048
O O15 0.097658 0.685939 0.029272
O O16 0.939039 0.630639 0.968087
O O17 0.242926 0.550703 0.056745
#
# Coordination Sequence:
#
# PCOD8038191 Si02
#       8
#     2   2   2   2   2   2   2   2
#     4  11  25  39  58  96 134 161 198 250 313 375
#     4  11  21  38  65  94 123 164 204 256 307 369
#     4  11  21  39  66  92 124 159 211 257 294 376
#     4  11  26  44  67  88 127 170 211 251 316 381
#     4  12  22  39  67  90 119 168 209 250 309 370
#     4  10  25  45  61  95 123 161 214 268 313 359
#     4  11  23  40  68  92 125 157 213 273 308 354
#     4  11  20  36  65  98 118 159 208 251 310 368
#
# _framework density 21.948698
#
# number of rings (size 3 to 8) (size 9 to 14) (size 15 to 20)
#    0.000    1.000    5.000    1.875    1.750    7.500 
#    0.000    2.500    0.000    0.000    0.000    0.000 
#    0.000    0.000    0.000    0.000    0.000    0.000 
#
# Total GULP energy -198401.511133 kJ/mol
# GULP energy per Si atom -12400.094446 kJ/mol
# Density = 2.189874 g / cm^3
# Si number density = 21.948698 Si / 1000 Ang^3
#
#
#
# Elastic Constant Matrix: (Units=GPa)
#
#
# Indices 1 2 3 4 5 6 
#
# 1 50.1865 24.0656 13.5391 -5.7284 3.3982 -16.3408
# 2 24.0656 67.5250 37.5485 -4.9129 3.9765 -25.4737
# 3 13.5391 37.5485 127.3850 -10.9786 -12.2343 -14.7510
# 4 -5.7284 -4.9129 -10.9786 23.7742 0.5338 -1.0640
# 5 3.3982 3.9765 -12.2343 0.5338 30.7688 -4.7707
# 6 -16.3408 -25.4737 -14.7510 -1.0640 -4.7707 25.2886
#
#
#
# Elastic Compliance Matrix: (Units=1/GPa)
#
#
# Indices 1 2 3 4 5 6 
#
# 1 0.027055 -0.004267 0.000508 0.006490 -0.000221 0.013712
# 2 -0.004267 0.027862 -0.005068 0.003421 -0.001768 0.022163
# 3 0.000508 -0.005068 0.010383 0.003864 0.005031 0.002392
# 4 0.006490 0.003421 0.003864 0.046628 0.001449 0.012129
# 5 -0.000221 -0.001768 0.005031 0.001449 0.035946 0.007854
# 6 0.013712 0.022163 0.002392 0.012129 0.007854 0.074116
#
#
# Mechanical properties :
#
#
# Convention : Reuss Voigt Hill
#
# Bulk Modulus (GPa) = 20.98746 43.93368 32.46057
# Shear Modulus (GPa) = 19.56750 27.29590 23.43170
#
# Velocity S-wave (km/s) = 2.98906 3.53033 3.27091
# Velocity P-wave (km/s) = 4.63632 6.05620 5.39319
#
# Compressibility (1/GPa) = 0.04764749
#
# Stress axis : x y z
#
# Youngs Moduli (GPa) = 36.96175 35.89114 96.30949
#
# Poissons Ratio (x) = 0.15314 -0.04894
# Poissons Ratio (y) = 0.15771 0.48806
# Poissons Ratio (z) = -0.01878 0.18188
#
# Static dielectric constant tensor:
#      x y z
#    x 3.793450 -0.123850 -0.154780 
#    y -0.123850 3.956160 0.047940 
#    z -0.154780 0.047940 3.857700 
# 
# 
# High freq. dielectric constant tensor:
#      x y z
#    x 1.851320 -0.000950 0.004010 
#    y -0.000950 1.851480 -0.000830 
#    z 0.004010 -0.000830 1.871290 
# 
# From -- ./inp_files/270805.got.cif
#   From: 2010.06.25/outbox.ucp.g09.slc.cvg/sg2_136_cif.got.tgz:270805.got - 2010.06.28 11:54:26.
