data_PCOD8038459
_publ_section_title
;
Structure prediction by ZEFSAII (Michael W. Deem and Ramdas Pophale) SiO2 
 PCOD8038459
Probable space group: P -1
;
_chemical_formula_sum "Si O2"
_cell_formula_units_Z 14
_cell_length_a 15.076042
_cell_length_b 22.444225
_cell_length_c 12.031405
_cell_angle_alpha 29.841602
_cell_angle_beta 152.264197
_cell_angle_gamma 162.616467
_cell_volume 558.446638
_symmetry_space_group_name_H-M "P -1"
_symmetry_group_IT_number 2
_symmetry_cell_setting 'triclinic'
loop_
_space_group_symop_operation_xyz
x,y,z
-x,-y,-z
loop_
_atom_site_type_symbol
_atom_site_label
_atom_site_fract_x
_atom_site_fract_y
_atom_site_fract_z
Si Si1 0.299638 0.727466 0.416294
Si Si2 0.463273 0.376172 0.245765
Si Si3 0.351759 0.998893 0.438504
Si Si4 0.895833 0.570377 0.610884
Si Si5 0.668510 0.695430 0.427442
Si Si6 0.069544 0.297738 0.107813
Si Si7 0.500105 0.284764 0.002146
O O1 0.578165 0.773490 0.618443
O O2 0.423781 0.882852 0.395052
O O3 0.000000 0.500000 0.500000
O O4 0.214817 0.760403 0.156305
O O5 0.789765 0.533025 0.426055
O O6 0.149856 0.244495 0.185195
O O7 0.500000 0.500000 0.000000
O O8 0.305539 0.109518 0.161027
O O9 0.500000 0.000000 0.500000
O O10 0.022354 0.763989 0.485003
O O11 0.591073 0.374337 0.663543
O O12 0.176021 0.613047 0.853272
O O13 0.500000 0.500000 0.500000
O O14 0.984016 0.808664 0.665581
O O15 0.741549 0.820760 0.201706
O O16 0.392577 0.538687 0.102514
#
# Coordination Sequence:
#
# PCOD8038459 Si02
#       7
#     2   2   2   2   2   2   2
#     4  12  19  36  60  82 120 158 190 244 293 347
#     4  11  20  32  56  86 114 151 198 236 290 349
#     4  10  21  34  60  93 118 152 190 245 309 337
#     4  10  20  36  58  92 118 150 197 248 294 344
#     4   9  20  35  57  86 116 155 201 241 278 352
#     4  10  20  34  57  87 112 147 206 238 275 345
#     4  10  17  36  59  88 115 156 194 238 293 350
#
# _framework density 25.069538999999999
#
# number of rings (size 3 to 8) (size 9 to 14) (size 15 to 20)
#    0.000    1.714    4.286    1.286    0.000    0.000 
#    0.000   11.429    0.000    6.857    3.714    0.000 
#    0.000    0.000    0.000    0.000    0.000    0.000 
#
# Total GULP energy -173450.866733 kJ/mol
# GULP energy per Si atom -12389.347624 kJ/mol
# Density = 2.501248 g / cm^3
# Si number density = 25.069539 Si / 1000 Ang^3
#
#
#
# Elastic Constant Matrix: (Units=GPa)
#
#
# Indices 1 2 3 4 5 6 
#
# 1 81.9606 5.7296 35.8831 10.8941 -0.0784 -29.5269
# 2 5.7296 52.9420 6.7869 5.4803 -6.7528 -23.8723
# 3 35.8831 6.7869 151.0780 33.8647 -30.9303 -14.6397
# 4 10.8941 5.4803 33.8647 29.9843 -10.7297 -5.6505
# 5 -0.0784 -6.7528 -30.9303 -10.7297 56.4617 7.7003
# 6 -29.5269 -23.8723 -14.6397 -5.6505 7.7003 31.2603
#
#
#
# Elastic Compliance Matrix: (Units=1/GPa)
#
#
# Indices 1 2 3 4 5 6 
#
# 1 0.024627 0.011402 -0.003850 -0.002798 -0.005472 0.031007
# 2 0.011402 0.034402 -0.000166 -0.003944 -0.001712 0.036671
# 3 -0.003850 -0.000166 0.010234 -0.008965 0.004096 -0.001600
# 4 -0.002798 -0.003944 -0.008965 0.046079 0.003702 -0.002436
# 5 -0.005472 -0.001712 0.004096 0.003702 0.021705 -0.009235
# 6 0.031007 0.036671 -0.001600 -0.002436 -0.009235 0.090367
#
#
# Mechanical properties :
#
#
# Convention : Reuss Voigt Hill
#
# Bulk Modulus (GPa) = 11.90001 42.53109 27.21555
# Shear Modulus (GPa) = 20.77673 39.37998 30.07836
#
# Velocity S-wave (km/s) = 2.88195 3.96767 3.46757
# Velocity P-wave (km/s) = 3.97885 6.16376 5.18764
#
# Compressibility (1/GPa) = 0.08403351
#
# Stress axis : x y z
#
# Youngs Moduli (GPa) = 40.60649 29.06842 97.71399
#
# Poissons Ratio (x) = -0.33143 0.37617
# Poissons Ratio (y) = -0.46298 0.01625
# Poissons Ratio (z) = 0.15632 0.00483
#
# Static dielectric constant tensor:
#      x y z
#    x 4.951260 -0.265550 -0.340550 
#    y -0.265550 4.246750 -0.036630 
#    z -0.340550 -0.036630 5.357100 
# 
# 
# High freq. dielectric constant tensor:
#      x y z
#    x 2.009800 -0.024000 -0.002980 
#    y -0.024000 1.948820 0.012450 
#    z -0.002980 0.012450 2.014580 
# 
# From -- ./inp_files/420146.got.cif
#   From: 2010.06.25/outbox.cif.g09.slc.cpg/sg2_211_cif.got.tgz:420146.got - 2010.06.27 13:26:56.
