data_PCOD8038005
_publ_section_title
;
Structure prediction by ZEFSAII (Michael W. Deem and Ramdas Pophale) SiO2 
 PCOD8038005
Probable space group: P -1
;
_chemical_formula_sum "Si O2"
_cell_formula_units_Z 14
_cell_length_a 11.452281
_cell_length_b 13.105019
_cell_length_c 11.217044
_cell_angle_alpha 61.478588
_cell_angle_beta 128.805891
_cell_angle_gamma 147.596480
_cell_volume 697.623311
_symmetry_space_group_name_H-M "P -1"
_symmetry_group_IT_number 2
_symmetry_cell_setting 'triclinic'
loop_
_space_group_symop_operation_xyz
x,y,z
-x,-y,-z
loop_
_atom_site_type_symbol
_atom_site_label
_atom_site_fract_x
_atom_site_fract_y
_atom_site_fract_z
Si Si1 0.015252 0.923080 0.898090
Si Si2 0.235046 0.291466 0.905058
Si Si3 0.442195 0.215981 0.372698
Si Si4 0.213312 0.692802 0.304621
Si Si5 0.710215 0.293380 0.274167
Si Si6 0.857125 0.193375 0.596036
Si Si7 0.633423 0.049663 0.937160
O O1 0.749592 0.794461 0.741345
O O2 0.218097 0.153732 0.907685
O O3 0.130590 0.887225 0.916724
O O4 0.964615 0.839616 0.043176
O O5 0.139672 0.332225 0.731027
O O6 0.500000 0.500000 0.000000
O O7 0.648574 0.340999 0.541551
O O8 0.555043 0.276182 0.277801
O O9 0.281780 0.005943 0.422243
O O10 0.287228 0.839530 0.364850
O O11 0.293091 0.784005 0.173467
O O12 0.916131 0.497735 0.225417
O O13 0.869496 0.293723 0.442997
O O14 0.538196 0.133569 0.153802
O O15 0.500000 0.000000 0.000000
#
# Coordination Sequence:
#
# PCOD8038005 Si02
#       7
#     2   2   2   2   2   2   2
#     4  10  22  36  54  87 116 149 188 230 288 339
#     4  10  20  31  57  90 127 141 171 233 303 352
#     4  10  18  36  62  89 121 140 176 241 303 354
#     4  11  21  36  59  89 115 151 188 230 293 349
#     4  11  21  35  61  88 117 148 189 233 293 347
#     4  10  17  33  57  91 120 147 177 227 302 354
#     4  12  25  43  58  77 115 161 204 241 267 328
#
# _framework density 20.068135999999999
#
# number of rings (size 3 to 8) (size 9 to 14) (size 15 to 20)
#    0.000    1.429    4.286    4.286    6.000    0.571 
#    0.000    0.714    0.000    0.857    0.000    0.000 
#    0.000    0.000    0.000    0.000    0.000    0.000 
#
# Total GULP energy -173497.700619 kJ/mol
# GULP energy per Si atom -12392.692901 kJ/mol
# Density = 2.002246 g / cm^3
# Si number density = 20.068136 Si / 1000 Ang^3
#
#
#
# Elastic Constant Matrix: (Units=GPa)
#
#
# Indices 1 2 3 4 5 6 
#
# 1 96.7602 28.1543 54.9824 -8.7639 14.1307 23.9316
# 2 28.1543 77.7153 32.7498 4.4383 -1.2665 20.3597
# 3 54.9824 32.7498 103.7727 1.1263 23.7882 16.5622
# 4 -8.7639 4.4383 1.1263 30.6108 11.3353 1.4151
# 5 14.1307 -1.2665 23.7882 11.3353 27.9237 -1.9509
# 6 23.9316 20.3597 16.5622 1.4151 -1.9509 19.4630
#
#
#
# Elastic Compliance Matrix: (Units=1/GPa)
#
#
# Indices 1 2 3 4 5 6 
#
# 1 0.023082 -0.000575 -0.004437 0.013775 -0.015373 -0.026547
# 2 -0.000575 0.019210 -0.004785 -0.004326 0.005988 -0.014401
# 3 -0.004437 -0.004785 0.018243 0.005018 -0.016042 -0.007036
# 4 0.013775 -0.004326 0.005018 0.050610 -0.033644 -0.023735
# 5 -0.015373 0.005988 -0.016042 -0.033644 0.073710 0.036124
# 6 -0.026547 -0.014401 -0.007036 -0.023735 0.036124 0.110420
#
#
# Mechanical properties :
#
#
# Convention : Reuss Voigt Hill
#
# Bulk Modulus (GPa) = 24.42537 56.66902 40.54720
# Shear Modulus (GPa) = 15.22001 26.42360 20.82181
#
# Velocity S-wave (km/s) = 2.75692 3.63257 3.22461
# Velocity P-wave (km/s) = 4.72566 6.77449 5.84061
#
# Compressibility (1/GPa) = 0.04094103
#
# Stress axis : x y z
#
# Youngs Moduli (GPa) = 43.32457 52.05723 54.81537
#
# Poissons Ratio (x) = 0.02992 0.24319
# Poissons Ratio (y) = 0.02490 0.26230
# Poissons Ratio (z) = 0.19221 0.24910
#
# Static dielectric constant tensor:
#      x y z
#    x 3.245430 -0.005270 0.478900 
#    y -0.005270 3.687220 0.003040 
#    z 0.478900 0.003040 4.067750 
# 
# 
# High freq. dielectric constant tensor:
#      x y z
#    x 1.713550 0.005770 0.045450 
#    y 0.005770 1.795450 0.000420 
#    z 0.045450 0.000420 1.793890 
# 
# From -- ./inp_files/425281.got.cif
#   From: 2010.06.25/outbox.cif.g09.slc.cpg/sg2_213_cif.got.tgz:425281.got - 2010.06.27 13:26:56.
