data_PCOD8038514
_publ_section_title
;
Structure prediction by ZEFSAII (Michael W. Deem and Ramdas Pophale) SiO2 
 PCOD8038514
Probable space group: P -1
;
_chemical_formula_sum "Si O2"
_cell_formula_units_Z 12
_cell_length_a 15.038580
_cell_length_b 11.502643
_cell_length_c 9.241222
_cell_angle_alpha 57.405568
_cell_angle_beta 41.299062
_cell_angle_gamma 31.935380
_cell_volume 535.227418
_symmetry_space_group_name_H-M "P -1"
_symmetry_group_IT_number 2
_symmetry_cell_setting 'triclinic'
loop_
_space_group_symop_operation_xyz
x,y,z
-x,-y,-z
loop_
_atom_site_type_symbol
_atom_site_label
_atom_site_fract_x
_atom_site_fract_y
_atom_site_fract_z
Si Si1 0.695166 0.516000 0.339374
Si Si2 0.053309 0.561959 0.163462
Si Si3 0.965659 0.162347 0.836403
Si Si4 0.726366 0.184828 0.547059
Si Si5 0.567123 0.670748 0.959241
Si Si6 0.623584 0.755941 0.535933
O O1 0.798671 0.284652 0.417645
O O2 0.501326 0.639412 0.381595
O O3 0.592006 0.682434 0.487829
O O4 0.882418 0.453865 0.070241
O O5 0.277225 0.346523 0.129556
O O6 0.926115 0.798192 0.233019
O O7 0.888941 0.565502 0.364112
O O8 0.702349 0.413006 0.964528
O O9 0.076977 0.056369 0.614009
O O10 0.000000 0.000000 0.000000
O O11 0.673414 0.156255 0.785766
O O12 0.517342 0.767849 0.796145
O O13 0.500000 0.000000 0.500000
#
# Coordination Sequence:
#
# PCOD8038514 Si02
#       6
#     2   2   2   2   2   2
#     4  10  20  37  64  90 122 157 204 257 300 362
#     4   9  20  40  63  87 122 159 206 245 299 367
#     4  10  17  36  70  91 114 156 201 247 301 358
#     4  10  18  40  64  94 117 158 207 248 307 364
#     4   9  23  39  63  93 120 160 206 253 293 369
#     4  12  24  41  57  89 129 166 201 252 307 352
#
# _framework density 22.420376000000001
#
# number of rings (size 3 to 8) (size 9 to 14) (size 15 to 20)
#    1.000    1.000    1.667    3.000    0.000    0.667 
#    6.000    3.333    0.000    0.000    0.000    0.000 
#    0.000    0.000    0.000    0.000    0.000    0.000 
#
# Total GULP energy -148742.233050 kJ/mol
# GULP energy per Si atom -12395.186088 kJ/mol
# Density = 2.236935 g / cm^3
# Si number density = 22.420376 Si / 1000 Ang^3
#
#
#
# Elastic Constant Matrix: (Units=GPa)
#
#
# Indices 1 2 3 4 5 6 
#
# 1 47.0326 17.0751 43.1823 -8.5830 24.0256 20.5945
# 2 17.0751 65.7705 31.9086 -2.1633 24.5024 10.5521
# 3 43.1823 31.9086 160.9655 3.3155 51.4525 13.8218
# 4 -8.5830 -2.1633 3.3155 36.2683 0.1993 5.5671
# 5 24.0256 24.5024 51.4525 0.1993 39.5021 3.2797
# 6 20.5945 10.5521 13.8218 5.5671 3.2797 21.9093
#
#
#
# Elastic Compliance Matrix: (Units=1/GPa)
#
#
# Indices 1 2 3 4 5 6 
#
# 1 0.099226 0.014338 -0.003739 0.040281 -0.056306 -0.099625
# 2 0.014338 0.023580 0.000344 0.008566 -0.021849 -0.023957
# 3 -0.003739 0.000344 0.011323 -0.001599 -0.012554 -0.001509
# 4 0.040281 0.008566 -0.001599 0.045406 -0.023896 -0.048941
# 5 -0.056306 -0.021849 -0.012554 -0.023896 0.084203 0.064837
# 6 -0.099625 -0.023957 -0.001509 -0.048941 0.064837 0.154510
#
#
# Mechanical properties :
#
#
# Convention : Reuss Voigt Hill
#
# Bulk Modulus (GPa) = 6.40959 50.90006 28.65482
# Shear Modulus (GPa) = 11.15159 31.64277 21.39718
#
# Velocity S-wave (km/s) = 2.23264 3.76086 3.09263
# Velocity P-wave (km/s) = 3.08403 6.45063 5.05578
#
# Compressibility (1/GPa) = 0.15601627
#
# Stress axis : x y z
#
# Youngs Moduli (GPa) = 10.07797 42.40830 88.31769
#
# Poissons Ratio (x) = -0.60806 0.33019
# Poissons Ratio (y) = -0.14450 -0.03037
# Poissons Ratio (z) = 0.03768 -0.01458
#
# Static dielectric constant tensor:
#      x y z
#    x 3.831830 0.202110 0.142130 
#    y 0.202110 3.623480 0.146730 
#    z 0.142130 0.146730 4.324750 
# 
# 
# High freq. dielectric constant tensor:
#      x y z
#    x 1.866360 0.013390 0.012270 
#    y 0.013390 1.852700 0.004790 
#    z 0.012270 0.004790 1.895610 
# 
# From -- ./inp_files/173017.got.cif
#   From: 2010.06.25/outbox.cif.g09.slc.cpg/sg2_87_cif.got.tgz:173017.got - 2010.06.27 13:26:56.
