data_PCOD8038062
_publ_section_title
;
Structure prediction by ZEFSAII (Michael W. Deem and Ramdas Pophale) SiO2 
 PCOD8038062
Probable space group: P -1
;
_chemical_formula_sum "Si O2"
_cell_formula_units_Z 16
_cell_length_a 8.707774
_cell_length_b 9.688987
_cell_length_c 14.932735
_cell_angle_alpha 88.975700
_cell_angle_beta 141.986563
_cell_angle_gamma 102.291565
_cell_volume 734.215369
_symmetry_space_group_name_H-M "P -1"
_symmetry_group_IT_number 2
_symmetry_cell_setting 'triclinic'
loop_
_space_group_symop_operation_xyz
x,y,z
-x,-y,-z
loop_
_atom_site_type_symbol
_atom_site_label
_atom_site_fract_x
_atom_site_fract_y
_atom_site_fract_z
Si Si1 0.389233 0.798550 0.132449
Si Si2 0.634804 0.803669 0.425697
Si Si3 0.080408 0.429426 0.450993
Si Si4 0.543936 0.324306 0.114038
Si Si5 0.026679 0.084330 0.682200
Si Si6 0.267683 0.011648 0.955292
Si Si7 0.200476 0.668585 0.361187
Si Si8 0.756267 0.472378 0.032080
O O1 0.422649 0.816544 0.254314
O O2 0.682760 0.847450 0.225435
O O3 0.207412 0.632028 0.029233
O O4 0.213251 0.891960 0.010141
O O5 0.759479 0.680786 0.451173
O O6 0.485299 0.754730 0.451247
O O7 0.849272 0.963370 0.533999
O O8 0.240436 0.557361 0.455498
O O9 0.000000 0.500000 0.500000
O O10 0.815816 0.330900 0.283474
O O11 0.578489 0.358356 0.023872
O O12 0.344255 0.164713 0.039588
O O13 0.413931 0.437798 0.094551
O O14 0.916455 0.218011 0.645305
O O15 0.024003 0.000571 0.777010
O O16 0.500000 0.000000 0.000000
O O17 0.017091 0.579043 0.197237
#
# Coordination Sequence:
#
# PCOD8038062 Si02
#       8
#     2   2   2   2   2   2   2   2
#     4  11  22  38  63  94 121 159 217 269 300 355
#     4  12  26  41  59  95 134 168 201 251 323 382
#     4  11  23  40  65  94 124 161 212 261 311 369
#     4  10  17  33  60  91 115 150 208 266 298 354
#     4  11  21  41  65  90 122 168 217 256 306 367
#     4  10  18  33  59  92 113 152 208 261 303 344
#     4  11  24  41  64  89 130 172 201 250 320 385
#     4  10  18  35  62  88 121 156 207 255 313 358
#
# _framework density 21.791972000000001
#
# number of rings (size 3 to 8) (size 9 to 14) (size 15 to 20)
#    0.000    1.250    3.750    5.625    1.750    1.500 
#    0.000    0.625    0.000    0.000    0.000    0.000 
#    0.000    0.000    0.000    0.000    0.000    0.000 
#
# Total GULP energy -198341.388635 kJ/mol
# GULP energy per Si atom -12396.336790 kJ/mol
# Density = 2.174237 g / cm^3
# Si number density = 21.791972 Si / 1000 Ang^3
#
#
#
# Elastic Constant Matrix: (Units=GPa)
#
#
# Indices 1 2 3 4 5 6 
#
# 1 42.6549 6.7409 3.2602 11.2447 -7.0988 2.8677
# 2 6.7409 114.3396 38.1243 8.4423 -15.0604 -13.0858
# 3 3.2602 38.1243 59.4264 1.7114 -22.8999 2.1017
# 4 11.2447 8.4423 1.7114 41.5579 1.2722 -4.5016
# 5 -7.0988 -15.0604 -22.8999 1.2722 27.4817 0.8712
# 6 2.8677 -13.0858 2.1017 -4.5016 0.8712 21.4516
#
#
#
# Elastic Compliance Matrix: (Units=1/GPa)
#
#
# Indices 1 2 3 4 5 6 
#
# 1 0.027862 -0.001911 0.004150 -0.008446 0.010236 -0.007485
# 2 -0.001911 0.012683 -0.008728 -0.000721 -0.001060 0.008739
# 3 0.004150 -0.008728 0.031493 -0.002478 0.022976 -0.010418
# 4 -0.008446 -0.000721 -0.002478 0.027538 -0.006137 0.006960
# 5 0.010236 -0.001060 0.022976 -0.006137 0.058131 -0.007915
# 6 -0.007485 0.008739 -0.010418 0.006960 -0.007915 0.055751
#
#
# Mechanical properties :
#
#
# Convention : Reuss Voigt Hill
#
# Bulk Modulus (GPa) = 16.93237 34.74131 25.83684
# Shear Modulus (GPa) = 20.31502 29.31795 24.81649
#
# Velocity S-wave (km/s) = 3.05655 3.67189 3.37826
# Velocity P-wave (km/s) = 4.49928 5.82700 5.20564
#
# Compressibility (1/GPa) = 0.05905847
#
# Stress axis : x y z
#
# Youngs Moduli (GPa) = 35.89111 78.84843 31.75306
#
# Poissons Ratio (x) = 0.15069 -0.13177
# Poissons Ratio (y) = 0.06859 0.27715
# Poissons Ratio (z) = -0.14894 0.68822
#
# Static dielectric constant tensor:
#      x y z
#    x 3.485710 0.015020 -0.255090 
#    y 0.015020 2.607010 0.565120 
#    z -0.255090 0.565120 3.897960 
# 
# 
# High freq. dielectric constant tensor:
#      x y z
#    x 1.813270 -0.007510 -0.013930 
#    y -0.007510 1.876910 -0.000930 
#    z -0.013930 -0.000930 1.856770 
# 
# From -- ./inp_files/242963.got.cif
#   From: 2010.06.25/outbox.cif.g09.slc.cpg/sg2_122_cif.got.tgz:242963.got - 2010.06.27 13:26:56.
