data_PCOD8038861
_publ_section_title
;
Structure prediction by ZEFSAII (Michael W. Deem and Ramdas Pophale) SiO2 
 PCOD8038861
Probable space group: P -1
;
_chemical_formula_sum "Si O2"
_cell_formula_units_Z 16
_cell_length_a 14.357652
_cell_length_b 8.167201
_cell_length_c 11.905916
_cell_angle_alpha 130.488766
_cell_angle_beta 53.136603
_cell_angle_gamma 141.630269
_cell_volume 646.769284
_symmetry_space_group_name_H-M "P -1"
_symmetry_group_IT_number 2
_symmetry_cell_setting 'triclinic'
loop_
_space_group_symop_operation_xyz
x,y,z
-x,-y,-z
loop_
_atom_site_type_symbol
_atom_site_label
_atom_site_fract_x
_atom_site_fract_y
_atom_site_fract_z
Si Si1 0.751499 0.210210 0.714248
Si Si2 0.061517 0.296483 0.045448
Si Si3 0.674908 0.979149 0.056262
Si Si4 0.259335 0.527005 0.370299
Si Si5 0.548194 0.222864 0.159528
Si Si6 0.041111 0.899316 0.196125
Si Si7 0.546593 0.581296 0.163592
Si Si8 0.056014 0.427873 0.663374
O O1 0.705666 0.242847 0.640240
O O2 0.783673 0.444911 0.886991
O O3 0.904842 0.248867 0.612919
O O4 0.610472 0.897168 0.718364
O O5 0.931225 0.326832 0.171600
O O6 0.088271 0.291813 0.890729
O O7 0.000000 0.000000 0.000000
O O8 0.675957 0.880348 0.139181
O O9 0.653474 0.214505 0.169176
O O10 0.523239 0.685102 0.985293
O O11 0.823403 0.108403 0.931238
O O12 0.410793 0.571440 0.303021
O O13 0.207514 0.565557 0.543736
O O14 0.118680 0.226469 0.283118
O O15 0.620055 0.532156 0.193914
O O16 0.500000 0.000000 0.000000
O O17 0.966563 0.781382 0.319271
#
# Coordination Sequence:
#
# PCOD8038861 Si02
#       8
#     2   2   2   2   2   2   2   2
#     4  10  20  33  53  81 116 146 184 229 283 339
#     4  10  22  37  54  78 115 155 189 231 280 341
#     4   9  18  31  53  80 114 143 184 244 281 326
#     4  11  19  34  56  82 120 147 187 232 289 340
#     4  10  18  31  50  83 114 140 185 239 293 321
#     4  11  20  37  55  85 115 148 191 230 283 345
#     4   9  18  30  52  82 112 143 181 236 290 331
#     4  10  22  34  54  83 113 157 184 232 284 338
#
# _framework density 24.738343
#
# number of rings (size 3 to 8) (size 9 to 14) (size 15 to 20)
#    0.750    1.250    2.500    3.375    1.750    0.000 
#    0.000    0.000    0.000    0.750    0.000    0.875 
#    0.000    1.250    0.000    0.000    0.000    0.000 
#
# Total GULP energy -198220.292443 kJ/mol
# GULP energy per Si atom -12388.768278 kJ/mol
# Density = 2.468204 g / cm^3
# Si number density = 24.738343 Si / 1000 Ang^3
#
#
#
# Elastic Constant Matrix: (Units=GPa)
#
#
# Indices 1 2 3 4 5 6 
#
# 1 83.0334 40.7093 21.1323 -21.1810 5.9871 -47.4508
# 2 40.7093 66.9902 19.4494 -25.6671 9.5404 -28.9198
# 3 21.1323 19.4494 86.9331 -19.9357 2.3378 -10.6027
# 4 -21.1810 -25.6671 -19.9357 27.0531 -5.3533 9.7214
# 5 5.9871 9.5404 2.3378 -5.3533 25.4606 -3.8512
# 6 -47.4508 -28.9198 -10.6027 9.7214 -3.8512 44.9415
#
#
#
# Elastic Compliance Matrix: (Units=1/GPa)
#
#
# Indices 1 2 3 4 5 6 
#
# 1 0.035716 -0.001871 -0.001123 0.013428 0.000275 0.033361
# 2 -0.001871 0.030631 0.000416 0.022502 -0.004441 0.012586
# 3 -0.001123 0.000416 0.013962 0.009877 0.000951 0.000321
# 4 0.013428 0.022502 0.009877 0.071337 0.004920 0.015978
# 5 0.000275 -0.004441 0.000951 0.004920 0.041850 0.000179
# 6 0.033361 0.012586 0.000321 0.015978 0.000179 0.062208
#
#
# Mechanical properties :
#
#
# Convention : Reuss Voigt Hill
#
# Bulk Modulus (GPa) = 13.30598 44.39320 28.84959
# Shear Modulus (GPa) = 17.48794 29.86874 23.67834
#
# Velocity S-wave (km/s) = 2.66167 3.47852 3.09714
# Velocity P-wave (km/s) = 3.85180 5.84102 4.94742
#
# Compressibility (1/GPa) = 0.07515416
#
# Stress axis : x y z
#
# Youngs Moduli (GPa) = 27.99826 32.64650 71.62535
#
# Poissons Ratio (x) = 0.06108 0.08043
# Poissons Ratio (y) = 0.05239 -0.02983
# Poissons Ratio (z) = 0.03144 -0.01360
#
# Static dielectric constant tensor:
#      x y z
#    x 5.053750 -0.611930 -0.161630 
#    y -0.611930 4.497560 -0.155870 
#    z -0.161630 -0.155870 4.178200 
# 
# 
# High freq. dielectric constant tensor:
#      x y z
#    x 1.981930 -0.022260 -0.010980 
#    y -0.022260 1.977860 -0.032470 
#    z -0.010980 -0.032470 1.943870 
# 
# From -- ./inp_files/446306.got.cif
#   From: 2010.06.25/outbox.cif.g09.slc.cpg/sg2_224_cif.got.tgz:446306.got - 2010.06.27 13:26:56.
