data_PCOD8038365
_publ_section_title
;
Structure prediction by ZEFSAII (Michael W. Deem and Ramdas Pophale) SiO2 
 PCOD8038365
Probable space group: P -1
;
_chemical_formula_sum "Si O2"
_cell_formula_units_Z 14
_cell_length_a 17.441728
_cell_length_b 11.489622
_cell_length_c 11.106990
_cell_angle_alpha 46.224562
_cell_angle_beta 41.497137
_cell_angle_gamma 30.480351
_cell_volume 740.930380
_symmetry_space_group_name_H-M "P -1"
_symmetry_group_IT_number 2
_symmetry_cell_setting 'triclinic'
loop_
_space_group_symop_operation_xyz
x,y,z
-x,-y,-z
loop_
_atom_site_type_symbol
_atom_site_label
_atom_site_fract_x
_atom_site_fract_y
_atom_site_fract_z
Si Si1 0.599744 0.378554 0.090414
Si Si2 0.673803 0.240940 0.497791
Si Si3 0.495616 0.757878 0.107162
Si Si4 0.155817 0.118401 0.879658
Si Si5 0.373488 0.921329 0.557418
Si Si6 0.205585 0.546787 0.849084
Si Si7 0.349044 0.141041 0.821874
O O1 0.595608 0.550659 0.041212
O O2 0.525982 0.315624 0.313482
O O3 0.786250 0.129111 0.014697
O O4 0.500000 0.500000 0.000000
O O5 0.500000 0.500000 0.500000
O O6 0.664987 0.166616 0.693299
O O7 0.699091 0.081358 0.478883
O O8 0.807780 0.252107 0.321219
O O9 0.632520 0.661451 0.115128
O O10 0.424682 0.986749 0.963744
O O11 0.248031 0.110095 0.888741
O O12 0.216408 0.139831 0.666940
O O13 0.959036 0.330200 0.970540
O O14 0.496233 0.946906 0.373750
O O15 0.223063 0.412975 0.808465
#
# Coordination Sequence:
#
# PCOD8038365 Si02
#       7
#     2   2   2   2   2   2   2
#     4  10  19  37  60  82 112 147 197 233 274 339
#     4  10  17  35  59  83 107 149 199 233 270 337
#     4  11  20  36  63  87 109 150 206 233 267 344
#     4  10  23  36  58  87 119 147 188 237 299 327
#     4  10  20  36  61  83 112 154 196 228 281 345
#     4  11  21  37  59  87 116 150 188 240 292 328
#     4  12  21  37  61  85 119 155 190 228 285 351
#
# _framework density 18.895161999999999
#
# number of rings (size 3 to 8) (size 9 to 14) (size 15 to 20)
#    0.857    0.571    7.143    1.286    0.000    2.286 
#    0.000    1.429    6.286    0.000    0.000    0.000 
#    0.000    0.000    0.000    0.000    0.000    0.000 
#
# Total GULP energy -173434.666583 kJ/mol
# GULP energy per Si atom -12388.190470 kJ/mol
# Density = 1.885216 g / cm^3
# Si number density = 18.895162 Si / 1000 Ang^3
#
#
#
# Elastic Constant Matrix: (Units=GPa)
#
#
# Indices 1 2 3 4 5 6 
#
# 1 64.6321 27.1278 22.4433 6.6230 3.9564 20.3947
# 2 27.1278 53.4436 45.2647 10.4336 0.9561 7.2800
# 3 22.4433 45.2647 123.1684 11.5573 -0.2446 -2.9738
# 4 6.6230 10.4336 11.5573 36.1084 2.3293 6.7851
# 5 3.9564 0.9561 -0.2446 2.3293 25.0601 1.6446
# 6 20.3947 7.2800 -2.9738 6.7851 1.6446 21.6776
#
#
#
# Elastic Compliance Matrix: (Units=1/GPa)
#
#
# Indices 1 2 3 4 5 6 
#
# 1 0.027631 -0.009146 -0.002549 0.003083 -0.002748 -0.024031
# 2 -0.009146 0.033150 -0.010187 -0.004181 0.000643 -0.002665
# 3 -0.002549 -0.010187 0.012738 -0.002250 0.000585 0.008226
# 4 0.003083 -0.004181 -0.002250 0.031368 -0.002514 -0.011432
# 5 -0.002748 0.000643 0.000585 -0.002514 0.040542 0.000161
# 6 -0.024031 -0.002665 0.008226 -0.011432 0.000161 0.074329
#
#
# Mechanical properties :
#
#
# Convention : Reuss Voigt Hill
#
# Bulk Modulus (GPa) = 33.60722 47.87949 40.74336
# Shear Modulus (GPa) = 18.28562 26.32976 22.30769
#
# Velocity S-wave (km/s) = 3.11423 3.73696 3.43972
# Velocity P-wave (km/s) = 5.54581 6.63434 6.11434
#
# Compressibility (1/GPa) = 0.02975551
#
# Stress axis : x y z
#
# Youngs Moduli (GPa) = 36.19081 30.16635 78.50640
#
# Poissons Ratio (x) = 0.27591 0.20007
# Poissons Ratio (y) = 0.33102 0.79972
# Poissons Ratio (z) = 0.09223 0.30729
#
# Static dielectric constant tensor:
#      x y z
#    x 4.154060 0.594710 0.006440 
#    y 0.594710 3.349130 -0.115520 
#    z 0.006440 -0.115520 3.981800 
# 
# 
# High freq. dielectric constant tensor:
#      x y z
#    x 1.729080 0.035620 0.015460 
#    y 0.035620 1.707450 -0.001410 
#    z 0.015460 -0.001410 1.733450 
# 
# From -- ./inp_files/462788.got.cif
#   From: 2010.06.25/outbox.cif.g09.slc.cpg/sg2_232_cif.got.tgz:462788.got - 2010.06.27 13:26:56.
