data_PCOD8038599
_publ_section_title
;
Structure prediction by ZEFSAII (Michael W. Deem and Ramdas Pophale) SiO2 
 PCOD8038599
Probable space group: P -1
;
_chemical_formula_sum "Si O2"
_cell_formula_units_Z 16
_cell_length_a 9.761582
_cell_length_b 11.713917
_cell_length_c 9.316578
_cell_angle_alpha 123.954476
_cell_angle_beta 122.328836
_cell_angle_gamma 79.658035
_cell_volume 735.815486
_symmetry_space_group_name_H-M "P -1"
_symmetry_group_IT_number 2
_symmetry_cell_setting 'triclinic'
loop_
_space_group_symop_operation_xyz
x,y,z
-x,-y,-z
loop_
_atom_site_type_symbol
_atom_site_label
_atom_site_fract_x
_atom_site_fract_y
_atom_site_fract_z
Si Si1 0.735769 0.721195 0.190847
Si Si2 0.597806 0.246534 0.056149
Si Si3 0.965832 0.363937 0.289405
Si Si4 0.142312 0.125281 0.348917
Si Si5 0.011046 0.551730 0.201066
Si Si6 0.552578 0.964767 0.664123
Si Si7 0.886643 0.965916 0.276819
Si Si8 0.690530 0.203983 0.387486
O O1 0.758988 0.819376 0.413278
O O2 0.796005 0.807263 0.137704
O O3 0.837701 0.596418 0.180233
O O4 0.540914 0.666729 0.019807
O O5 0.772069 0.311155 0.133752
O O6 0.597013 0.256673 0.236216
O O7 0.549161 0.088857 0.861113
O O8 0.000000 0.500000 0.500000
O O9 0.059626 0.245705 0.316997
O O10 0.034629 0.415159 0.208307
O O11 0.265182 0.074033 0.267989
O O12 0.000938 0.992266 0.216662
O O13 0.158350 0.679603 0.397123
O O14 0.000000 0.500000 0.000000
O O15 0.428454 0.832664 0.567676
O O16 0.500000 0.000000 0.500000
O O17 0.755665 0.069098 0.269111
O O18 0.000000 0.000000 0.500000
#
# Coordination Sequence:
#
# PCOD8038599 Si02
#       8
#     2   2   2   2   2   2   2   2
#     4  11  22  41  72 103 135 188 229 282 362 416
#     4  12  25  43  75 103 140 184 224 299 354 415
#     4  12  24  50  70  94 141 192 241 276 340 423
#     4  11  22  43  71 103 142 186 223 292 349 417
#     4  12  28  47  71 100 138 196 243 281 333 422
#     4  12  26  41  69 116 142 167 236 298 357 405
#     4  10  17  38  72  95 133 183 223 273 361 417
#     4  12  23  47  69  99 148 180 226 295 353 413
#
# _framework density 21.744582999999999
#
# number of rings (size 3 to 8) (size 9 to 14) (size 15 to 20)
#    0.000    0.500    8.750    1.125    1.750    2.000 
#    2.250    1.250    0.000    0.000    0.000    0.000 
#    0.000    0.000    0.000    0.000    0.000    0.000 
#
# Total GULP energy -198373.288906 kJ/mol
# GULP energy per Si atom -12398.330557 kJ/mol
# Density = 2.169509 g / cm^3
# Si number density = 21.744583 Si / 1000 Ang^3
#
#
#
# Elastic Constant Matrix: (Units=GPa)
#
#
# Indices 1 2 3 4 5 6 
#
# 1 135.7016 39.6353 26.6742 -11.2528 13.8963 9.4777
# 2 39.6353 93.8244 25.1684 -13.2820 9.6892 18.3059
# 3 26.6742 25.1684 99.5502 -15.4004 4.4094 -0.5453
# 4 -11.2528 -13.2820 -15.4004 24.1995 1.5810 -3.2859
# 5 13.8963 9.6892 4.4094 1.5810 38.0224 -7.4425
# 6 9.4777 18.3059 -0.5453 -3.2859 -7.4425 39.5748
#
#
#
# Elastic Compliance Matrix: (Units=1/GPa)
#
#
# Indices 1 2 3 4 5 6 
#
# 1 0.008923 -0.002603 -0.001326 0.001879 -0.002780 -0.001318
# 2 -0.002603 0.014719 -0.002124 0.004888 -0.004042 -0.006568
# 3 -0.001326 -0.002124 0.011896 0.006065 -0.000229 0.001925
# 4 0.001879 0.004888 0.006065 0.049118 -0.004562 0.000593
# 5 -0.002780 -0.004042 -0.000229 -0.004562 0.030092 0.007812
# 6 -0.001318 -0.006568 0.001925 0.000593 0.007812 0.030167
#
#
# Mechanical properties :
#
#
# Convention : Reuss Voigt Hill
#
# Bulk Modulus (GPa) = 42.67998 56.89244 49.78621
# Shear Modulus (GPa) = 30.33381 36.19923 33.26652
#
# Velocity S-wave (km/s) = 3.73903 4.08456 3.91561
# Velocity P-wave (km/s) = 6.18958 6.96172 6.58698
#
# Compressibility (1/GPa) = 0.02343019
#
# Stress axis : x y z
#
# Youngs Moduli (GPa) = 112.07410 67.94026 84.05877
#
# Poissons Ratio (x) = 0.17688 0.11146
# Poissons Ratio (y) = 0.29178 0.17858
# Poissons Ratio (z) = 0.14861 0.14433
#
# Static dielectric constant tensor:
#      x y z
#    x 4.314470 0.067020 0.164400 
#    y 0.067020 3.752310 -0.155500 
#    z 0.164400 -0.155500 3.792060 
# 
# 
# High freq. dielectric constant tensor:
#      x y z
#    x 1.858730 0.009320 0.014310 
#    y 0.009320 1.855400 -0.021460 
#    z 0.014310 -0.021460 1.844120 
# 
# From -- ./inp_files/190399.got.cif
#   From: 2010.06.25/outbox.cif.g09.slc.cpg/sg2_96_cif.got.tgz:190399.got - 2010.06.27 13:26:56.
