data_PCOD8038671
_publ_section_title
;
Structure prediction by ZEFSAII (Michael W. Deem and Ramdas Pophale) SiO2 
 PCOD8038671
Probable space group: P -1
;
_chemical_formula_sum "Si O2"
_cell_formula_units_Z 16
_cell_length_a 13.617185
_cell_length_b 25.459023
_cell_length_c 8.024790
_cell_angle_alpha 56.055388
_cell_angle_beta 114.797072
_cell_angle_gamma 159.305834
_cell_volume 763.616824
_symmetry_space_group_name_H-M "P -1"
_symmetry_group_IT_number 2
_symmetry_cell_setting 'triclinic'
loop_
_space_group_symop_operation_xyz
x,y,z
-x,-y,-z
loop_
_atom_site_type_symbol
_atom_site_label
_atom_site_fract_x
_atom_site_fract_y
_atom_site_fract_z
Si Si1 0.459800 0.312218 0.380854
Si Si2 0.927783 0.111403 0.327359
Si Si3 0.733949 0.022081 0.001568
Si Si4 0.624354 0.284276 0.370879
Si Si5 0.247040 0.675854 0.964100
Si Si6 0.098257 0.638108 0.269389
Si Si7 0.747665 0.889040 0.128811
Si Si8 0.341095 0.978976 0.394277
O O1 0.481211 0.276094 0.303277
O O2 0.296235 0.188610 0.631609
O O3 0.799956 0.514302 0.324050
O O4 0.260654 0.264648 0.283178
O O5 0.898039 0.140700 0.415304
O O6 0.661280 0.915945 0.500724
O O7 0.890543 0.129868 0.093349
O O8 0.829996 0.114703 0.742001
O O9 0.377165 0.836876 0.097537
O O10 0.815632 0.992724 0.083776
O O11 0.846223 0.398208 0.161091
O O12 0.808957 0.365901 0.524501
O O13 0.412195 0.832156 0.771952
O O14 0.022618 0.565757 0.158261
O O15 0.471372 0.744964 0.064407
O O16 0.000000 0.000000 0.000000
O O17 0.500000 0.000000 0.500000
#
# Coordination Sequence:
#
# PCOD8038671 Si02
#       8
#     2   2   2   2   2   2   2   2
#     4  12  19  30  51  72 108 140 162 198 238 294
#     4  10  20  32  48  79  99 127 168 206 248 294
#     4   9  19  34  50  71 103 128 166 209 241 297
#     4  10  18  31  50  67 103 140 171 190 238 287
#     4   9  19  32  47  72  99 128 170 204 241 296
#     4   9  19  34  44  71 106 137 170 198 230 291
#     4  10  18  29  46  69 104 135 164 195 242 281
#     4   9  18  35  56  73  94 125 167 217 261 296
#
# _framework density 20.952918
#
# number of rings (size 3 to 8) (size 9 to 14) (size 15 to 20)
#    0.000    2.500    3.750    3.000    1.750    1.000 
#    0.000    0.000    0.000    3.000    0.000   11.375 
#    0.000    0.000    0.000    0.000    0.000    0.000 
#
# Total GULP energy -198222.972291 kJ/mol
# GULP energy per Si atom -12388.935768 kJ/mol
# Density = 2.090523 g / cm^3
# Si number density = 20.952918 Si / 1000 Ang^3
#
#
#
# Elastic Constant Matrix: (Units=GPa)
#
#
# Indices 1 2 3 4 5 6 
#
# 1 73.0504 45.9757 46.0523 10.6414 -26.3468 27.4115
# 2 45.9757 68.3543 38.4551 15.0718 -17.5823 29.9970
# 3 46.0523 38.4551 102.5903 30.9613 -36.1970 5.5464
# 4 10.6414 15.0718 30.9613 37.6975 2.1707 -9.3143
# 5 -26.3468 -17.5823 -36.1970 2.1707 34.8053 -4.2976
# 6 27.4115 29.9970 5.5464 -9.3143 -4.2976 30.8685
#
#
#
# Elastic Compliance Matrix: (Units=1/GPa)
#
#
# Indices 1 2 3 4 5 6 
#
# 1 0.044887 0.009128 0.002528 -0.033928 0.036628 -0.054323
# 2 0.009128 0.063580 0.008747 -0.058133 0.041473 -0.083229
# 3 0.002528 0.008747 0.031876 -0.038216 0.039080 -0.022563
# 4 -0.033928 -0.058133 -0.038216 0.125205 -0.087905 0.119028
# 5 0.036628 0.041473 0.039080 -0.087905 0.112330 -0.090735
# 6 -0.054323 -0.083229 -0.022563 0.119028 -0.090735 0.188852
#
#
# Mechanical properties :
#
#
# Convention : Reuss Voigt Hill
#
# Bulk Modulus (GPa) = 5.52030 56.10680 30.81355
# Shear Modulus (GPa) = 8.52797 28.24173 18.38485
#
# Velocity S-wave (km/s) = 2.01963 3.67531 2.96537
# Velocity P-wave (km/s) = 2.84234 6.69673 5.14418
#
# Compressibility (1/GPa) = 0.18114963
#
# Stress axis : x y z
#
# Youngs Moduli (GPa) = 22.27796 15.72820 31.37184
#
# Poissons Ratio (x) = -0.14356 -0.07932
# Poissons Ratio (y) = -0.20335 -0.27442
# Poissons Ratio (z) = -0.05633 -0.13758
#
# Static dielectric constant tensor:
#      x y z
#    x 3.519950 0.019540 -0.579380 
#    y 0.019540 3.820000 0.276830 
#    z -0.579380 0.276830 4.205280 
# 
# 
# High freq. dielectric constant tensor:
#      x y z
#    x 1.793340 0.007440 -0.044470 
#    y 0.007440 1.813920 0.014080 
#    z -0.044470 0.014080 1.831720 
# 
# From -- ./inp_files/320953.got.cif
#   From: 2010.06.25/outbox.cif.g09.slc.cpg/sg2_161_cif.got.tgz:320953.got - 2010.06.27 13:26:56.
