data_PCOD8038026
_publ_section_title
;
Structure prediction by ZEFSAII (Michael W. Deem and Ramdas Pophale) SiO2 
 PCOD8038026
Probable space group: P -1
;
_chemical_formula_sum "Si O2"
_cell_formula_units_Z 16
_cell_length_a 14.457469
_cell_length_b 15.891929
_cell_length_c 11.986148
_cell_angle_alpha 26.697792
_cell_angle_beta 141.760060
_cell_angle_gamma 137.268538
_cell_volume 760.462916
_symmetry_space_group_name_H-M "P -1"
_symmetry_group_IT_number 2
_symmetry_cell_setting 'triclinic'
loop_
_space_group_symop_operation_xyz
x,y,z
-x,-y,-z
loop_
_atom_site_type_symbol
_atom_site_label
_atom_site_fract_x
_atom_site_fract_y
_atom_site_fract_z
Si Si1 0.643920 0.468053 0.746969
Si Si2 0.322068 0.759442 0.149240
Si Si3 0.329595 0.187357 0.320393
Si Si4 0.156037 0.127322 0.004586
Si Si5 0.646303 0.157122 0.556210
Si Si6 0.429537 0.596504 0.998452
Si Si7 0.247367 0.524882 0.565507
Si Si8 0.677605 0.851436 0.396754
O O1 0.500000 0.500000 0.500000
O O2 0.728620 0.329698 0.913778
O O3 0.747521 0.668933 0.629613
O O4 0.599508 0.367557 0.941404
O O5 0.229120 0.632045 0.304620
O O6 0.499269 0.772852 0.328475
O O7 0.280464 0.973834 0.853598
O O8 0.208700 0.126320 0.183799
O O9 0.494366 0.126293 0.521822
O O10 0.271944 0.091928 0.496529
O O11 0.332886 0.411816 0.075385
O O12 0.277648 0.036096 0.149740
O O13 0.126878 0.338415 0.686194
O O14 0.000000 0.000000 0.000000
O O15 0.609692 0.219046 0.322499
O O16 0.761915 0.321339 0.528363
O O17 0.601089 0.572855 0.164787
#
# Coordination Sequence:
#
# PCOD8038026 Si02
#       8
#     2   2   2   2   2   2   2   2
#     4   9  16  28  45  84 125 145 166 225 289 332
#     4  10  18  30  51  83 123 147 172 230 286 338
#     4  10  18  38  58  87 120 142 187 242 279 342
#     4  12  27  39  55  84 115 154 197 236 282 342
#     4  11  21  37  62  86 107 153 186 239 298 334
#     4  10  17  33  58  88 116 147 181 236 289 335
#     4  11  20  38  56  82 124 144 187 237 285 337
#     4   9  18  29  50  85 119 146 179 220 291 337
#
# _framework density 21.039815999999998
#
# number of rings (size 3 to 8) (size 9 to 14) (size 15 to 20)
#    0.000    1.750    7.500    1.125    1.750    1.500 
#    0.000    0.000    0.000    0.750    0.000    2.625 
#    0.000    0.000    0.000    0.000    0.000    0.000 
#
# Total GULP energy -198289.661460 kJ/mol
# GULP energy per Si atom -12393.103841 kJ/mol
# Density = 2.099193 g / cm^3
# Si number density = 21.039816 Si / 1000 Ang^3
#
#
#
# Elastic Constant Matrix: (Units=GPa)
#
#
# Indices 1 2 3 4 5 6 
#
# 1 51.2140 39.6188 24.1779 3.7583 -20.3660 -25.3621
# 2 39.6188 105.5292 24.0100 -9.5668 -13.5667 -16.8785
# 3 24.1779 24.0100 66.6417 -18.4336 -22.5427 -6.8745
# 4 3.7583 -9.5668 -18.4336 25.1282 1.0592 -2.8128
# 5 -20.3660 -13.5667 -22.5427 1.0592 28.1696 -0.6933
# 6 -25.3621 -16.8785 -6.8745 -2.8128 -0.6933 36.4947
#
#
#
# Elastic Compliance Matrix: (Units=1/GPa)
#
#
# Indices 1 2 3 4 5 6 
#
# 1 0.074709 -0.015901 -0.008896 -0.020775 0.041052 0.042068
# 2 -0.015901 0.014956 0.001183 0.008728 -0.003757 -0.003310
# 3 -0.008896 0.001183 0.030653 0.023774 0.017831 0.002310
# 4 -0.020775 0.008728 0.023774 0.063317 0.005805 -0.000933
# 5 0.041052 -0.003757 0.017831 0.005805 0.078210 0.032084
# 6 0.042068 -0.003310 0.002310 -0.000933 0.032084 0.056079
#
#
# Mechanical properties :
#
#
# Convention : Reuss Voigt Hill
#
# Bulk Modulus (GPa) = 13.68207 44.33314 29.00760
# Shear Modulus (GPa) = 12.83642 26.99706 19.91674
#
# Velocity S-wave (km/s) = 2.47270 3.58598 3.08006
# Velocity P-wave (km/s) = 3.83007 6.18567 5.14451
#
# Compressibility (1/GPa) = 0.07308836
#
# Stress axis : x y z
#
# Youngs Moduli (GPa) = 13.38520 66.86423 32.62318
#
# Poissons Ratio (x) = 1.06323 0.29022
# Poissons Ratio (y) = 0.21284 -0.03858
# Poissons Ratio (z) = 0.11908 -0.07908
#
# Static dielectric constant tensor:
#      x y z
#    x 3.664410 -0.665160 -0.112600 
#    y -0.665160 4.043630 -0.415160 
#    z -0.112600 -0.415160 3.795360 
# 
# 
# High freq. dielectric constant tensor:
#      x y z
#    x 1.784010 -0.047990 -0.028280 
#    y -0.047990 1.814860 -0.031460 
#    z -0.028280 -0.031460 1.816030 
# 
# From -- ./inp_files/454418.got.cif
#   From: 2010.06.25/outbox.cif.g09.slc.cpg/sg2_228_cif.got.tgz:454418.got - 2010.06.27 13:26:56.
