data_PCOD8038336
_publ_section_title
;
Structure prediction by ZEFSAII (Michael W. Deem and Ramdas Pophale) SiO2 
 PCOD8038336
Probable space group: P -1
;
_chemical_formula_sum "Si O2"
_cell_formula_units_Z 16
_cell_length_a 9.216954
_cell_length_b 24.430652
_cell_length_c 18.444134
_cell_angle_alpha 160.596531
_cell_angle_beta 34.542283
_cell_angle_gamma 143.697050
_cell_volume 773.034753
_symmetry_space_group_name_H-M "P -1"
_symmetry_group_IT_number 2
_symmetry_cell_setting 'triclinic'
loop_
_space_group_symop_operation_xyz
x,y,z
-x,-y,-z
loop_
_atom_site_type_symbol
_atom_site_label
_atom_site_fract_x
_atom_site_fract_y
_atom_site_fract_z
Si Si1 0.366647 0.640742 0.611185
Si Si2 0.254774 0.564715 0.145447
Si Si3 0.871338 0.759496 0.625287
Si Si4 0.007118 0.341715 0.850517
Si Si5 0.971349 0.882551 0.045721
Si Si6 0.494374 0.645893 0.406307
Si Si7 0.950446 0.723075 0.705629
Si Si8 0.474186 0.719245 0.106890
O O1 0.579913 0.664034 0.615488
O O2 0.197012 0.789321 0.867189
O O3 0.535873 0.641724 0.469942
O O4 0.173946 0.469634 0.485104
O O5 0.352672 0.706886 0.222465
O O6 0.087186 0.642350 0.372158
O O7 0.500000 0.500000 0.000000
O O8 0.064609 0.406697 0.990266
O O9 0.883356 0.811791 0.770220
O O10 0.916198 0.923368 0.762062
O O11 0.728678 0.231807 0.810716
O O12 0.247813 0.254452 0.613954
O O13 0.000000 0.500000 0.000000
O O14 0.859968 0.812146 0.925422
O O15 0.728238 0.858805 0.171719
O O16 0.259832 0.741985 0.604345
O O17 0.434087 0.457772 0.167076
#
# Coordination Sequence:
#
# PCOD8038336 Si02
#       8
#     2   2   2   2   2   2   2   2
#     4  11  20  37  60  87 109 154 197 234 274 341
#     4  10  21  35  58  84 115 146 183 241 288 330
#     4  12  24  37  55  90 121 145 184 247 298 323
#     4   8  16  29  55  83 102 141 193 234 258 330
#     4  11  23  38  59  82 121 154 186 233 287 347
#     4   9  15  33  59  81 104 142 201 230 266 329
#     4  11  21  37  60  82 112 155 195 230 278 344
#     4  10  17  35  56  81 107 147 195 223 274 340
#
# _framework density 20.697647
#
# number of rings (size 3 to 8) (size 9 to 14) (size 15 to 20)
#    0.000    2.000    2.500    5.625    0.000    0.500 
#    0.000    0.000    0.000    3.000    0.000    0.000 
#    0.000    0.000    0.000    0.000    0.000    0.000 
#
# Total GULP energy -198315.308660 kJ/mol
# GULP energy per Si atom -12394.706791 kJ/mol
# Density = 2.065054 g / cm^3
# Si number density = 20.697647 Si / 1000 Ang^3
#
#
#
# Elastic Constant Matrix: (Units=GPa)
#
#
# Indices 1 2 3 4 5 6 
#
# 1 101.6019 14.2712 7.5134 -7.9311 -0.5604 7.2417
# 2 14.2712 65.5830 20.1980 -13.7010 -6.2002 8.7376
# 3 7.5134 20.1980 33.4112 -3.5014 -10.3540 8.6838
# 4 -7.9311 -13.7010 -3.5014 24.9555 -4.0126 -0.4077
# 5 -0.5604 -6.2002 -10.3540 -4.0126 19.7753 -6.7814
# 6 7.2417 8.7376 8.6838 -0.4077 -6.7814 27.0947
#
#
#
# Elastic Compliance Matrix: (Units=1/GPa)
#
#
# Indices 1 2 3 4 5 6 
#
# 1 0.010431 -0.001257 -0.001059 0.002285 -0.000961 -0.002249
# 2 -0.001257 0.021360 -0.010092 0.010289 0.002604 -0.002511
# 3 -0.001059 -0.010092 0.043813 0.003128 0.018371 -0.005859
# 4 0.002285 0.010289 0.003128 0.049249 0.014751 -0.000498
# 5 -0.000961 0.002604 0.018371 0.014751 0.067631 0.010678
# 6 -0.002249 -0.002511 -0.005859 -0.000498 0.010678 0.042861
#
#
# Mechanical properties :
#
#
# Convention : Reuss Voigt Hill
#
# Bulk Modulus (GPa) = 19.69042 31.61792 25.65417
# Shear Modulus (GPa) = 18.04462 24.93931 21.49196
#
# Velocity S-wave (km/s) = 2.95586 3.47498 3.22588
# Velocity P-wave (km/s) = 4.60255 5.60446 5.12803
#
# Compressibility (1/GPa) = 0.05078613
#
# Stress axis : x y z
#
# Youngs Moduli (GPa) = 95.87143 46.81697 22.82431
#
# Poissons Ratio (x) = 0.05887 0.02418
# Poissons Ratio (y) = 0.12055 0.23034
# Poissons Ratio (z) = 0.10155 0.47247
#
# Static dielectric constant tensor:
#      x y z
#    x 4.015150 0.351800 0.000990 
#    y 0.351800 4.058950 -0.412330 
#    z 0.000990 -0.412330 3.461870 
# 
# 
# High freq. dielectric constant tensor:
#      x y z
#    x 1.814140 0.015870 0.002470 
#    y 0.015870 1.797980 -0.028400 
#    z 0.002470 -0.028400 1.778940 
# 
# From -- ./inp_files/508047.got.cif
#   From: 2010.06.25/outbox.cif.g09.slc.cpg/sg2_255_cif.got.tgz:508047.got - 2010.06.27 13:26:56.
