data_PCOD8038754
_publ_section_title
;
Structure prediction by ZEFSAII (Michael W. Deem and Ramdas Pophale) SiO2 
 PCOD8038754
Probable space group: P -1
;
_chemical_formula_sum "Si O2"
_cell_formula_units_Z 14
_cell_length_a 16.086039
_cell_length_b 12.331358
_cell_length_c 9.395915
_cell_angle_alpha 147.550230
_cell_angle_beta 132.915145
_cell_angle_gamma 63.888542
_cell_volume 688.169272
_symmetry_space_group_name_H-M "P -1"
_symmetry_group_IT_number 2
_symmetry_cell_setting 'triclinic'
loop_
_space_group_symop_operation_xyz
x,y,z
-x,-y,-z
loop_
_atom_site_type_symbol
_atom_site_label
_atom_site_fract_x
_atom_site_fract_y
_atom_site_fract_z
Si Si1 0.616453 0.997328 0.475900
Si Si2 0.456875 0.261762 0.627034
Si Si3 0.166159 0.667762 0.351369
Si Si4 0.375016 0.241832 0.199689
Si Si5 0.821221 0.045806 0.551410
Si Si6 0.569435 0.274094 0.260530
Si Si7 0.970207 0.813519 0.374203
O O1 0.627157 0.905527 0.542474
O O2 0.745214 0.052886 0.610216
O O3 0.578946 0.208929 0.677819
O O4 0.511292 0.812888 0.068096
O O5 0.374320 0.237546 0.364625
O O6 0.500000 0.500000 0.000000
O O7 0.310628 0.792475 0.678046
O O8 0.092203 0.756318 0.481436
O O9 0.125749 0.717067 0.197782
O O10 0.131786 0.411125 0.043048
O O11 0.491539 0.184368 0.214194
O O12 0.386680 0.471469 0.405363
O O13 0.253106 0.083728 0.814930
O O14 0.918177 0.924039 0.565701
O O15 0.000000 0.000000 0.500000
#
# Coordination Sequence:
#
# PCOD8038754 Si02
#       7
#     2   2   2   2   2   2   2
#     4  10  22  34  51  77 107 140 175 208 253 310
#     4  11  21  34  47  72 111 144 172 206 254 308
#     4  10  18  30  51  76 106 136 165 212 266 301
#     4  10  19  31  52  79 109 139 168 210 254 303
#     4  10  19  34  54  78 105 135 174 215 253 304
#     4  10  18  32  53  79 106 137 174 207 254 308
#     4   9  19  32  48  77 108 130 167 216 263 303
#
# _framework density 20.343831999999999
#
# number of rings (size 3 to 8) (size 9 to 14) (size 15 to 20)
#    0.000    2.000    2.857    1.714    0.000    3.429 
#    0.000    0.000    0.000    0.000    0.000   28.000 
#    0.000    0.857    0.000    0.000    0.000    0.000 
#
# Total GULP energy -173444.720049 kJ/mol
# GULP energy per Si atom -12388.908575 kJ/mol
# Density = 2.029753 g / cm^3
# Si number density = 20.343832 Si / 1000 Ang^3
#
#
#
# Elastic Constant Matrix: (Units=GPa)
#
#
# Indices 1 2 3 4 5 6 
#
# 1 159.9362 27.2850 14.6051 2.5642 1.6072 -9.9855
# 2 27.2850 45.7023 5.1653 5.0284 -7.6644 7.3272
# 3 14.6051 5.1653 43.8646 8.0791 -3.9530 5.7846
# 4 2.5642 5.0284 8.0791 30.7448 -3.6007 -9.0975
# 5 1.6072 -7.6644 -3.9530 -3.6007 31.9346 0.0952
# 6 -9.9855 7.3272 5.7846 -9.0975 0.0952 35.9627
#
#
#
# Elastic Compliance Matrix: (Units=1/GPa)
#
#
# Indices 1 2 3 4 5 6 
#
# 1 0.007721 -0.005497 -0.003045 0.002108 -0.001860 0.004292
# 2 -0.005497 0.028282 0.001503 -0.006517 0.006543 -0.009196
# 3 -0.003045 0.001503 0.026543 -0.008910 0.002818 -0.007683
# 4 0.002108 -0.006517 -0.008910 0.039933 0.001690 0.013444
# 5 -0.001860 0.006543 0.002818 0.001690 0.033523 -0.001964
# 6 0.004292 -0.009196 -0.007683 0.013444 -0.001964 0.035514
#
#
# Mechanical properties :
#
#
# Convention : Reuss Voigt Hill
#
# Bulk Modulus (GPa) = 20.63323 38.17932 29.40627
# Shear Modulus (GPa) = 24.78309 33.22493 29.00401
#
# Velocity S-wave (km/s) = 3.49407 4.04563 3.77993
# Velocity P-wave (km/s) = 5.14221 6.37422 5.79107
#
# Compressibility (1/GPa) = 0.04846551
#
# Stress axis : x y z
#
# Youngs Moduli (GPa) = 129.51151 35.35866 37.67538
#
# Poissons Ratio (x) = 0.19438 0.11473
# Poissons Ratio (y) = 0.71199 -0.05662
# Poissons Ratio (z) = 0.39440 -0.05314
#
# Static dielectric constant tensor:
#      x y z
#    x 4.351290 -0.313340 -0.034390 
#    y -0.313340 3.738020 0.416650 
#    z -0.034390 0.416650 3.438960 
# 
# 
# High freq. dielectric constant tensor:
#      x y z
#    x 1.812370 -0.016770 0.001520 
#    y -0.016770 1.787700 0.052560 
#    z 0.001520 0.052560 1.760950 
# 
# From -- ./inp_files/304434.got.cif
#   From: 2010.06.25/outbox.cif.g09.slc.cpg/sg2_153_cif.got.tgz:304434.got - 2010.06.27 13:26:56.
