data_PCOD8038179
_publ_section_title
;
Structure prediction by ZEFSAII (Michael W. Deem and Ramdas Pophale) SiO2 
 PCOD8038179
Probable space group: P -1
;
_chemical_formula_sum "Si O2"
_cell_formula_units_Z 16
_cell_length_a 18.000000
_cell_length_b 9.000000
_cell_length_c 12.000000
_cell_angle_alpha 130.000000
_cell_angle_beta 120.000000
_cell_angle_gamma 30.000000
_cell_volume 736.400153
_symmetry_space_group_name_H-M "P -1"
_symmetry_group_IT_number 2
_symmetry_cell_setting 'triclinic'
loop_
_space_group_symop_operation_xyz
x,y,z
-x,-y,-z
loop_
_atom_site_type_symbol
_atom_site_label
_atom_site_fract_x
_atom_site_fract_y
_atom_site_fract_z
Si Si1 0.458991 0.894510 0.337405
Si Si2 0.135802 0.828357 0.203153
Si Si3 0.440483 0.204156 0.871960
Si Si4 0.155825 0.197632 0.266479
Si Si5 0.129910 0.968561 0.937916
Si Si6 0.747709 0.132149 0.242959
Si Si7 0.923398 0.965007 0.488454
Si Si8 0.648113 0.900270 0.066412
O O1 0.458926 0.984921 0.255908
O O2 0.584138 0.498395 0.255951
O O3 0.500000 0.000000 0.500000
O O4 0.304444 0.060394 0.319843
O O5 0.157162 0.004427 0.253152
O O6 0.128213 0.866452 0.348501
O O7 0.276756 0.433731 0.088085
O O8 0.994166 0.971528 0.114905
O O9 0.281757 0.589322 0.909538
O O10 0.415702 0.035037 0.826684
O O11 0.517773 0.193556 0.020487
O O12 0.026293 0.583937 0.395061
O O13 0.112361 0.196286 0.110053
O O14 0.132645 0.030489 0.840922
O O15 0.781388 0.171995 0.405073
O O16 0.756789 0.882931 0.147630
O O17 0.000000 0.000000 0.500000
#
# Coordination Sequence:
#
# PCOD8038179 Si02
#       8
#     2   2   2   2   2   2   2   2
#     4  11  26  46  71 101 142 182 228 277 355 409
#     4  12  27  45  70 101 144 181 226 283 345 409
#     4  10  24  43  71  99 140 170 225 287 336 400
#     4  12  26  45  72 101 136 185 229 277 350 406
#     4  11  23  45  70 102 139 177 230 278 344 408
#     4  11  25  43  71 102 134 181 229 283 342 404
#     4  12  27  46  65 101 141 179 229 282 337 410
#     4  11  24  44  71 106 134 175 233 288 340 394
#
# _framework density 21.727318
#
# number of rings (size 3 to 8) (size 9 to 14) (size 15 to 20)
#    0.000    0.750    2.500    3.750   10.500    4.000 
#    0.000    1.250    0.000    0.000    0.000    0.000 
#    0.000    0.000    0.000    0.000    0.000    0.000 
#
# Total GULP energy -198292.838039 kJ/mol
# GULP energy per Si atom -12393.302377 kJ/mol
# Density = 2.167787 g / cm^3
# Si number density = 21.727318 Si / 1000 Ang^3
#
#
#
# Elastic Constant Matrix: (Units=GPa)
#
#
# Indices 1 2 3 4 5 6 
#
# 1 187.6632 41.9434 64.2381 -19.0277 13.0448 6.2201
# 2 41.9434 77.5649 24.2098 -19.7727 2.4061 -0.5218
# 3 64.2381 24.2098 125.7831 -25.2678 8.9102 7.9101
# 4 -19.0277 -19.7727 -25.2678 37.9691 2.4708 5.8474
# 5 13.0448 2.4061 8.9102 2.4708 47.8460 -5.8198
# 6 6.2201 -0.5218 7.9101 5.8474 -5.8198 40.9538
#
#
#
# Elastic Compliance Matrix: (Units=1/GPa)
#
#
# Indices 1 2 3 4 5 6 
#
# 1 0.007097 -0.002805 -0.002852 0.000414 -0.001384 -0.000819
# 2 -0.002805 0.016278 -0.000242 0.006996 -0.000416 -0.000378
# 3 -0.002852 -0.000242 0.011053 0.006373 -0.001950 -0.002892
# 4 0.000414 0.006996 0.006373 0.035779 -0.004342 -0.006930
# 5 -0.001384 -0.000416 -0.001950 -0.004342 0.022420 0.004387
# 6 -0.000819 -0.000378 -0.002892 -0.006930 0.004387 0.026709
#
#
# Mechanical properties :
#
#
# Convention : Reuss Voigt Hill
#
# Bulk Modulus (GPa) = 44.18683 72.42154 58.30418
# Shear Modulus (GPa) = 36.05493 42.72844 39.39169
#
# Velocity S-wave (km/s) = 4.07803 4.43942 4.26256
# Velocity P-wave (km/s) = 6.52341 7.72543 7.14973
#
# Compressibility (1/GPa) = 0.02263118
#
# Stress axis : x y z
#
# Youngs Moduli (GPa) = 140.90237 61.43144 90.46913
#
# Poissons Ratio (x) = 0.17229 0.25802
# Poissons Ratio (y) = 0.39517 0.02192
# Poissons Ratio (z) = 0.40185 0.01488
#
# Static dielectric constant tensor:
#      x y z
#    x 4.402340 0.031590 -0.030380 
#    y 0.031590 4.041190 -0.204090 
#    z -0.030380 -0.204090 4.265580 
# 
# 
# High freq. dielectric constant tensor:
#      x y z
#    x 1.883750 0.004160 0.007660 
#    y 0.004160 1.869710 -0.011920 
#    z 0.007660 -0.011920 1.863500 
# 
# From -- ./inp_files/285867.got.cif
#   From: 2010.06.25/outbox.ucp.g09.slc.cvg/sg2_143_cif.got.tgz:285867.got - 2010.06.28 11:54:26.
