data_PCOD8038825
_publ_section_title
;
Structure prediction by ZEFSAII (Michael W. Deem and Ramdas Pophale) SiO2 
 PCOD8038825
Probable space group: P -1
;
_chemical_formula_sum "Si O2"
_cell_formula_units_Z 16
_cell_length_a 13.744082
_cell_length_b 28.295466
_cell_length_c 7.575238
_cell_angle_alpha 44.795206
_cell_angle_beta 133.397297
_cell_angle_gamma 157.776869
_cell_volume 780.008145
_symmetry_space_group_name_H-M "P -1"
_symmetry_group_IT_number 2
_symmetry_cell_setting 'triclinic'
loop_
_space_group_symop_operation_xyz
x,y,z
-x,-y,-z
loop_
_atom_site_type_symbol
_atom_site_label
_atom_site_fract_x
_atom_site_fract_y
_atom_site_fract_z
Si Si1 0.062096 0.999904 0.305462
Si Si2 0.389866 0.754828 0.741482
Si Si3 0.175032 0.669766 0.309398
Si Si4 0.874999 0.840817 0.829200
Si Si5 0.891843 0.131029 0.676702
Si Si6 0.654553 0.752941 0.247013
Si Si7 0.657528 0.170064 0.213491
Si Si8 0.623409 0.386637 0.380314
O O1 0.987017 0.921635 0.582266
O O2 0.833960 0.893717 0.158842
O O3 0.338217 0.089624 0.354500
O O4 0.103644 0.095884 0.151560
O O5 0.230475 0.694127 0.522995
O O6 0.251583 0.733876 0.787652
O O7 0.438809 0.696315 0.002539
O O8 0.288329 0.652488 0.404440
O O9 0.864468 0.539428 0.244467
O O10 0.306534 0.787511 0.054999
O O11 0.581133 0.690870 0.827960
O O12 0.043788 0.850091 0.083169
O O13 0.849631 0.190034 0.422510
O O14 0.154819 0.220731 0.666992
O O15 0.636966 0.978137 0.723020
O O16 0.509539 0.654528 0.488523
#
# Coordination Sequence:
#
# PCOD8038825 Si02
#       8
#     2   2   2   2   2   2   2   2
#     4  10  18  30  59  94 118 147 195 257 300 351
#     4  12  20  37  64  90 119 160 202 247 308 352
#     4  11  23  42  60  89 127 162 202 250 303 353
#     4  10  19  34  59  89 120 157 200 249 305 349
#     4  11  22  40  61  91 126 156 198 248 311 366
#     4  11  20  35  63  93 121 153 203 255 297 357
#     4  11  25  42  59  91 130 160 191 252 308 368
#     4  10  22  39  62  92 122 156 209 260 288 349
#
# _framework density 20.512605000000001
#
# number of rings (size 3 to 8) (size 9 to 14) (size 15 to 20)
#    0.000    1.250    5.000    1.875    1.750    0.500 
#    6.750    3.125    0.000    0.000    0.000    0.000 
#    0.000    0.000    0.000    0.000    0.000    0.000 
#
# Total GULP energy -198301.052031 kJ/mol
# GULP energy per Si atom -12393.815752 kJ/mol
# Density = 2.046592 g / cm^3
# Si number density = 20.512605 Si / 1000 Ang^3
#
#
#
# Elastic Constant Matrix: (Units=GPa)
#
#
# Indices 1 2 3 4 5 6 
#
# 1 81.6850 24.6363 35.1827 9.2219 6.8294 5.8946
# 2 24.6363 64.7552 29.9887 12.5213 -0.4815 3.1158
# 3 35.1827 29.9887 97.7648 21.7576 13.1554 -2.8384
# 4 9.2219 12.5213 21.7576 28.4693 -1.5621 -6.0977
# 5 6.8294 -0.4815 13.1554 -1.5621 19.6437 9.5653
# 6 5.8946 3.1158 -2.8384 -6.0977 9.5653 21.5178
#
#
#
# Elastic Compliance Matrix: (Units=1/GPa)
#
#
# Indices 1 2 3 4 5 6 
#
# 1 0.015678 -0.003506 -0.004358 -0.001190 -0.000541 -0.004459
# 2 -0.003506 0.020721 -0.005390 -0.005117 0.008903 -0.008159
# 3 -0.004358 -0.005390 0.017723 -0.008748 -0.015410 0.008684
# 4 -0.001190 -0.005117 -0.008748 0.047111 0.004384 0.011315
# 5 -0.000541 0.008903 -0.015410 0.004384 0.080305 -0.037629
# 6 -0.004459 -0.008159 0.008684 0.011315 -0.037629 0.069955
#
#
# Mechanical properties :
#
#
# Convention : Reuss Voigt Hill
#
# Bulk Modulus (GPa) = 36.21439 47.09116 41.65277
# Shear Modulus (GPa) = 17.40902 24.21932 20.81417
#
# Velocity S-wave (km/s) = 2.91640 3.43987 3.18889
# Velocity P-wave (km/s) = 5.38828 6.22767 5.82312
#
# Compressibility (1/GPa) = 0.02761333
#
# Stress axis : x y z
#
# Youngs Moduli (GPa) = 63.78318 48.25993 56.42338
#
# Poissons Ratio (x) = 0.16918 0.24592
# Poissons Ratio (y) = 0.22360 0.30415
# Poissons Ratio (z) = 0.27800 0.26014
#
# Static dielectric constant tensor:
#      x y z
#    x 3.728110 0.107710 -0.246770 
#    y 0.107710 3.718220 0.232470 
#    z -0.246770 0.232470 3.649880 
# 
# 
# High freq. dielectric constant tensor:
#      x y z
#    x 1.791780 0.015810 -0.031990 
#    y 0.015810 1.787820 0.017890 
#    z -0.031990 0.017890 1.796620 
# 
# From -- ./inp_files/321054.got.cif
#   From: 2010.06.25/outbox.cif.g09.slc.cpg/sg2_161_cif.got.tgz:321054.got - 2010.06.27 13:26:56.
