data_PCOD8038925
_publ_section_title
;
Structure prediction by ZEFSAII (Michael W. Deem and Ramdas Pophale) SiO2 
 PCOD8038925
Probable space group: P -1
;
_chemical_formula_sum "Si O2"
_cell_formula_units_Z 16
_cell_length_a 19.579882
_cell_length_b 8.966716
_cell_length_c 9.157176
_cell_angle_alpha 61.045041
_cell_angle_beta 135.603970
_cell_angle_gamma 133.467340
_cell_volume 816.232671
_symmetry_space_group_name_H-M "P -1"
_symmetry_group_IT_number 2
_symmetry_cell_setting 'triclinic'
loop_
_space_group_symop_operation_xyz
x,y,z
-x,-y,-z
loop_
_atom_site_type_symbol
_atom_site_label
_atom_site_fract_x
_atom_site_fract_y
_atom_site_fract_z
Si Si1 0.273132 0.976563 0.103559
Si Si2 0.533063 0.578354 0.791770
Si Si3 0.884362 0.278669 0.445136
Si Si4 0.457395 0.184547 0.742027
Si Si5 0.256655 0.807474 0.455744
Si Si6 0.878179 0.966254 0.373419
Si Si7 0.651370 0.116172 0.022221
Si Si8 0.333538 0.495488 0.723244
O O1 0.222253 0.805798 0.234736
O O2 0.364493 0.197067 0.213394
O O3 0.347734 0.941823 0.116469
O O4 0.164871 0.963767 0.863603
O O5 0.478564 0.408438 0.659889
O O6 0.423539 0.579784 0.685646
O O7 0.593090 0.502704 0.029639
O O8 0.852357 0.240884 0.586191
O O9 0.782475 0.279304 0.202573
O O10 0.000000 0.500000 0.500000
O O11 0.898663 0.103640 0.482376
O O12 0.367310 0.034827 0.553255
O O13 0.409237 0.090960 0.874990
O O14 0.582896 0.224051 0.881871
O O15 0.290647 0.645402 0.615210
O O16 0.780806 0.731152 0.377061
O O17 0.000000 0.000000 0.500000
#
# Coordination Sequence:
#
# PCOD8038925 Si02
#       8
#     2   2   2   2   2   2   2   2
#     4  10  22  37  55  82 115 142 179 231 282 326
#     4  10  18  32  54  81 112 150 185 221 264 323
#     4  10  20  37  60  81 107 144 187 226 270 330
#     4  10  18  31  55  81 112 150 189 221 263 326
#     4  11  22  36  56  84 113 143 180 231 282 323
#     4  10  21  40  62  81 104 144 190 226 268 331
#     4   9  18  34  53  80 111 148 188 222 262 329
#     4  10  19  33  56  81 110 148 190 222 262 325
#
# _framework density 19.602255
#
# number of rings (size 3 to 8) (size 9 to 14) (size 15 to 20)
#    0.000    2.000    0.000    7.500    0.000    3.500 
#    0.000    7.500    0.000    0.000    0.000    0.000 
#    0.000    0.000    0.000    0.000    0.000    0.000 
#
# Total GULP energy -198359.710016 kJ/mol
# GULP energy per Si atom -12397.481876 kJ/mol
# Density = 1.955764 g / cm^3
# Si number density = 19.602255 Si / 1000 Ang^3
#
#
#
# Elastic Constant Matrix: (Units=GPa)
#
#
# Indices 1 2 3 4 5 6 
#
# 1 142.4607 49.9129 57.0934 -2.0475 7.2192 -5.1147
# 2 49.9129 96.3943 35.2176 22.0249 -0.9243 -6.8427
# 3 57.0934 35.2176 53.4114 -0.7261 -3.2207 10.0728
# 4 -2.0475 22.0249 -0.7261 28.7435 9.0566 -0.6316
# 5 7.2192 -0.9243 -3.2207 9.0566 34.6756 5.5359
# 6 -5.1147 -6.8427 10.0728 -0.6316 5.5359 28.6074
#
#
#
# Elastic Compliance Matrix: (Units=1/GPa)
#
#
# Indices 1 2 3 4 5 6 
#
# 1 0.015704 -0.002192 -0.017663 0.005068 -0.007912 0.010146
# 2 -0.002192 0.020769 -0.012946 -0.017157 0.002983 0.008178
# 3 -0.017663 -0.012946 0.051866 0.005983 0.010814 -0.026477
# 4 0.005068 -0.017157 0.005983 0.053020 -0.014595 -0.001309
# 5 -0.007912 0.002983 0.010814 -0.014595 0.037306 -0.012050
# 6 0.010146 0.008178 -0.026477 -0.001309 -0.012050 0.050352
#
#
# Mechanical properties :
#
#
# Convention : Reuss Voigt Hill
#
# Bulk Modulus (GPa) = 43.98298 64.07937 54.03118
# Shear Modulus (GPa) = 16.54547 28.40815 22.47681
#
# Velocity S-wave (km/s) = 2.90842 3.81100 3.38989
# Velocity P-wave (km/s) = 5.81076 7.21982 6.55327
#
# Compressibility (1/GPa) = 0.02273607
#
# Stress axis : x y z
#
# Youngs Moduli (GPa) = 63.67704 48.14981 19.28039
#
# Poissons Ratio (x) = 0.10555 0.34055
# Poissons Ratio (y) = 0.13959 0.24961
# Poissons Ratio (z) = 1.12472 0.62336
#
# Static dielectric constant tensor:
#      x y z
#    x 3.702170 -0.132090 0.053720 
#    y -0.132090 3.564330 0.163070 
#    z 0.053720 0.163070 3.320430 
# 
# 
# High freq. dielectric constant tensor:
#      x y z
#    x 1.773270 -0.011880 0.002560 
#    y -0.011880 1.761510 0.016380 
#    z 0.002560 0.016380 1.736060 
# 
# From -- ./inp_files/203270.got.cif
#   From: 2010.06.25/outbox.cif.g09.slc.cpg/sg2_102_cif.got.tgz:203270.got - 2010.06.27 13:26:56.
