data_PCOD8038885
_publ_section_title
;
Structure prediction by ZEFSAII (Michael W. Deem and Ramdas Pophale) SiO2 
 PCOD8038885
Probable space group: P -1
;
_chemical_formula_sum "Si O2"
_cell_formula_units_Z 16
_cell_length_a 5.346594
_cell_length_b 16.697652
_cell_length_c 8.900302
_cell_angle_alpha 67.153761
_cell_angle_beta 102.718060
_cell_angle_gamma 101.910664
_cell_volume 707.788888
_symmetry_space_group_name_H-M "P -1"
_symmetry_group_IT_number 2
_symmetry_cell_setting 'triclinic'
loop_
_space_group_symop_operation_xyz
x,y,z
-x,-y,-z
loop_
_atom_site_type_symbol
_atom_site_label
_atom_site_fract_x
_atom_site_fract_y
_atom_site_fract_z
Si Si1 0.944791 0.882739 0.936162
Si Si2 0.727843 0.344591 0.320296
Si Si3 0.242172 0.413351 0.228889
Si Si4 0.485519 0.846222 0.508206
Si Si5 0.659005 0.034240 0.852564
Si Si6 0.678328 0.385939 0.940706
Si Si7 0.149063 0.317937 0.972183
Si Si8 0.943552 0.094644 0.383073
O O1 0.137649 0.899663 0.806425
O O2 0.732524 0.949450 0.835518
O O3 0.818732 0.782202 0.985151
O O4 0.085449 0.903691 0.098695
O O5 0.536038 0.407303 0.325176
O O6 0.658210 0.251913 0.462251
O O7 0.030877 0.383800 0.354140
O O8 0.683076 0.338731 0.138320
O O9 0.217420 0.511791 0.103132
O O10 0.184115 0.346844 0.129944
O O11 0.494582 0.905134 0.316291
O O12 0.783698 0.841472 0.599741
O O13 0.308613 0.886891 0.576043
O O14 0.500000 0.000000 0.000000
O O15 0.376665 0.371371 0.861246
O O16 0.860791 0.341553 0.878106
O O17 0.000000 0.000000 0.500000
#
# Coordination Sequence:
#
# PCOD8038885 Si02
#       8
#     2   2   2   2   2   2   2   2
#     4  11  25  42  63  93 126 172 223 269 317 380
#     4  10  18  31  52  83 119 155 195 241 302 372
#     4  10  18  33  54  90 128 158 187 251 327 386
#     4  12  25  42  64  95 129 168 214 273 326 377
#     4  11  27  46  64  85 130 184 223 263 319 386
#     4  10  18  32  55  89 129 155 190 251 327 382
#     4  10  19  31  54  85 117 154 201 252 298 367
#     4  12  23  40  64  93 121 160 215 271 333 371
#
# _framework density 22.605609999999999
#
# number of rings (size 3 to 8) (size 9 to 14) (size 15 to 20)
#    0.000    1.250    1.250    8.625    5.250    0.000 
#    0.000    0.000    0.000    0.000    0.000    9.625 
#    0.000    0.000    0.000    0.000    0.000    0.000 
#
# Total GULP energy -198224.598123 kJ/mol
# GULP energy per Si atom -12389.037383 kJ/mol
# Density = 2.255416 g / cm^3
# Si number density = 22.605610 Si / 1000 Ang^3
#
#
#
# Elastic Constant Matrix: (Units=GPa)
#
#
# Indices 1 2 3 4 5 6 
#
# 1 165.7228 31.4845 18.3974 -3.5978 -22.5141 9.3322
# 2 31.4845 122.9915 33.4253 -29.9986 -3.4194 -0.8651
# 3 18.3974 33.4253 50.3798 -4.1711 -12.5721 -2.9483
# 4 -3.5978 -29.9986 -4.1711 24.4137 6.5029 -5.1589
# 5 -22.5141 -3.4194 -12.5721 6.5029 24.6013 -5.3498
# 6 9.3322 -0.8651 -2.9483 -5.1589 -5.3498 16.6504
#
#
#
# Elastic Compliance Matrix: (Units=1/GPa)
#
#
# Indices 1 2 3 4 5 6 
#
# 1 0.007720 -0.003339 0.000607 -0.005670 0.007604 -0.003706
# 2 -0.003339 0.017188 -0.010879 0.022673 -0.011299 0.004233
# 3 0.000607 -0.010879 0.031220 -0.011633 0.019669 0.007338
# 4 -0.005670 0.022673 -0.011633 0.076279 -0.024197 0.018155
# 5 0.007604 -0.011299 0.019669 -0.024197 0.065105 0.012055
# 6 -0.003706 0.004233 0.007338 0.018155 0.012055 0.073154
#
#
# Mechanical properties :
#
#
# Convention : Reuss Voigt Hill
#
# Bulk Modulus (GPa) = 34.59448 56.18984 45.39216
# Shear Modulus (GPa) = 16.25905 30.18553 23.22229
#
# Velocity S-wave (km/s) = 2.68479 3.65816 3.20860
# Velocity P-wave (km/s) = 4.99475 6.53860 5.81811
#
# Compressibility (1/GPa) = 0.02890635
#
# Stress axis : x y z
#
# Youngs Moduli (GPa) = 129.53910 58.18153 32.03096
#
# Poissons Ratio (x) = 0.19425 -0.01945
# Poissons Ratio (y) = 0.43250 0.34846
# Poissons Ratio (z) = -0.07867 0.63295
#
# Static dielectric constant tensor:
#      x y z
#    x 5.406590 0.006980 0.035190 
#    y 0.006980 4.023390 -0.206710 
#    z 0.035190 -0.206710 3.659500 
# 
# 
# High freq. dielectric constant tensor:
#      x y z
#    x 1.926440 -0.001510 -0.007890 
#    y -0.001510 1.881650 -0.036260 
#    z -0.007890 -0.036260 1.830810 
# 
# From -- ./inp_files/51187.got.cif
#   From: 2010.06.25/outbox.cif.g09.slc.cpg/sg2_26_cif.got.tgz:51187.got - 2010.06.27 13:26:56.
