data_PCOD8038543
_publ_section_title
;
Structure prediction by ZEFSAII (Michael W. Deem and Ramdas Pophale) SiO2 
 PCOD8038543
Probable space group: P -1
;
_chemical_formula_sum "Si O2"
_cell_formula_units_Z 16
_cell_length_a 9.557767
_cell_length_b 12.200407
_cell_length_c 10.740211
_cell_angle_alpha 46.400979
_cell_angle_beta 69.960976
_cell_angle_gamma 100.625368
_cell_volume 669.638158
_symmetry_space_group_name_H-M "P -1"
_symmetry_group_IT_number 2
_symmetry_cell_setting 'triclinic'
loop_
_space_group_symop_operation_xyz
x,y,z
-x,-y,-z
loop_
_atom_site_type_symbol
_atom_site_label
_atom_site_fract_x
_atom_site_fract_y
_atom_site_fract_z
Si Si1 0.334498 0.584776 0.507574
Si Si2 0.036013 0.624075 0.648224
Si Si3 0.356641 0.047726 0.005648
Si Si4 0.286353 0.438290 0.903129
Si Si5 0.122006 0.872079 0.662539
Si Si6 0.023942 0.334038 0.618136
Si Si7 0.636196 0.820366 0.830363
Si Si8 0.704520 0.272983 0.141131
O O1 0.232096 0.680167 0.491513
O O2 0.539529 0.746364 0.256988
O O3 0.202555 0.401565 0.597064
O O4 0.364496 0.511689 0.682981
O O5 0.071170 0.727427 0.682893
O O6 0.939432 0.673028 0.535240
O O7 0.896286 0.398915 0.902258
O O8 0.299192 0.059597 0.154730
O O9 0.500000 0.000000 0.000000
O O10 0.166157 0.879475 0.120093
O O11 0.413534 0.387495 0.969390
O O12 0.073530 0.230245 0.121705
O O13 0.299712 0.601407 0.848414
O O14 0.290092 0.894310 0.673177
O O15 0.203452 0.073023 0.412411
O O16 0.000000 0.500000 0.500000
O O17 0.462127 0.808664 0.841730
#
# Coordination Sequence:
#
# PCOD8038543 Si02
#       8
#     2   2   2   2   2   2   2   2
#     4  11  21  40  65  93 133 173 216 266 335 389
#     4  10  17  37  62  91 120 161 218 266 317 378
#     4  12  23  39  66  97 134 172 224 279 319 395
#     4  11  24  44  64  93 140 174 209 273 345 399
#     4  11  20  41  68  91 125 170 221 271 318 398
#     4  10  20  35  63  97 126 165 219 276 322 378
#     4  12  26  41  63 100 136 168 217 280 341 384
#     4  11  22  39  69  96 124 175 224 269 325 398
#
# _framework density 23.8935
#
# number of rings (size 3 to 8) (size 9 to 14) (size 15 to 20)
#    0.000    1.000    6.250    2.625    1.750    0.500 
#    2.250    0.625    0.000    0.000    0.000    0.000 
#    0.000    0.000    0.000    0.000    0.000    0.000 
#
# Total GULP energy -198241.298018 kJ/mol
# GULP energy per Si atom -12390.081126 kJ/mol
# Density = 2.383912 g / cm^3
# Si number density = 23.893500 Si / 1000 Ang^3
#
#
#
# Elastic Constant Matrix: (Units=GPa)
#
#
# Indices 1 2 3 4 5 6 
#
# 1 59.2265 24.6515 39.6097 4.5757 14.5897 15.4821
# 2 24.6515 58.1654 35.5487 -6.6931 0.6021 21.2200
# 3 39.6097 35.5487 158.5639 3.6074 15.6590 28.6686
# 4 4.5757 -6.6931 3.6074 31.7146 8.6841 -2.3486
# 5 14.5897 0.6021 15.6590 8.6841 29.7367 1.8663
# 6 15.4821 21.2200 28.6686 -2.3486 1.8663 31.4260
#
#
#
# Elastic Compliance Matrix: (Units=1/GPa)
#
#
# Indices 1 2 3 4 5 6 
#
# 1 0.025871 -0.007780 -0.002862 -0.002651 -0.009973 -0.004487
# 2 -0.007780 0.026879 -0.002412 0.005146 0.003791 -0.011957
# 3 -0.002862 -0.002412 0.008706 -0.000725 -0.002618 -0.004802
# 4 -0.002651 0.005146 -0.000725 0.035655 -0.008940 0.001688
# 5 -0.009973 0.003791 -0.002618 -0.008940 0.042336 0.001560
# 6 -0.004487 -0.011957 -0.004802 0.001688 0.001560 0.046519
#
#
# Mechanical properties :
#
#
# Convention : Reuss Voigt Hill
#
# Bulk Modulus (GPa) = 28.29122 52.84174 40.56648
# Shear Modulus (GPa) = 22.33569 30.31852 26.32711
#
# Velocity S-wave (km/s) = 3.06077 3.56603 3.32302
# Velocity P-wave (km/s) = 4.93532 6.25452 5.63366
#
# Compressibility (1/GPa) = 0.03534666
#
# Stress axis : x y z
#
# Youngs Moduli (GPa) = 38.65323 37.20378 114.86976
#
# Poissons Ratio (x) = 0.28946 0.32875
# Poissons Ratio (y) = 0.30074 0.27708
# Poissons Ratio (z) = 0.11062 0.08974
#
# Static dielectric constant tensor:
#      x y z
#    x 4.136290 0.409900 0.167610 
#    y 0.409900 4.361710 0.329970 
#    z 0.167610 0.329970 5.765680 
# 
# 
# High freq. dielectric constant tensor:
#      x y z
#    x 1.919770 0.020570 0.007860 
#    y 0.020570 1.929460 0.011260 
#    z 0.007860 0.011260 1.964690 
# 
# From -- ./inp_files/431047.got.cif
#   From: 2010.06.25/outbox.cif.g09.slc.cpg/sg2_216_cif.got.tgz:431047.got - 2010.06.27 13:26:56.
