data_PCOD8038775
_publ_section_title
;
Structure prediction by ZEFSAII (Michael W. Deem and Ramdas Pophale) SiO2 
 PCOD8038775
Probable space group: P -1
;
_chemical_formula_sum "Si O2"
_cell_formula_units_Z 16
_cell_length_a 12.023942
_cell_length_b 17.769840
_cell_length_c 5.163088
_cell_angle_alpha 87.067254
_cell_angle_beta 122.953022
_cell_angle_gamma 103.375406
_cell_volume 896.799226
_symmetry_space_group_name_H-M "P -1"
_symmetry_group_IT_number 2
_symmetry_cell_setting 'triclinic'
loop_
_space_group_symop_operation_xyz
x,y,z
-x,-y,-z
loop_
_atom_site_type_symbol
_atom_site_label
_atom_site_fract_x
_atom_site_fract_y
_atom_site_fract_z
Si Si1 0.981698 0.328964 0.757856
Si Si2 0.532846 0.831849 0.059459
Si Si3 0.848074 0.625993 0.514281
Si Si4 0.865434 0.465881 0.676160
Si Si5 0.506847 0.089864 0.495317
Si Si6 0.566280 0.669912 0.133386
Si Si7 0.609729 0.361022 0.586444
Si Si8 0.714130 0.221680 0.552838
O O1 0.891821 0.391772 0.564958
O O2 0.875205 0.245916 0.690680
O O3 0.071764 0.320723 0.624080
O O4 0.076380 0.351840 0.122345
O O5 0.580825 0.886362 0.857593
O O6 0.372238 0.786855 0.824691
O O7 0.558547 0.887704 0.328911
O O8 0.613754 0.764123 0.199446
O O9 0.839203 0.535278 0.449939
O O10 0.697924 0.637406 0.346966
O O11 0.733822 0.437207 0.699246
O O12 0.000000 0.500000 0.000000
O O13 0.666190 0.138839 0.658279
O O14 0.500000 0.000000 0.500000
O O15 0.457801 0.633089 0.223386
O O16 0.502202 0.642433 0.778981
O O17 0.669146 0.284806 0.667682
#
# Coordination Sequence:
#
# PCOD8038775 Si02
#       8
#     2   2   2   2   2   2   2   2
#     4  10  21  35  53  73 102 138 172 220 262 292
#     4   9  18  31  50  75 108 131 158 204 253 307
#     4  11  23  34  52  75 101 138 183 216 249 300
#     4   9  21  37  53  75 104 135 175 223 268 295
#     4  10  18  30  52  84 108 125 157 204 262 309
#     4  11  20  36  51  75 104 137 180 205 249 309
#     4  10  20  34  55  72 102 141 169 213 261 301
#     4   8  19  30  54  75 105 129 170 201 264 307
#
# _framework density 17.841228000000001
#
# number of rings (size 3 to 8) (size 9 to 14) (size 15 to 20)
#    0.750    1.500    1.250    1.500    1.750    9.000 
#    0.000    0.000    0.000    0.000    0.000    5.250 
#    0.000    0.000    0.000    0.000    0.000    0.000 
#
# Total GULP energy -198273.146507 kJ/mol
# GULP energy per Si atom -12392.071657 kJ/mol
# Density = 1.780062 g / cm^3
# Si number density = 17.841228 Si / 1000 Ang^3
#
#
#
# Elastic Constant Matrix: (Units=GPa)
#
#
# Indices 1 2 3 4 5 6 
#
# 1 76.6445 21.2166 22.1514 -5.8245 -2.7396 12.2527
# 2 21.2166 92.1396 26.0980 1.4227 9.3042 9.7276
# 3 22.1514 26.0980 59.2100 -9.7750 -6.3555 -1.5675
# 4 -5.8245 1.4227 -9.7750 15.1750 3.3753 -3.5302
# 5 -2.7396 9.3042 -6.3555 3.3753 32.3259 0.3724
# 6 12.2527 9.7276 -1.5675 -3.5302 0.3724 22.9608
#
#
#
# Elastic Compliance Matrix: (Units=1/GPa)
#
#
# Indices 1 2 3 4 5 6 
#
# 1 0.016485 -0.001407 -0.005572 0.000735 0.000728 -0.008480
# 2 -0.001407 0.014833 -0.008006 -0.007625 -0.005084 -0.007169
# 3 -0.005572 -0.008006 0.026098 0.016767 0.005090 0.010642
# 4 0.000735 -0.007625 0.016767 0.082296 -0.003232 0.016688
# 5 0.000728 -0.005084 0.005090 -0.003232 0.033786 0.001068
# 6 -0.008480 -0.007169 0.010642 0.016688 0.001068 0.054390
#
#
# Mechanical properties :
#
#
# Convention : Reuss Voigt Hill
#
# Bulk Modulus (GPa) = 36.43486 40.76955 38.60221
# Shear Modulus (GPa) = 18.72623 24.66091 21.69357
#
# Velocity S-wave (km/s) = 3.24327 3.72189 3.49079
# Velocity P-wave (km/s) = 5.87292 6.43202 6.15881
#
# Compressibility (1/GPa) = 0.02744624
#
# Stress axis : x y z
#
# Youngs Moduli (GPa) = 60.66251 67.41890 38.31677
#
# Poissons Ratio (x) = 0.09487 0.21350
# Poissons Ratio (y) = 0.08537 0.30675
# Poissons Ratio (z) = 0.33800 0.53972
#
# Static dielectric constant tensor:
#      x y z
#    x 3.161840 0.081740 -0.048430 
#    y 0.081740 3.307090 -0.045420 
#    z -0.048430 -0.045420 3.162840 
# 
# 
# High freq. dielectric constant tensor:
#      x y z
#    x 1.675250 0.012060 -0.017780 
#    y 0.012060 1.674960 -0.002260 
#    z -0.017780 -0.002260 1.679490 
# 
# From -- ./inp_files/55191.got.cif
#   From: 2010.06.25/outbox.cif.g09.slc.cpg/sg2_28_cif.got.tgz:55191.got - 2010.06.27 13:26:56.
