data_PCOD8038587
_publ_section_title
;
Structure prediction by ZEFSAII (Michael W. Deem and Ramdas Pophale) SiO2 
 PCOD8038587
Probable space group: P -1
;
_chemical_formula_sum "Si O2"
_cell_formula_units_Z 16
_cell_length_a 13.988375
_cell_length_b 10.074845
_cell_length_c 9.839999
_cell_angle_alpha 120.695063
_cell_angle_beta 39.926907
_cell_angle_gamma 108.015377
_cell_volume 756.803547
_symmetry_space_group_name_H-M "P -1"
_symmetry_group_IT_number 2
_symmetry_cell_setting 'triclinic'
loop_
_space_group_symop_operation_xyz
x,y,z
-x,-y,-z
loop_
_atom_site_type_symbol
_atom_site_label
_atom_site_fract_x
_atom_site_fract_y
_atom_site_fract_z
Si Si1 0.566300 0.587427 0.094341
Si Si2 0.987794 0.065800 0.396200
Si Si3 0.452951 0.862788 0.808807
Si Si4 0.960796 0.268712 0.908405
Si Si5 0.713017 0.805641 0.862266
Si Si6 0.732517 0.668047 0.475843
Si Si7 0.668372 0.341999 0.393139
Si Si8 0.248320 0.697313 0.111061
O O1 0.419870 0.673538 0.379100
O O2 0.500000 0.500000 0.000000
O O3 0.662166 0.713128 0.997081
O O4 0.680236 0.473949 0.006308
O O5 0.137768 0.129318 0.219712
O O6 0.849122 0.207395 0.612166
O O7 0.969180 0.914298 0.248251
O O8 0.000000 0.000000 0.500000
O O9 0.633582 0.818708 0.594189
O O10 0.386837 0.783662 0.710653
O O11 0.383556 0.794649 0.983418
O O12 0.416548 0.048937 0.948742
O O13 0.855495 0.312420 0.913504
O O14 0.103222 0.362946 0.791784
O O15 0.853431 0.308912 0.179511
O O16 0.748567 0.695704 0.634216
O O17 0.639472 0.524279 0.473433
#
# Coordination Sequence:
#
# PCOD8038587 Si02
#       8
#     2   2   2   2   2   2   2   2
#     4  12  26  41  61  93 131 168 210 256 312 382
#     4  10  17  38  65  93 124 160 212 259 311 358
#     4  11  22  39  68  95 124 165 214 263 310 359
#     4  10  21  38  68  97 123 160 211 267 310 364
#     4  12  22  40  64  97 125 171 211 250 312 380
#     4  12  21  37  68 100 125 157 217 262 310 365
#     4  11  23  42  62  91 133 165 203 265 318 369
#     4  10  19  39  67  89 126 165 204 263 309 363
#
# _framework density 21.141549999999999
#
# number of rings (size 3 to 8) (size 9 to 14) (size 15 to 20)
#    0.000    1.000    8.750    1.125    1.750    2.000 
#    0.000    0.000    0.000    1.500    0.000    0.000 
#    0.000    0.000    0.000    0.000    0.000    0.000 
#
# Total GULP energy -198297.626487 kJ/mol
# GULP energy per Si atom -12393.601655 kJ/mol
# Density = 2.109343 g / cm^3
# Si number density = 21.141550 Si / 1000 Ang^3
#
#
#
# Elastic Constant Matrix: (Units=GPa)
#
#
# Indices 1 2 3 4 5 6 
#
# 1 36.4669 9.5437 18.8169 -11.5015 -16.0002 3.0444
# 2 9.5437 112.0895 41.7761 -19.0417 -6.4154 -2.8720
# 3 18.8169 41.7761 155.7161 -15.3972 -15.5377 -8.3740
# 4 -11.5015 -19.0417 -15.3972 38.7904 7.0133 -6.9427
# 5 -16.0002 -6.4154 -15.5377 7.0133 30.0184 6.4311
# 6 3.0444 -2.8720 -8.3740 -6.9427 6.4311 22.8903
#
#
#
# Elastic Compliance Matrix: (Units=1/GPa)
#
#
# Indices 1 2 3 4 5 6 
#
# 1 0.040887 -0.000699 -0.002729 0.004827 0.021480 -0.011095
# 2 -0.000699 0.010628 -0.002269 0.004665 -0.000847 0.002249
# 3 -0.002729 -0.002269 0.007784 0.001526 0.001072 0.003088
# 4 0.004827 0.004665 0.001526 0.033419 -0.006094 0.012349
# 5 0.021480 -0.000847 0.001072 -0.006094 0.050549 -0.018621
# 6 -0.011095 0.002249 0.003088 0.012349 -0.018621 0.055551
#
#
# Mechanical properties :
#
#
# Convention : Reuss Voigt Hill
#
# Bulk Modulus (GPa) = 20.87479 49.39399 35.13439
# Shear Modulus (GPa) = 22.10617 33.94887 28.02752
#
# Velocity S-wave (km/s) = 3.23712 4.01158 3.64498
# Velocity P-wave (km/s) = 4.88541 6.69860 5.86252
#
# Compressibility (1/GPa) = 0.04790467
#
# Stress axis : x y z
#
# Youngs Moduli (GPa) = 24.45778 94.08796 128.46235
#
# Poissons Ratio (x) = 0.06575 0.35061
# Poissons Ratio (y) = 0.01709 0.29152
# Poissons Ratio (z) = 0.06675 0.21351
#
# Static dielectric constant tensor:
#      x y z
#    x 3.391990 0.168180 -0.246490 
#    y 0.168180 4.062840 0.138750 
#    z -0.246490 0.138750 4.673380 
# 
# 
# High freq. dielectric constant tensor:
#      x y z
#    x 1.786630 0.029220 -0.023960 
#    y 0.029220 1.819690 0.015990 
#    z -0.023960 0.015990 1.852200 
# 
# From -- ./inp_files/299054.got.cif
#   From: 2010.06.25/outbox.cif.g09.slc.cpg/sg2_150_cif.got.tgz:299054.got - 2010.06.27 13:26:56.
