data_PCOD8038607
_publ_section_title
;
Structure prediction by ZEFSAII (Michael W. Deem and Ramdas Pophale) SiO2 
 PCOD8038607
Probable space group: P -1
;
_chemical_formula_sum "Si O2"
_cell_formula_units_Z 14
_cell_length_a 13.039804
_cell_length_b 14.667426
_cell_length_c 6.628481
_cell_angle_alpha 106.398337
_cell_angle_beta 95.669211
_cell_angle_gamma 36.116151
_cell_volume 697.869087
_symmetry_space_group_name_H-M "P -1"
_symmetry_group_IT_number 2
_symmetry_cell_setting 'triclinic'
loop_
_space_group_symop_operation_xyz
x,y,z
-x,-y,-z
loop_
_atom_site_type_symbol
_atom_site_label
_atom_site_fract_x
_atom_site_fract_y
_atom_site_fract_z
Si Si1 0.491155 0.387123 0.177281
Si Si2 0.505759 0.765980 0.250861
Si Si3 0.887278 0.292364 0.594237
Si Si4 0.298599 0.402725 0.433279
Si Si5 0.226422 0.993509 0.684390
Si Si6 0.139623 0.862211 0.775348
Si Si7 0.493198 0.117006 0.060533
O O1 0.306353 0.586878 0.264919
O O2 0.475600 0.322415 0.319670
O O3 0.669037 0.315623 0.202327
O O4 0.516682 0.314775 0.925248
O O5 0.681755 0.621739 0.337400
O O6 0.336970 0.914698 0.449840
O O7 0.530525 0.835215 0.147224
O O8 0.873579 0.404537 0.542045
O O9 0.940823 0.167051 0.375678
O O10 0.038807 0.189288 0.727624
O O11 0.316163 0.285973 0.257220
O O12 0.175032 0.924041 0.677042
O O13 0.322398 0.978561 0.873565
O O14 0.000000 0.000000 0.000000
O O15 0.500000 0.000000 0.000000
#
# Coordination Sequence:
#
# PCOD8038607 Si02
#       7
#     2   2   2   2   2   2   2
#     4   9  19  37  55  83 120 160 201 241 290 346
#     4  10  17  39  65  80 120 155 197 249 299 347
#     4  10  22  37  58  88 129 160 198 248 298 354
#     4   8  19  37  58  84 122 149 204 239 294 351
#     4  11  22  40  57  92 125 153 205 255 288 362
#     4  12  22  38  59  89 124 168 208 242 289 354
#     4  10  21  40  68  90 113 156 205 247 305 365
#
# _framework density 20.061070000000001
#
# number of rings (size 3 to 8) (size 9 to 14) (size 15 to 20)
#    0.857    1.143    4.286    1.714    0.000    3.429 
#    0.000    2.857    0.000    1.714    0.000    0.000 
#    0.000    0.000    0.000    0.000    0.000    0.000 
#
# Total GULP energy -173455.280222 kJ/mol
# GULP energy per Si atom -12389.662873 kJ/mol
# Density = 2.001541 g / cm^3
# Si number density = 20.061070 Si / 1000 Ang^3
#
#
#
# Elastic Constant Matrix: (Units=GPa)
#
#
# Indices 1 2 3 4 5 6 
#
# 1 39.8414 36.7264 20.0786 -1.6436 11.5707 16.0226
# 2 36.7264 140.0295 35.7934 -11.5248 9.5720 2.0719
# 3 20.0786 35.7934 94.1789 -14.4301 0.4997 8.4111
# 4 -1.6436 -11.5248 -14.4301 34.4005 2.7937 -1.0288
# 5 11.5707 9.5720 0.4997 2.7937 21.8976 9.2350
# 6 16.0226 2.0719 8.4111 -1.0288 9.2350 34.4793
#
#
#
# Elastic Compliance Matrix: (Units=1/GPa)
#
#
# Indices 1 2 3 4 5 6 
#
# 1 0.047579 -0.010259 -0.005092 -0.002739 -0.013095 -0.016826
# 2 -0.010259 0.010558 -0.001883 0.002542 -0.001629 0.005104
# 3 -0.005092 -0.001883 0.013202 0.004352 0.003287 -0.001491
# 4 -0.002739 0.002542 0.004352 0.032077 -0.004829 0.002309
# 5 -0.013095 -0.001629 0.003287 -0.004829 0.058205 -0.010353
# 6 -0.016826 0.005104 -0.001491 0.002309 -0.010353 0.039721
#
#
# Mechanical properties :
#
#
# Convention : Reuss Voigt Hill
#
# Bulk Modulus (GPa) = 27.12170 51.02741 39.07455
# Shear Modulus (GPa) = 20.15302 30.25225 25.20264
#
# Velocity S-wave (km/s) = 3.17296 3.88752 3.54827
# Velocity P-wave (km/s) = 5.19350 6.75586 6.02553
#
# Compressibility (1/GPa) = 0.03687085
#
# Stress axis : x y z
#
# Youngs Moduli (GPa) = 21.01764 94.71160 75.74505
#
# Poissons Ratio (x) = 0.97160 0.38573
# Poissons Ratio (y) = 0.21561 0.14266
# Poissons Ratio (z) = 0.10703 0.17838
#
# Static dielectric constant tensor:
#      x y z
#    x 3.236660 -0.067900 0.058730 
#    y -0.067900 3.839170 -0.054890 
#    z 0.058730 -0.054890 3.572800 
# 
# 
# High freq. dielectric constant tensor:
#      x y z
#    x 1.729740 0.000110 0.007720 
#    y 0.000110 1.797170 -0.002640 
#    z 0.007720 -0.002640 1.784550 
# 
# From -- ./inp_files/96536.got.cif
#   From: 2010.06.25/outbox.cif.g09.slc.cpg/sg2_49_cif.got.tgz:96536.got - 2010.06.27 13:26:56.
