data_PCOD8038572
_publ_section_title
;
Structure prediction by ZEFSAII (Michael W. Deem and Ramdas Pophale) SiO2 
 PCOD8038572
Probable space group: P -1
;
_chemical_formula_sum "Si O2"
_cell_formula_units_Z 12
_cell_length_a 11.266605
_cell_length_b 8.845792
_cell_length_c 9.010648
_cell_angle_alpha 90.645349
_cell_angle_beta 74.330823
_cell_angle_gamma 139.014762
_cell_volume 540.067209
_symmetry_space_group_name_H-M "P -1"
_symmetry_group_IT_number 2
_symmetry_cell_setting 'triclinic'
loop_
_space_group_symop_operation_xyz
x,y,z
-x,-y,-z
loop_
_atom_site_type_symbol
_atom_site_label
_atom_site_fract_x
_atom_site_fract_y
_atom_site_fract_z
Si Si1 0.573951 0.476691 0.334132
Si Si2 0.004539 0.408232 0.144269
Si Si3 0.319298 0.606388 0.242129
Si Si4 0.244432 0.085233 0.900189
Si Si5 0.695604 0.286455 0.435448
Si Si6 0.683824 0.719602 0.835602
O O1 0.500000 0.500000 0.500000
O O2 0.725096 0.728533 0.196020
O O3 0.673090 0.415307 0.345490
O O4 0.391794 0.258986 0.282257
O O5 0.228080 0.612265 0.134285
O O6 0.870640 0.353412 0.314740
O O7 0.927737 0.167521 0.127806
O O8 0.000000 0.500000 0.000000
O O9 0.557103 0.828101 0.162553
O O10 0.244671 0.609535 0.418295
O O11 0.223853 0.346739 0.260421
O O12 0.176561 0.052389 0.095571
O O13 0.500000 0.000000 0.500000
O O14 0.500000 0.500000 0.000000
#
# Coordination Sequence:
#
# PCOD8038572 Si02
#       6
#     2   2   2   2   2   2
#     4  10  17  37  70  95 117 170 227 253 314 386
#     4  12  28  41  65 101 133 170 215 268 327 390
#     4  10  21  44  65  93 133 168 221 264 321 382
#     4  10  22  44  67  93 132 172 212 271 322 376
#     4  12  23  43  69  95 134 175 209 269 329 387
#     4   8  18  35  66  93 124 165 216 267 308 375
#
# _framework density 22.219457999999999
#
# number of rings (size 3 to 8) (size 9 to 14) (size 15 to 20)
#    0.000    2.000    5.000    0.500    7.000    2.667 
#    0.000    2.500    0.000    0.000    0.000    0.000 
#    0.000    0.000    0.000    0.000    0.000    0.000 
#
# Total GULP energy -148709.258908 kJ/mol
# GULP energy per Si atom -12392.438242 kJ/mol
# Density = 2.216889 g / cm^3
# Si number density = 22.219458 Si / 1000 Ang^3
#
#
#
# Elastic Constant Matrix: (Units=GPa)
#
#
# Indices 1 2 3 4 5 6 
#
# 1 73.5851 35.6613 13.2471 3.4317 27.8618 7.2245
# 2 35.6613 95.8763 48.7409 23.3182 6.9787 -11.7909
# 3 13.2471 48.7409 96.3760 38.1827 19.3499 2.9906
# 4 3.4317 23.3182 38.1827 48.1677 -6.3518 -1.8281
# 5 27.8618 6.9787 19.3499 -6.3518 48.4729 5.7495
# 6 7.2245 -11.7909 2.9906 -1.8281 5.7495 28.1719
#
#
#
# Elastic Compliance Matrix: (Units=1/GPa)
#
#
# Indices 1 2 3 4 5 6 
#
# 1 0.025063 -0.012335 0.007921 -0.004467 -0.015237 -0.009611
# 2 -0.012335 0.021525 -0.011353 0.000864 0.007218 0.011961
# 3 0.007921 -0.011353 0.024780 -0.016863 -0.014115 -0.007627
# 4 -0.004467 0.000864 -0.016863 0.035922 0.013542 0.002864
# 5 -0.015237 0.007218 -0.014115 0.013542 0.035514 0.002058
# 6 -0.009611 0.011961 -0.007627 0.002864 0.002058 0.043542
#
#
# Mechanical properties :
#
#
# Convention : Reuss Voigt Hill
#
# Bulk Modulus (GPa) = 25.10467 51.23733 38.17100
# Shear Modulus (GPa) = 21.62989 36.17505 28.90247
#
# Velocity S-wave (km/s) = 3.12343 4.03932 3.61054
# Velocity P-wave (km/s) = 4.93262 6.69810 5.88198
#
# Compressibility (1/GPa) = 0.03983323
#
# Stress axis : x y z
#
# Youngs Moduli (GPa) = 39.89920 46.45679 40.35446
#
# Poissons Ratio (x) = 0.57306 -0.31964
# Poissons Ratio (y) = 0.49217 0.45815
# Poissons Ratio (z) = -0.31603 0.52743
#
# Static dielectric constant tensor:
#      x y z
#    x 4.125390 -0.250540 0.060350 
#    y -0.250540 4.652230 0.916030 
#    z 0.060350 0.916030 4.464170 
# 
# 
# High freq. dielectric constant tensor:
#      x y z
#    x 1.875980 -0.008670 0.008840 
#    y -0.008670 1.860910 0.045480 
#    z 0.008840 0.045480 1.874390 
# 
# From -- ./inp_files/234205.got.cif
#   From: 2010.06.25/outbox.cif.g09.slc.cpg/sg2_118_cif.got.tgz:234205.got - 2010.06.27 13:26:56.
