data_PCOD8038309
_publ_section_title
;
Structure prediction by ZEFSAII (Michael W. Deem and Ramdas Pophale) SiO2 
 PCOD8038309
Probable space group: P -1
;
_chemical_formula_sum "Si O2"
_cell_formula_units_Z 14
_cell_length_a 18.765778
_cell_length_b 17.317298
_cell_length_c 8.346402
_cell_angle_alpha 61.420621
_cell_angle_beta 46.183600
_cell_angle_gamma 23.747066
_cell_volume 666.034098
_symmetry_space_group_name_H-M "P -1"
_symmetry_group_IT_number 2
_symmetry_cell_setting 'triclinic'
loop_
_space_group_symop_operation_xyz
x,y,z
-x,-y,-z
loop_
_atom_site_type_symbol
_atom_site_label
_atom_site_fract_x
_atom_site_fract_y
_atom_site_fract_z
Si Si1 0.799423 0.066285 0.661673
Si Si2 0.270245 0.755227 0.121502
Si Si3 0.972043 0.742504 0.838084
Si Si4 0.504407 0.952218 0.868331
Si Si5 0.315400 0.379179 0.154419
Si Si6 0.501164 0.265297 0.337731
Si Si7 0.806311 0.850172 0.341633
O O1 0.926073 0.884767 0.753117
O O2 0.996659 0.930279 0.345855
O O3 0.740904 0.201295 0.722069
O O4 0.524119 0.258219 0.836347
O O5 0.500000 0.500000 0.000000
O O6 0.317993 0.797241 0.886683
O O7 0.257458 0.485746 0.603429
O O8 0.928387 0.743859 0.082925
O O9 0.781826 0.844592 0.919369
O O10 0.697729 0.710763 0.795286
O O11 0.598919 0.944089 0.597044
O O12 0.500000 0.000000 0.000000
O O13 0.419192 0.299947 0.253788
O O14 0.037639 0.651056 0.306578
O O15 0.663327 0.059276 0.382900
#
# Coordination Sequence:
#
# PCOD8038309 Si02
#       7
#     2   2   2   2   2   2   2
#     4   9  19  37  62  92 125 162 206 255 307 369
#     4  10  17  34  66  92 120 166 208 249 310 373
#     4  11  22  40  64  95 126 163 210 259 309 364
#     4  11  24  43  65  93 124 170 209 253 316 372
#     4  10  23  44  62  90 132 164 205 260 311 370
#     4  11  23  41  65  94 125 168 207 254 317 368
#     4  12  24  42  64  92 129 162 213 259 304 371
#
# _framework density 21.019946999999998
#
# number of rings (size 3 to 8) (size 9 to 14) (size 15 to 20)
#    0.000    1.429    5.714    1.714    2.000    0.571 
#    0.000    0.714    0.000    4.286    0.000    0.000 
#    0.000    0.000    0.000    0.000    0.000    0.000 
#
# Total GULP energy -173543.212223 kJ/mol
# GULP energy per Si atom -12395.943730 kJ/mol
# Density = 2.097210 g / cm^3
# Si number density = 21.019947 Si / 1000 Ang^3
#
#
#
# Elastic Constant Matrix: (Units=GPa)
#
#
# Indices 1 2 3 4 5 6 
#
# 1 50.5860 33.3139 34.8164 -8.9073 -2.5655 23.2991
# 2 33.3139 143.7447 49.8935 9.8371 -11.7180 20.1085
# 3 34.8164 49.8935 159.9131 6.8905 -17.7475 18.3712
# 4 -8.9073 9.8371 6.8905 33.7398 7.7779 1.1938
# 5 -2.5655 -11.7180 -17.7475 7.7779 34.2513 0.2159
# 6 23.2991 20.1085 18.3712 1.1938 0.2159 30.4046
#
#
#
# Elastic Compliance Matrix: (Units=1/GPa)
#
#
# Indices 1 2 3 4 5 6 
#
# 1 0.041531 -0.005640 -0.005637 0.015848 -0.005179 -0.025275
# 2 -0.005640 0.009360 -0.000988 -0.004750 0.003353 -0.001109
# 3 -0.005637 -0.000988 0.008465 -0.003972 0.004528 -0.000018
# 4 0.015848 -0.004750 -0.003972 0.038904 -0.011280 -0.008050
# 5 -0.005179 0.003353 0.004528 -0.011280 0.034868 -0.000790
# 6 -0.025275 -0.001109 -0.000018 -0.008050 -0.000790 0.053324
#
#
# Mechanical properties :
#
#
# Convention : Reuss Voigt Hill
#
# Bulk Modulus (GPa) = 28.71330 65.58793 47.15061
# Shear Modulus (GPa) = 22.46285 35.42715 28.94500
#
# Velocity S-wave (km/s) = 3.27256 4.10982 3.71486
# Velocity P-wave (km/s) = 5.28859 7.33426 6.39377
#
# Compressibility (1/GPa) = 0.03482707
#
# Stress axis : x y z
#
# Youngs Moduli (GPa) = 24.07838 106.83247 118.13870
#
# Poissons Ratio (x) = 0.60250 0.66589
# Poissons Ratio (y) = 0.13579 0.11676
# Poissons Ratio (z) = 0.13572 0.10559
#
# Static dielectric constant tensor:
#      x y z
#    x 3.555710 0.237230 -0.355700 
#    y 0.237230 3.771550 0.161040 
#    z -0.355700 0.161040 4.389620 
# 
# 
# High freq. dielectric constant tensor:
#      x y z
#    x 1.796940 0.027660 -0.018180 
#    y 0.027660 1.817580 0.016580 
#    z -0.018180 0.016580 1.849570 
# 
# From -- ./inp_files/314940.got.cif
#   From: 2010.06.25/outbox.cif.g09.slc.cpg/sg2_158_cif.got.tgz:314940.got - 2010.06.27 13:26:56.
