data_PCOD8038576
_publ_section_title
;
Structure prediction by ZEFSAII (Michael W. Deem and Ramdas Pophale) SiO2 
 PCOD8038576
Probable space group: P -1
;
_chemical_formula_sum "Si O2"
_cell_formula_units_Z 14
_cell_length_a 9.120727
_cell_length_b 16.454865
_cell_length_c 26.970530
_cell_angle_alpha 18.243878
_cell_angle_beta 34.997897
_cell_angle_gamma 35.672949
_cell_volume 713.361907
_symmetry_space_group_name_H-M "P -1"
_symmetry_group_IT_number 2
_symmetry_cell_setting 'triclinic'
loop_
_space_group_symop_operation_xyz
x,y,z
-x,-y,-z
loop_
_atom_site_type_symbol
_atom_site_label
_atom_site_fract_x
_atom_site_fract_y
_atom_site_fract_z
Si Si1 0.137757 0.608455 0.004637
Si Si2 0.470089 0.911024 0.797555
Si Si3 0.582630 0.584393 0.143101
Si Si4 0.767118 0.582400 0.581772
Si Si5 0.571737 0.001602 0.825187
Si Si6 0.636655 0.540730 0.532377
Si Si7 0.182800 0.838482 0.754110
O O1 0.280031 0.317200 0.150730
O O2 0.827754 0.636349 0.077366
O O3 0.213396 0.829049 0.892503
O O4 0.228065 0.657787 0.895194
O O5 0.418457 0.960364 0.841601
O O6 0.529917 0.176325 0.601599
O O7 0.350667 0.553784 0.261317
O O8 0.664405 0.319235 0.242012
O O9 0.475989 0.833821 0.992991
O O10 0.639714 0.504272 0.611703
O O11 0.073732 0.472413 0.561115
O O12 0.702621 0.898941 0.421175
O O13 0.506613 0.310602 0.678418
O O14 0.878689 0.903782 0.787370
#
# Coordination Sequence:
#
# PCOD8038576 Si02
#       7
#     2   2   2   2   2   2   2
#     4  10  20  34  64  84 112 147 187 229 283 330
#     4  11  19  37  61  83 113 151 185 227 278 344
#     4  11  20  37  60  89 110 141 192 243 269 323
#     4  10  22  37  60  82 113 149 193 229 274 329
#     4  10  20  35  63  84 111 146 191 227 279 333
#     4  10  22  39  57  81 112 158 187 221 277 344
#     4  10  17  38  59  87 109 146 190 231 276 334
#
# _framework density 19.625381000000001
#
# number of rings (size 3 to 8) (size 9 to 14) (size 15 to 20)
#    0.000    1.714    4.286    1.714    2.000    0.571 
#    0.000    1.429    6.286    0.000    0.000    0.000 
#    0.000    0.000    0.000    0.000    0.000    0.000 
#
# Total GULP energy -173660.130144 kJ/mol
# GULP energy per Si atom -12404.295010 kJ/mol
# Density = 1.958071 g / cm^3
# Si number density = 19.625381 Si / 1000 Ang^3
#
#
#
# Elastic Constant Matrix: (Units=GPa)
#
#
# Indices 1 2 3 4 5 6 
#
# 1 85.3553 25.1189 9.7555 -1.9679 -7.2072 23.0972
# 2 25.1189 63.3769 48.0356 6.3600 1.0686 23.8944
# 3 9.7555 48.0356 98.1518 -5.7041 7.3458 9.8601
# 4 -1.9679 6.3600 -5.7041 42.2380 4.1680 0.5871
# 5 -7.2072 1.0686 7.3458 4.1680 28.8662 -10.5053
# 6 23.0972 23.8944 9.8601 0.5871 -10.5053 22.3650
#
#
#
# Elastic Compliance Matrix: (Units=1/GPa)
#
#
# Indices 1 2 3 4 5 6 
#
# 1 0.016503 0.000070 0.000528 0.001394 -0.003071 -0.018830
# 2 0.000070 0.051698 -0.019210 -0.008102 -0.015446 -0.053879
# 3 0.000528 -0.019210 0.018759 0.005352 -0.000595 0.011288
# 4 0.001394 -0.008102 0.005352 0.025999 -0.003557 0.002503
# 5 -0.003071 -0.015446 -0.000595 -0.003557 0.051145 0.044053
# 6 -0.018830 -0.053879 0.011288 0.002503 0.044053 0.137373
#
#
# Mechanical properties :
#
#
# Convention : Reuss Voigt Hill
#
# Bulk Modulus (GPa) = 20.10631 45.85601 32.98116
# Shear Modulus (GPa) = 14.07335 29.62544 21.84939
#
# Velocity S-wave (km/s) = 2.68078 3.88950 3.34027
# Velocity P-wave (km/s) = 4.45526 6.60207 5.63191
#
# Compressibility (1/GPa) = 0.04973563
#
# Stress axis : x y z
#
# Youngs Moduli (GPa) = 60.59491 19.34304 53.30750
#
# Poissons Ratio (x) = -0.00136 -0.02814
# Poissons Ratio (y) = -0.00426 1.02406
# Poissons Ratio (z) = -0.03198 0.37159
#
# Static dielectric constant tensor:
#      x y z
#    x 3.663120 0.223520 -0.037140 
#    y 0.223520 3.249700 -0.282860 
#    z -0.037140 -0.282860 3.650850 
# 
# 
# High freq. dielectric constant tensor:
#      x y z
#    x 1.768330 0.023260 0.002780 
#    y 0.023260 1.734860 -0.027860 
#    z 0.002780 -0.027860 1.771500 
# 
# From -- ./inp_files/155248.got.cif
#   From: 2010.06.25/outbox.cif.g09.slc.cpg/sg2_78_cif.got.tgz:155248.got - 2010.06.27 13:26:56.
