data_PCOD8038164
_publ_section_title
;
Structure prediction by ZEFSAII (Michael W. Deem and Ramdas Pophale) SiO2 
 PCOD8038164
Probable space group: P -1
;
_chemical_formula_sum "Si O2"
_cell_formula_units_Z 14
_cell_length_a 21.000000
_cell_length_b 12.000000
_cell_length_c 15.000000
_cell_angle_alpha 150.000000
_cell_angle_beta 160.000000
_cell_angle_gamma 30.000000
_cell_volume 615.533390
_symmetry_space_group_name_H-M "P -1"
_symmetry_group_IT_number 2
_symmetry_cell_setting 'triclinic'
loop_
_space_group_symop_operation_xyz
x,y,z
-x,-y,-z
loop_
_atom_site_type_symbol
_atom_site_label
_atom_site_fract_x
_atom_site_fract_y
_atom_site_fract_z
Si Si1 0.725269 0.017667 0.955090
Si Si2 0.897738 0.137245 0.546573
Si Si3 0.301541 0.579074 0.235995
Si Si4 0.257624 0.198354 0.783883
Si Si5 0.367755 0.058285 0.638571
Si Si6 0.819772 0.471106 0.384818
Si Si7 0.871208 0.601125 0.741495
O O1 0.576223 0.992371 0.817936
O O2 0.728327 0.857590 0.760671
O O3 0.688300 0.293719 0.074405
O O4 0.942960 0.895452 0.190431
O O5 0.821506 0.412012 0.611578
O O6 0.736039 0.020310 0.292008
O O7 0.000000 0.000000 0.500000
O O8 0.500000 0.500000 0.500000
O O9 0.274331 0.845960 0.351739
O O10 0.333413 0.394788 0.068691
O O11 0.104511 0.577917 0.030083
O O12 0.390591 0.093550 0.799532
O O13 0.039653 0.321114 0.547195
O O14 0.234725 0.304465 0.594785
O O15 0.798625 0.559043 0.519305
#
# Coordination Sequence:
#
# PCOD8038164 Si02
#       7
#     2   2   2   2   2   2   2
#     4  11  24  41  65  97 130 172 218 266 323 388
#     4  11  19  44  71  90 125 173 223 262 317 388
#     4  11  24  42  64  98 131 162 218 274 330 379
#     4  10  24  43  67  95 131 172 212 273 328 379
#     4  12  26  41  64 101 135 168 213 271 328 386
#     4  10  23  45  69  90 128 177 225 261 314 391
#     4  11  23  43  70  95 127 175 221 263 322 388
#
# _framework density 22.744501
#
# number of rings (size 3 to 8) (size 9 to 14) (size 15 to 20)
#    0.000    1.143    4.286    3.857    0.000    6.857 
#    2.571    0.000    0.000    0.000    0.000    0.000 
#    0.000    0.000    0.000    0.000    0.000    0.000 
#
# Total GULP energy -173536.633896 kJ/mol
# GULP energy per Si atom -12395.473850 kJ/mol
# Density = 2.269273 g / cm^3
# Si number density = 22.744501 Si / 1000 Ang^3
#
#
#
# Elastic Constant Matrix: (Units=GPa)
#
#
# Indices 1 2 3 4 5 6 
#
# 1 137.2219 64.6192 47.2977 23.5683 9.5957 -10.1548
# 2 64.6192 148.0557 57.8328 46.8941 6.2293 11.4208
# 3 47.2977 57.8328 105.4665 44.7065 6.0486 1.5493
# 4 23.5683 46.8941 44.7065 48.8984 5.4407 5.5429
# 5 9.5957 6.2293 6.0486 5.4407 24.9977 11.5454
# 6 -10.1548 11.4208 1.5493 5.5429 11.5454 58.9569
#
#
#
# Elastic Compliance Matrix: (Units=1/GPa)
#
#
# Indices 1 2 3 4 5 6 
#
# 1 0.010458 -0.003983 -0.002996 0.001608 -0.004180 0.003319
# 2 -0.003983 0.011640 -0.001275 -0.007997 0.001839 -0.002516
# 3 -0.002996 -0.001275 0.017001 -0.012926 -0.000069 0.000513
# 4 0.001608 -0.007997 -0.012926 0.039674 -0.003748 -0.000830
# 5 -0.004180 0.001839 -0.000069 -0.003748 0.046523 -0.009833
# 6 0.003319 -0.002516 0.000513 -0.000830 -0.009833 0.020011
#
#
# Mechanical properties :
#
#
# Convention : Reuss Voigt Hill
#
# Bulk Modulus (GPa) = 44.26965 81.13817 62.70391
# Shear Modulus (GPa) = 29.52526 41.30355 35.41440
#
# Velocity S-wave (km/s) = 3.60686 4.26605 3.95023
# Velocity P-wave (km/s) = 6.07059 7.74705 6.95949
#
# Compressibility (1/GPa) = 0.02258884
#
# Stress axis : x y z
#
# Youngs Moduli (GPa) = 95.62311 85.90708 58.82155
#
# Poissons Ratio (x) = 0.34220 0.17624
# Poissons Ratio (y) = 0.38090 0.07502
# Poissons Ratio (z) = 0.28651 0.10957
#
# Static dielectric constant tensor:
#      x y z
#    x 4.321120 0.027700 0.106770 
#    y 0.027700 4.427150 0.505120 
#    z 0.106770 0.505120 4.417560 
# 
# 
# High freq. dielectric constant tensor:
#      x y z
#    x 1.911730 -0.007970 0.009630 
#    y -0.007970 1.916920 0.029650 
#    z 0.009630 0.029650 1.907910 
# 
# From -- ./inp_files/541198.got.cif
#   From: 2010.06.25/outbox.ucp.g09.slc.cvg/sg2_271_cif.got.tgz:541198.got - 2010.06.28 11:54:26.
