data_PCOD8038871
_publ_section_title
;
Structure prediction by ZEFSAII (Michael W. Deem and Ramdas Pophale) SiO2 
 PCOD8038871
Probable space group: P -1
;
_chemical_formula_sum "Si O2"
_cell_formula_units_Z 10
_cell_length_a 13.260678
_cell_length_b 6.418233
_cell_length_c 19.051532
_cell_angle_alpha 106.014379
_cell_angle_beta 152.213700
_cell_angle_gamma 59.212426
_cell_volume 582.533765
_symmetry_space_group_name_H-M "P -1"
_symmetry_group_IT_number 2
_symmetry_cell_setting 'triclinic'
loop_
_space_group_symop_operation_xyz
x,y,z
-x,-y,-z
loop_
_atom_site_type_symbol
_atom_site_label
_atom_site_fract_x
_atom_site_fract_y
_atom_site_fract_z
Si Si1 0.670871 0.238820 0.747286
Si Si2 0.973122 0.301641 0.818435
Si Si3 0.259935 0.284422 0.409565
Si Si4 0.753742 0.294153 0.090264
Si Si5 0.168207 0.631818 0.007323
O O1 0.765788 0.319096 0.746315
O O2 0.371160 0.329690 0.553573
O O3 0.650852 0.400604 0.818829
O O4 0.872021 0.917650 0.854822
O O5 0.815826 0.488242 0.672339
O O6 0.135551 0.392382 0.967957
O O7 0.183430 0.997893 0.891164
O O8 0.006406 0.285434 0.271775
O O9 0.500000 0.000000 0.500000
O O10 0.500000 0.500000 0.000000
O O11 0.683057 0.390321 0.974889
#
# Coordination Sequence:
#
# PCOD8038871 Si02
#       5
#     2   2   2   2   2
#     4  10  18  31  51  82 109 129 165 219 258 303
#     4  10  18  32  56  76 104 138 171 208 264 302
#     4  11  19  33  53  83 105 130 175 216 253 304
#     4  10  22  37  53  74 105 142 176 210 252 308
#     4   9  19  32  51  78 109 134 168 209 259 309
#
# _framework density 17.166387
#
# number of rings (size 3 to 8) (size 9 to 14) (size 15 to 20)
#    0.000    2.000    6.000    1.200    0.000    3.200 
#    0.000    1.000    0.000    2.400    0.000    0.000 
#    0.000    0.000    0.000    0.000    0.000    0.000 
#
# Total GULP energy -123992.327072 kJ/mol
# GULP energy per Si atom -12399.232707 kJ/mol
# Density = 1.712732 g / cm^3
# Si number density = 17.166387 Si / 1000 Ang^3
#
#
#
# Elastic Constant Matrix: (Units=GPa)
#
#
# Indices 1 2 3 4 5 6 
#
# 1 57.1443 57.2653 45.6371 -0.0811 11.8621 1.2763
# 2 57.2653 131.2557 74.3595 16.5849 4.2028 8.0349
# 3 45.6371 74.3595 114.0371 33.0792 5.7080 -6.4468
# 4 -0.0811 16.5849 33.0792 36.5926 -4.8852 -3.4510
# 5 11.8621 4.2028 5.7080 -4.8852 22.7132 -3.4427
# 6 1.2763 8.0349 -6.4468 -3.4510 -3.4427 34.3944
#
#
#
# Elastic Compliance Matrix: (Units=1/GPa)
#
#
# Indices 1 2 3 4 5 6 
#
# 1 0.044321 -0.013588 -0.012823 0.015902 -0.014094 -0.000689
# 2 -0.013588 0.017047 -0.005301 -0.002841 0.004003 -0.004356
# 3 -0.012823 -0.005301 0.022918 -0.018144 -0.001370 0.004052
# 4 0.015902 -0.002841 -0.018144 0.046179 0.007018 0.002009
# 5 -0.014094 0.004003 -0.001370 0.007018 0.053315 0.005372
# 6 -0.000689 -0.004356 0.004052 0.002009 0.005372 0.031616
#
#
# Mechanical properties :
#
#
# Convention : Reuss Voigt Hill
#
# Bulk Modulus (GPa) = 47.93157 72.99568 60.46362
# Shear Modulus (GPa) = 17.49634 27.08506 22.29070
#
# Velocity S-wave (km/s) = 3.19599 3.97646 3.60739
# Velocity P-wave (km/s) = 6.44992 7.98108 7.25600
#
# Compressibility (1/GPa) = 0.02086308
#
# Stress axis : x y z
#
# Youngs Moduli (GPa) = 22.56291 58.66003 43.63393
#
# Poissons Ratio (x) = 0.79706 0.55951
# Poissons Ratio (y) = 0.30658 0.23129
# Poissons Ratio (z) = 0.28932 0.31093
#
# Static dielectric constant tensor:
#      x y z
#    x 2.903680 -0.064290 -0.419330 
#    y -0.064290 3.009680 -0.064090 
#    z -0.419330 -0.064090 2.993030 
# 
# 
# High freq. dielectric constant tensor:
#      x y z
#    x 1.647440 0.022250 -0.016220 
#    y 0.022250 1.668320 0.020440 
#    z -0.016220 0.020440 1.649780 
# 
# From -- ./inp_files/155783.got.cif
#   From: 2010.06.25/outbox.cif.g09.slc.cpg/sg2_78_cif.got.tgz:155783.got - 2010.06.27 13:26:56.
