data_PCOD8038652
_publ_section_title
;
Structure prediction by ZEFSAII (Michael W. Deem and Ramdas Pophale) SiO2 
 PCOD8038652
Probable space group: P -1
;
_chemical_formula_sum "Si O2"
_cell_formula_units_Z 16
_cell_length_a 9.217194
_cell_length_b 15.393814
_cell_length_c 16.055080
_cell_angle_alpha 38.937504
_cell_angle_beta 37.423590
_cell_angle_gamma 38.185033
_cell_volume 781.012303
_symmetry_space_group_name_H-M "P -1"
_symmetry_group_IT_number 2
_symmetry_cell_setting 'triclinic'
loop_
_space_group_symop_operation_xyz
x,y,z
-x,-y,-z
loop_
_atom_site_type_symbol
_atom_site_label
_atom_site_fract_x
_atom_site_fract_y
_atom_site_fract_z
Si Si1 0.054021 0.584973 0.537821
Si Si2 0.549706 0.328593 0.784498
Si Si3 0.854191 0.643823 0.769146
Si Si4 0.947115 0.164428 0.867683
Si Si5 0.808970 0.318065 0.283390
Si Si6 0.317443 0.278215 0.542790
Si Si7 0.322401 0.679068 0.967643
Si Si8 0.969044 0.678410 0.994459
O O1 0.252710 0.666274 0.381282
O O2 0.194856 0.417239 0.559846
O O3 0.991372 0.575838 0.669425
O O4 0.787174 0.678092 0.536624
O O5 0.722594 0.214342 0.862654
O O6 0.386764 0.500309 0.767389
O O7 0.347227 0.264622 0.888387
O O8 0.536749 0.751309 0.820362
O O9 0.000881 0.732004 0.683989
O O10 0.886016 0.505129 0.920043
O O11 0.225162 0.152778 0.713131
O O12 0.835135 0.293949 0.894200
O O13 0.000000 0.000000 0.000000
O O14 0.635319 0.220777 0.437909
O O15 0.992236 0.274482 0.150989
O O16 0.098176 0.757348 0.940150
O O17 0.500000 0.500000 0.000000
#
# Coordination Sequence:
#
# PCOD8038652 Si02
#       8
#     2   2   2   2   2   2   2   2
#     4   9  17  29  49  77 106 138 173 220 266 312
#     4   9  18  32  50  75 111 142 172 217 270 312
#     4  10  18  28  49  81 111 134 170 219 271 314
#     4  11  22  37  56  78 108 144 178 216 266 321
#     4  10  18  29  51  80 109 137 171 225 270 307
#     4   9  18  32  49  72 106 140 175 217 268 315
#     4  10  19  32  55  80 103 134 179 221 255 308
#     4  10  18  29  50  79 109 137 173 219 266 311
#
# _framework density 20.486234
#
# number of rings (size 3 to 8) (size 9 to 14) (size 15 to 20)
#    0.000    2.250    0.000    6.750    0.000    5.500 
#    0.000    0.625    0.000    9.750    0.000    0.000 
#    0.000    0.000    0.000    0.000    0.000    0.000 
#
# Total GULP energy -198263.070640 kJ/mol
# GULP energy per Si atom -12391.441915 kJ/mol
# Density = 2.043961 g / cm^3
# Si number density = 20.486234 Si / 1000 Ang^3
#
#
#
# Elastic Constant Matrix: (Units=GPa)
#
#
# Indices 1 2 3 4 5 6 
#
# 1 163.9272 14.6714 72.4183 15.2170 -32.8767 -3.4596
# 2 14.6714 19.4322 17.2586 1.6008 0.1274 1.1946
# 3 72.4183 17.2586 109.0221 13.1422 -18.9621 -1.6870
# 4 15.2170 1.6008 13.1422 26.9329 -4.3210 5.6535
# 5 -32.8767 0.1274 -18.9621 -4.3210 45.1540 15.0163
# 6 -3.4596 1.1946 -1.6870 5.6535 15.0163 17.4270
#
#
#
# Elastic Compliance Matrix: (Units=1/GPa)
#
#
# Indices 1 2 3 4 5 6 
#
# 1 0.009765 -0.002763 -0.004898 -0.001381 0.005929 -0.003007
# 2 -0.002763 0.061598 -0.009078 0.001851 -0.005245 -0.001731
# 3 -0.004898 -0.009078 0.014676 -0.003589 0.002153 0.000380
# 4 -0.001381 0.001851 -0.003589 0.046281 0.010027 -0.024402
# 5 0.005929 -0.005245 0.002153 0.010027 0.040428 -0.036343
# 6 -0.003007 -0.001731 0.000380 -0.024402 -0.036343 0.096173
#
#
# Mechanical properties :
#
#
# Convention : Reuss Voigt Hill
#
# Bulk Modulus (GPa) = 19.02550 55.67532 37.35041
# Shear Modulus (GPa) = 15.62889 30.43832 23.03361
#
# Velocity S-wave (km/s) = 2.76506 3.85878 3.35676
# Velocity P-wave (km/s) = 4.41601 6.86218 5.77021
#
# Compressibility (1/GPa) = 0.05256104
#
# Stress axis : x y z
#
# Youngs Moduli (GPa) = 102.40547 16.23428 68.13836
#
# Poissons Ratio (x) = 0.04485 0.33375
# Poissons Ratio (y) = 0.28292 0.61858
# Poissons Ratio (z) = 0.50159 0.14738
#
# Static dielectric constant tensor:
#      x y z
#    x 4.420590 -0.074860 -0.558910 
#    y -0.074860 3.004730 0.382620 
#    z -0.558910 0.382620 4.003090 
# 
# 
# High freq. dielectric constant tensor:
#      x y z
#    x 1.822150 0.001390 -0.017310 
#    y 0.001390 1.722250 0.036240 
#    z -0.017310 0.036240 1.805010 
# 
# From -- ./inp_files/257976.got.cif
#   From: 2010.06.25/outbox.cif.g09.slc.cpg/sg2_129_cif.got.tgz:257976.got - 2010.06.27 13:26:56.
