data_PCOD8038258
_publ_section_title
;
Structure prediction by ZEFSAII (Michael W. Deem and Ramdas Pophale) SiO2 
 PCOD8038258
Probable space group: P -1
;
_chemical_formula_sum "Si O2"
_cell_formula_units_Z 16
_cell_length_a 29.969555
_cell_length_b 9.971774
_cell_length_c 13.654773
_cell_angle_alpha 134.737143
_cell_angle_beta 24.691160
_cell_angle_gamma 148.496220
_cell_volume 842.607233
_symmetry_space_group_name_H-M "P -1"
_symmetry_group_IT_number 2
_symmetry_cell_setting 'triclinic'
loop_
_space_group_symop_operation_xyz
x,y,z
-x,-y,-z
loop_
_atom_site_type_symbol
_atom_site_label
_atom_site_fract_x
_atom_site_fract_y
_atom_site_fract_z
Si Si1 0.051823 0.279094 0.039798
Si Si2 0.654199 0.010551 0.375713
Si Si3 0.381529 0.168493 0.436541
Si Si4 0.726116 0.520469 0.944532
Si Si5 0.852604 0.363788 0.492354
Si Si6 0.323008 0.516131 0.746140
Si Si7 0.909963 0.572018 0.182518
Si Si8 0.078087 0.891612 0.185228
O O1 0.213681 0.500508 0.886300
O O2 0.046914 0.326338 0.960819
O O3 0.940191 0.289079 0.320367
O O4 0.000000 0.000000 0.000000
O O5 0.725116 0.303021 0.418958
O O6 0.631352 0.843187 0.426605
O O7 0.489085 0.826090 0.560243
O O8 0.782483 0.081345 0.086857
O O9 0.329202 0.312122 0.584128
O O10 0.274657 0.870066 0.451268
O O11 0.557641 0.353355 0.152229
O O12 0.768548 0.359297 0.748465
O O13 0.843316 0.806199 0.798002
O O14 0.734750 0.553096 0.061691
O O15 0.967860 0.665725 0.371604
O O16 0.973237 0.804295 0.252574
O O17 0.000000 0.500000 0.000000
#
# Coordination Sequence:
#
# PCOD8038258 Si02
#       8
#     2   2   2   2   2   2   2   2
#     4  12  23  36  59  91 120 158 198 245 297 355
#     4  10  17  34  61  86 112 150 204 246 286 341
#     4  11  19  39  61  87 118 157 203 248 288 354
#     4  11  23  37  60  90 123 159 193 252 301 343
#     4  12  23  37  58  91 123 155 204 241 297 361
#     4  11  22  36  59  86 124 157 198 242 298 356
#     4  10  19  35  61  85 114 149 202 249 286 339
#     4  11  18  36  61  88 116 153 199 253 293 341
#
# _framework density 18.988681
#
# number of rings (size 3 to 8) (size 9 to 14) (size 15 to 20)
#    0.000    1.000    7.500    3.000    0.000    1.000 
#    0.000    0.000    0.000    0.000    0.000    3.500 
#    0.000    0.000    0.000    0.000    0.000    0.000 
#
# Total GULP energy -198233.903600 kJ/mol
# GULP energy per Si atom -12389.618975 kJ/mol
# Density = 1.894546 g / cm^3
# Si number density = 18.988681 Si / 1000 Ang^3
#
#
#
# Elastic Constant Matrix: (Units=GPa)
#
#
# Indices 1 2 3 4 5 6 
#
# 1 73.4994 24.4788 45.0510 4.7379 -16.9639 0.7231
# 2 24.4788 93.3839 56.1055 -11.3290 -4.2334 3.6029
# 3 45.0510 56.1055 106.0385 10.7271 -8.1444 12.0661
# 4 4.7379 -11.3290 10.7271 35.1307 3.9107 -4.6613
# 5 -16.9639 -4.2334 -8.1444 3.9107 28.2679 -2.0525
# 6 0.7231 3.6029 12.0661 -4.6613 -2.0525 23.5078
#
#
#
# Elastic Compliance Matrix: (Units=1/GPa)
#
#
# Indices 1 2 3 4 5 6 
#
# 1 0.021462 -0.000295 -0.008544 -0.000987 0.010838 0.004521
# 2 -0.000295 0.018713 -0.011537 0.010457 -0.001784 0.004981
# 3 -0.008544 -0.011537 0.021502 -0.010608 0.000001 -0.011109
# 4 -0.000987 0.010457 -0.010608 0.037352 -0.006472 0.010714
# 5 0.010838 -0.001784 0.000001 -0.006472 0.042682 0.002383
# 6 0.004521 0.004981 -0.011109 0.010714 0.002383 0.049671
#
#
# Mechanical properties :
#
#
# Convention : Reuss Voigt Hill
#
# Bulk Modulus (GPa) = 47.79265 58.24359 53.01812
# Shear Modulus (GPa) = 20.91099 27.20037 24.05568
#
# Velocity S-wave (km/s) = 3.32209 3.78888 3.56314
# Velocity P-wave (km/s) = 6.31970 7.06259 6.70145
#
# Compressibility (1/GPa) = 0.02092372
#
# Stress axis : x y z
#
# Youngs Moduli (GPa) = 46.59504 53.43849 46.50702
#
# Poissons Ratio (x) = 0.01579 0.39735
# Poissons Ratio (y) = 0.01377 0.53656
# Poissons Ratio (z) = 0.39810 0.61653
#
# Static dielectric constant tensor:
#      x y z
#    x 3.181070 0.407510 -0.118280 
#    y 0.407510 3.854600 -0.270200 
#    z -0.118280 -0.270200 3.525380 
# 
# 
# High freq. dielectric constant tensor:
#      x y z
#    x 1.711740 0.016840 -0.009620 
#    y 0.016840 1.748270 -0.022550 
#    z -0.009620 -0.022550 1.727620 
# 
# From -- ./inp_files/544883.got.cif
#   From: 2010.06.25/outbox.cif.g09.slc.cpg/sg2_273_cif.got.tgz:544883.got - 2010.06.27 13:26:56.
