data_PCOD8038999
_publ_section_title
;
Structure prediction by ZEFSAII (Michael W. Deem and Ramdas Pophale) SiO2 
 PCOD8038999
Probable space group: P -1
;
_chemical_formula_sum "Si O2"
_cell_formula_units_Z 16
_cell_length_a 14.481064
_cell_length_b 9.344761
_cell_length_c 12.830608
_cell_angle_alpha 72.458467
_cell_angle_beta 148.510919
_cell_angle_gamma 108.240274
_cell_volume 859.259399
_symmetry_space_group_name_H-M "P -1"
_symmetry_group_IT_number 2
_symmetry_cell_setting 'triclinic'
loop_
_space_group_symop_operation_xyz
x,y,z
-x,-y,-z
loop_
_atom_site_type_symbol
_atom_site_label
_atom_site_fract_x
_atom_site_fract_y
_atom_site_fract_z
Si Si1 0.664919 0.186388 0.695138
Si Si2 0.000563 0.696140 0.683636
Si Si3 0.301162 0.449584 0.696638
Si Si4 0.827194 0.400595 0.646742
Si Si5 0.701294 0.461881 0.094906
Si Si6 0.932213 0.083872 0.125178
Si Si7 0.727002 0.891675 0.698938
Si Si8 0.157511 0.243214 0.953118
O O1 0.711179 0.348752 0.647851
O O2 0.455245 0.165361 0.524985
O O3 0.717846 0.060630 0.693089
O O4 0.779504 0.179591 0.911713
O O5 0.844351 0.690932 0.446692
O O6 0.941869 0.563671 0.741715
O O7 0.184010 0.662227 0.814378
O O8 0.024815 0.856800 0.729525
O O9 0.297966 0.584025 0.578548
O O10 0.244097 0.513552 0.737870
O O11 0.495698 0.394209 0.901486
O O12 0.957880 0.276603 0.774205
O O13 0.729711 0.622712 0.029186
O O14 0.107740 0.110620 0.217940
O O15 0.855278 0.908704 0.095488
O O16 0.746460 0.782017 0.839533
#
# Coordination Sequence:
#
# PCOD8038999 Si02
#       8
#     2   2   2   2   2   2   2   2
#     4  10  18  32  52  75 104 141 178 205 244 299
#     4   9  22  33  53  77 111 130 167 212 263 304
#     4   9  20  36  60  76  99 128 179 214 258 303
#     4   9  17  34  53  77  98 133 178 210 243 305
#     4  10  19  38  60  75  96 135 174 219 253 302
#     4  11  20  36  48  79 113 138 163 211 259 303
#     4  10  19  31  52  76 105 140 175 210 245 294
#     4  10  18  33  58  75 103 136 179 209 246 302
#
# _framework density 18.620685999999999
#
# number of rings (size 3 to 8) (size 9 to 14) (size 15 to 20)
#    0.750    1.500    2.500    1.875    0.000    1.500 
#    0.000    1.250    0.000    1.500    0.000    0.000 
#    0.000    0.000    0.000    0.000    0.000    0.000 
#
# Total GULP energy -198314.365849 kJ/mol
# GULP energy per Si atom -12394.647866 kJ/mol
# Density = 1.857830 g / cm^3
# Si number density = 18.620686 Si / 1000 Ang^3
#
#
#
# Elastic Constant Matrix: (Units=GPa)
#
#
# Indices 1 2 3 4 5 6 
#
# 1 41.8037 19.8583 20.9012 8.7027 6.6004 -11.4553
# 2 19.8583 40.0731 14.9088 3.9906 0.0739 -17.7964
# 3 20.9012 14.9088 114.6112 10.8552 4.5527 -19.3239
# 4 8.7027 3.9906 10.8552 15.8803 2.3868 -8.0537
# 5 6.6004 0.0739 4.5527 2.3868 24.1230 2.1096
# 6 -11.4553 -17.7964 -19.3239 -8.0537 2.1096 24.3351
#
#
#
# Elastic Compliance Matrix: (Units=1/GPa)
#
#
# Indices 1 2 3 4 5 6 
#
# 1 0.037019 -0.016048 -0.003177 -0.013091 -0.008145 -0.000460
# 2 -0.016048 0.044561 0.001005 0.011965 0.000278 0.029767
# 3 -0.003177 0.001005 0.010628 -0.001893 -0.001581 0.007189
# 4 -0.013091 0.011965 -0.001893 0.084544 -0.007058 0.029676
# 5 -0.008145 0.000278 -0.001581 -0.007058 0.045656 -0.011180
# 6 -0.000460 0.029767 0.007189 0.029676 -0.011180 0.079144
#
#
# Mechanical properties :
#
#
# Convention : Reuss Voigt Hill
#
# Bulk Modulus (GPa) = 17.93223 34.20272 26.06747
# Shear Modulus (GPa) = 14.02202 22.25566 18.13884
#
# Velocity S-wave (km/s) = 2.74712 3.46093 3.12448
# Velocity P-wave (km/s) = 4.43998 5.86334 5.20059
#
# Compressibility (1/GPa) = 0.05576553
#
# Stress axis : x y z
#
# Youngs Moduli (GPa) = 27.01339 22.44132 94.09012
#
# Poissons Ratio (x) = 0.36014 0.29897
# Poissons Ratio (y) = 0.43351 -0.09452
# Poissons Ratio (z) = 0.08583 -0.02254
#
# Static dielectric constant tensor:
#      x y z
#    x 3.173920 0.117230 0.032300 
#    y 0.117230 3.135550 0.008300 
#    z 0.032300 0.008300 3.546750 
# 
# 
# High freq. dielectric constant tensor:
#      x y z
#    x 1.702500 0.006970 0.008510 
#    y 0.006970 1.692580 0.002050 
#    z 0.008510 0.002050 1.735910 
# 
# From -- ./inp_files/316961.got.cif
#   From: 2010.06.25/outbox.cif.g09.slc.cpg/sg2_159_cif.got.tgz:316961.got - 2010.06.27 13:26:56.
