data_PCOD8038465
_publ_section_title
;
Structure prediction by ZEFSAII (Michael W. Deem and Ramdas Pophale) SiO2 
 PCOD8038465
Probable space group: P -1
;
_chemical_formula_sum "Si O2"
_cell_formula_units_Z 16
_cell_length_a 9.034140
_cell_length_b 16.277623
_cell_length_c 8.718154
_cell_angle_alpha 82.248586
_cell_angle_beta 86.268097
_cell_angle_gamma 138.934694
_cell_volume 806.644885
_symmetry_space_group_name_H-M "P -1"
_symmetry_group_IT_number 2
_symmetry_cell_setting 'triclinic'
loop_
_space_group_symop_operation_xyz
x,y,z
-x,-y,-z
loop_
_atom_site_type_symbol
_atom_site_label
_atom_site_fract_x
_atom_site_fract_y
_atom_site_fract_z
Si Si1 0.658672 0.728201 0.474813
Si Si2 0.813852 0.299277 0.608925
Si Si3 0.797861 0.830089 0.773734
Si Si4 0.689044 0.913339 0.287046
Si Si5 0.808697 0.977760 0.941302
Si Si6 0.421864 0.392361 0.926152
Si Si7 0.237268 0.538786 0.348846
Si Si8 0.040234 0.242811 0.748144
O O1 0.662733 0.754059 0.645405
O O2 0.742586 0.839085 0.329852
O O3 0.397018 0.590723 0.476537
O O4 0.840616 0.732834 0.427572
O O5 0.553768 0.167754 0.590143
O O6 0.805200 0.381022 0.686770
O O7 0.992793 0.386326 0.432988
O O8 0.885768 0.256879 0.728533
O O9 0.725050 0.892001 0.816652
O O10 0.716581 0.733681 0.934441
O O11 0.079213 0.939369 0.705219
O O12 0.627844 0.906170 0.113454
O O13 0.880827 0.101229 0.862019
O O14 0.000000 0.000000 0.000000
O O15 0.645020 0.446117 0.816448
O O16 0.248247 0.354859 0.821565
O O17 0.500000 0.500000 0.000000
#
# Coordination Sequence:
#
# PCOD8038465 Si02
#       8
#     2   2   2   2   2   2   2   2
#     4  10  20  34  65  90 115 155 214 254 289 356
#     4  10  22  38  66  84 125 168 204 234 306 384
#     4  11  20  35  64  93 119 155 204 260 306 343
#     4  10  19  38  60  85 121 163 196 245 307 364
#     4  10  17  36  60  87 123 154 200 255 304 349
#     4  11  24  40  65  92 121 154 211 266 295 346
#     4   9  22  45  62  84 124 172 198 246 310 362
#     4  11  21  37  62  93 115 162 206 251 299 360
#
# _framework density 19.835246000000001
#
# number of rings (size 3 to 8) (size 9 to 14) (size 15 to 20)
#    0.000    1.750    5.000    1.875    3.500    1.500 
#    0.000    1.250    8.250    0.000    0.000    0.000 
#    0.000    0.000    0.000    0.000    0.000    0.000 
#
# Total GULP energy -198275.944589 kJ/mol
# GULP energy per Si atom -12392.246537 kJ/mol
# Density = 1.979010 g / cm^3
# Si number density = 19.835246 Si / 1000 Ang^3
#
#
#
# Elastic Constant Matrix: (Units=GPa)
#
#
# Indices 1 2 3 4 5 6 
#
# 1 111.6233 41.0166 40.3557 -13.5777 -2.5193 -7.0035
# 2 41.0166 86.2150 39.5612 -4.2615 -13.1606 4.7088
# 3 40.3557 39.5612 86.0538 0.7611 -8.6868 6.3075
# 4 -13.5777 -4.2615 0.7611 44.3826 1.8712 -4.7119
# 5 -2.5193 -13.1606 -8.6868 1.8712 24.6594 -10.3510
# 6 -7.0035 4.7088 6.3075 -4.7119 -10.3510 28.1334
#
#
#
# Elastic Compliance Matrix: (Units=1/GPa)
#
#
# Indices 1 2 3 4 5 6 
#
# 1 0.013063 -0.004250 -0.004674 0.004278 -0.000592 0.005510
# 2 -0.004250 0.017024 -0.005136 0.000111 0.006723 -0.000264
# 3 -0.004674 -0.005136 0.016609 -0.002687 0.001131 -0.004061
# 4 0.004278 0.000111 -0.002687 0.024507 0.000124 0.005799
# 5 -0.000592 0.006723 0.001131 0.000124 0.051844 0.017569
# 6 0.005510 -0.000264 -0.004061 0.005799 0.017569 0.045306
#
#
# Mechanical properties :
#
#
# Convention : Reuss Voigt Hill
#
# Bulk Modulus (GPa) = 53.83171 58.41768 56.12470
# Shear Modulus (GPa) = 24.67129 30.29899 27.48514
#
# Velocity S-wave (km/s) = 3.53060 3.91261 3.72650
# Velocity P-wave (km/s) = 6.61955 7.06588 6.84636
#
# Compressibility (1/GPa) = 0.01857641
#
# Stress axis : x y z
#
# Youngs Moduli (GPa) = 76.55382 58.74150 60.20731
#
# Poissons Ratio (x) = 0.24964 0.28138
# Poissons Ratio (y) = 0.32534 0.30924
# Poissons Ratio (z) = 0.35778 0.30171
#
# Static dielectric constant tensor:
#      x y z
#    x 3.520580 -0.018320 -0.248140 
#    y -0.018320 3.925870 -0.039320 
#    z -0.248140 -0.039320 3.948840 
# 
# 
# High freq. dielectric constant tensor:
#      x y z
#    x 1.752960 -0.003930 -0.007520 
#    y -0.003930 1.768900 -0.023540 
#    z -0.007520 -0.023540 1.772610 
# 
# From -- ./inp_files/206892.got.cif
#   From: 2010.06.25/outbox.cif.g09.slc.cpg/sg2_104_cif.got.tgz:206892.got - 2010.06.27 13:26:56.
