data_PCOD8038206
_publ_section_title
;
Structure prediction by ZEFSAII (Michael W. Deem and Ramdas Pophale) SiO2 
 PCOD8038206
Probable space group: P -1
;
_chemical_formula_sum "Si O2"
_cell_formula_units_Z 16
_cell_length_a 18.000000
_cell_length_b 9.000000
_cell_length_c 12.000000
_cell_angle_alpha 100.000000
_cell_angle_beta 140.000000
_cell_angle_gamma 50.000000
_cell_volume 729.599496
_symmetry_space_group_name_H-M "P -1"
_symmetry_group_IT_number 2
_symmetry_cell_setting 'triclinic'
loop_
_space_group_symop_operation_xyz
x,y,z
-x,-y,-z
loop_
_atom_site_type_symbol
_atom_site_label
_atom_site_fract_x
_atom_site_fract_y
_atom_site_fract_z
Si Si1 0.384464 0.387289 0.054861
Si Si2 0.247524 0.827819 0.607914
Si Si3 0.946292 0.094320 0.126242
Si Si4 0.297097 0.463618 0.708560
Si Si5 0.030047 0.215872 0.038192
Si Si6 0.280306 0.210480 0.244237
Si Si7 0.386456 0.057125 0.102350
Si Si8 0.074160 0.269398 0.611004
O O1 0.580876 0.273284 0.273205
O O2 0.413967 0.205826 0.136565
O O3 0.230441 0.661837 0.969499
O O4 0.343393 0.377932 0.879938
O O5 0.325084 0.615033 0.751351
O O6 0.113882 0.095614 0.545568
O O7 0.123804 0.867231 0.380596
O O8 0.012352 0.161042 0.131397
O O9 0.905808 0.981693 0.000284
O O10 0.076839 0.638396 0.460651
O O11 0.412358 0.246999 0.718606
O O12 0.195648 0.169817 0.221919
O O13 0.827564 0.516943 0.820617
O O14 0.273378 0.157962 0.102130
O O15 0.500000 0.000000 0.500000
O O16 0.270436 0.098948 0.876623
O O17 0.000000 0.500000 0.500000
#
# Coordination Sequence:
#
# PCOD8038206 Si02
#       8
#     2   2   2   2   2   2   2   2
#     4  12  24  45  67 101 141 182 227 275 340 418
#     4  12  27  40  70 102 140 184 226 277 339 412
#     4  11  25  46  72  97 138 182 226 285 345 399
#     4  12  26  41  66 104 144 175 226 274 339 413
#     4  10  26  49  70 101 133 177 235 290 340 402
#     4  11  27  47  74 102 135 175 237 288 343 399
#     4  12  26  44  70 102 139 185 223 284 341 410
#     4  12  24  44  69  98 140 186 225 271 342 415
#
# _framework density 21.929839999999999
#
# number of rings (size 3 to 8) (size 9 to 14) (size 15 to 20)
#    0.000    0.500    5.000    1.875    7.000    1.000 
#    0.000    2.500    0.000    0.000    0.000    0.000 
#    0.000    0.000    0.000    0.000    0.000    0.000 
#
# Total GULP energy -198356.516614 kJ/mol
# GULP energy per Si atom -12397.282288 kJ/mol
# Density = 2.187993 g / cm^3
# Si number density = 21.929840 Si / 1000 Ang^3
#
#
#
# Elastic Constant Matrix: (Units=GPa)
#
#
# Indices 1 2 3 4 5 6 
#
# 1 29.7998 21.1798 23.5315 -17.8775 11.5937 11.1141
# 2 21.1798 137.4938 20.5262 -21.2677 9.7712 1.4341
# 3 23.5315 20.5262 64.7963 -9.4321 18.5452 1.2984
# 4 -17.8775 -21.2677 -9.4321 24.8499 -7.3854 1.3415
# 5 11.5937 9.7712 18.5452 -7.3854 30.3204 -4.3379
# 6 11.1141 1.4341 1.2984 1.3415 -4.3379 37.5058
#
#
#
# Elastic Compliance Matrix: (Units=1/GPa)
#
#
# Indices 1 2 3 4 5 6 
#
# 1 0.120939 -0.001778 -0.027160 0.072219 -0.017103 -0.039391
# 2 -0.001778 0.008601 -0.001282 0.005613 0.000066 0.000049
# 3 -0.027160 -0.001282 0.025672 -0.013399 -0.007186 0.006857
# 4 0.072219 0.005613 -0.013399 0.092593 -0.002211 -0.024719
# 5 -0.017103 0.000066 -0.007186 -0.002211 0.044870 0.010583
# 6 -0.039391 0.000049 0.006857 -0.024719 0.010583 0.040204
#
#
# Mechanical properties :
#
#
# Convention : Reuss Voigt Hill
#
# Bulk Modulus (GPa) = 10.55165 40.28497 25.41831
# Shear Modulus (GPa) = 11.76722 29.65871 20.71297
#
# Velocity S-wave (km/s) = 2.31894 3.68154 3.07662
# Velocity P-wave (km/s) = 3.46295 6.03999 4.92308
#
# Compressibility (1/GPa) = 0.09477188
#
# Stress axis : x y z
#
# Youngs Moduli (GPa) = 8.26865 116.26185 38.95370
#
# Poissons Ratio (x) = 0.20668 1.05799
# Poissons Ratio (y) = 0.01470 0.04994
# Poissons Ratio (z) = 0.22458 0.14905
#
# Static dielectric constant tensor:
#      x y z
#    x 3.326510 0.160580 0.773360 
#    y 0.160580 4.336420 -0.297540 
#    z 0.773360 -0.297540 3.351720 
# 
# 
# High freq. dielectric constant tensor:
#      x y z
#    x 1.872740 0.001320 0.010400 
#    y 0.001320 1.886260 -0.009330 
#    z 0.010400 -0.009330 1.840660 
# 
# From -- ./inp_files/270269.got.cif
#   From: 2010.06.25/outbox.ucp.g09.slc.cvg/sg2_136_cif.got.tgz:270269.got - 2010.06.28 11:54:26.
