data_PCOD8038264
_publ_section_title
;
Structure prediction by ZEFSAII (Michael W. Deem and Ramdas Pophale) SiO2 
 PCOD8038264
Probable space group: P -1
;
_chemical_formula_sum "Si O2"
_cell_formula_units_Z 16
_cell_length_a 8.972323
_cell_length_b 19.343305
_cell_length_c 11.650265
_cell_angle_alpha 32.351522
_cell_angle_beta 115.857013
_cell_angle_gamma 127.270048
_cell_volume 847.400577
_symmetry_space_group_name_H-M "P -1"
_symmetry_group_IT_number 2
_symmetry_cell_setting 'triclinic'
loop_
_space_group_symop_operation_xyz
x,y,z
-x,-y,-z
loop_
_atom_site_type_symbol
_atom_site_label
_atom_site_fract_x
_atom_site_fract_y
_atom_site_fract_z
Si Si1 0.326755 0.018657 0.954216
Si Si2 0.989866 0.346637 0.327628
Si Si3 0.235187 0.449356 0.463304
Si Si4 0.502388 0.640893 0.457754
Si Si5 0.133132 0.969513 0.175452
Si Si6 0.728475 0.471921 0.028054
Si Si7 0.086476 0.195740 0.957500
Si Si8 0.668054 0.580695 0.091186
O O1 0.370642 0.186414 0.717193
O O2 0.301874 0.981350 0.134689
O O3 0.500000 0.000000 0.000000
O O4 0.141883 0.911366 0.966793
O O5 0.794685 0.347534 0.233399
O O6 0.077778 0.451496 0.323478
O O7 0.962004 0.185651 0.573015
O O8 0.134779 0.403588 0.190377
O O9 0.340058 0.600998 0.360488
O O10 0.377103 0.432709 0.446011
O O11 0.137092 0.310395 0.710144
O O12 0.403623 0.565224 0.650002
O O13 0.193897 0.099341 0.108000
O O14 0.000000 0.000000 0.000000
O O15 0.752134 0.556600 0.036480
O O16 0.508403 0.389565 0.031623
O O17 0.160381 0.276933 0.989560
#
# Coordination Sequence:
#
# PCOD8038264 Si02
#       8
#     2   2   2   2   2   2   2   2
#     4  11  22  33  53  95 124 143 174 238 321 343
#     4  11  20  38  61  89 116 153 196 241 282 348
#     4  10  17  34  61  90 112 145 194 239 288 341
#     4  10  20  32  61  91 116 147 186 244 291 344
#     4  10  19  36  62  86 118 148 189 231 300 354
#     4  10  24  38  59  82 119 161 199 235 279 331
#     4  10  20  38  62  85 114 154 192 238 292 352
#     4  10  22  41  59  83 116 156 206 233 279 342
#
# _framework density 18.881271000000002
#
# number of rings (size 3 to 8) (size 9 to 14) (size 15 to 20)
#    0.000    1.750    5.000    0.750    1.750    1.000 
#    0.000    5.000    0.000    0.000    0.000    0.000 
#    0.000    0.000    0.000    0.000    0.000    0.000 
#
# Total GULP energy -198287.999284 kJ/mol
# GULP energy per Si atom -12392.999955 kJ/mol
# Density = 1.883830 g / cm^3
# Si number density = 18.881271 Si / 1000 Ang^3
#
#
#
# Elastic Constant Matrix: (Units=GPa)
#
#
# Indices 1 2 3 4 5 6 
#
# 1 107.8221 45.6715 35.5904 3.6086 -6.2720 -1.6854
# 2 45.6715 127.9932 48.7708 -5.2942 -14.0173 -3.9938
# 3 35.5904 48.7708 101.6455 -0.2967 -7.0849 -2.6919
# 4 3.6086 -5.2942 -0.2967 27.9710 -0.7143 -6.1327
# 5 -6.2720 -14.0173 -7.0849 -0.7143 18.8548 0.8813
# 6 -1.6854 -3.9938 -2.6919 -6.1327 0.8813 21.4832
#
#
#
# Elastic Compliance Matrix: (Units=1/GPa)
#
#
# Indices 1 2 3 4 5 6 
#
# 1 0.011560 -0.003244 -0.002484 -0.002268 0.000445 -0.000673
# 2 -0.003244 0.011250 -0.003789 0.003097 0.005884 0.002005
# 3 -0.002484 -0.003789 0.012616 -0.000102 0.001065 0.000609
# 4 -0.002268 0.003097 -0.000102 0.039208 0.002459 0.011477
# 5 0.000445 0.005884 0.001065 0.002459 0.058072 -0.000418
# 6 -0.000673 0.002005 0.000609 0.011477 -0.000418 0.050238
#
#
# Mechanical properties :
#
#
# Convention : Reuss Voigt Hill
#
# Bulk Modulus (GPa) = 61.01449 66.39182 63.70315
# Shear Modulus (GPa) = 24.10294 27.49032 25.79663
#
# Velocity S-wave (km/s) = 3.57676 3.81984 3.70030
# Velocity P-wave (km/s) = 7.03155 7.39554 7.21584
#
# Compressibility (1/GPa) = 0.01638955
#
# Stress axis : x y z
#
# Youngs Moduli (GPa) = 86.50404 88.89224 79.26261
#
# Poissons Ratio (x) = 0.28840 0.19692
# Poissons Ratio (y) = 0.28065 0.30036
# Poissons Ratio (z) = 0.21491 0.33685
#
# Static dielectric constant tensor:
#      x y z
#    x 3.423710 0.231400 -0.456720 
#    y 0.231400 3.321000 0.671760 
#    z -0.456720 0.671760 2.679700 
# 
# 
# High freq. dielectric constant tensor:
#      x y z
#    x 1.732900 -0.002680 -0.013500 
#    y -0.002680 1.729610 0.000090 
#    z -0.013500 0.000090 1.719300 
# 
# From -- ./inp_files/405298.got.cif
#   From: 2010.06.25/outbox.cif.g09.slc.cpg/sg2_203_cif.got.tgz:405298.got - 2010.06.27 13:26:56.
