data_PCOD8038616
_publ_section_title
;
Structure prediction by ZEFSAII (Michael W. Deem and Ramdas Pophale) SiO2 
 PCOD8038616
Probable space group: P -1
;
_chemical_formula_sum "Si O2"
_cell_formula_units_Z 16
_cell_length_a 11.808984
_cell_length_b 8.328703
_cell_length_c 11.794992
_cell_angle_alpha 119.460574
_cell_angle_beta 90.697150
_cell_angle_gamma 121.952063
_cell_volume 796.632315
_symmetry_space_group_name_H-M "P -1"
_symmetry_group_IT_number 2
_symmetry_cell_setting 'triclinic'
loop_
_space_group_symop_operation_xyz
x,y,z
-x,-y,-z
loop_
_atom_site_type_symbol
_atom_site_label
_atom_site_fract_x
_atom_site_fract_y
_atom_site_fract_z
Si Si1 0.464691 0.497032 0.342052
Si Si2 0.643336 0.052630 0.164515
Si Si3 0.059296 0.739430 0.242548
Si Si4 0.809498 0.436643 0.965108
Si Si5 0.253887 0.291671 0.453349
Si Si6 0.552879 0.401446 0.878479
Si Si7 0.598623 0.937085 0.890167
Si Si8 0.080500 0.474962 0.593880
O O1 0.352368 0.483596 0.421069
O O2 0.631327 0.666353 0.438299
O O3 0.460967 0.566135 0.240544
O O4 0.396296 0.224156 0.253246
O O5 0.565887 0.156711 0.148641
O O6 0.802256 0.258558 0.275263
O O7 0.551384 0.880201 0.207306
O O8 0.639655 0.905325 0.006701
O O9 0.130359 0.618966 0.159956
O O10 0.020294 0.672250 0.350998
O O11 0.158279 0.018593 0.325127
O O12 0.925858 0.640118 0.122122
O O13 0.717959 0.516276 0.944881
O O14 0.711574 0.206458 0.957858
O O15 0.150390 0.351348 0.514357
O O16 0.500000 0.500000 0.000000
O O17 0.000000 0.500000 0.500000
#
# Coordination Sequence:
#
# PCOD8038616 Si02
#       8
#     2   2   2   2   2   2   2   2
#     4  11  23  42  67  93 124 162 216 266 312 364
#     4  10  21  38  63  94 122 162 212 262 309 362
#     4  11  24  45  67  89 130 172 210 254 311 388
#     4  10  23  42  68  98 121 164 214 264 318 365
#     4  11  26  45  64  90 127 176 212 251 315 382
#     4  11  24  37  68 101 127 153 209 279 319 352
#     4  10  17  40  68  87 122 159 214 268 303 366
#     4  12  27  42  62  91 133 175 208 249 313 389
#
# _framework density 20.084548000000002
#
# number of rings (size 3 to 8) (size 9 to 14) (size 15 to 20)
#    0.000    1.250    5.000    0.375    5.250    1.000 
#    0.000    1.875    0.000    0.000    0.000    0.000 
#    0.000    0.000    0.000    0.000    0.000    0.000 
#
# Total GULP energy -198272.309310 kJ/mol
# GULP energy per Si atom -12392.019332 kJ/mol
# Density = 2.003883 g / cm^3
# Si number density = 20.084548 Si / 1000 Ang^3
#
#
#
# Elastic Constant Matrix: (Units=GPa)
#
#
# Indices 1 2 3 4 5 6 
#
# 1 113.9909 39.9998 53.6617 -13.7835 12.4222 13.5374
# 2 39.9998 103.8413 53.7392 -19.7562 16.3826 7.5089
# 3 53.6617 53.7392 116.4389 -5.3706 19.2559 -0.3132
# 4 -13.7835 -19.7562 -5.3706 47.4619 3.8812 -0.3098
# 5 12.4222 16.3826 19.2559 3.8812 33.3141 -2.0768
# 6 13.5374 7.5089 -0.3132 -0.3098 -2.0768 23.7133
#
#
#
# Elastic Compliance Matrix: (Units=1/GPa)
#
#
# Indices 1 2 3 4 5 6 
#
# 1 0.012946 -0.000931 -0.005049 0.002937 -0.002250 -0.007321
# 2 -0.000931 0.014989 -0.005438 0.005719 -0.004836 -0.004636
# 3 -0.005049 -0.005438 0.013835 -0.001894 -0.002939 0.004505
# 4 0.002937 0.005719 -0.001894 0.024547 -0.005904 -0.003709
# 5 -0.002250 -0.004836 -0.002939 -0.005904 0.035986 0.005851
# 6 -0.007321 -0.004636 0.004505 -0.003709 0.005851 0.048341
#
#
# Mechanical properties :
#
#
# Convention : Reuss Voigt Hill
#
# Bulk Modulus (GPa) = 52.81087 69.89694 61.35391
# Shear Modulus (GPa) = 27.81024 33.35591 30.58307
#
# Velocity S-wave (km/s) = 3.72514 4.07968 3.90643
# Velocity P-wave (km/s) = 6.69728 7.55438 7.13870
#
# Compressibility (1/GPa) = 0.01893549
#
# Stress axis : x y z
#
# Youngs Moduli (GPa) = 77.24572 66.71612 72.27904
#
# Poissons Ratio (x) = 0.06210 0.36491
# Poissons Ratio (y) = 0.07190 0.39303
# Poissons Ratio (z) = 0.38999 0.36278
#
# Static dielectric constant tensor:
#      x y z
#    x 4.112410 0.178890 -0.281760 
#    y 0.178890 3.659230 -0.062590 
#    z -0.281760 -0.062590 4.034490 
# 
# 
# High freq. dielectric constant tensor:
#      x y z
#    x 1.777920 0.014110 -0.001860 
#    y 0.014110 1.787180 -0.003170 
#    z -0.001860 -0.003170 1.797800 
# 
# From -- ./inp_files/417764.got.cif
#   From: 2010.06.25/outbox.cif.g09.slc.cpg/sg2_209_cif.got.tgz:417764.got - 2010.06.27 13:26:56.
