data_PCOD8038324
_publ_section_title
;
Structure prediction by ZEFSAII (Michael W. Deem and Ramdas Pophale) SiO2 
 PCOD8038324
Probable space group: P -1
;
_chemical_formula_sum "Si O2"
_cell_formula_units_Z 16
_cell_length_a 9.008707
_cell_length_b 11.326843
_cell_length_c 11.345782
_cell_angle_alpha 55.498165
_cell_angle_beta 108.571066
_cell_angle_gamma 93.400497
_cell_volume 893.481338
_symmetry_space_group_name_H-M "P -1"
_symmetry_group_IT_number 2
_symmetry_cell_setting 'triclinic'
loop_
_space_group_symop_operation_xyz
x,y,z
-x,-y,-z
loop_
_atom_site_type_symbol
_atom_site_label
_atom_site_fract_x
_atom_site_fract_y
_atom_site_fract_z
Si Si1 0.131003 0.049617 0.923667
Si Si2 0.912226 0.598692 0.589881
Si Si3 0.625360 0.817955 0.968978
Si Si4 0.838555 0.707077 0.875413
Si Si5 0.996189 0.158969 0.356385
Si Si6 0.267866 0.822360 0.901066
Si Si7 0.832254 0.650074 0.290198
Si Si8 0.169313 0.564671 0.126245
O O1 0.067308 0.216534 0.777337
O O2 0.163178 0.953659 0.869313
O O3 0.295738 0.044360 0.042684
O O4 0.000000 0.000000 0.000000
O O5 0.796253 0.646103 0.423410
O O6 0.811218 0.508297 0.699540
O O7 0.972804 0.733872 0.591777
O O8 0.072152 0.501489 0.640814
O O9 0.692015 0.774276 0.880862
O O10 0.437607 0.863139 0.887449
O O11 0.672336 0.685772 0.150243
O O12 0.796560 0.561412 0.889760
O O13 0.871382 0.827068 0.718812
O O14 0.993753 0.658874 0.021463
O O15 0.823988 0.207489 0.225465
O O16 0.000000 0.000000 0.500000
O O17 0.291523 0.677071 0.070191
#
# Coordination Sequence:
#
# PCOD8038324 Si02
#       8
#     2   2   2   2   2   2   2   2
#     4  10  19  34  55  77 105 141 185 216 257 319
#     4  10  17  35  53  81 104 140 187 221 254 310
#     4  10  21  34  51  83 113 136 176 221 280 315
#     4   9  17  34  54  77 104 140 182 224 255 315
#     4  10  21  35  58  80 106 138 187 223 262 320
#     4  11  21  33  53  84 109 139 174 228 275 316
#     4   9  20  31  56  77 110 139 175 227 259 312
#     4   9  17  31  55  76 102 141 186 217 255 312
#
# _framework density 17.907482000000002
#
# number of rings (size 3 to 8) (size 9 to 14) (size 15 to 20)
#    0.750    1.500    1.250    4.125    0.000    0.500 
#    0.000    1.250    0.000    0.000    0.000    0.000 
#    0.000    0.000    0.000    0.000    0.000    0.000 
#
# Total GULP energy -198256.316815 kJ/mol
# GULP energy per Si atom -12391.019801 kJ/mol
# Density = 1.786672 g / cm^3
# Si number density = 17.907482 Si / 1000 Ang^3
#
#
#
# Elastic Constant Matrix: (Units=GPa)
#
#
# Indices 1 2 3 4 5 6 
#
# 1 83.7466 29.0220 27.0426 6.9833 -11.5288 0.2548
# 2 29.0220 90.2259 39.3729 3.1691 -13.1622 -3.8922
# 3 27.0426 39.3729 106.2539 1.4149 -20.3983 -0.8536
# 4 6.9833 3.1691 1.4149 31.5005 5.4789 -6.7042
# 5 -11.5288 -13.1622 -20.3983 5.4789 21.7844 -1.5650
# 6 0.2548 -3.8922 -0.8536 -6.7042 -1.5650 21.4845
#
#
#
# Elastic Compliance Matrix: (Units=1/GPa)
#
#
# Indices 1 2 3 4 5 6 
#
# 1 0.014612 -0.003211 -0.001462 -0.004145 0.005343 -0.001717
# 2 -0.003211 0.014461 -0.003768 -0.000699 0.003870 0.002572
# 3 -0.001462 -0.003768 0.013033 -0.001527 0.009542 0.000071
# 4 -0.004145 -0.000699 -0.001527 0.037253 -0.012656 0.010565
# 5 0.005343 0.003870 0.009542 -0.012656 0.063309 0.001679
# 6 -0.001717 0.002572 0.000071 0.010565 0.001679 0.050453
#
#
# Mechanical properties :
#
#
# Convention : Reuss Voigt Hill
#
# Bulk Modulus (GPa) = 39.64682 52.34460 45.99571
# Shear Modulus (GPa) = 22.89262 27.27315 25.08289
#
# Velocity S-wave (km/s) = 3.57933 3.90680 3.74664
# Velocity P-wave (km/s) = 6.26658 7.04591 6.66764
#
# Compressibility (1/GPa) = 0.02522270
#
# Stress axis : x y z
#
# Youngs Moduli (GPa) = 68.43642 69.15318 76.73089
#
# Poissons Ratio (x) = 0.22207 0.11217
# Poissons Ratio (y) = 0.21976 0.28914
# Poissons Ratio (z) = 0.10004 0.26059
#
# Static dielectric constant tensor:
#      x y z
#    x 2.913660 0.097650 -0.214660 
#    y 0.097650 3.417180 0.088720 
#    z -0.214660 0.088720 3.405530 
# 
# 
# High freq. dielectric constant tensor:
#      x y z
#    x 1.651150 0.004550 -0.022150 
#    y 0.004550 1.707310 0.006010 
#    z -0.022150 0.006010 1.688170 
# 
# From -- ./inp_files/389080.got.cif
#   From: 2010.06.25/outbox.cif.g09.slc.cpg/sg2_195_cif.got.tgz:389080.got - 2010.06.27 13:26:56.
