data_PCOD8038602
_publ_section_title
;
Structure prediction by ZEFSAII (Michael W. Deem and Ramdas Pophale) SiO2 
 PCOD8038602
Probable space group: P -1
;
_chemical_formula_sum "Si O2"
_cell_formula_units_Z 12
_cell_length_a 7.679663
_cell_length_b 7.334868
_cell_length_c 13.431355
_cell_angle_alpha 52.346845
_cell_angle_beta 100.688433
_cell_angle_gamma 120.702208
_cell_volume 506.079924
_symmetry_space_group_name_H-M "P -1"
_symmetry_group_IT_number 2
_symmetry_cell_setting 'triclinic'
loop_
_space_group_symop_operation_xyz
x,y,z
-x,-y,-z
loop_
_atom_site_type_symbol
_atom_site_label
_atom_site_fract_x
_atom_site_fract_y
_atom_site_fract_z
Si Si1 0.482457 0.526010 0.742127
Si Si2 0.147104 0.553316 0.405703
Si Si3 0.293243 0.233150 0.634840
Si Si4 0.808435 0.289008 0.303816
Si Si5 0.833139 0.926698 0.766052
Si Si6 0.813281 0.719037 0.041912
O O1 0.468512 0.355337 0.699463
O O2 0.349484 0.670466 0.656777
O O3 0.718872 0.749689 0.715405
O O4 0.384885 0.339644 0.892339
O O5 0.315078 0.470440 0.484159
O O6 0.000000 0.500000 0.500000
O O7 0.014291 0.366044 0.361727
O O8 0.248249 0.868194 0.285155
O O9 0.310024 0.017349 0.642190
O O10 0.075351 0.089599 0.717589
O O11 0.867467 0.486100 0.148029
O O12 0.769932 0.723863 0.919388
O O13 0.000000 0.000000 0.000000
#
# Coordination Sequence:
#
# PCOD8038602 Si02
#       6
#     2   2   2   2   2   2
#     4  10  22  39  59  86 115 151 191 236 283 336
#     4  10  18  38  63  81 114 157 185 230 287 338
#     4  11  22  40  57  86 119 150 189 234 286 337
#     4  10  21  38  62  83 116 150 190 235 285 337
#     4  11  20  38  63  84 114 155 189 234 286 333
#     4  10  17  39  62  80 115 152 188 234 286 335
#
# _framework density 23.711672
#
# number of rings (size 3 to 8) (size 9 to 14) (size 15 to 20)
#    1.000    0.667    6.667    1.000    0.000    1.333 
#    3.000    1.667    0.000    0.000    0.000    0.000 
#    0.000    0.000    0.000    0.000    0.000    0.000 
#
# Total GULP energy -148741.191464 kJ/mol
# GULP energy per Si atom -12395.099289 kJ/mol
# Density = 2.365770 g / cm^3
# Si number density = 23.711672 Si / 1000 Ang^3
#
#
#
# Elastic Constant Matrix: (Units=GPa)
#
#
# Indices 1 2 3 4 5 6 
#
# 1 3.7887 2.9357 5.4984 4.2435 0.1940 -7.1030
# 2 2.9357 191.3576 37.3388 20.1194 11.8219 1.2862
# 3 5.4984 37.3388 117.7531 7.6100 10.2664 -2.1028
# 4 4.2435 20.1194 7.6100 40.9626 2.0410 8.8889
# 5 0.1940 11.8219 10.2664 2.0410 31.9780 0.2772
# 6 -7.1030 1.2862 -2.1028 8.8889 0.2772 33.0003
#
#
#
# Elastic Compliance Matrix: (Units=1/GPa)
#
#
# Indices 1 2 3 4 5 6 
#
# 1 0.872102 0.004726 -0.030308 -0.135694 0.009428 0.222067
# 2 0.004726 0.005922 -0.001726 -0.003350 -0.001464 0.001591
# 3 -0.030308 -0.001726 0.010330 0.003669 -0.002670 -0.006764
# 4 -0.135694 -0.003350 0.003669 0.048624 -0.001856 -0.041924
# 5 0.009428 -0.001464 -0.002670 -0.001856 0.032713 0.002142
# 6 0.222067 0.001591 -0.006764 -0.041924 0.002142 0.088882
#
#
# Mechanical properties :
#
#
# Convention : Reuss Voigt Hill
#
# Bulk Modulus (GPa) = 1.19942 44.93835 23.06888
# Shear Modulus (GPa) = 3.59428 38.99659 21.29543
#
# Velocity S-wave (km/s) = 1.23252 4.05979 3.00008
# Velocity P-wave (km/s) = 1.59136 6.40070 4.66376
#
# Compressibility (1/GPa) = 0.83373854
#
# Stress axis : x y z
#
# Youngs Moduli (GPa) = 1.14665 168.86021 96.80799
#
# Poissons Ratio (x) = -0.79808 2.93404
# Poissons Ratio (y) = -0.00542 0.16709
# Poissons Ratio (z) = 0.03475 0.29145
#
# Static dielectric constant tensor:
#      x y z
#    x 4.006860 -0.047680 0.263770 
#    y -0.047680 4.290490 -0.095920 
#    z 0.263770 -0.095920 4.736070 
# 
# 
# High freq. dielectric constant tensor:
#      x y z
#    x 1.911570 0.011840 -0.004580 
#    y 0.011840 1.951040 0.002990 
#    z -0.004580 0.002990 1.939380 
# 
# From -- ./inp_files/192979.got.cif
#   From: 2010.06.25/outbox.cif.g09.slc.cpg/sg2_97_cif.got.tgz:192979.got - 2010.06.27 13:26:56.
