data_PCOD8038737
_publ_section_title
;
Structure prediction by ZEFSAII (Michael W. Deem and Ramdas Pophale) SiO2 
 PCOD8038737
Probable space group: P -1
;
_chemical_formula_sum "Si O2"
_cell_formula_units_Z 14
_cell_length_a 11.110486
_cell_length_b 9.903375
_cell_length_c 11.399041
_cell_angle_alpha 137.253520
_cell_angle_beta 50.889537
_cell_angle_gamma 128.998240
_cell_volume 626.884015
_symmetry_space_group_name_H-M "P -1"
_symmetry_group_IT_number 2
_symmetry_cell_setting 'triclinic'
loop_
_space_group_symop_operation_xyz
x,y,z
-x,-y,-z
loop_
_atom_site_type_symbol
_atom_site_label
_atom_site_fract_x
_atom_site_fract_y
_atom_site_fract_z
Si Si1 0.540562 0.909774 0.557873
Si Si2 0.185439 0.743392 0.497362
Si Si3 0.138817 0.920362 0.416517
Si Si4 0.943361 0.692493 0.809311
Si Si5 0.550434 0.541772 0.179684
Si Si6 0.347166 0.182049 0.936028
Si Si7 0.880274 0.484246 0.956466
O O1 0.370824 0.909729 0.481849
O O2 0.466976 0.674555 0.400535
O O3 0.684470 0.904746 0.558254
O O4 0.398352 0.973107 0.753092
O O5 0.073198 0.813442 0.514801
O O6 0.180794 0.509719 0.313327
O O7 0.117070 0.761531 0.680408
O O8 0.178268 0.754304 0.201411
O O9 0.000000 0.000000 0.500000
O O10 0.970067 0.638154 0.892873
O O11 0.851262 0.870968 0.968723
O O12 0.595683 0.659635 0.104908
O O13 0.432299 0.305287 0.079990
O O14 0.720256 0.538415 0.132345
O O15 0.000000 0.500000 0.000000
#
# Coordination Sequence:
#
# PCOD8038737 Si02
#       7
#     2   2   2   2   2   2   2
#     4  10  18  31  52  79 105 133 178 217 257 309
#     4   8  17  31  52  78 104 141 169 214 271 306
#     4   9  17  31  51  77 104 133 177 216 254 309
#     4   9  17  33  52  77 113 135 169 215 270 314
#     4  10  18  30  49  76 104 134 174 219 257 301
#     4  10  18  31  50  78 108 135 173 217 259 311
#     4  10  18  30  49  76 106 137 175 216 259 305
#
# _framework density 22.33268
#
# number of rings (size 3 to 8) (size 9 to 14) (size 15 to 20)
#    0.857    1.714    1.429    3.000    0.000    0.000 
#    0.000    2.857    0.000    4.286    0.000   26.000 
#    0.000    0.143    0.000    0.000    0.000    0.000 
#
# Total GULP energy -173464.625143 kJ/mol
# GULP energy per Si atom -12390.330367 kJ/mol
# Density = 2.228185 g / cm^3
# Si number density = 22.332680 Si / 1000 Ang^3
#
#
#
# Elastic Constant Matrix: (Units=GPa)
#
#
# Indices 1 2 3 4 5 6 
#
# 1 128.7144 21.5152 64.2496 -1.6801 -9.9666 2.8315
# 2 21.5152 27.7479 19.2693 -7.0588 2.2010 6.1048
# 3 64.2496 19.2693 153.4805 4.7686 -14.8917 -0.6361
# 4 -1.6801 -7.0588 4.7686 24.6455 1.1297 1.0314
# 5 -9.9666 2.2010 -14.8917 1.1297 40.5695 5.5931
# 6 2.8315 6.1048 -0.6361 1.0314 5.5931 22.9162
#
#
#
# Elastic Compliance Matrix: (Units=1/GPa)
#
#
# Indices 1 2 3 4 5 6 
#
# 1 0.010668 -0.005997 -0.003539 -0.000374 0.001687 -0.000214
# 2 -0.005997 0.051357 -0.004951 0.016006 -0.004781 -0.012631
# 3 -0.003539 -0.004951 0.008987 -0.003581 0.002586 0.001536
# 4 -0.000374 0.016006 -0.003581 0.046194 -0.002772 -0.005720
# 5 0.001687 -0.004781 0.002586 -0.002772 0.027087 -0.005349
# 6 -0.000214 -0.012631 0.001536 -0.005720 -0.005349 0.048634
#
#
# Mechanical properties :
#
#
# Convention : Reuss Voigt Hill
#
# Bulk Modulus (GPa) = 23.78716 57.77900 40.78308
# Shear Modulus (GPa) = 21.19431 31.28681 26.24056
#
# Velocity S-wave (km/s) = 3.08397 3.74698 3.43152
# Velocity P-wave (km/s) = 4.83276 6.68191 5.83110
#
# Compressibility (1/GPa) = 0.04203948
#
# Stress axis : x y z
#
# Youngs Moduli (GPa) = 93.73540 19.47165 111.27209
#
# Poissons Ratio (x) = 0.11676 0.39375
# Poissons Ratio (y) = 0.56209 0.55092
# Poissons Ratio (z) = 0.33170 0.09641
#
# Static dielectric constant tensor:
#      x y z
#    x 13.094410 0.475780 -0.104960 
#    y 0.475780 3.421210 0.149840 
#    z -0.104960 0.149840 4.312570 
# 
# 
# High freq. dielectric constant tensor:
#      x y z
#    x 1.886630 0.031320 -0.005900 
#    y 0.031320 1.809170 0.023540 
#    z -0.005900 0.023540 1.898110 
# 
# From -- ./inp_files/256215.got.cif
#   From: 2010.06.25/outbox.cif.g09.slc.cpg/sg2_129_cif.got.tgz:256215.got - 2010.06.27 13:26:56.
