data_PCOD8038806
_publ_section_title
;
Structure prediction by ZEFSAII (Michael W. Deem and Ramdas Pophale) SiO2 
 PCOD8038806
Probable space group: P -1
;
_chemical_formula_sum "Si O2"
_cell_formula_units_Z 16
_cell_length_a 12.022294
_cell_length_b 14.182250
_cell_length_c 15.759759
_cell_angle_alpha 147.323454
_cell_angle_beta 35.375914
_cell_angle_gamma 146.661201
_cell_volume 738.160328
_symmetry_space_group_name_H-M "P -1"
_symmetry_group_IT_number 2
_symmetry_cell_setting 'triclinic'
loop_
_space_group_symop_operation_xyz
x,y,z
-x,-y,-z
loop_
_atom_site_type_symbol
_atom_site_label
_atom_site_fract_x
_atom_site_fract_y
_atom_site_fract_z
Si Si1 0.337461 0.301563 0.715154
Si Si2 0.819105 0.279962 0.682516
Si Si3 0.962439 0.918571 0.699992
Si Si4 0.365937 0.531935 0.181161
Si Si5 0.260429 0.602836 0.696979
Si Si6 0.512751 0.614764 0.709074
Si Si7 0.436090 0.903947 0.678233
Si Si8 0.031775 0.719406 0.670103
O O1 0.483336 0.357094 0.749764
O O2 0.367826 0.494370 0.789676
O O3 0.410951 0.184486 0.516184
O O4 0.086753 0.159067 0.794252
O O5 0.744031 0.337701 0.685450
O O6 0.948776 0.160097 0.491610
O O7 0.994787 0.477025 0.772667
O O8 0.597822 0.141945 0.769455
O O9 0.701229 0.830483 0.786877
O O10 0.023867 0.847399 0.694081
O O11 0.171499 0.319815 0.171990
O O12 0.500000 0.500000 0.000000
O O13 0.354285 0.643779 0.764293
O O14 0.363010 0.493472 0.493509
O O15 0.325757 0.811713 0.767563
O O16 0.254090 0.857862 0.685405
O O17 0.000000 0.500000 0.500000
#
# Coordination Sequence:
#
# PCOD8038806 Si02
#       8
#     2   2   2   2   2   2   2   2
#     4  10  19  33  51  79 109 139 172 215 264 309
#     4  10  19  33  51  79 109 139 172 215 264 309
#     4  10  18  30  56  80 103 138 180 214 253 315
#     4  12  23  35  53  80 111 138 172 220 270 314
#     4   9  17  30  50  79 110 137 170 216 262 306
#     4   9  17  30  50  79 110 137 170 216 262 306
#     4  10  18  30  56  80 103 138 180 214 253 315
#     4  12  17  33  57  76 104 141 176 213 264 316
#
# _framework density 21.675509000000002
#
# number of rings (size 3 to 8) (size 9 to 14) (size 15 to 20)
#    0.000    1.750    5.000    1.500    0.000    3.000 
#    0.000    7.500    0.000    0.750    0.000    1.750 
#    0.000    0.000    0.000    0.000    0.000    0.000 
#
# Total GULP energy -198270.586352 kJ/mol
# GULP energy per Si atom -12391.911647 kJ/mol
# Density = 2.162617 g / cm^3
# Si number density = 21.675509 Si / 1000 Ang^3
#
#
#
# Elastic Constant Matrix: (Units=GPa)
#
#
# Indices 1 2 3 4 5 6 
#
# 1 173.9139 108.1763 -2.8625 -3.0584 23.5956 14.1987
# 2 108.1763 249.2980 10.1473 -26.3991 15.1154 9.9211
# 3 -2.8625 10.1473 21.0542 -12.2213 3.9453 -2.3255
# 4 -3.0584 -26.3991 -12.2213 15.0780 -2.8858 1.7376
# 5 23.5956 15.1154 3.9453 -2.8858 6.2829 -3.8305
# 6 14.1987 9.9211 -2.3255 1.7376 -3.8305 22.7337
#
#
#
# Elastic Compliance Matrix: (Units=1/GPa)
#
#
# Indices 1 2 3 4 5 6 
#
# 1 0.040084 -0.005370 0.037419 -0.002031 -0.193307 -0.051279
# 2 -0.005370 0.007438 0.003860 0.016483 0.007756 0.000550
# 3 0.037419 0.003860 0.140127 0.090267 -0.230793 -0.056507
# 4 -0.002031 0.016483 0.090267 0.165484 -0.020500 -0.012794
# 5 -0.193307 0.007756 -0.230793 -0.020500 1.181440 0.294371
# 6 -0.051279 0.000550 -0.056507 -0.012794 0.294371 0.120572
#
#
# Mechanical properties :
#
#
# Convention : Reuss Voigt Hill
#
# Bulk Modulus (GPa) = 3.85407 75.02090 39.43748
# Shear Modulus (GPa) = 2.99434 30.73926 16.86680
#
# Velocity S-wave (km/s) = 1.17662 3.76993 2.79256
# Velocity P-wave (km/s) = 1.90469 7.32365 5.35087
#
# Compressibility (1/GPa) = 0.25946604
#
# Stress axis : x y z
#
# Youngs Moduli (GPa) = 24.94780 134.45195 7.13640
#
# Poissons Ratio (x) = 0.72201 -0.26703
# Poissons Ratio (y) = 0.13397 -0.02755
# Poissons Ratio (z) = -0.93351 -0.51904
#
# Static dielectric constant tensor:
#      x y z
#    x 3.773780 0.060790 0.009980 
#    y 0.060790 4.535650 -0.165040 
#    z 0.009980 -0.165040 3.137840 
# 
# 
# High freq. dielectric constant tensor:
#      x y z
#    x 1.843450 0.002160 0.011340 
#    y 0.002160 1.878350 -0.021150 
#    z 0.011340 -0.021150 1.783940 
# 
# From -- ./inp_files/315765.got.cif
#   From: 2010.06.25/outbox.cif.g09.slc.cpg/sg2_158_cif.got.tgz:315765.got - 2010.06.27 13:26:56.
