data_PCOD8038403
_publ_section_title
;
Structure prediction by ZEFSAII (Michael W. Deem and Ramdas Pophale) SiO2 
 PCOD8038403
Probable space group: P -1
;
_chemical_formula_sum "Si O2"
_cell_formula_units_Z 16
_cell_length_a 8.748094
_cell_length_b 12.039931
_cell_length_c 24.204180
_cell_angle_alpha 152.431053
_cell_angle_beta 132.022691
_cell_angle_gamma 63.468708
_cell_volume 792.679025
_symmetry_space_group_name_H-M "P -1"
_symmetry_group_IT_number 2
_symmetry_cell_setting 'triclinic'
loop_
_space_group_symop_operation_xyz
x,y,z
-x,-y,-z
loop_
_atom_site_type_symbol
_atom_site_label
_atom_site_fract_x
_atom_site_fract_y
_atom_site_fract_z
Si Si1 0.233532 0.825462 0.366083
Si Si2 0.689283 0.394719 0.436376
Si Si3 0.050126 0.589669 0.335365
Si Si4 0.785175 0.676326 0.909393
Si Si5 0.427618 0.692487 0.751794
Si Si6 0.799761 0.782385 0.726771
Si Si7 0.977003 0.777990 0.510128
Si Si8 0.465755 0.795847 0.952626
O O1 0.160619 0.577087 0.197287
O O2 0.177410 0.740364 0.378267
O O3 0.500000 0.000000 0.500000
O O4 0.090987 0.988333 0.385953
O O5 0.650504 0.454368 0.390268
O O6 0.822896 0.676225 0.624516
O O7 0.447838 0.221686 0.330259
O O8 0.839806 0.228039 0.403874
O O9 0.075838 0.809077 0.485363
O O10 0.785417 0.403928 0.178401
O O11 0.175032 0.411529 0.306894
O O12 0.673793 0.716785 0.842650
O O13 0.615704 0.636638 0.903282
O O14 0.019231 0.921999 0.088302
O O15 0.244353 0.507248 0.670641
O O16 0.434863 0.987785 0.878296
O O17 0.500000 0.000000 0.000000
#
# Coordination Sequence:
#
# PCOD8038403 Si02
#       8
#     2   2   2   2   2   2   2   2
#     4  12  25  38  59  93 125 166 211 259 297 364
#     4  10  23  37  61  93 128 167 196 254 315 380
#     4  11  20  37  65  91 120 159 200 264 313 350
#     4  11  21  38  64  94 125 150 208 266 305 352
#     4  11  19  36  67  93 119 154 208 261 309 362
#     4  10  21  39  62  97 126 153 202 264 323 355
#     4  11  22  41  56  89 128 171 203 239 311 383
#     4  10  17  35  62  98 122 142 196 270 322 346
#
# _framework density 20.184715000000001
#
# number of rings (size 3 to 8) (size 9 to 14) (size 15 to 20)
#    0.000    1.250    6.250    2.250    1.750    1.000 
#    0.000    0.625    0.000    1.500    0.000    0.000 
#    0.000    0.000    0.000    0.000    0.000    0.000 
#
# Total GULP energy -198324.747934 kJ/mol
# GULP energy per Si atom -12395.296746 kJ/mol
# Density = 2.013877 g / cm^3
# Si number density = 20.184715 Si / 1000 Ang^3
#
#
#
# Elastic Constant Matrix: (Units=GPa)
#
#
# Indices 1 2 3 4 5 6 
#
# 1 98.6274 32.5059 62.3323 14.7491 -3.2254 -13.3905
# 2 32.5059 46.9525 56.4021 3.9727 -5.1774 -13.5586
# 3 62.3323 56.4021 136.2157 -4.6926 -6.0004 -10.7828
# 4 14.7491 3.9727 -4.6926 22.1345 -3.8313 -3.8338
# 5 -3.2254 -5.1774 -6.0004 -3.8313 35.0472 6.0286
# 6 -13.3905 -13.5586 -10.7828 -3.8338 6.0286 46.0771
#
#
#
# Elastic Compliance Matrix: (Units=1/GPa)
#
#
# Indices 1 2 3 4 5 6 
#
# 1 0.017821 -0.001111 -0.008065 -0.013322 -0.001719 0.002081
# 2 -0.001111 0.048703 -0.019293 -0.010417 0.001193 0.008470
# 3 -0.008065 -0.019293 0.019319 0.012745 0.001563 -0.002644
# 4 -0.013322 -0.010417 0.012745 0.059690 0.005901 0.000240
# 5 -0.001719 0.001193 0.001563 0.005901 0.030017 -0.003219
# 6 0.002081 0.008470 -0.002644 0.000240 -0.003219 0.024622
#
#
# Mechanical properties :
#
#
# Convention : Reuss Voigt Hill
#
# Bulk Modulus (GPa) = 34.59716 64.91960 49.75838
# Shear Modulus (GPa) = 18.74440 29.35543 24.04991
#
# Velocity S-wave (km/s) = 3.05067 3.81772 3.45554
# Velocity P-wave (km/s) = 5.43933 7.18790 6.37386
#
# Compressibility (1/GPa) = 0.02890411
#
# Stress axis : x y z
#
# Youngs Moduli (GPa) = 56.11427 20.53256 51.76260
#
# Poissons Ratio (x) = 0.02282 0.41744
# Poissons Ratio (y) = 0.06237 0.99868
# Poissons Ratio (z) = 0.45253 0.39614
#
# Static dielectric constant tensor:
#      x y z
#    x 4.043530 -0.207910 -0.250500 
#    y -0.207910 3.333230 -0.067770 
#    z -0.250500 -0.067770 3.833600 
# 
# 
# High freq. dielectric constant tensor:
#      x y z
#    x 1.809020 -0.011450 -0.005690 
#    y -0.011450 1.738550 -0.010040 
#    z -0.005690 -0.010040 1.788660 
# 
# From -- ./inp_files/390928.got.cif
#   From: 2010.06.25/outbox.cif.g09.slc.cpg/sg2_196_cif.got.tgz:390928.got - 2010.06.27 13:26:56.
