data_PCOD8038845
_publ_section_title
;
Structure prediction by ZEFSAII (Michael W. Deem and Ramdas Pophale) SiO2 
 PCOD8038845
Probable space group: P -1
;
_chemical_formula_sum "Si O2"
_cell_formula_units_Z 14
_cell_length_a 10.021449
_cell_length_b 15.037469
_cell_length_c 8.341798
_cell_angle_alpha 42.833167
_cell_angle_beta 112.406504
_cell_angle_gamma 127.432398
_cell_volume 673.781827
_symmetry_space_group_name_H-M "P -1"
_symmetry_group_IT_number 2
_symmetry_cell_setting 'triclinic'
loop_
_space_group_symop_operation_xyz
x,y,z
-x,-y,-z
loop_
_atom_site_type_symbol
_atom_site_label
_atom_site_fract_x
_atom_site_fract_y
_atom_site_fract_z
Si Si1 0.693211 0.956824 0.585243
Si Si2 0.584125 0.631517 0.998513
Si Si3 0.583298 0.029636 0.741866
Si Si4 0.773573 0.478667 0.894610
Si Si5 0.082664 0.718688 0.877918
Si Si6 0.660882 0.508476 0.483207
Si Si7 0.308287 0.768708 0.185780
O O1 0.512710 0.913526 0.489622
O O2 0.695058 0.986328 0.738929
O O3 0.848455 0.106068 0.374438
O O4 0.703333 0.805243 0.756490
O O5 0.424701 0.620504 0.030405
O O6 0.704963 0.614030 0.205515
O O7 0.500000 0.500000 0.000000
O O8 0.706260 0.167104 0.735344
O O9 0.449052 0.889318 0.971155
O O10 0.800637 0.557326 0.624938
O O11 0.880135 0.615965 0.890215
O O12 0.832742 0.355662 0.093234
O O13 0.126145 0.707205 0.098438
O O14 0.500000 0.500000 0.500000
O O15 0.633474 0.352073 0.602410
#
# Coordination Sequence:
#
# PCOD8038845 Si02
#       7
#     2   2   2   2   2   2   2
#     4  10  18  31  49  74 100 128 164 205 253 289
#     4  11  21  33  52  75 101 132 168 205 239 294
#     4   9  16  27  48  73  99 124 162 215 248 284
#     4   9  18  35  54  74  99 132 167 201 251 298
#     4   9  18  33  55  76 100 128 161 210 256 295
#     4   9  17  30  48  69  98 135 168 195 234 298
#     4   9  16  28  48  76  98 125 167 207 251 290
#
# _framework density 20.77824
#
# number of rings (size 3 to 8) (size 9 to 14) (size 15 to 20)
#    0.000    2.571    0.000    5.143    0.000    0.000 
#    0.000    2.857    0.000    6.000    0.000    0.000 
#    0.000    0.000    0.000    0.000    0.000    0.000 
#
# Total GULP energy -173436.667077 kJ/mol
# GULP energy per Si atom -12388.333363 kJ/mol
# Density = 2.073095 g / cm^3
# Si number density = 20.778240 Si / 1000 Ang^3
#
#
#
# Elastic Constant Matrix: (Units=GPa)
#
#
# Indices 1 2 3 4 5 6 
#
# 1 13.0436 7.5554 8.3304 -2.5758 4.4965 0.3996
# 2 7.5554 127.9310 43.9931 -4.0007 7.2303 -2.7671
# 3 8.3304 43.9931 129.6508 -16.3987 15.7179 -0.4843
# 4 -2.5758 -4.0007 -16.3987 31.7906 -5.6531 4.0184
# 5 4.4965 7.2303 15.7179 -5.6531 15.8058 0.7968
# 6 0.3996 -2.7671 -0.4843 4.0184 0.7968 28.9184
#
#
#
# Elastic Compliance Matrix: (Units=1/GPa)
#
#
# Indices 1 2 3 4 5 6 
#
# 1 0.087328 -0.003367 -0.001670 0.002262 -0.020768 -0.001299
# 2 -0.003367 0.009037 -0.002873 -0.000865 -0.000678 0.001002
# 3 -0.001670 -0.002873 0.010082 0.003514 -0.006961 -0.000380
# 4 0.002262 -0.000865 0.003514 0.035658 0.009277 -0.005266
# 5 -0.020768 -0.000678 -0.006961 0.009277 0.079897 -0.003385
# 6 -0.001299 0.001002 -0.000380 -0.005266 -0.003385 0.035513
#
#
# Mechanical properties :
#
#
# Convention : Reuss Voigt Hill
#
# Bulk Modulus (GPa) = 11.03420 43.37593 27.20507
# Shear Modulus (GPa) = 16.47209 29.35272 22.91240
#
# Velocity S-wave (km/s) = 2.81865 3.76262 3.32431
# Velocity P-wave (km/s) = 3.98936 6.30852 5.27790
#
# Compressibility (1/GPa) = 0.09062734
#
# Stress axis : x y z
#
# Youngs Moduli (GPa) = 11.45104 110.66068 99.18445
#
# Poissons Ratio (x) = 0.37259 0.16560
# Poissons Ratio (y) = 0.03855 0.28500
# Poissons Ratio (z) = 0.01912 0.31797
#
# Static dielectric constant tensor:
#      x y z
#    x 3.249850 -0.085650 0.159940 
#    y -0.085650 4.165480 0.297870 
#    z 0.159940 0.297870 4.057600 
# 
# 
# High freq. dielectric constant tensor:
#      x y z
#    x 1.757960 -0.017970 0.009870 
#    y -0.017970 1.820450 0.008210 
#    z 0.009870 0.008210 1.819380 
# 
# From -- ./inp_files/189970.got.cif
#   From: 2010.06.25/outbox.cif.g09.slc.cpg/sg2_95_cif.got.tgz:189970.got - 2010.06.27 13:26:56.
