data_PCOD8038988
_publ_section_title
;
Structure prediction by ZEFSAII (Michael W. Deem and Ramdas Pophale) SiO2 
 PCOD8038988
Probable space group: P -1
;
_chemical_formula_sum "Si O2"
_cell_formula_units_Z 16
_cell_length_a 10.111512
_cell_length_b 11.173857
_cell_length_c 11.729434
_cell_angle_alpha 95.605582
_cell_angle_beta 40.571325
_cell_angle_gamma 95.629214
_cell_volume 857.225309
_symmetry_space_group_name_H-M "P -1"
_symmetry_group_IT_number 2
_symmetry_cell_setting 'triclinic'
loop_
_space_group_symop_operation_xyz
x,y,z
-x,-y,-z
loop_
_atom_site_type_symbol
_atom_site_label
_atom_site_fract_x
_atom_site_fract_y
_atom_site_fract_z
Si Si1 0.378931 0.839985 0.656161
Si Si2 0.999157 0.133989 0.969555
Si Si3 0.978644 0.359895 0.521287
Si Si4 0.903490 0.071411 0.776563
Si Si5 0.741515 0.800898 0.561800
Si Si6 0.552687 0.879245 0.313644
Si Si7 0.775308 0.808910 0.790753
Si Si8 0.390911 0.789995 0.178502
O O1 0.544711 0.767754 0.612192
O O2 0.408476 0.818663 0.500325
O O3 0.411553 0.980242 0.675653
O O4 0.153827 0.793931 0.841041
O O5 0.230637 0.187854 0.830156
O O6 0.910988 0.137129 0.899589
O O7 0.000000 0.000000 0.000000
O O8 0.746338 0.326500 0.705547
O O9 0.000000 0.500000 0.500000
O O10 0.125358 0.319429 0.525379
O O11 0.047467 0.287001 0.355513
O O12 0.725021 0.123535 0.822703
O O13 0.122244 0.091799 0.575220
O O14 0.867366 0.928188 0.803735
O O15 0.681927 0.845532 0.731942
O O16 0.444367 0.865692 0.262924
O O17 0.596796 0.747984 0.979364
#
# Coordination Sequence:
#
# PCOD8038988 Si02
#       8
#     2   2   2   2   2   2   2   2
#     4  10  18  32  51  74 115 155 174 209 267 333
#     4  10  20  32  48  75 120 153 176 211 255 340
#     4   9  23  39  55  82 108 140 192 241 278 317
#     4  11  19  34  54  85 122 140 183 220 273 340
#     4   9  19  33  57  80 109 148 184 225 274 324
#     4  10  21  31  48  80 119 142 181 209 266 332
#     4  10  20  32  56  82 113 140 180 225 279 324
#     4  11  22  35  58  85 111 149 176 234 275 331
#
# _framework density 18.664870000000001
#
# number of rings (size 3 to 8) (size 9 to 14) (size 15 to 20)
#    0.750    1.250    1.250    3.750    1.750    1.500 
#    0.000    0.000    0.000    0.750    0.000    1.750 
#    0.000    0.000    0.000    0.000    0.000    0.000 
#
# Total GULP energy -198294.143560 kJ/mol
# GULP energy per Si atom -12393.383972 kJ/mol
# Density = 1.862239 g / cm^3
# Si number density = 18.664870 Si / 1000 Ang^3
#
#
#
# Elastic Constant Matrix: (Units=GPa)
#
#
# Indices 1 2 3 4 5 6 
#
# 1 91.5724 7.8730 37.6549 -1.2487 4.0285 -11.2632
# 2 7.8730 67.2334 32.1036 -8.9509 -17.4369 0.7944
# 3 37.6549 32.1036 162.7736 -12.0099 -7.3667 -0.5054
# 4 -1.2487 -8.9509 -12.0099 14.4710 0.9211 -2.6527
# 5 4.0285 -17.4369 -7.3667 0.9211 30.7854 0.7698
# 6 -11.2632 0.7944 -0.5054 -2.6527 0.7698 10.3743
#
#
#
# Elastic Compliance Matrix: (Units=1/GPa)
#
#
# Indices 1 2 3 4 5 6 
#
# 1 0.014502 -0.001219 -0.003154 0.001099 -0.003782 0.016245
# 2 -0.001219 0.020300 -0.002544 0.009396 0.010803 -0.001401
# 3 -0.003154 -0.002544 0.007710 0.004168 0.000738 -0.001843
# 4 0.001099 0.009396 0.004168 0.082201 0.003179 0.021459
# 5 -0.003782 0.010803 0.000738 0.003179 0.039353 -0.007004
# 6 0.016245 -0.001401 -0.001843 0.021459 -0.007004 0.120054
#
#
# Mechanical properties :
#
#
# Convention : Reuss Voigt Hill
#
# Bulk Modulus (GPa) = 34.86937 52.98248 43.92593
# Shear Modulus (GPa) = 16.25952 27.38931 21.82441
#
# Velocity S-wave (km/s) = 2.95469 3.83486 3.42318
# Velocity P-wave (km/s) = 5.51023 6.93224 6.26173
#
# Compressibility (1/GPa) = 0.02867846
#
# Stress axis : x y z
#
# Youngs Moduli (GPa) = 68.95832 49.26089 129.69965
#
# Poissons Ratio (x) = 0.06003 0.40907
# Poissons Ratio (y) = 0.08403 0.32997
# Poissons Ratio (z) = 0.21749 0.12532
#
# Static dielectric constant tensor:
#      x y z
#    x 3.641390 -0.165730 -0.254840 
#    y -0.165730 2.690620 -0.063210 
#    z -0.254840 -0.063210 4.103510 
# 
# 
# High freq. dielectric constant tensor:
#      x y z
#    x 1.727490 -0.015940 -0.003820 
#    y -0.015940 1.639250 -0.008650 
#    z -0.003820 -0.008650 1.751390 
# 
# From -- ./inp_files/421421.got.cif
#   From: 2010.06.25/outbox.cif.g09.slc.cpg/sg2_211_cif.got.tgz:421421.got - 2010.06.27 13:26:56.
