data_PCOD8038992
_publ_section_title
;
Structure prediction by ZEFSAII (Michael W. Deem and Ramdas Pophale) SiO2 
 PCOD8038992
Probable space group: P -1
;
_chemical_formula_sum "Si O2"
_cell_formula_units_Z 16
_cell_length_a 11.860022
_cell_length_b 8.525502
_cell_length_c 8.678611
_cell_angle_alpha 125.531061
_cell_angle_beta 112.328881
_cell_angle_gamma 67.816529
_cell_volume 646.091861
_symmetry_space_group_name_H-M "P -1"
_symmetry_group_IT_number 2
_symmetry_cell_setting 'triclinic'
loop_
_space_group_symop_operation_xyz
x,y,z
-x,-y,-z
loop_
_atom_site_type_symbol
_atom_site_label
_atom_site_fract_x
_atom_site_fract_y
_atom_site_fract_z
Si Si1 0.885942 0.905532 0.084080
Si Si2 0.730304 0.583268 0.770753
Si Si3 0.639581 0.754991 0.499356
Si Si4 0.487998 0.777887 0.894682
Si Si5 0.755293 0.243161 0.394670
Si Si6 0.413944 0.790682 0.210842
Si Si7 0.133344 0.500830 0.637451
Si Si8 0.147446 0.800968 0.048615
O O1 0.036072 0.875624 0.154802
O O2 0.828210 0.015553 0.274894
O O3 0.840832 0.698190 0.928816
O O4 0.842659 0.030733 0.977092
O O5 0.660381 0.650112 0.613042
O O6 0.622980 0.630433 0.870523
O O7 0.782542 0.346281 0.631207
O O8 0.530389 0.672424 0.304318
O O9 0.769398 0.710388 0.440720
O O10 0.594034 0.982471 0.631415
O O11 0.392629 0.737735 0.690856
O O12 0.436172 0.743534 0.016066
O O13 0.500000 0.000000 0.000000
O O14 0.803782 0.352227 0.341814
O O15 0.282086 0.740274 0.166435
O O16 0.000000 0.500000 0.500000
O O17 0.116226 0.596682 0.852160
#
# Coordination Sequence:
#
# PCOD8038992 Si02
#       8
#     2   2   2   2   2   2   2   2
#     4  10  18  32  53  82 114 144 186 244 283 331
#     4  11  20  36  57  85 114 147 196 239 285 342
#     4  10  21  35  53  85 118 147 193 236 291 348
#     4  12  19  36  56  78 118 156 194 234 285 340
#     4  10  20  32  52  87 110 142 192 239 285 332
#     4  11  21  36  54  83 120 156 182 236 300 344
#     4  10  20  33  55  85 115 144 191 244 285 339
#     4  10  18  32  51  78 115 149 183 230 297 334
#
# _framework density 24.764281
#
# number of rings (size 3 to 8) (size 9 to 14) (size 15 to 20)
#    0.000    1.500    6.250    1.875    3.500    0.500 
#    0.000    0.000    0.000    0.000    3.250    7.875 
#    3.750    0.000    0.000    0.000    0.000    0.000 
#
# Total GULP energy -198247.040491 kJ/mol
# GULP energy per Si atom -12390.440031 kJ/mol
# Density = 2.470792 g / cm^3
# Si number density = 24.764281 Si / 1000 Ang^3
#
#
#
# Elastic Constant Matrix: (Units=GPa)
#
#
# Indices 1 2 3 4 5 6 
#
# 1 143.1214 20.2648 53.4238 -2.9154 13.6963 -48.8266
# 2 20.2648 40.8351 20.9912 -11.2427 -0.4504 -27.3213
# 3 53.4238 20.9912 134.4787 24.7787 11.4434 -22.7010
# 4 -2.9154 -11.2427 24.7787 23.9211 -13.7705 4.2662
# 5 13.6963 -0.4504 11.4434 -13.7705 45.8769 1.7445
# 6 -48.8266 -27.3213 -22.7010 4.2662 1.7445 37.9574
#
#
#
# Elastic Compliance Matrix: (Units=1/GPa)
#
#
# Indices 1 2 3 4 5 6 
#
# 1 0.017814 0.018738 -0.006919 0.012071 -0.000962 0.030952
# 2 0.018738 0.094277 -0.026544 0.074783 0.021864 0.066677
# 3 -0.006919 -0.026544 0.022602 -0.044976 -0.017004 -0.008653
# 4 0.012071 0.074783 -0.044976 0.151363 0.052908 0.023013
# 5 -0.000962 0.021864 -0.017004 0.052908 0.042557 -0.003572
# 6 0.030952 0.066677 -0.008653 0.023013 -0.003572 0.106556
#
#
# Mechanical properties :
#
#
# Convention : Reuss Voigt Hill
#
# Bulk Modulus (GPa) = 9.50197 56.42167 32.96182
# Shear Modulus (GPa) = 10.00598 36.46811 23.23705
#
# Velocity S-wave (km/s) = 2.01228 3.84162 3.06654
# Velocity P-wave (km/s) = 3.04045 6.52000 5.08698
#
# Compressibility (1/GPa) = 0.10524129
#
# Stress axis : x y z
#
# Youngs Moduli (GPa) = 56.13558 10.60706 44.24461
#
# Poissons Ratio (x) = -0.19875 0.30614
# Poissons Ratio (y) = -1.05186 1.17444
# Poissons Ratio (z) = 0.38841 0.28156
#
# Static dielectric constant tensor:
#      x y z
#    x 4.576700 -0.613070 -0.288950 
#    y -0.613070 4.474820 0.662300 
#    z -0.288950 0.662300 5.111940 
# 
# 
# High freq. dielectric constant tensor:
#      x y z
#    x 1.989730 -0.031330 0.004060 
#    y -0.031330 1.944900 0.027780 
#    z 0.004060 0.027780 1.999190 
# 
# From -- ./inp_files/424569.got.cif
#   From: 2010.06.25/outbox.cif.g09.slc.cpg/sg2_213_cif.got.tgz:424569.got - 2010.06.27 13:26:56.
