data_PCOD8038408
_publ_section_title
;
Structure prediction by ZEFSAII (Michael W. Deem and Ramdas Pophale) SiO2 
 PCOD8038408
Probable space group: P -1
;
_chemical_formula_sum "Si O2"
_cell_formula_units_Z 14
_cell_length_a 14.622050
_cell_length_b 11.293078
_cell_length_c 8.704954
_cell_angle_alpha 110.734637
_cell_angle_beta 73.908604
_cell_angle_gamma 148.569076
_cell_volume 700.111713
_symmetry_space_group_name_H-M "P -1"
_symmetry_group_IT_number 2
_symmetry_cell_setting 'triclinic'
loop_
_space_group_symop_operation_xyz
x,y,z
-x,-y,-z
loop_
_atom_site_type_symbol
_atom_site_label
_atom_site_fract_x
_atom_site_fract_y
_atom_site_fract_z
Si Si1 0.719042 0.608986 0.732534
Si Si2 0.775263 0.577258 0.347914
Si Si3 0.686065 0.299914 0.711927
Si Si4 0.513426 0.577736 0.692761
Si Si5 0.011432 0.600527 0.892556
Si Si6 0.304466 0.779457 0.674814
Si Si7 0.115881 0.962086 0.177551
O O1 0.761619 0.615556 0.542021
O O2 0.710966 0.480382 0.788718
O O3 0.531868 0.478818 0.758678
O O4 0.869649 0.880324 0.833641
O O5 0.654855 0.519424 0.253084
O O6 0.709419 0.359107 0.274950
O O7 0.975671 0.807531 0.308882
O O8 0.719670 0.282585 0.519947
O O9 0.821244 0.386402 0.804246
O O10 0.491333 0.052183 0.745909
O O11 0.500000 0.500000 0.500000
O O12 0.695061 0.862087 0.752860
O O13 0.153192 0.709030 0.755368
O O14 0.063884 0.802336 0.000754
O O15 0.000000 0.500000 0.000000
#
# Coordination Sequence:
#
# PCOD8038408 Si02
#       7
#     2   2   2   2   2   2   2
#     4   8  19  38  57  88 119 154 205 245 298 361
#     4  10  17  35  63  89 117 157 201 255 298 346
#     4  10  23  44  63  88 126 163 210 249 303 371
#     4   8  18  33  56  88 117 151 200 245 298 353
#     4  12  25  41  60  95 127 162 204 254 313 364
#     4  10  23  42  66  89 121 168 208 251 300 367
#     4  10  21  36  58  90 125 151 205 249 305 359
#
# _framework density 19.996808000000001
#
# number of rings (size 3 to 8) (size 9 to 14) (size 15 to 20)
#    0.857    1.429    1.429    0.857    2.000    2.286 
#    2.571    0.714    0.000    0.000    0.000    0.000 
#    0.000    0.000    0.000    0.000    0.000    0.000 
#
# Total GULP energy -173444.141825 kJ/mol
# GULP energy per Si atom -12388.867273 kJ/mol
# Density = 1.995129 g / cm^3
# Si number density = 19.996808 Si / 1000 Ang^3
#
#
#
# Elastic Constant Matrix: (Units=GPa)
#
#
# Indices 1 2 3 4 5 6 
#
# 1 126.1631 54.4657 36.5448 9.1141 5.4140 -3.0439
# 2 54.4657 109.9279 32.7308 21.9355 0.5604 -10.4756
# 3 36.5448 32.7308 45.3736 21.3335 3.8042 1.3462
# 4 9.1141 21.9355 21.3335 23.5236 -3.1040 -2.3136
# 5 5.4140 0.5604 3.8042 -3.1040 31.3171 10.2230
# 6 -3.0439 -10.4756 1.3462 -2.3136 10.2230 37.3446
#
#
#
# Elastic Compliance Matrix: (Units=1/GPa)
#
#
# Indices 1 2 3 4 5 6 
#
# 1 0.012585 -0.004762 -0.011435 0.010012 0.000060 0.000706
# 2 -0.004762 0.014280 -0.002007 -0.009477 -0.001253 0.003446
# 3 -0.011435 -0.002007 0.054325 -0.044378 -0.007643 -0.004110
# 4 0.010012 -0.009477 -0.044378 0.089502 0.012046 0.002005
# 5 0.000060 -0.001253 -0.007643 0.012046 0.037167 -0.009499
# 6 0.000706 0.003446 -0.004110 0.002005 -0.009499 0.030674
#
#
# Mechanical properties :
#
#
# Convention : Reuss Voigt Hill
#
# Bulk Modulus (GPa) = 22.32989 58.77191 40.55090
# Shear Modulus (GPa) = 17.24925 28.95194 23.10059
#
# Velocity S-wave (km/s) = 2.94019 3.80916 3.40253
# Velocity P-wave (km/s) = 4.76626 6.98575 5.97988
#
# Compressibility (1/GPa) = 0.04478302
#
# Stress axis : x y z
#
# Youngs Moduli (GPa) = 79.45715 70.03024 18.40771
#
# Poissons Ratio (x) = 0.33347 0.21049
# Poissons Ratio (y) = 0.37836 0.03694
# Poissons Ratio (z) = 0.90858 0.14054
#
# Static dielectric constant tensor:
#      x y z
#    x 4.777880 0.309510 -0.158410 
#    y 0.309510 3.688270 0.190100 
#    z -0.158410 0.190100 3.382030 
# 
# 
# High freq. dielectric constant tensor:
#      x y z
#    x 1.789020 0.001590 -0.014040 
#    y 0.001590 1.772480 0.016180 
#    z -0.014040 0.016180 1.764280 
# 
# From -- ./inp_files/308003.got.cif
#   From: 2010.06.25/outbox.cif.g09.slc.cpg/sg2_155_cif.got.tgz:308003.got - 2010.06.27 13:26:56.
