data_PCOD8038797
_publ_section_title
;
Structure prediction by ZEFSAII (Michael W. Deem and Ramdas Pophale) SiO2 
 PCOD8038797
Probable space group: P -1
;
_chemical_formula_sum "Si O2"
_cell_formula_units_Z 16
_cell_length_a 10.008953
_cell_length_b 16.086868
_cell_length_c 12.061741
_cell_angle_alpha 58.024753
_cell_angle_beta 103.973066
_cell_angle_gamma 143.193112
_cell_volume 921.157516
_symmetry_space_group_name_H-M "P -1"
_symmetry_group_IT_number 2
_symmetry_cell_setting 'triclinic'
loop_
_space_group_symop_operation_xyz
x,y,z
-x,-y,-z
loop_
_atom_site_type_symbol
_atom_site_label
_atom_site_fract_x
_atom_site_fract_y
_atom_site_fract_z
Si Si1 0.830060 0.005845 0.341345
Si Si2 0.950862 0.077685 0.070081
Si Si3 0.331653 0.217953 0.349958
Si Si4 0.825638 0.486465 0.946380
Si Si5 0.341983 0.028761 0.348797
Si Si6 0.693027 0.549165 0.069339
Si Si7 0.816586 0.187205 0.341720
Si Si8 0.698210 0.895203 0.928497
O O1 0.800295 0.978456 0.223190
O O2 0.743157 0.061929 0.325156
O O3 0.105552 0.156538 0.327246
O O4 0.673076 0.829411 0.493395
O O5 0.127226 0.089841 0.082530
O O6 0.101298 0.264827 0.968778
O O7 0.760610 0.972717 0.007115
O O8 0.325422 0.128580 0.321649
O O9 0.568363 0.420351 0.237920
O O10 0.934048 0.616223 0.777522
O O11 0.810673 0.540662 0.016271
O O12 0.571486 0.300441 0.985652
O O13 0.000000 0.500000 0.000000
O O14 0.612937 0.150709 0.328721
O O15 0.270467 0.996280 0.228304
O O16 0.164332 0.852777 0.504537
O O17 0.500000 0.500000 0.000000
#
# Coordination Sequence:
#
# PCOD8038797 Si02
#       8
#     2   2   2   2   2   2   2   2
#     4  10  18  32  51  81 103 138 183 225 266 309
#     4  11  22  36  55  81 115 149 178 221 277 329
#     4  10  18  30  55  76 106 136 183 232 258 307
#     4  12  20  34  57  85 109 137 187 230 263 313
#     4  10  18  36  51  80 111 143 173 219 280 318
#     4  12  18  34  55  80 106 139 193 222 257 322
#     4  10  20  30  57  82 107 135 183 230 261 314
#     4  11  22  37  54  80 119 147 173 224 285 324
#
# _framework density 17.369451000000002
#
# number of rings (size 3 to 8) (size 9 to 14) (size 15 to 20)
#    0.000    1.250    7.500    0.000    0.000    0.000 
#    0.000    3.750    0.000    3.000    0.000    7.000 
#    0.000    0.000    0.000    0.000    0.000    0.000 
#
# Total GULP energy -198396.496342 kJ/mol
# GULP energy per Si atom -12399.781021 kJ/mol
# Density = 1.732992 g / cm^3
# Si number density = 17.369451 Si / 1000 Ang^3
#
#
#
# Elastic Constant Matrix: (Units=GPa)
#
#
# Indices 1 2 3 4 5 6 
#
# 1 58.6738 7.8429 17.5811 3.4279 -0.0426 -2.5384
# 2 7.8429 83.3830 62.5122 9.6023 4.0445 -6.6518
# 3 17.5811 62.5122 186.4284 -0.3134 -2.8172 -3.3399
# 4 3.4279 9.6023 -0.3134 27.3075 -0.7921 -0.5055
# 5 -0.0426 4.0445 -2.8172 -0.7921 25.0375 0.6387
# 6 -2.5384 -6.6518 -3.3399 -0.5055 0.6387 16.4353
#
#
#
# Elastic Compliance Matrix: (Units=1/GPa)
#
#
# Indices 1 2 3 4 5 6 
#
# 1 0.017766 0.000024 -0.001649 -0.002222 -0.000290 0.002361
# 2 0.000024 0.017849 -0.005950 -0.006350 -0.003906 0.005975
# 3 -0.001649 -0.005950 0.007527 0.002420 0.001911 -0.001133
# 4 -0.002222 -0.006350 0.002420 0.039210 0.002568 -0.001315
# 5 -0.000290 -0.003906 0.001911 0.002568 0.040937 -0.002749
# 6 0.002361 0.005975 -0.001133 -0.001315 -0.002749 0.063464
#
#
# Mechanical properties :
#
#
# Convention : Reuss Voigt Hill
#
# Bulk Modulus (GPa) = 35.72542 56.03976 45.88259
# Shear Modulus (GPa) = 23.67053 29.79267 26.73160
#
# Velocity S-wave (km/s) = 3.69557 4.14603 3.92727
# Velocity P-wave (km/s) = 6.23075 7.43323 6.85840
#
# Compressibility (1/GPa) = 0.02799127
#
# Stress axis : x y z
#
# Youngs Moduli (GPa) = 56.28679 56.02709 132.85148
#
# Poissons Ratio (x) = -0.00132 0.21910
# Poissons Ratio (y) = -0.00133 0.79043
# Poissons Ratio (z) = 0.09283 0.33335
#
# Static dielectric constant tensor:
#      x y z
#    x 3.401340 -0.038610 -0.032330 
#    y -0.038610 2.861640 -0.088280 
#    z -0.032330 -0.088280 3.774560 
# 
# 
# High freq. dielectric constant tensor:
#      x y z
#    x 1.686960 -0.005770 -0.003060 
#    y -0.005770 1.615210 -0.009720 
#    z -0.003060 -0.009720 1.695700 
# 
# From -- ./inp_files/238541.got.cif
#   From: 2010.06.25/outbox.cif.g09.slc.cpg/sg2_120_cif.got.tgz:238541.got - 2010.06.27 13:26:56.
