data_PCOD8038050
_publ_section_title
;
Structure prediction by ZEFSAII (Michael W. Deem and Ramdas Pophale) SiO2 
 PCOD8038050
Probable space group: P -1
;
_chemical_formula_sum "Si O2"
_cell_formula_units_Z 16
_cell_length_a 12.000000
_cell_length_b 9.000000
_cell_length_c 18.000000
_cell_angle_alpha 130.000000
_cell_angle_beta 40.000000
_cell_angle_gamma 100.000000
_cell_volume 729.599496
_symmetry_space_group_name_H-M "P -1"
_symmetry_group_IT_number 2
_symmetry_cell_setting 'triclinic'
loop_
_space_group_symop_operation_xyz
x,y,z
-x,-y,-z
loop_
_atom_site_type_symbol
_atom_site_label
_atom_site_fract_x
_atom_site_fract_y
_atom_site_fract_z
Si Si1 0.008248 0.251121 0.536787
Si Si2 0.657665 0.192753 0.668773
Si Si3 0.776429 0.942179 0.776882
Si Si4 0.711971 0.399672 0.310180
Si Si5 0.171846 0.918595 0.989274
Si Si6 0.160379 0.706476 0.082475
Si Si7 0.270635 0.226325 0.105579
Si Si8 0.707457 0.843272 0.402265
O O1 0.795330 0.292459 0.620143
O O2 0.915666 0.469171 0.716638
O O3 0.214317 0.981851 0.380191
O O4 0.125096 0.255194 0.404829
O O5 0.667751 0.038092 0.545527
O O6 0.390720 0.423646 0.894538
O O7 0.872343 0.094098 0.777892
O O8 0.840835 0.787347 0.769005
O O9 0.505707 0.159590 0.979450
O O10 0.500000 0.500000 0.500000
O O11 0.727963 0.618618 0.358866
O O12 0.689551 0.307343 0.213450
O O13 0.919228 0.154988 0.170025
O O14 0.176824 0.786309 0.017967
O O15 0.295595 0.038923 0.971804
O O16 0.946935 0.714130 0.197285
O O17 0.500000 0.000000 0.500000
#
# Coordination Sequence:
#
# PCOD8038050 Si02
#       8
#     2   2   2   2   2   2   2   2
#     4  11  22  40  62  98 137 177 222 270 336 403
#     4  11  25  39  65  97 135 177 222 275 339 403
#     4  10  21  39  65  93 133 176 218 272 333 403
#     4  11  25  46  68  97 132 173 227 282 335 399
#     4  10  24  43  69  97 131 176 227 280 333 398
#     4  11  23  45  68  98 138 176 226 282 338 406
#     4  10  21  39  64  98 129 172 223 272 335 400
#     4  12  26  45  71 101 134 182 228 281 344 404
#
# _framework density 21.929839999999999
#
# number of rings (size 3 to 8) (size 9 to 14) (size 15 to 20)
#    0.000    1.250    2.500    2.625    0.000    8.500 
#    0.000    0.000    0.000    0.000    0.000    0.000 
#    0.000    0.000    0.000    0.000    0.000    0.000 
#
# Total GULP energy -198269.898751 kJ/mol
# GULP energy per Si atom -12391.868672 kJ/mol
# Density = 2.187993 g / cm^3
# Si number density = 21.929840 Si / 1000 Ang^3
#
#
#
# Elastic Constant Matrix: (Units=GPa)
#
#
# Indices 1 2 3 4 5 6 
#
# 1 117.7738 29.4948 48.9894 -3.2093 -3.1736 16.2665
# 2 29.4948 84.5362 43.9684 -1.5680 -10.2045 26.0562
# 3 48.9894 43.9684 108.3738 7.7258 -10.7072 11.8500
# 4 -3.2093 -1.5680 7.7258 27.2864 -1.8838 -0.1698
# 5 -3.1736 -10.2045 -10.7072 -1.8838 39.1923 9.3315
# 6 16.2665 26.0562 11.8500 -0.1698 9.3315 25.8486
#
#
#
# Elastic Compliance Matrix: (Units=1/GPa)
#
#
# Indices 1 2 3 4 5 6 
#
# 1 0.011247 0.000585 -0.004736 0.002751 0.001319 -0.005954
# 2 0.000585 0.024405 -0.006527 0.003916 0.010977 -0.025914
# 3 -0.004736 -0.006527 0.014156 -0.004861 0.000905 0.002712
# 4 0.002751 0.003916 -0.004861 0.038739 0.002776 -0.004198
# 5 0.001319 0.010977 0.000905 0.002776 0.034777 -0.024846
# 6 -0.005954 -0.025914 0.002712 -0.004198 -0.024846 0.076255
#
#
# Mechanical properties :
#
#
# Convention : Reuss Voigt Hill
#
# Bulk Modulus (GPa) = 35.14791 61.73211 48.44001
# Shear Modulus (GPa) = 21.69965 31.01420 26.35693
#
# Velocity S-wave (km/s) = 3.14905 3.76473 3.47057
# Velocity P-wave (km/s) = 5.41149 6.86356 6.18032
#
# Compressibility (1/GPa) = 0.02845119
#
# Stress axis : x y z
#
# Youngs Moduli (GPa) = 88.90914 40.97550 70.64265
#
# Poissons Ratio (x) = -0.02396 0.33458
# Poissons Ratio (y) = -0.05198 0.46107
# Poissons Ratio (z) = 0.42110 0.26744
#
# Static dielectric constant tensor:
#      x y z
#    x 4.202450 0.140550 0.035120 
#    y 0.140550 4.003000 0.159330 
#    z 0.035120 0.159330 3.981240 
# 
# 
# High freq. dielectric constant tensor:
#      x y z
#    x 1.872370 0.004160 -0.000970 
#    y 0.004160 1.861870 0.011810 
#    z -0.000970 0.011810 1.871550 
# 
# From -- ./inp_files/482666.got.cif
#   From: 2010.06.25/outbox.ucp.g09.slc.cvg/sg2_242_cif.got.tgz:482666.got - 2010.06.28 11:54:26.
