data_PCOD8038591
_publ_section_title
;
Structure prediction by ZEFSAII (Michael W. Deem and Ramdas Pophale) SiO2 
 PCOD8038591
Probable space group: P -1
;
_chemical_formula_sum "Si O2"
_cell_formula_units_Z 16
_cell_length_a 9.526485
_cell_length_b 24.210962
_cell_length_c 9.637435
_cell_angle_alpha 137.261745
_cell_angle_beta 131.971186
_cell_angle_gamma 28.548666
_cell_volume 719.020473
_symmetry_space_group_name_H-M "P -1"
_symmetry_group_IT_number 2
_symmetry_cell_setting 'triclinic'
loop_
_space_group_symop_operation_xyz
x,y,z
-x,-y,-z
loop_
_atom_site_type_symbol
_atom_site_label
_atom_site_fract_x
_atom_site_fract_y
_atom_site_fract_z
Si Si1 0.848316 0.497180 0.011166
Si Si2 0.717818 0.711727 0.869972
Si Si3 0.662135 0.004025 0.222625
Si Si4 0.223202 0.759005 0.036676
Si Si5 0.833238 0.727273 0.673608
Si Si6 0.519944 0.039540 0.730799
Si Si7 0.167383 0.808346 0.787071
Si Si8 0.818337 0.383617 0.556038
O O1 0.820912 0.419005 0.776237
O O2 0.037695 0.423138 0.138423
O O3 0.525215 0.640400 0.099659
O O4 0.000000 0.500000 0.000000
O O5 0.676910 0.813936 0.104611
O O6 0.834054 0.676348 0.722741
O O7 0.409409 0.765149 0.763822
O O8 0.598889 0.992406 0.310623
O O9 0.015594 0.891040 0.226493
O O10 0.508372 0.141865 0.349706
O O11 0.500000 0.000000 0.000000
O O12 0.295473 0.776845 0.969348
O O13 0.035818 0.739435 0.853054
O O14 0.967292 0.641852 0.463828
O O15 0.500000 0.000000 0.500000
O O16 0.854478 0.956813 0.833465
O O17 0.097838 0.737015 0.582995
O O18 0.500000 0.500000 0.500000
#
# Coordination Sequence:
#
# PCOD8038591 Si02
#       8
#     2   2   2   2   2   2   2   2
#     4  12  24  42  65  97 132 166 219 266 318 383
#     4  12  24  39  65  99 128 167 220 269 316 375
#     4  10  17  38  66  89 123 171 214 254 315 395
#     4  10  18  39  66  87 120 175 214 241 327 380
#     4  10  20  39  67  94 123 173 219 257 322 381
#     4  12  23  39  64 102 129 163 216 271 319 381
#     4  11  21  41  66  91 129 168 217 259 320 382
#     4  11  20  41  68  90 122 178 213 252 324 387
#
# _framework density 22.252497999999999
#
# number of rings (size 3 to 8) (size 9 to 14) (size 15 to 20)
#    0.000    1.000   10.000    1.125    0.000    0.500 
#    0.000    3.750    0.000    2.250    0.000    0.000 
#    0.000    0.000    0.000    0.000    0.000    0.000 
#
# Total GULP energy -198270.778947 kJ/mol
# GULP energy per Si atom -12391.923684 kJ/mol
# Density = 2.220185 g / cm^3
# Si number density = 22.252498 Si / 1000 Ang^3
#
#
#
# Elastic Constant Matrix: (Units=GPa)
#
#
# Indices 1 2 3 4 5 6 
#
# 1 108.0662 31.4148 17.9168 -5.8105 -28.9694 -1.7489
# 2 31.4148 170.9321 14.8939 -0.1176 -16.2513 -11.2360
# 3 17.9168 14.8939 37.6731 3.2504 -21.7106 -0.8451
# 4 -5.8105 -0.1176 3.2504 20.2252 -4.6536 -9.9333
# 5 -28.9694 -16.2513 -21.7106 -4.6536 30.7249 -0.7318
# 6 -1.7489 -11.2360 -0.8451 -9.9333 -0.7318 37.0198
#
#
#
# Elastic Compliance Matrix: (Units=1/GPa)
#
#
# Indices 1 2 3 4 5 6 
#
# 1 0.013837 -0.001061 0.001941 0.008633 0.015236 0.002994
# 2 -0.001061 0.006477 -0.000965 0.001502 0.002026 0.002337
# 3 0.001941 -0.000965 0.045276 0.002025 0.033668 0.002041
# 4 0.008633 0.001502 0.002025 0.065690 0.020766 0.018947
# 5 0.015236 0.002026 0.033668 0.020766 0.075137 0.009161
# 6 0.002994 0.002337 0.002041 0.018947 0.009161 0.033175
#
#
# Mechanical properties :
#
#
# Convention : Reuss Voigt Hill
#
# Bulk Modulus (GPa) = 15.28590 49.45805 32.37197
# Shear Modulus (GPa) = 19.11545 34.42372 26.76959
#
# Velocity S-wave (km/s) = 2.93409 3.93741 3.47218
# Velocity P-wave (km/s) = 4.28518 6.55324 5.53659
#
# Compressibility (1/GPa) = 0.06541977
#
# Stress axis : x y z
#
# Youngs Moduli (GPa) = 72.26964 154.40067 22.08679
#
# Poissons Ratio (x) = 0.16381 -0.04288
# Poissons Ratio (y) = 0.07667 0.02132
# Poissons Ratio (z) = -0.14030 0.14905
#
# Static dielectric constant tensor:
#      x y z
#    x 4.059950 -0.256900 -0.473910 
#    y -0.256900 4.523810 0.303450 
#    z -0.473910 0.303450 3.981050 
# 
# 
# High freq. dielectric constant tensor:
#      x y z
#    x 1.866950 -0.005250 -0.016290 
#    y -0.005250 1.893360 0.008020 
#    z -0.016290 0.008020 1.847800 
# 
# From -- ./inp_files/225547.got.cif
#   From: 2010.06.25/outbox.cif.g09.slc.cpg/sg2_113_cif.got.tgz:225547.got - 2010.06.27 13:26:56.
