data_PCOD8038608
_publ_section_title
;
Structure prediction by ZEFSAII (Michael W. Deem and Ramdas Pophale) SiO2 
 PCOD8038608
Probable space group: P -1
;
_chemical_formula_sum "Si O2"
_cell_formula_units_Z 16
_cell_length_a 12.468971
_cell_length_b 7.188557
_cell_length_c 10.972199
_cell_angle_alpha 118.697050
_cell_angle_beta 89.419677
_cell_angle_gamma 123.369703
_cell_volume 675.769025
_symmetry_space_group_name_H-M "P -1"
_symmetry_group_IT_number 2
_symmetry_cell_setting 'triclinic'
loop_
_space_group_symop_operation_xyz
x,y,z
-x,-y,-z
loop_
_atom_site_type_symbol
_atom_site_label
_atom_site_fract_x
_atom_site_fract_y
_atom_site_fract_z
Si Si1 0.606727 0.312251 0.341503
Si Si2 0.079777 0.527954 0.326083
Si Si3 0.545652 0.302584 0.598182
Si Si4 0.244228 0.481898 0.133435
Si Si5 0.299659 0.002498 0.648435
Si Si6 0.888878 0.930103 0.187003
Si Si7 0.617522 0.092336 0.934325
Si Si8 0.162434 0.500293 0.776504
O O1 0.599326 0.439370 0.506589
O O2 0.619814 0.076933 0.300197
O O3 0.737472 0.517765 0.317832
O O4 0.457644 0.176348 0.234711
O O5 0.948692 0.516204 0.307479
O O6 0.160188 0.584429 0.216295
O O7 0.175739 0.745684 0.494836
O O8 0.027030 0.236802 0.284975
O O9 0.669517 0.505460 0.751581
O O10 0.500000 0.000000 0.500000
O O11 0.407495 0.250898 0.631395
O O12 0.343109 0.665894 0.078990
O O13 0.142483 0.177699 0.986107
O O14 0.243019 0.105249 0.774046
O O15 0.916354 0.758885 0.216506
O O16 0.753336 0.218802 0.055132
O O17 0.500000 0.000000 0.000000
#
# Coordination Sequence:
#
# PCOD8038608 Si02
#       8
#     2   2   2   2   2   2   2   2
#     4  10  17  39  67  92 124 170 216 259 324 381
#     4  12  23  43  67  92 132 180 216 252 329 391
#     4  10  18  36  68  98 121 168 220 269 321 384
#     4  11  21  40  64  98 131 165 221 271 315 386
#     4  11  21  39  68  97 122 172 218 260 328 386
#     4  11  26  41  61 102 131 168 219 267 318 384
#     4   9  18  35  61  90 126 162 205 263 317 371
#     4  10  24  40  63  97 134 171 213 267 321 383
#
# _framework density 23.676729999999999
#
# number of rings (size 3 to 8) (size 9 to 14) (size 15 to 20)
#    0.000    1.500    6.250    0.750    0.000    3.000 
#    0.000    0.625    0.000    0.000    0.000    0.875 
#    0.000    0.000    0.000    0.000    0.000    0.000 
#
# Total GULP energy -198222.901251 kJ/mol
# GULP energy per Si atom -12388.931328 kJ/mol
# Density = 2.362284 g / cm^3
# Si number density = 23.676730 Si / 1000 Ang^3
#
#
#
# Elastic Constant Matrix: (Units=GPa)
#
#
# Indices 1 2 3 4 5 6 
#
# 1 66.3685 6.9905 19.6558 1.7322 7.1585 16.4485
# 2 6.9905 86.7480 31.0513 -6.3111 14.0151 15.2654
# 3 19.6558 31.0513 123.6881 -12.2228 10.1259 10.1669
# 4 1.7322 -6.3111 -12.2228 35.1916 9.2780 -2.1901
# 5 7.1585 14.0151 10.1259 9.2780 32.9009 0.8987
# 6 16.4485 15.2654 10.1669 -2.1901 0.8987 23.6234
#
#
#
# Elastic Compliance Matrix: (Units=1/GPa)
#
#
# Indices 1 2 3 4 5 6 
#
# 1 0.019405 0.002228 -0.002316 -0.001244 -0.003727 -0.013928
# 2 0.002228 0.015292 -0.002543 0.002924 -0.006773 -0.009809
# 3 -0.002316 -0.002543 0.009686 0.003625 -0.002403 -0.000485
# 4 -0.001244 0.002924 0.003625 0.033358 -0.011524 0.000947
# 5 -0.003727 -0.006773 -0.002403 -0.011524 0.037929 0.005494
# 6 -0.013928 -0.009809 -0.000485 0.000947 0.005494 0.058455
#
#
# Mechanical properties :
#
#
# Convention : Reuss Voigt Hill
#
# Bulk Modulus (GPa) = 25.56241 43.57776 34.57008
# Shear Modulus (GPa) = 25.98385 32.95032 29.46709
#
# Velocity S-wave (km/s) = 3.31636 3.73456 3.53166
# Velocity P-wave (km/s) = 5.04819 6.08615 5.59131
#
# Compressibility (1/GPa) = 0.03911994
#
# Stress axis : x y z
#
# Youngs Moduli (GPa) = 51.53347 65.39548 103.23943
#
# Poissons Ratio (x) = -0.14569 0.23910
# Poissons Ratio (y) = -0.11481 0.26255
# Poissons Ratio (z) = 0.11935 0.16631
#
# Static dielectric constant tensor:
#      x y z
#    x 4.100310 0.515130 0.081350 
#    y 0.515130 4.501990 -0.281720 
#    z 0.081350 -0.281720 4.899460 
# 
# 
# High freq. dielectric constant tensor:
#      x y z
#    x 1.905580 0.031800 0.007630 
#    y 0.031800 1.938470 -0.017250 
#    z 0.007630 -0.017250 1.953040 
# 
# From -- ./inp_files/446323.got.cif
#   From: 2010.06.25/outbox.cif.g09.slc.cpg/sg2_224_cif.got.tgz:446323.got - 2010.06.27 13:26:56.
