data_PCOD8038555
_publ_section_title
;
Structure prediction by ZEFSAII (Michael W. Deem and Ramdas Pophale) SiO2 
 PCOD8038555
Probable space group: P -1
;
_chemical_formula_sum "Si O2"
_cell_formula_units_Z 12
_cell_length_a 27.658589
_cell_length_b 15.419488
_cell_length_c 9.217901
_cell_angle_alpha 35.265821
_cell_angle_beta 28.263314
_cell_angle_gamma 18.252177
_cell_volume 577.719467
_symmetry_space_group_name_H-M "P -1"
_symmetry_group_IT_number 2
_symmetry_cell_setting 'triclinic'
loop_
_space_group_symop_operation_xyz
x,y,z
-x,-y,-z
loop_
_atom_site_type_symbol
_atom_site_label
_atom_site_fract_x
_atom_site_fract_y
_atom_site_fract_z
Si Si1 0.572445 0.751159 0.703639
Si Si2 0.162303 0.735301 0.829135
Si Si3 0.750010 0.059543 0.746669
Si Si4 0.124670 0.247643 0.901566
Si Si5 0.193176 0.466456 0.336882
Si Si6 0.093401 0.743590 0.681388
O O1 0.714990 0.583619 0.690986
O O2 0.685952 0.533483 0.568686
O O3 0.500000 0.000000 0.500000
O O4 0.395422 0.864921 0.061428
O O5 0.303865 0.698014 0.465722
O O6 0.069444 0.786918 0.857610
O O7 0.272221 0.463609 0.994166
O O8 0.000000 0.000000 0.000000
O O9 0.965753 0.767657 0.524960
O O10 0.732791 0.034334 0.997116
O O11 0.238162 0.231325 0.527057
O O12 0.000000 0.500000 0.000000
O O13 0.998276 0.301528 0.058942
O O14 0.000000 0.000000 0.500000
#
# Coordination Sequence:
#
# PCOD8038555 Si02
#       6
#     2   2   2   2   2   2
#     4  12  22  38  71  96 125 174 219 263 321 388
#     4  10  22  40  61  92 135 169 207 271 326 374
#     4  10  19  37  64  93 123 167 214 259 322 375
#     4  10  17  37  64  91 123 162 212 260 308 379
#     4  10  20  40  62  91 131 165 208 270 317 377
#     4  12  22  40  70 100 124 174 221 261 323 390
#
# _framework density 20.771326999999999
#
# number of rings (size 3 to 8) (size 9 to 14) (size 15 to 20)
#    0.000    1.333    6.667    2.000    0.000    2.000 
#    0.000    0.833    0.000    0.000    0.000    0.000 
#    0.000    0.000    0.000    0.000    0.000    0.000 
#
# Total GULP energy -148696.094850 kJ/mol
# GULP energy per Si atom -12391.341238 kJ/mol
# Density = 2.072405 g / cm^3
# Si number density = 20.771327 Si / 1000 Ang^3
#
#
#
# Elastic Constant Matrix: (Units=GPa)
#
#
# Indices 1 2 3 4 5 6 
#
# 1 143.8119 36.0806 65.4566 -8.7571 -5.7490 6.9975
# 2 36.0806 85.9165 64.7849 -25.8508 7.4376 -3.4536
# 3 65.4566 64.7849 139.4901 -53.5956 -20.1613 -9.7881
# 4 -8.7571 -25.8508 -53.5956 58.3091 -7.8478 -1.3842
# 5 -5.7490 7.4376 -20.1613 -7.8478 46.6347 -7.5841
# 6 6.9975 -3.4536 -9.7881 -1.3842 -7.5841 25.2691
#
#
#
# Elastic Compliance Matrix: (Units=1/GPa)
#
#
# Indices 1 2 3 4 5 6 
#
# 1 0.011262 0.000805 -0.010630 -0.008805 -0.006365 -0.009519
# 2 0.000805 0.021373 -0.014592 -0.005544 -0.011650 -0.006754
# 3 -0.010630 -0.014592 0.034772 0.027747 0.024507 0.023294
# 4 -0.008805 -0.005544 0.027747 0.042401 0.022423 0.021481
# 5 -0.006365 -0.011650 0.024507 0.022423 0.040640 0.023089
# 6 -0.009519 -0.006754 0.023294 0.021481 0.023089 0.058417
#
#
# Mechanical properties :
#
#
# Convention : Reuss Voigt Hill
#
# Bulk Modulus (GPa) = 53.84147 77.98476 65.91312
# Shear Modulus (GPa) = 18.94723 39.56900 29.25812
#
# Velocity S-wave (km/s) = 3.02351 4.36934 3.75718
# Velocity P-wave (km/s) = 6.17788 7.94234 7.11502
#
# Compressibility (1/GPa) = 0.01857304
#
# Stress axis : x y z
#
# Youngs Moduli (GPa) = 88.79135 46.78758 28.75877
#
# Poissons Ratio (x) = -0.03766 0.30570
# Poissons Ratio (y) = -0.07146 0.41966
# Poissons Ratio (z) = 0.94383 0.68274
#
# Static dielectric constant tensor:
#      x y z
#    x 3.718490 -0.187150 -0.103020 
#    y -0.187150 4.240260 -1.224790 
#    z -0.103020 -1.224790 4.488310 
# 
# 
# High freq. dielectric constant tensor:
#      x y z
#    x 1.801390 -0.010110 -0.017620 
#    y -0.010110 1.799700 -0.040850 
#    z -0.017620 -0.040850 1.813620 
# 
# From -- ./inp_files/153709.got.cif
#   From: 2010.06.25/outbox.cif.g09.slc.cpg/sg2_77_cif.got.tgz:153709.got - 2010.06.27 13:26:56.
