data_PCOD8038435
_publ_section_title
;
Structure prediction by ZEFSAII (Michael W. Deem and Ramdas Pophale) SiO2 
 PCOD8038435
Probable space group: P -1
;
_chemical_formula_sum "Si O2"
_cell_formula_units_Z 16
_cell_length_a 14.679324
_cell_length_b 13.838141
_cell_length_c 13.811739
_cell_angle_alpha 30.402746
_cell_angle_beta 136.618221
_cell_angle_gamma 151.120023
_cell_volume 681.106287
_symmetry_space_group_name_H-M "P -1"
_symmetry_group_IT_number 2
_symmetry_cell_setting 'triclinic'
loop_
_space_group_symop_operation_xyz
x,y,z
-x,-y,-z
loop_
_atom_site_type_symbol
_atom_site_label
_atom_site_fract_x
_atom_site_fract_y
_atom_site_fract_z
Si Si1 0.110357 0.771242 0.007082
Si Si2 0.865139 0.699672 0.194576
Si Si3 0.603006 0.815398 0.498386
Si Si4 0.245972 0.516674 0.387405
Si Si5 0.769383 0.543084 0.051269
Si Si6 0.087073 0.889191 0.377137
Si Si7 0.401361 0.301106 0.898358
Si Si8 0.812619 0.901258 0.401415
O O1 0.891100 0.535249 0.078991
O O2 0.227270 0.001065 0.981907
O O3 0.134258 0.890294 0.819213
O O4 0.183712 0.630374 0.175926
O O5 0.679766 0.609660 0.175700
O O6 0.985137 0.694168 0.370969
O O7 0.801221 0.507855 0.218175
O O8 0.000000 0.000000 0.000000
O O9 0.420092 0.759831 0.382525
O O10 0.526561 0.524992 0.716549
O O11 0.719686 0.922766 0.397171
O O12 0.733524 0.035156 0.498244
O O13 0.315862 0.409013 0.468643
O O14 0.073704 0.251789 0.544667
O O15 0.543063 0.304417 0.062839
O O16 0.842787 0.832259 0.841111
O O17 0.000000 0.000000 0.500000
#
# Coordination Sequence:
#
# PCOD8038435 Si02
#       8
#     2   2   2   2   2   2   2   2
#     4  12  25  42  64  95 135 168 211 265 317 377
#     4  10  17  35  70  95 125 169 215 259 323 379
#     4  11  22  40  69  88 125 176 209 261 323 372
#     4  12  24  42  65  92 131 170 213 265 317 376
#     4  10  20  38  67  97 125 174 212 264 319 378
#     4  10  19  40  63  91 127 165 208 265 313 372
#     4  11  20  39  64  94 131 168 216 260 316 384
#     4  12  23  46  66  92 131 168 215 264 316 379
#
# _framework density 23.491192999999999
#
# number of rings (size 3 to 8) (size 9 to 14) (size 15 to 20)
#    0.000    1.000    7.500    1.500    0.000    2.000 
#    0.000    0.625    0.000    1.500    0.000    0.000 
#    0.000    0.000    0.000    0.000    0.000    0.000 
#
# Total GULP energy -198251.998126 kJ/mol
# GULP energy per Si atom -12390.749883 kJ/mol
# Density = 2.343773 g / cm^3
# Si number density = 23.491193 Si / 1000 Ang^3
#
#
#
# Elastic Constant Matrix: (Units=GPa)
#
#
# Indices 1 2 3 4 5 6 
#
# 1 72.7726 31.7161 31.0024 8.6247 -20.6569 -2.9550
# 2 31.7161 130.5199 33.9488 47.0114 -10.5496 13.1829
# 3 31.0024 33.9488 75.3887 32.1115 -12.8643 -14.0657
# 4 8.6247 47.0114 32.1115 40.8671 -2.7227 -1.2460
# 5 -20.6569 -10.5496 -12.8643 -2.7227 24.2300 6.2912
# 6 -2.9550 13.1829 -14.0657 -1.2460 6.2912 28.8717
#
#
#
# Elastic Compliance Matrix: (Units=1/GPa)
#
#
# Indices 1 2 3 4 5 6 
#
# 1 0.022465 -0.004941 -0.008789 0.008704 0.013933 -0.002387
# 2 -0.004941 0.016683 0.001946 -0.019671 0.004195 -0.008938
# 3 -0.008789 0.001946 0.027555 -0.021532 0.002952 0.010064
# 4 0.008704 -0.019671 -0.021532 0.061851 -0.006528 0.003474
# 5 0.013933 0.004195 0.002952 -0.006528 0.058973 -0.012183
# 6 -0.002387 -0.008938 0.010064 0.003474 -0.012183 0.046180
#
#
# Mechanical properties :
#
#
# Convention : Reuss Voigt Hill
#
# Bulk Modulus (GPa) = 23.18208 52.44620 37.81414
# Shear Modulus (GPa) = 18.40576 30.92803 24.66689
#
# Velocity S-wave (km/s) = 2.80217 3.63241 3.24396
# Velocity P-wave (km/s) = 4.51214 6.32194 5.49210
#
# Compressibility (1/GPa) = 0.04313676
#
# Stress axis : x y z
#
# Youngs Moduli (GPa) = 44.51282 59.94096 36.29057
#
# Poissons Ratio (x) = 0.29616 0.31895
# Poissons Ratio (y) = 0.21993 -0.07062
# Poissons Ratio (z) = 0.39121 -0.11665
#
# Static dielectric constant tensor:
#      x y z
#    x 4.481910 -0.314160 -0.654220 
#    y -0.314160 4.967440 0.521050 
#    z -0.654220 0.521050 4.202920 
# 
# 
# High freq. dielectric constant tensor:
#      x y z
#    x 1.904940 0.007740 -0.026240 
#    y 0.007740 1.949540 0.024980 
#    z -0.026240 0.024980 1.912400 
# 
# From -- ./inp_files/534144.got.cif
#   From: 2010.06.25/outbox.cif.g09.slc.cpg/sg2_268_cif.got.tgz:534144.got - 2010.06.27 13:26:56.
