data_PCOD8038352
_publ_section_title
;
Structure prediction by ZEFSAII (Michael W. Deem and Ramdas Pophale) SiO2 
 PCOD8038352
Probable space group: P -1
;
_chemical_formula_sum "Si O2"
_cell_formula_units_Z 16
_cell_length_a 11.648660
_cell_length_b 17.776284
_cell_length_c 11.902637
_cell_angle_alpha 30.709581
_cell_angle_beta 49.307938
_cell_angle_gamma 68.793795
_cell_volume 818.924516
_symmetry_space_group_name_H-M "P -1"
_symmetry_group_IT_number 2
_symmetry_cell_setting 'triclinic'
loop_
_space_group_symop_operation_xyz
x,y,z
-x,-y,-z
loop_
_atom_site_type_symbol
_atom_site_label
_atom_site_fract_x
_atom_site_fract_y
_atom_site_fract_z
Si Si1 0.548444 0.438678 0.755089
Si Si2 0.382847 0.112638 0.138047
Si Si3 0.652288 0.991999 0.171769
Si Si4 0.314794 0.209491 0.388826
Si Si5 0.079223 0.921156 0.733151
Si Si6 0.967335 0.810765 0.271859
Si Si7 0.075108 0.398688 0.641476
Si Si8 0.319495 0.174425 0.860223
O O1 0.742609 0.465588 0.591950
O O2 0.561846 0.619425 0.491684
O O3 0.436170 0.301225 0.907409
O O4 0.471502 0.367105 0.019971
O O5 0.505756 0.046354 0.196902
O O6 0.178731 0.985054 0.468707
O O7 0.395726 0.119447 0.986841
O O8 0.610748 0.854226 0.474743
O O9 0.654197 0.909649 0.158255
O O10 0.844839 0.166965 0.841691
O O11 0.189793 0.282428 0.417407
O O12 0.203624 0.048381 0.586310
O O13 0.057539 0.734719 0.010018
O O14 0.885635 0.897048 0.889664
O O15 0.893074 0.714722 0.324833
O O16 0.000000 0.000000 0.000000
O O17 0.000000 0.500000 0.500000
#
# Coordination Sequence:
#
# PCOD8038352 Si02
#       8
#     2   2   2   2   2   2   2   2
#     4  10  23  36  59  86 117 149 188 243 285 343
#     4  11  24  38  60  85 116 157 196 237 272 336
#     4  11  21  35  64  87 117 144 192 246 286 337
#     4  10  19  36  62  90 109 147 193 232 299 343
#     4  10  20  38  61  84 112 154 196 232 278 351
#     4  10  17  35  58  81 115 150 183 225 288 360
#     4  11  21  33  54  87 121 143 175 237 306 337
#     4  11  22  42  59  82 115 161 200 224 279 342
#
# _framework density 19.537821000000001
#
# number of rings (size 3 to 8) (size 9 to 14) (size 15 to 20)
#    0.000    1.500    3.750    4.125    1.750    3.000 
#    0.000    0.000    0.000    0.750    0.000    0.000 
#    0.000    0.000    0.000    0.000    0.000    0.000 
#
# Total GULP energy -198315.457602 kJ/mol
# GULP energy per Si atom -12394.716100 kJ/mol
# Density = 1.949335 g / cm^3
# Si number density = 19.537821 Si / 1000 Ang^3
#
#
#
# Elastic Constant Matrix: (Units=GPa)
#
#
# Indices 1 2 3 4 5 6 
#
# 1 74.1577 13.7464 37.6492 9.0738 10.8878 6.6471
# 2 13.7464 55.8494 27.3986 8.9263 5.6763 5.6502
# 3 37.6492 27.3986 126.0945 13.0547 1.0277 4.1660
# 4 9.0738 8.9263 13.0547 21.9326 4.8453 4.7684
# 5 10.8878 5.6763 1.0277 4.8453 25.1078 6.0553
# 6 6.6471 5.6502 4.1660 4.7684 6.0553 32.9864
#
#
#
# Elastic Compliance Matrix: (Units=1/GPa)
#
#
# Indices 1 2 3 4 5 6 
#
# 1 0.017344 -0.000827 -0.004659 -0.002384 -0.006382 -0.001249
# 2 -0.000827 0.021231 -0.003763 -0.005042 -0.002896 -0.001734
# 3 -0.004659 -0.003763 0.010469 -0.003495 0.003068 0.000203
# 4 -0.002384 -0.005042 -0.003495 0.053234 -0.006834 -0.004656
# 5 -0.006382 -0.002896 0.003068 -0.006834 0.045901 -0.006044
# 6 -0.001249 -0.001734 0.000203 -0.004656 -0.006044 0.032621
#
#
# Mechanical properties :
#
#
# Convention : Reuss Voigt Hill
#
# Bulk Modulus (GPa) = 32.73820 45.96555 39.35187
# Shear Modulus (GPa) = 23.86855 27.82587 25.84721
#
# Velocity S-wave (km/s) = 3.49902 3.77796 3.64116
# Velocity P-wave (km/s) = 5.75472 6.52749 6.15325
#
# Compressibility (1/GPa) = 0.03054536
#
# Stress axis : x y z
#
# Youngs Moduli (GPa) = 57.65689 47.10172 95.51725
#
# Poissons Ratio (x) = 0.03897 0.44498
# Poissons Ratio (y) = 0.04771 0.35945
# Poissons Ratio (z) = 0.26860 0.17725
#
# Static dielectric constant tensor:
#      x y z
#    x 3.572460 -0.050290 -0.138390 
#    y -0.050290 3.299930 0.462990 
#    z -0.138390 0.462990 3.941010 
# 
# 
# High freq. dielectric constant tensor:
#      x y z
#    x 1.754660 0.007770 -0.006900 
#    y 0.007770 1.753040 0.006640 
#    z -0.006900 0.006640 1.766030 
# 
# From -- ./inp_files/217863.got.cif
#   From: 2010.06.25/outbox.cif.g09.slc.cpg/sg2_109_cif.got.tgz:217863.got - 2010.06.27 13:26:56.
