data_PCOD8038263
_publ_section_title
;
Structure prediction by ZEFSAII (Michael W. Deem and Ramdas Pophale) SiO2 
 PCOD8038263
Probable space group: P -1
;
_chemical_formula_sum "Si O2"
_cell_formula_units_Z 16
_cell_length_a 9.000000
_cell_length_b 12.000000
_cell_length_c 18.000000
_cell_angle_alpha 150.000000
_cell_angle_beta 60.000000
_cell_angle_gamma 130.000000
_cell_volume 736.400153
_symmetry_space_group_name_H-M "P -1"
_symmetry_group_IT_number 2
_symmetry_cell_setting 'triclinic'
loop_
_space_group_symop_operation_xyz
x,y,z
-x,-y,-z
loop_
_atom_site_type_symbol
_atom_site_label
_atom_site_fract_x
_atom_site_fract_y
_atom_site_fract_z
Si Si1 0.994923 0.628369 0.151431
Si Si2 0.009822 0.567452 0.696376
Si Si3 0.627511 0.018038 0.324330
Si Si4 0.234367 0.575334 0.189004
Si Si5 0.563055 0.269602 0.100261
Si Si6 0.295056 0.435745 0.345281
Si Si7 0.032101 0.130405 0.360567
Si Si8 0.675344 0.875391 0.070635
O O1 0.796121 0.453080 0.145467
O O2 0.170875 0.637590 0.161797
O O3 0.028636 0.913029 0.289817
O O4 0.000000 0.500000 0.000000
O O5 0.909050 0.418129 0.709622
O O6 0.863159 0.605413 0.701120
O O7 0.095724 0.396255 0.540580
O O8 0.170715 0.850383 0.841604
O O9 0.446895 0.803045 0.291102
O O10 0.588474 0.916318 0.191615
O O11 0.627816 0.285438 0.478217
O O12 0.821439 0.033486 0.319558
O O13 0.229888 0.304143 0.037118
O O14 0.475831 0.418010 0.255100
O O15 0.492148 0.245183 0.018955
O O16 0.500000 0.000000 0.000000
O O17 0.194397 0.209734 0.300959
#
# Coordination Sequence:
#
# PCOD8038263 Si02
#       8
#     2   2   2   2   2   2   2   2
#     4  12  27  47  68  99 144 186 219 284 349 403
#     4  11  23  41  72 103 134 179 225 289 337 402
#     4  11  23  43  72 103 131 180 233 277 341 407
#     4  12  26  41  70 103 138 174 236 284 333 404
#     4  12  27  44  71 103 137 181 229 281 347 403
#     4  11  23  46  70 102 136 180 227 284 343 404
#     4  11  23  45  72  98 143 177 228 277 352 402
#     4  12  22  45  70 102 132 178 234 279 331 412
#
# _framework density 21.727318
#
# number of rings (size 3 to 8) (size 9 to 14) (size 15 to 20)
#    0.000    0.500    3.750    5.250    3.500    1.500 
#    2.250    1.250    0.000    0.000    0.000    0.000 
#    0.000    0.000    0.000    0.000    0.000    0.000 
#
# Total GULP energy -198423.180545 kJ/mol
# GULP energy per Si atom -12401.448784 kJ/mol
# Density = 2.167787 g / cm^3
# Si number density = 21.727318 Si / 1000 Ang^3
#
#
#
# Elastic Constant Matrix: (Units=GPa)
#
#
# Indices 1 2 3 4 5 6 
#
# 1 59.6770 11.9933 49.4741 2.0366 -2.4085 -19.5030
# 2 11.9933 103.3193 31.3870 26.1783 2.8440 -6.6666
# 3 49.4741 31.3870 94.7301 16.4109 -12.2489 -2.1618
# 4 2.0366 26.1783 16.4109 39.8391 -4.6412 -0.1925
# 5 -2.4085 2.8440 -12.2489 -4.6412 34.2993 7.1728
# 6 -19.5030 -6.6666 -2.1618 -0.1925 7.1728 43.3470
#
#
#
# Elastic Compliance Matrix: (Units=1/GPa)
#
#
# Indices 1 2 3 4 5 6 
#
# 1 0.043040 0.002885 -0.025134 0.005224 -0.009707 0.020185
# 2 0.002885 0.013062 -0.005088 -0.007135 -0.004449 0.003758
# 3 -0.025134 -0.005088 0.027369 -0.005507 0.010290 -0.012453
# 4 0.005224 -0.007135 -0.005507 0.032169 0.003222 0.000588
# 5 -0.009707 -0.004449 0.010290 0.003222 0.035114 -0.010335
# 6 0.020185 0.003758 -0.012453 0.000588 -0.010335 0.033821
#
#
# Mechanical properties :
#
#
# Convention : Reuss Voigt Hill
#
# Bulk Modulus (GPa) = 34.72476 49.27060 41.99768
# Shear Modulus (GPa) = 20.09253 34.48854 27.29054
#
# Velocity S-wave (km/s) = 3.04428 3.98846 3.54792
# Velocity P-wave (km/s) = 5.32669 6.62846 6.01291
#
# Compressibility (1/GPa) = 0.02879790
#
# Stress axis : x y z
#
# Youngs Moduli (GPa) = 23.23405 76.55642 36.53760
#
# Poissons Ratio (x) = -0.22088 0.91833
# Poissons Ratio (y) = -0.06703 0.18591
# Poissons Ratio (z) = 0.58396 0.38954
#
# Static dielectric constant tensor:
#      x y z
#    x 3.957070 -0.033820 0.110180 
#    y -0.033820 4.208870 0.250120 
#    z 0.110180 0.250120 4.893660 
# 
# 
# High freq. dielectric constant tensor:
#      x y z
#    x 1.847930 -0.006780 -0.005690 
#    y -0.006780 1.876490 0.006650 
#    z -0.005690 0.006650 1.866800 
# 
# From -- ./inp_files/209313.got.cif
#   From: 2010.06.25/outbox.ucp.g09.slc.cvg/sg2_105_cif.got.tgz:209313.got - 2010.06.28 11:54:26.
