data_PCOD8038143
_publ_section_title
;
Structure prediction by ZEFSAII (Michael W. Deem and Ramdas Pophale) SiO2 
 PCOD8038143
Probable space group: P -1
;
_chemical_formula_sum "Si O2"
_cell_formula_units_Z 16
_cell_length_a 8.065190
_cell_length_b 14.020610
_cell_length_c 14.812621
_cell_angle_alpha 30.400858
_cell_angle_beta 62.874528
_cell_angle_gamma 77.345628
_cell_volume 695.695083
_symmetry_space_group_name_H-M "P -1"
_symmetry_group_IT_number 2
_symmetry_cell_setting 'triclinic'
loop_
_space_group_symop_operation_xyz
x,y,z
-x,-y,-z
loop_
_atom_site_type_symbol
_atom_site_label
_atom_site_fract_x
_atom_site_fract_y
_atom_site_fract_z
Si Si1 0.747067 0.312203 0.465421
Si Si2 0.370067 0.402405 0.420889
Si Si3 0.785140 0.001401 0.583722
Si Si4 0.601083 0.590437 0.045508
Si Si5 0.947294 0.718223 0.999260
Si Si6 0.210682 0.658046 0.357506
Si Si7 0.794213 0.307320 0.184183
Si Si8 0.966398 0.045056 0.869482
O O1 0.533474 0.312736 0.484284
O O2 0.786195 0.110789 0.590817
O O3 0.769475 0.348497 0.535707
O O4 0.921651 0.497187 0.222144
O O5 0.399476 0.486806 0.240963
O O6 0.386036 0.597474 0.319746
O O7 0.153686 0.221717 0.631442
O O8 0.716016 0.130337 0.423274
O O9 0.000000 0.000000 0.500000
O O10 0.614131 0.769915 0.824986
O O11 0.626122 0.404119 0.136269
O O12 0.782636 0.706216 0.975201
O O13 0.167783 0.799033 0.830061
O O14 0.921952 0.844014 0.987248
O O15 0.000000 0.500000 0.500000
O O16 0.224232 0.884921 0.141664
O O17 0.000000 0.500000 0.000000
O O18 0.000000 0.000000 0.000000
#
# Coordination Sequence:
#
# PCOD8038143 Si02
#       8
#     2   2   2   2   2   2   2   2
#     4  11  21  38  65  95 123 161 209 259 311 362
#     4  10  22  42  60  87 132 161 204 268 307 366
#     4  12  19  32  62  94 124 164 203 256 306 368
#     4  10  20  36  59  92 125 157 208 257 309 356
#     4  10  18  35  60  88 121 161 202 252 304 366
#     4  10  22  39  59  88 120 162 207 253 308 379
#     4  10  17  34  55  91 128 152 207 255 302 361
#     4  11  24  42  63  88 123 168 210 252 321 378
#
# _framework density 22.998581000000001
#
# number of rings (size 3 to 8) (size 9 to 14) (size 15 to 20)
#    0.000    1.500    6.250    2.625    0.000    2.000 
#    0.000    4.375    0.000    0.750    0.000    0.000 
#    0.000    0.000    0.000    0.000    0.000    0.000 
#
# Total GULP energy -198242.855751 kJ/mol
# GULP energy per Si atom -12390.178484 kJ/mol
# Density = 2.294624 g / cm^3
# Si number density = 22.998581 Si / 1000 Ang^3
#
#
#
# Elastic Constant Matrix: (Units=GPa)
#
#
# Indices 1 2 3 4 5 6 
#
# 1 28.5284 16.8494 9.0783 -6.1872 7.3865 -11.1031
# 2 16.8494 133.7104 0.7624 -10.9542 2.1359 -32.6532
# 3 9.0783 0.7624 127.6653 -4.2892 13.7180 -20.2607
# 4 -6.1872 -10.9542 -4.2892 35.8321 -10.7778 3.5025
# 5 7.3865 2.1359 13.7180 -10.7778 24.4889 0.3514
# 6 -11.1031 -32.6532 -20.2607 3.5025 0.3514 28.4939
#
#
#
# Elastic Compliance Matrix: (Units=1/GPa)
#
#
# Indices 1 2 3 4 5 6 
#
# 1 0.046143 -0.001245 0.001002 0.001877 -0.013792 0.017206
# 2 -0.001245 0.011165 0.002427 0.001714 -0.001402 0.013842
# 3 0.001002 0.002427 0.010117 -0.000935 -0.006744 0.010563
# 4 0.001877 0.001714 -0.000935 0.033210 0.014456 -0.002230
# 5 -0.013792 -0.001402 -0.006744 0.014456 0.055462 -0.014237
# 6 0.017206 0.013842 0.010563 -0.002230 -0.014237 0.065623
#
#
# Mechanical properties :
#
#
# Convention : Reuss Voigt Hill
#
# Bulk Modulus (GPa) = 13.92884 38.14270 26.03577
# Shear Modulus (GPa) = 20.72253 35.31061 28.01657
#
# Velocity S-wave (km/s) = 3.00498 3.92259 3.49404
# Velocity P-wave (km/s) = 4.25552 6.09397 5.25575
#
# Compressibility (1/GPa) = 0.07179349
#
# Stress axis : x y z
#
# Youngs Moduli (GPa) = 21.67159 89.56562 98.84424
#
# Poissons Ratio (x) = 0.11147 -0.09902
# Poissons Ratio (y) = 0.02697 -0.23988
# Poissons Ratio (z) = -0.02171 -0.21736
#
# Static dielectric constant tensor:
#      x y z
#    x 4.173190 1.252360 5.091570 
#    y 1.252360 11.699940 19.168130 
#    z 5.091570 19.168130 58.931340 
# 
# 
# High freq. dielectric constant tensor:
#      x y z
#    x 1.861860 -0.019230 0.018550 
#    y -0.019230 1.938290 0.002760 
#    z 0.018550 0.002760 1.913880 
# 
# From -- ./inp_files/504918.got.cif
#   From: 2010.06.25/outbox.cif.g09.slc.cpg/sg2_253_cif.got.tgz:504918.got - 2010.06.27 13:26:56.
