data_PCOD8038628
_publ_section_title
;
Structure prediction by ZEFSAII (Michael W. Deem and Ramdas Pophale) SiO2 
 PCOD8038628
Probable space group: P -1
;
_chemical_formula_sum "Si O2"
_cell_formula_units_Z 16
_cell_length_a 16.048547
_cell_length_b 11.119415
_cell_length_c 11.811508
_cell_angle_alpha 118.763652
_cell_angle_beta 154.762347
_cell_angle_gamma 54.656593
_cell_volume 727.686640
_symmetry_space_group_name_H-M "P -1"
_symmetry_group_IT_number 2
_symmetry_cell_setting 'triclinic'
loop_
_space_group_symop_operation_xyz
x,y,z
-x,-y,-z
loop_
_atom_site_type_symbol
_atom_site_label
_atom_site_fract_x
_atom_site_fract_y
_atom_site_fract_z
Si Si1 0.205683 0.641814 0.926381
Si Si2 0.973664 0.744261 0.467897
Si Si3 0.769284 0.788125 0.717401
Si Si4 0.659417 0.022816 0.118653
Si Si5 0.826813 0.559323 0.515828
Si Si6 0.494076 0.944758 0.650143
Si Si7 0.154972 0.839713 0.155093
Si Si8 0.407466 0.338054 0.944717
O O1 0.402781 0.484554 0.073080
O O2 0.132484 0.735094 0.762078
O O3 0.009999 0.608727 0.717834
O O4 0.267434 0.741489 0.137882
O O5 0.775638 0.711282 0.255572
O O6 0.093235 0.619696 0.463423
O O7 0.896080 0.908592 0.390663
O O8 0.757987 0.633249 0.588670
O O9 0.675291 0.826977 0.743507
O O10 0.643234 0.911608 0.525834
O O11 0.016470 0.767292 0.021615
O O12 0.632219 0.196605 0.168600
O O13 0.601370 0.988609 0.906682
O O14 0.500000 0.000000 0.000000
O O15 0.630935 0.620999 0.216221
O O16 0.342156 0.860256 0.467452
O O17 0.000000 0.000000 0.000000
#
# Coordination Sequence:
#
# PCOD8038628 Si02
#       8
#     2   2   2   2   2   2   2   2
#     4   8  14  26  46  72  95 126 175 205 247 300
#     4   8  15  23  43  72  98 129 167 209 248 304
#     4   9  17  31  52  73 103 133 167 217 250 298
#     4  10  18  27  46  76 105 129 167 214 253 302
#     4   8  12  25  45  68  94 127 171 204 247 295
#     4  10  19  31  49  82  99 131 174 209 255 301
#     4   9  18  29  51  78 102 130 167 219 251 298
#     4   8  13  24  43  67  96 130 167 211 243 296
#
# _framework density 21.987487000000002
#
# number of rings (size 3 to 8) (size 9 to 14) (size 15 to 20)
#    0.000    3.250    1.250    1.500    5.250    0.000 
#    0.000    0.625    0.000   15.750    0.000    0.000 
#    0.000    0.000    0.000    0.000    0.000    0.000 
#
# Total GULP energy -198221.484005 kJ/mol
# GULP energy per Si atom -12388.842750 kJ/mol
# Density = 2.193744 g / cm^3
# Si number density = 21.987487 Si / 1000 Ang^3
#
#
#
# Elastic Constant Matrix: (Units=GPa)
#
#
# Indices 1 2 3 4 5 6 
#
# 1 59.3016 26.5298 11.4355 -3.6175 -8.7816 -27.5448
# 2 26.5298 162.1164 37.3881 -23.2712 -7.3168 -33.9349
# 3 11.4355 37.3881 37.0418 -14.0874 -5.5903 -4.7332
# 4 -3.6175 -23.2712 -14.0874 32.7890 -1.4452 -1.7721
# 5 -8.7816 -7.3168 -5.5903 -1.4452 15.0575 2.2511
# 6 -27.5448 -33.9349 -4.7332 -1.7721 2.2511 34.0122
#
#
#
# Elastic Compliance Matrix: (Units=1/GPa)
#
#
# Indices 1 2 3 4 5 6 
#
# 1 0.031699 0.003243 -0.005173 0.005706 0.014576 0.027520
# 2 0.003243 0.011061 -0.007976 0.005595 0.002951 0.012649
# 3 -0.005173 -0.007976 0.042000 0.011943 0.010802 -0.006396
# 4 0.005706 0.005595 0.011943 0.041494 0.012490 0.013201
# 5 0.014576 0.002951 0.010802 0.012490 0.079819 0.011620
# 6 0.027520 0.012649 -0.006396 0.013201 0.011620 0.063337
#
#
# Mechanical properties :
#
#
# Convention : Reuss Voigt Hill
#
# Bulk Modulus (GPa) = 15.39717 45.46295 30.43006
# Shear Modulus (GPa) = 16.08384 28.57884 22.33134
#
# Velocity S-wave (km/s) = 2.70756 3.60915 3.19037
# Velocity P-wave (km/s) = 4.09785 6.17168 5.23842
#
# Compressibility (1/GPa) = 0.06494699
#
# Stress axis : x y z
#
# Youngs Moduli (GPa) = 31.54702 90.40544 23.80962
#
# Poissons Ratio (x) = -0.29320 0.12317
# Poissons Ratio (y) = -0.10231 0.18992
# Poissons Ratio (z) = 0.16320 0.72111
#
# Static dielectric constant tensor:
#      x y z
#    x 3.814930 -0.417020 0.042620 
#    y -0.417020 4.683560 -0.096710 
#    z 0.042620 -0.096710 3.883500 
# 
# 
# High freq. dielectric constant tensor:
#      x y z
#    x 1.840840 -0.032450 0.013540 
#    y -0.032450 1.873650 0.009250 
#    z 0.013540 0.009250 1.821630 
# 
# From -- ./inp_files/260066.got.cif
#   From: 2010.06.25/outbox.cif.g09.slc.cpg/sg2_131_cif.got.tgz:260066.got - 2010.06.27 13:26:56.
