data_PCOD8038703
_publ_section_title
;
Structure prediction by ZEFSAII (Michael W. Deem and Ramdas Pophale) SiO2 
 PCOD8038703
Probable space group: P -1
;
_chemical_formula_sum "Si O2"
_cell_formula_units_Z 16
_cell_length_a 9.504849
_cell_length_b 29.045394
_cell_length_c 22.214399
_cell_angle_alpha 19.015382
_cell_angle_beta 152.991055
_cell_angle_gamma 144.227027
_cell_volume 887.327744
_symmetry_space_group_name_H-M "P -1"
_symmetry_group_IT_number 2
_symmetry_cell_setting 'triclinic'
loop_
_space_group_symop_operation_xyz
x,y,z
-x,-y,-z
loop_
_atom_site_type_symbol
_atom_site_label
_atom_site_fract_x
_atom_site_fract_y
_atom_site_fract_z
Si Si1 0.245751 0.316462 0.865030
Si Si2 0.342396 0.305681 0.388351
Si Si3 0.209957 0.852325 0.046808
Si Si4 0.894018 0.392657 0.008830
Si Si5 0.123355 0.550456 0.796117
Si Si6 0.778237 0.836019 0.369660
Si Si7 0.003597 0.640530 0.412626
Si Si8 0.664690 0.629058 0.415821
O O1 0.095664 0.468703 0.650170
O O2 0.119388 0.198652 0.003078
O O3 0.133571 0.291918 0.785617
O O4 0.624817 0.297399 0.028532
O O5 0.246114 0.180427 0.547250
O O6 0.716704 0.283634 0.553249
O O7 0.200165 0.301139 0.272935
O O8 0.220339 0.457583 0.186303
O O9 0.430828 0.834452 0.212289
O O10 0.415910 0.760677 0.186655
O O11 0.109257 0.017546 0.783606
O O12 0.977637 0.429749 0.926405
O O13 0.043653 0.704857 0.607700
O O14 0.972326 0.569951 0.647965
O O15 0.500000 0.500000 0.000000
O O16 0.756003 0.682484 0.319988
O O17 0.500000 0.500000 0.500000
#
# Coordination Sequence:
#
# PCOD8038703 Si02
#       8
#     2   2   2   2   2   2   2   2
#     4  10  18  31  53  76 105 141 174 217 265 311
#     4   9  16  31  50  73 100 135 176 220 250 309
#     4  10  19  35  55  79 111 144 175 217 268 319
#     4   9  18  29  50  77 102 131 178 218 261 306
#     4  10  20  35  56  80 106 141 176 223 271 309
#     4   9  19  35  56  77 106 146 184 210 259 333
#     4  10  18  29  52  79 103 132 178 222 263 304
#     4  11  20  32  53  85 111 131 175 228 268 305
#
# _framework density 18.031669000000001
#
# number of rings (size 3 to 8) (size 9 to 14) (size 15 to 20)
#    0.000    2.250    2.500    1.500    3.500    1.000 
#    0.000    1.250    2.750    0.750    0.000    0.000 
#    0.000    0.000    0.000    0.000    0.000    0.000 
#
# Total GULP energy -198325.486856 kJ/mol
# GULP energy per Si atom -12395.342928 kJ/mol
# Density = 1.799063 g / cm^3
# Si number density = 18.031669 Si / 1000 Ang^3
#
#
#
# Elastic Constant Matrix: (Units=GPa)
#
#
# Indices 1 2 3 4 5 6 
#
# 1 118.9510 46.2136 39.2778 -1.9410 -7.2085 17.6923
# 2 46.2136 89.8528 42.0562 6.8791 1.1199 22.3066
# 3 39.2778 42.0562 72.4513 -0.1180 -6.8166 10.7161
# 4 -1.9410 6.8791 -0.1180 19.5021 5.5359 0.6258
# 5 -7.2085 1.1199 -6.8166 5.5359 19.9440 2.0403
# 6 17.6923 22.3066 10.7161 0.6258 2.0403 32.1790
#
#
#
# Elastic Compliance Matrix: (Units=1/GPa)
#
#
# Indices 1 2 3 4 5 6 
#
# 1 0.011664 -0.003903 -0.003345 0.001728 0.003101 -0.002823
# 2 -0.003903 0.019624 -0.008301 -0.006314 -0.002738 -0.008397
# 3 -0.003345 -0.008301 0.020985 0.000973 0.006139 0.000198
# 4 0.001728 -0.006314 0.000973 0.057859 -0.015048 0.002932
# 5 0.003101 -0.002738 0.006139 -0.015048 0.058227 -0.005250
# 6 -0.002823 -0.008397 0.000198 0.002932 -0.005250 0.038659
#
#
# Mechanical properties :
#
#
# Convention : Reuss Voigt Hill
#
# Bulk Modulus (GPa) = 47.23010 59.59446 53.41228
# Shear Modulus (GPa) = 20.39345 24.57219 22.48282
#
# Velocity S-wave (km/s) = 3.36665 3.69551 3.53491
# Velocity P-wave (km/s) = 6.43134 7.16455 6.80782
#
# Compressibility (1/GPa) = 0.02117294
#
# Stress axis : x y z
#
# Youngs Moduli (GPa) = 85.73401 50.95678 47.65356
#
# Poissons Ratio (x) = 0.19890 0.15942
# Poissons Ratio (y) = 0.33464 0.39559
# Poissons Ratio (z) = 0.28682 0.42301
#
# Static dielectric constant tensor:
#      x y z
#    x 4.776390 1.078220 -3.204010 
#    y 1.078220 4.051010 -1.910010 
#    z -3.204010 -1.910010 9.205000 
# 
# 
# High freq. dielectric constant tensor:
#      x y z
#    x 1.708950 0.010370 -0.014570 
#    y 0.010370 1.689720 0.014110 
#    z -0.014570 0.014110 1.662180 
# 
# From -- ./inp_files/238955.got.cif
#   From: 2010.06.25/outbox.cif.g09.slc.cpg/sg2_120_cif.got.tgz:238955.got - 2010.06.27 13:26:56.
