data_PCOD8038542
_publ_section_title
;
Structure prediction by ZEFSAII (Michael W. Deem and Ramdas Pophale) SiO2 
 PCOD8038542
Probable space group: P -1
;
_chemical_formula_sum "Si O2"
_cell_formula_units_Z 14
_cell_length_a 13.313562
_cell_length_b 7.730868
_cell_length_c 9.530167
_cell_angle_alpha 85.577273
_cell_angle_beta 96.773450
_cell_angle_gamma 136.284816
_cell_volume 673.093171
_symmetry_space_group_name_H-M "P -1"
_symmetry_group_IT_number 2
_symmetry_cell_setting 'triclinic'
loop_
_space_group_symop_operation_xyz
x,y,z
-x,-y,-z
loop_
_atom_site_type_symbol
_atom_site_label
_atom_site_fract_x
_atom_site_fract_y
_atom_site_fract_z
Si Si1 0.880851 0.035767 0.352391
Si Si2 0.770634 0.407362 0.017498
Si Si3 0.821345 0.596120 0.472253
Si Si4 0.937671 0.102442 0.035348
Si Si5 0.302410 0.858475 0.705756
Si Si6 0.647034 0.610879 0.950608
Si Si7 0.370945 0.665603 0.268380
O O1 0.763227 0.040019 0.357651
O O2 0.010112 0.223095 0.472799
O O3 0.946439 0.122146 0.202689
O O4 0.798882 0.753441 0.384441
O O5 0.948247 0.615910 0.026473
O O6 0.709915 0.521540 0.053321
O O7 0.704660 0.294531 0.857310
O O8 0.716888 0.190407 0.126320
O O9 0.780253 0.398199 0.368094
O O10 0.721628 0.462781 0.599919
O O11 0.000000 0.000000 0.000000
O O12 0.771589 0.916175 0.961007
O O13 0.471761 0.066259 0.681154
O O14 0.617954 0.512560 0.791637
O O15 0.500000 0.500000 0.000000
#
# Coordination Sequence:
#
# PCOD8038542 Si02
#       7
#     2   2   2   2   2   2   2
#     4  11  24  41  67  92 124 165 218 260 306 380
#     4   9  21  38  61  88 129 165 202 262 314 362
#     4  11  23  45  65  88 129 169 207 262 314 371
#     4  10  17  37  62  90 125 162 204 257 313 365
#     4  12  24  41  66  93 128 168 210 257 319 372
#     4   9  18  34  61  94 124 157 209 255 311 369
#     4  10  22  40  62  90 131 166 204 263 316 371
#
# _framework density 20.799499000000001
#
# number of rings (size 3 to 8) (size 9 to 14) (size 15 to 20)
#    0.857    0.857    1.429    3.857    0.000    2.286 
#    0.000    1.429    0.000    0.000    0.000    0.000 
#    0.000    0.000    0.000    0.000    0.000    0.000 
#
# Total GULP energy -173531.224934 kJ/mol
# GULP energy per Si atom -12395.087495 kJ/mol
# Density = 2.075216 g / cm^3
# Si number density = 20.799499 Si / 1000 Ang^3
#
#
#
# Elastic Constant Matrix: (Units=GPa)
#
#
# Indices 1 2 3 4 5 6 
#
# 1 89.7316 51.4048 24.5304 -5.0389 6.9209 5.3830
# 2 51.4048 79.8283 14.1766 10.9457 7.6922 18.6531
# 3 24.5304 14.1766 71.6854 -5.6033 -6.8840 -5.9791
# 4 -5.0389 10.9457 -5.6033 38.3365 0.2763 -2.7579
# 5 6.9209 7.6922 -6.8840 0.2763 19.1806 -2.1365
# 6 5.3830 18.6531 -5.9791 -2.7579 -2.1365 35.6986
#
#
#
# Elastic Compliance Matrix: (Units=1/GPa)
#
#
# Indices 1 2 3 4 5 6 
#
# 1 0.020617 -0.014211 -0.003654 0.006544 -0.002695 0.004049
# 2 -0.014211 0.028180 -0.003684 -0.011439 -0.008959 -0.014618
# 3 -0.003654 -0.003684 0.017670 0.003536 0.009788 0.006294
# 4 0.006544 -0.011439 0.003536 0.031292 0.003962 0.008237
# 5 -0.002695 -0.008959 0.009788 0.003962 0.061350 0.010705
# 6 0.004049 -0.014618 0.006294 0.008237 0.010705 0.037371
#
#
# Mechanical properties :
#
#
# Convention : Reuss Voigt Hill
#
# Bulk Modulus (GPa) = 42.79155 46.82990 44.81072
# Shear Modulus (GPa) = 20.21293 28.71868 24.46581
#
# Velocity S-wave (km/s) = 3.12075 3.71986 3.43340
# Velocity P-wave (km/s) = 5.79685 6.40419 6.10807
#
# Compressibility (1/GPa) = 0.02336910
#
# Stress axis : x y z
#
# Youngs Moduli (GPa) = 48.50455 35.48678 56.59249
#
# Poissons Ratio (x) = 0.50429 0.20680
# Poissons Ratio (y) = 0.68928 0.20848
# Poissons Ratio (z) = 0.17724 0.13073
#
# Static dielectric constant tensor:
#      x y z
#    x 3.529730 0.286920 0.051520 
#    y 0.286920 4.084920 0.139320 
#    z 0.051520 0.139320 3.684950 
# 
# 
# High freq. dielectric constant tensor:
#      x y z
#    x 1.799660 0.016190 -0.008530 
#    y 0.016190 1.824910 0.008340 
#    z -0.008530 0.008340 1.804560 
# 
# From -- ./inp_files/290389.got.cif
#   From: 2010.06.25/outbox.cif.g09.slc.cpg/sg2_146_cif.got.tgz:290389.got - 2010.06.27 13:26:56.
