data_PCOD8038323
_publ_section_title
;
Structure prediction by ZEFSAII (Michael W. Deem and Ramdas Pophale) SiO2 
 PCOD8038323
Probable space group: P -1
;
_chemical_formula_sum "Si O2"
_cell_formula_units_Z 16
_cell_length_a 9.745923
_cell_length_b 10.889551
_cell_length_c 15.949178
_cell_angle_alpha 47.990742
_cell_angle_beta 117.068671
_cell_angle_gamma 139.004642
_cell_volume 820.692962
_symmetry_space_group_name_H-M "P -1"
_symmetry_group_IT_number 2
_symmetry_cell_setting 'triclinic'
loop_
_space_group_symop_operation_xyz
x,y,z
-x,-y,-z
loop_
_atom_site_type_symbol
_atom_site_label
_atom_site_fract_x
_atom_site_fract_y
_atom_site_fract_z
Si Si1 0.499418 0.246960 0.151169
Si Si2 0.229389 0.867937 0.369848
Si Si3 0.600927 0.682162 0.746516
Si Si4 0.938035 0.480362 0.221992
Si Si5 0.887259 0.591947 0.834266
Si Si6 0.737797 0.131793 0.072772
Si Si7 0.793783 0.443334 0.375609
Si Si8 0.675036 0.021028 0.927209
O O1 0.442429 0.361650 0.143488
O O2 0.750672 0.407112 0.142010
O O3 0.394232 0.005765 0.275364
O O4 0.399388 0.187752 0.056750
O O5 0.291918 0.750696 0.492510
O O6 0.991046 0.686248 0.355134
O O7 0.251564 0.049007 0.351049
O O8 0.704873 0.593887 0.780353
O O9 0.382306 0.549182 0.697472
O O10 0.851350 0.381358 0.335899
O O11 0.035164 0.387047 0.248825
O O12 0.111860 0.749807 0.155774
O O13 0.081171 0.805281 0.845392
O O14 0.796697 0.357793 0.953850
O O15 0.513818 0.979971 0.127169
O O16 0.714120 0.995101 0.046868
#
# Coordination Sequence:
#
# PCOD8038323 Si02
#       8
#     2   2   2   2   2   2   2   2
#     4   9  18  32  55  77 102 135 174 212 259 308
#     4   9  19  34  59  79 106 136 175 206 260 316
#     4   9  20  34  53  77 112 137 163 219 267 299
#     4  10  18  30  58  76 102 137 177 210 251 316
#     4  10  19  37  52  78 106 140 174 213 266 304
#     4   9  20  33  57  72 104 142 178 214 255 319
#     4  10  18  35  59  81 101 139 177 208 251 318
#     4  10  17  35  53  79  95 136 186 212 255 302
#
# _framework density 19.495721
#
# number of rings (size 3 to 8) (size 9 to 14) (size 15 to 20)
#    0.750    1.750    2.500    0.375    0.000    0.000 
#    6.750    1.875    0.000    1.500    0.000    0.000 
#    0.000    0.000    0.000    0.000    0.000    0.000 
#
# Total GULP energy -198235.224540 kJ/mol
# GULP energy per Si atom -12389.701534 kJ/mol
# Density = 1.945135 g / cm^3
# Si number density = 19.495721 Si / 1000 Ang^3
#
#
#
# Elastic Constant Matrix: (Units=GPa)
#
#
# Indices 1 2 3 4 5 6 
#
# 1 110.5992 29.5078 23.0616 10.9182 6.4030 11.6011
# 2 29.5078 115.7354 19.8956 17.6186 0.9638 11.1216
# 3 23.0616 19.8956 28.1188 7.9339 -0.9480 5.0239
# 4 10.9182 17.6186 7.9339 26.9448 2.5945 -4.5928
# 5 6.4030 0.9638 -0.9480 2.5945 19.1542 0.7985
# 6 11.6011 11.1216 5.0239 -4.5928 0.7985 23.8344
#
#
#
# Elastic Compliance Matrix: (Units=1/GPa)
#
#
# Indices 1 2 3 4 5 6 
#
# 1 0.011764 -0.000915 -0.007811 -0.002173 -0.003814 -0.003943
# 2 -0.000915 0.011098 -0.004322 -0.006544 0.000633 -0.005105
# 3 -0.007811 -0.004322 0.049417 -0.010395 0.006967 -0.006834
# 4 -0.002173 -0.006544 -0.010395 0.048692 -0.006718 0.015911
# 5 -0.003814 0.000633 0.006967 -0.006718 0.054832 -0.003039
# 6 -0.003943 -0.005105 -0.006834 0.015911 -0.003039 0.050866
#
#
# Mechanical properties :
#
#
# Convention : Reuss Voigt Hill
#
# Bulk Modulus (GPa) = 21.65361 44.37591 33.01476
# Shear Modulus (GPa) = 18.64557 26.11927 22.38242
#
# Velocity S-wave (km/s) = 3.09592 3.66422 3.39199
# Velocity P-wave (km/s) = 4.88984 6.38070 5.68436
#
# Compressibility (1/GPa) = 0.04618168
#
# Stress axis : x y z
#
# Youngs Moduli (GPa) = 85.00863 90.10461 20.23592
#
# Poissons Ratio (x) = 0.08243 0.15807
# Poissons Ratio (y) = 0.07777 0.08747
# Poissons Ratio (z) = 0.66403 0.38946
#
# Static dielectric constant tensor:
#      x y z
#    x 3.340980 0.036420 -0.343180 
#    y 0.036420 3.974350 0.134060 
#    z -0.343180 0.134060 3.142260 
# 
# 
# High freq. dielectric constant tensor:
#      x y z
#    x 1.737830 0.007580 -0.028950 
#    y 0.007580 1.791400 0.010250 
#    z -0.028950 0.010250 1.707230 
# 
# From -- ./inp_files/355398.got.cif
#   From: 2010.06.25/outbox.cif.g09.slc.cpg/sg2_178_cif.got.tgz:355398.got - 2010.06.27 13:26:56.
