data_PCOD8038073
_publ_section_title
;
Structure prediction by ZEFSAII (Michael W. Deem and Ramdas Pophale) SiO2 
 PCOD8038073
Probable space group: P -1
;
_chemical_formula_sum "Si O2"
_cell_formula_units_Z 16
_cell_length_a 12.076559
_cell_length_b 17.580726
_cell_length_c 8.827429
_cell_angle_alpha 65.371953
_cell_angle_beta 118.791460
_cell_angle_gamma 149.823718
_cell_volume 825.623342
_symmetry_space_group_name_H-M "P -1"
_symmetry_group_IT_number 2
_symmetry_cell_setting 'triclinic'
loop_
_space_group_symop_operation_xyz
x,y,z
-x,-y,-z
loop_
_atom_site_type_symbol
_atom_site_label
_atom_site_fract_x
_atom_site_fract_y
_atom_site_fract_z
Si Si1 0.595905 0.168235 0.120214
Si Si2 0.293236 0.340755 0.413606
Si Si3 0.231017 0.556411 0.989651
Si Si4 0.625646 0.389537 0.619229
Si Si5 0.180447 0.842388 0.237960
Si Si6 0.717602 0.589222 0.981247
Si Si7 0.025682 0.728425 0.560237
Si Si8 0.722084 0.262624 0.804744
O O1 0.802516 0.220659 0.253180
O O2 0.363025 0.013730 0.175893
O O3 0.649377 0.291856 0.108904
O O4 0.558135 0.142992 0.933836
O O5 0.500000 0.500000 0.500000
O O6 0.368706 0.284494 0.509647
O O7 0.258021 0.353730 0.211131
O O8 0.066254 0.237266 0.447231
O O9 0.310458 0.572102 0.194183
O O10 0.303439 0.522712 0.951122
O O11 0.957874 0.416444 0.918023
O O12 0.627536 0.295368 0.637081
O O13 0.815573 0.550754 0.524226
O O14 0.165481 0.828968 0.419573
O O15 0.261055 0.797434 0.262852
O O16 0.939452 0.737519 0.099073
O O17 0.500000 0.500000 0.000000
#
# Coordination Sequence:
#
# PCOD8038073 Si02
#       8
#     2   2   2   2   2   2   2   2
#     4  11  20  39  59  81 115 153 190 227 283 345
#     4  10  19  33  59  86 108 150 189 231 276 335
#     4  10  18  35  62  85 107 148 196 229 276 338
#     4  10  17  33  61  87 104 149 195 232 269 333
#     4  11  25  34  57  90 115 150 180 240 295 322
#     4  11  21  39  58  88 115 142 193 241 282 325
#     4  11  19  36  57  81 119 147 194 224 276 351
#     4  10  19  37  58  87 114 141 192 243 280 320
#
# _framework density 19.379296
#
# number of rings (size 3 to 8) (size 9 to 14) (size 15 to 20)
#    0.000    1.500    5.000    3.750    0.000    0.500 
#    2.250    0.625    0.000    3.750    0.000    0.000 
#    0.000    0.000    0.000    0.000    0.000    0.000 
#
# Total GULP energy -198392.829425 kJ/mol
# GULP energy per Si atom -12399.551839 kJ/mol
# Density = 1.933519 g / cm^3
# Si number density = 19.379296 Si / 1000 Ang^3
#
#
#
# Elastic Constant Matrix: (Units=GPa)
#
#
# Indices 1 2 3 4 5 6 
#
# 1 115.3442 41.4724 52.8592 -17.9364 11.7503 18.3906
# 2 41.4724 80.5298 23.2424 -23.4700 5.5437 6.6343
# 3 52.8592 23.2424 73.5299 -16.3421 8.9130 6.0071
# 4 -17.9364 -23.4700 -16.3421 28.6927 7.9075 -4.2998
# 5 11.7503 5.5437 8.9130 7.9075 38.8646 -0.6041
# 6 18.3906 6.6343 6.0071 -4.2998 -0.6041 20.9089
#
#
#
# Elastic Compliance Matrix: (Units=1/GPa)
#
#
# Indices 1 2 3 4 5 6 
#
# 1 0.016539 -0.004742 -0.009163 0.000359 -0.002458 -0.010407
# 2 -0.004742 0.019043 0.001123 0.014593 -0.004499 0.000677
# 3 -0.009163 0.001123 0.022222 0.009525 -0.004375 0.003151
# 4 0.000359 0.014593 0.009525 0.057395 -0.015995 0.003658
# 5 -0.002458 -0.004499 -0.004375 -0.015995 0.031411 0.002464
# 6 -0.010407 0.000677 0.003151 0.003658 0.002464 0.056684
#
#
# Mechanical properties :
#
#
# Convention : Reuss Voigt Hill
#
# Bulk Modulus (GPa) = 31.01728 56.06132 43.53930
# Shear Modulus (GPa) = 20.86774 27.81525 24.34149
#
# Velocity S-wave (km/s) = 3.28503 3.79266 3.54793
# Velocity P-wave (km/s) = 5.51622 6.94048 6.26893
#
# Compressibility (1/GPa) = 0.03224009
#
# Stress axis : x y z
#
# Youngs Moduli (GPa) = 60.46180 52.51361 45.00062
#
# Poissons Ratio (x) = 0.24901 0.41234
# Poissons Ratio (y) = 0.28670 -0.05053
# Poissons Ratio (z) = 0.55401 -0.05896
#
# Static dielectric constant tensor:
#      x y z
#    x 3.880270 0.114840 0.355730 
#    y 0.114840 3.350150 0.017630 
#    z 0.355730 0.017630 3.651020 
# 
# 
# High freq. dielectric constant tensor:
#      x y z
#    x 1.762180 0.009170 0.011000 
#    y 0.009170 1.722110 -0.000870 
#    z 0.011000 -0.000870 1.755860 
# 
# From -- ./inp_files/244172.got.cif
#   From: 2010.06.25/outbox.cif.g09.slc.cpg/sg2_123_cif.got.tgz:244172.got - 2010.06.27 13:26:56.
