data_PCOD8038893
_publ_section_title
;
Structure prediction by ZEFSAII (Michael W. Deem and Ramdas Pophale) SiO2 
 PCOD8038893
Probable space group: P -1
;
_chemical_formula_sum "Si O2"
_cell_formula_units_Z 16
_cell_length_a 21.001555
_cell_length_b 17.264523
_cell_length_c 8.781749
_cell_angle_alpha 44.203017
_cell_angle_beta 147.056491
_cell_angle_gamma 149.520488
_cell_volume 878.062168
_symmetry_space_group_name_H-M "P -1"
_symmetry_group_IT_number 2
_symmetry_cell_setting 'triclinic'
loop_
_space_group_symop_operation_xyz
x,y,z
-x,-y,-z
loop_
_atom_site_type_symbol
_atom_site_label
_atom_site_fract_x
_atom_site_fract_y
_atom_site_fract_z
Si Si1 0.067913 0.567885 0.778011
Si Si2 0.760655 0.467653 0.410177
Si Si3 0.464035 0.309188 0.632149
Si Si4 0.508599 0.159008 0.164841
Si Si5 0.390067 0.698013 0.357709
Si Si6 0.362627 0.996152 0.406537
Si Si7 0.024451 0.696113 0.223495
Si Si8 0.265774 0.381087 0.099319
O O1 0.069038 0.646770 0.522638
O O2 0.939396 0.531215 0.694413
O O3 0.025797 0.413459 0.865543
O O4 0.245934 0.687805 0.037902
O O5 0.667627 0.325355 0.308034
O O6 0.673697 0.419998 0.465164
O O7 0.770949 0.597568 0.175036
O O8 0.560733 0.348379 0.616620
O O9 0.300030 0.270721 0.319779
O O10 0.573221 0.454042 0.755912
O O11 0.423037 0.169947 0.839416
O O12 0.564142 0.078174 0.324137
O O13 0.382846 0.059519 0.188959
O O14 0.546581 0.869025 0.478614
O O15 0.173639 0.872119 0.234538
O O16 0.880752 0.687023 0.986413
#
# Coordination Sequence:
#
# PCOD8038893 Si02
#       8
#     2   2   2   2   2   2   2   2
#     4  10  18  31  53  79 107 129 165 219 254 298
#     4   9  18  33  52  78 107 132 166 212 261 300
#     4  10  19  34  54  76 101 134 181 214 243 297
#     4   9  18  34  52  74 105 141 168 201 254 316
#     4  11  21  31  52  83 107 130 165 217 259 297
#     4  10  20  33  53  77 108 136 163 206 264 311
#     4  10  18  33  55  75 100 140 174 201 253 310
#     4   9  19  35  55  73  99 141 177 209 248 303
#
# _framework density 18.221944000000001
#
# number of rings (size 3 to 8) (size 9 to 14) (size 15 to 20)
#    0.000    2.250    2.500    1.125    0.000    2.500 
#    0.000    1.250    0.000    0.000    0.000    0.000 
#    0.000    0.000    0.000    0.000    0.000    0.000 
#
# Total GULP energy -198385.648094 kJ/mol
# GULP energy per Si atom -12399.103006 kJ/mol
# Density = 1.818047 g / cm^3
# Si number density = 18.221944 Si / 1000 Ang^3
#
#
#
# Elastic Constant Matrix: (Units=GPa)
#
#
# Indices 1 2 3 4 5 6 
#
# 1 69.7667 16.2480 51.5997 -12.5257 5.2561 13.9462
# 2 16.2480 59.1547 29.9720 1.2484 5.9596 22.2781
# 3 51.5997 29.9720 112.3688 -12.2084 17.0214 12.9232
# 4 -12.5257 1.2484 -12.2084 24.7075 2.0342 1.9658
# 5 5.2561 5.9596 17.0214 2.0342 24.1328 6.3330
# 6 13.9462 22.2781 12.9232 1.9658 6.3330 21.2328
#
#
#
# Elastic Compliance Matrix: (Units=1/GPa)
#
#
# Indices 1 2 3 4 5 6 
#
# 1 0.025979 0.004092 -0.010856 0.008560 0.004714 -0.016948
# 2 0.004092 0.031223 -0.007373 -0.000995 0.005189 -0.032416
# 3 -0.010856 -0.007373 0.016900 0.003462 -0.009921 0.007219
# 4 0.008560 -0.000995 0.003462 0.047787 -0.005612 -0.009436
# 5 0.004714 0.005189 -0.009921 -0.005612 0.051121 -0.017231
# 6 -0.016948 -0.032416 0.007219 -0.009436 -0.017231 0.093860
#
#
# Mechanical properties :
#
#
# Convention : Reuss Voigt Hill
#
# Bulk Modulus (GPa) = 21.82103 48.54775 35.18439
# Shear Modulus (GPa) = 16.10724 23.57933 19.84328
#
# Velocity S-wave (km/s) = 2.97635 3.60113 3.30355
# Velocity P-wave (km/s) = 4.87982 6.63259 5.82254
#
# Compressibility (1/GPa) = 0.04582735
#
# Stress axis : x y z
#
# Youngs Moduli (GPa) = 38.49223 32.02778 59.17293
#
# Poissons Ratio (x) = -0.13106 0.64239
# Poissons Ratio (y) = -0.15751 0.43629
# Poissons Ratio (z) = 0.41788 0.23615
#
# Static dielectric constant tensor:
#      x y z
#    x 3.281530 0.172960 -0.011780 
#    y 0.172960 3.274310 -0.101890 
#    z -0.011780 -0.101890 3.527880 
# 
# 
# High freq. dielectric constant tensor:
#      x y z
#    x 1.702450 0.017000 -0.003510 
#    y 0.017000 1.683080 -0.000450 
#    z -0.003510 -0.000450 1.700280 
# 
# From -- ./inp_files/176686.got.cif
#   From: 2010.06.25/outbox.cif.g09.slc.cpg/sg2_89_cif.got.tgz:176686.got - 2010.06.27 13:26:56.
