data_PCOD8038941
_publ_section_title
;
Structure prediction by ZEFSAII (Michael W. Deem and Ramdas Pophale) SiO2 
 PCOD8038941
Probable space group: P -1
;
_chemical_formula_sum "Si O2"
_cell_formula_units_Z 14
_cell_length_a 12.343235
_cell_length_b 21.865109
_cell_length_c 18.446192
_cell_angle_alpha 18.056304
_cell_angle_beta 26.715805
_cell_angle_gamma 27.324922
_cell_volume 665.745359
_symmetry_space_group_name_H-M "P -1"
_symmetry_group_IT_number 2
_symmetry_cell_setting 'triclinic'
loop_
_space_group_symop_operation_xyz
x,y,z
-x,-y,-z
loop_
_atom_site_type_symbol
_atom_site_label
_atom_site_fract_x
_atom_site_fract_y
_atom_site_fract_z
Si Si1 0.794969 0.668079 0.019822
Si Si2 0.863805 0.903509 0.422133
Si Si3 0.445882 0.740171 0.270665
Si Si4 0.192281 0.061768 0.419394
Si Si5 0.651832 0.270289 0.507070
Si Si6 0.368713 0.628111 0.748355
Si Si7 0.491927 0.668833 0.875333
O O1 0.701913 0.795223 0.858748
O O2 0.089202 0.616915 0.913701
O O3 0.637679 0.801685 0.030631
O O4 0.749018 0.447443 0.287394
O O5 0.785949 0.871955 0.586381
O O6 0.737979 0.752063 0.623342
O O7 0.160689 0.848260 0.295072
O O8 0.756636 0.140772 0.195169
O O9 0.500000 0.500000 0.500000
O O10 0.500153 0.797208 0.258605
O O11 0.899176 0.084257 0.548126
O O12 0.359422 0.828739 0.574719
O O13 0.500652 0.352342 0.430564
O O14 0.519927 0.431592 0.925119
O O15 0.500000 0.500000 0.000000
#
# Coordination Sequence:
#
# PCOD8038941 Si02
#       7
#     2   2   2   2   2   2   2
#     4  10  18  31  56  82 111 146 177 226 288 336
#     4  10  21  38  59  84 112 144 187 231 276 324
#     4   9  18  34  57  83 114 146 177 223 291 339
#     4  10  18  32  52  82 111 141 185 229 276 327
#     4   9  17  30  50  78 108 141 179 226 277 326
#     4  11  19  32  53  83 112 139 189 233 268 328
#     4  11  21  36  60  84 107 148 192 235 264 318
#
# _framework density 21.029062
#
# number of rings (size 3 to 8) (size 9 to 14) (size 15 to 20)
#    0.000    2.000    1.429    6.857    0.000    0.000 
#    0.000    6.429    6.286   16.286    0.000    0.000 
#    0.000    0.000    0.000    0.000    0.000    0.000 
#
# Total GULP energy -173497.751017 kJ/mol
# GULP energy per Si atom -12392.696501 kJ/mol
# Density = 2.098120 g / cm^3
# Si number density = 21.029062 Si / 1000 Ang^3
#
#
#
# Elastic Constant Matrix: (Units=GPa)
#
#
# Indices 1 2 3 4 5 6 
#
# 1 103.7557 46.1463 35.7733 -2.1257 30.9267 4.2363
# 2 46.1463 93.5579 35.4187 -4.3332 28.6730 6.1284
# 3 35.7733 35.4187 61.3436 -5.2896 26.5213 -1.8577
# 4 -2.1257 -4.3332 -5.2896 34.1957 4.8397 13.0512
# 5 30.9267 28.6730 26.5213 4.8397 46.6946 -2.6525
# 6 4.2363 6.1284 -1.8577 13.0512 -2.6525 35.7479
#
#
#
# Elastic Compliance Matrix: (Units=1/GPa)
#
#
# Indices 1 2 3 4 5 6 
#
# 1 0.014332 -0.003806 -0.003843 0.001369 -0.005235 -0.002134
# 2 -0.003806 0.016507 -0.004741 0.003560 -0.005538 -0.004336
# 3 -0.003843 -0.004741 0.025850 0.004420 -0.009667 0.000281
# 4 0.001369 0.003560 0.004420 0.037682 -0.010365 -0.015069
# 5 -0.005235 -0.005538 -0.009667 -0.010365 0.035273 0.007469
# 6 -0.002134 -0.004336 0.000281 -0.015069 0.007469 0.035040
#
#
# Mechanical properties :
#
#
# Convention : Reuss Voigt Hill
#
# Bulk Modulus (GPa) = 31.34156 54.81485 43.07821
# Shear Modulus (GPa) = 24.98751 32.74889 28.86820
#
# Velocity S-wave (km/s) = 3.45082 3.95057 3.70912
# Velocity P-wave (km/s) = 5.55102 6.85070 6.23482
#
# Compressibility (1/GPa) = 0.03190651
#
# Stress axis : x y z
#
# Youngs Moduli (GPa) = 69.77581 60.58051 38.68546
#
# Poissons Ratio (x) = 0.23059 0.14867
# Poissons Ratio (y) = 0.26559 0.18342
# Poissons Ratio (z) = 0.26816 0.28723
#
# Static dielectric constant tensor:
#      x y z
#    x 4.049050 0.418250 0.519740 
#    y 0.418250 4.100690 0.054480 
#    z 0.519740 0.054480 4.039170 
# 
# 
# High freq. dielectric constant tensor:
#      x y z
#    x 1.817620 0.029060 0.022610 
#    y 0.029060 1.798970 -0.030350 
#    z 0.022610 -0.030350 1.828640 
# 
# From -- ./inp_files/316897.got.cif
#   From: 2010.06.25/outbox.cif.g09.slc.cpg/sg2_159_cif.got.tgz:316897.got - 2010.06.27 13:26:56.
