data_PCOD8038295
_publ_section_title
;
Structure prediction by ZEFSAII (Michael W. Deem and Ramdas Pophale) SiO2 
 PCOD8038295
Probable space group: P -1
;
_chemical_formula_sum "Si O2"
_cell_formula_units_Z 16
_cell_length_a 18.000000
_cell_length_b 9.000000
_cell_length_c 12.000000
_cell_angle_alpha 130.000000
_cell_angle_beta 50.000000
_cell_angle_gamma 150.000000
_cell_volume 725.531033
_symmetry_space_group_name_H-M "P -1"
_symmetry_group_IT_number 2
_symmetry_cell_setting 'triclinic'
loop_
_space_group_symop_operation_xyz
x,y,z
-x,-y,-z
loop_
_atom_site_type_symbol
_atom_site_label
_atom_site_fract_x
_atom_site_fract_y
_atom_site_fract_z
Si Si1 0.607800 0.266251 0.709940
Si Si2 0.545233 0.768732 0.471496
Si Si3 0.415464 0.316399 0.838497
Si Si4 0.920897 0.229603 0.030105
Si Si5 0.932129 0.800151 0.757136
Si Si6 0.858362 0.379386 0.810592
Si Si7 0.240519 0.095912 0.494355
Si Si8 0.444256 0.047620 0.978876
O O1 0.551534 0.383283 0.772947
O O2 0.790116 0.568677 0.697168
O O3 0.574217 0.039984 0.546834
O O4 0.498818 0.028766 0.803851
O O5 0.611748 0.742230 0.294794
O O6 0.362566 0.448853 0.509524
O O7 0.656752 0.889881 0.524583
O O8 0.467654 0.613645 0.954631
O O9 0.262971 0.034378 0.920418
O O10 0.978881 0.381923 0.170160
O O11 0.000000 0.500000 0.000000
O O12 0.966827 0.077127 0.887210
O O13 0.869823 0.585931 0.820719
O O14 0.090088 0.952908 0.630274
O O15 0.821360 0.126203 0.656658
O O16 0.736020 0.210294 0.948801
O O17 0.500000 0.000000 0.000000
#
# Coordination Sequence:
#
# PCOD8038295 Si02
#       8
#     2   2   2   2   2   2   2   2
#     4  12  26  45  73 104 145 185 231 289 357 416
#     4  11  25  47  73 104 136 187 239 286 349 419
#     4  12  26  48  71 102 146 188 231 290 347 426
#     4  12  29  47  69 104 144 186 231 288 354 418
#     4  12  26  46  71 107 140 182 233 295 351 411
#     4  12  24  47  72 103 138 185 232 289 353 411
#     4  11  25  45  74 105 139 179 240 297 343 411
#     4  12  23  44  74 103 136 183 241 288 343 413
#
# _framework density 22.052813
#
# number of rings (size 3 to 8) (size 9 to 14) (size 15 to 20)
#    0.000    0.250    5.000    3.000    8.750    0.000 
#    0.000    1.250    0.000    0.000    0.000    0.000 
#    0.000    0.000    0.000    0.000    0.000    0.000 
#
# Total GULP energy -198332.202465 kJ/mol
# GULP energy per Si atom -12395.762654 kJ/mol
# Density = 2.200262 g / cm^3
# Si number density = 22.052813 Si / 1000 Ang^3
#
#
#
# Elastic Constant Matrix: (Units=GPa)
#
#
# Indices 1 2 3 4 5 6 
#
# 1 87.7070 45.2702 7.9471 15.9901 -14.9353 5.3574
# 2 45.2702 181.8774 44.6025 -1.2276 -17.4480 4.9303
# 3 7.9471 44.6025 80.0540 1.2743 -12.3478 12.6011
# 4 15.9901 -1.2276 1.2743 55.5920 4.2161 -6.8139
# 5 -14.9353 -17.4480 -12.3478 4.2161 31.4805 -2.2864
# 6 5.3574 4.9303 12.6011 -6.8139 -2.2864 43.3690
#
#
#
# Elastic Compliance Matrix: (Units=1/GPa)
#
#
# Indices 1 2 3 4 5 6 
#
# 1 0.015358 -0.003652 0.002014 -0.005358 0.006584 -0.002562
# 2 -0.003652 0.007399 -0.003818 0.001363 0.000759 0.000973
# 3 0.002014 -0.003818 0.015931 -0.001960 0.005025 -0.004487
# 4 -0.005358 0.001363 -0.001960 0.020478 -0.005005 0.004030
# 5 0.006584 0.000759 0.005025 -0.005005 0.037868 -0.001150
# 6 -0.002562 0.000973 -0.004487 0.004030 -0.001150 0.025140
#
#
# Mechanical properties :
#
#
# Convention : Reuss Voigt Hill
#
# Bulk Modulus (GPa) = 36.00009 60.58642 48.29325
# Shear Modulus (GPa) = 35.12611 42.87622 39.00117
#
# Velocity S-wave (km/s) = 3.99534 4.41415 4.20996
# Velocity P-wave (km/s) = 6.13544 7.31523 6.75116
#
# Compressibility (1/GPa) = 0.02777771
#
# Stress axis : x y z
#
# Youngs Moduli (GPa) = 65.11086 135.15292 62.76995
#
# Poissons Ratio (x) = 0.49355 -0.12642
# Poissons Ratio (y) = 0.23777 0.23964
# Poissons Ratio (z) = -0.13114 0.51598
#
# Static dielectric constant tensor:
#      x y z
#    x 4.002390 0.115610 -0.011300 
#    y 0.115610 4.538760 -0.197080 
#    z -0.011300 -0.197080 4.391430 
# 
# 
# High freq. dielectric constant tensor:
#      x y z
#    x 1.870150 0.003790 -0.005840 
#    y 0.003790 1.901820 0.002690 
#    z -0.005840 0.002690 1.878800 
# 
# From -- ./inp_files/184109.got.cif
#   From: 2010.06.25/outbox.ucp.g09.slc.cvg/sg2_93_cif.got.tgz:184109.got - 2010.06.28 11:54:26.
