data_PCOD8038254
_publ_section_title
;
Structure prediction by ZEFSAII (Michael W. Deem and Ramdas Pophale) SiO2 
 PCOD8038254
Probable space group: P -1
;
_chemical_formula_sum "Si O2"
_cell_formula_units_Z 16
_cell_length_a 8.711239
_cell_length_b 6.865214
_cell_length_c 21.284734
_cell_angle_alpha 45.454826
_cell_angle_beta 77.133657
_cell_angle_gamma 94.446055
_cell_volume 832.890280
_symmetry_space_group_name_H-M "P -1"
_symmetry_group_IT_number 2
_symmetry_cell_setting 'triclinic'
loop_
_space_group_symop_operation_xyz
x,y,z
-x,-y,-z
loop_
_atom_site_type_symbol
_atom_site_label
_atom_site_fract_x
_atom_site_fract_y
_atom_site_fract_z
Si Si1 0.595624 0.251476 0.717288
Si Si2 0.319836 0.702322 0.809898
Si Si3 0.833925 0.239818 0.800366
Si Si4 0.664271 0.476304 0.290065
Si Si5 0.871474 0.865906 0.986849
Si Si6 0.068195 0.932404 0.841755
Si Si7 0.099396 0.777086 0.610597
Si Si8 0.917330 0.619961 0.534989
O O1 0.656632 0.190310 0.794663
O O2 0.510990 0.500972 0.675101
O O3 0.751197 0.369468 0.629879
O O4 0.473677 0.947224 0.771597
O O5 0.356390 0.692351 0.735682
O O6 0.145453 0.766681 0.822383
O O7 0.291692 0.391023 0.915414
O O8 0.946405 0.580496 0.712916
O O9 0.810301 0.114338 0.902525
O O10 0.939931 0.072040 0.788259
O O11 0.731599 0.295560 0.375148
O O12 0.787922 0.804151 0.196958
O O13 0.967186 0.738186 0.953715
O O14 0.000000 0.000000 0.000000
O O15 0.054079 0.721551 0.554312
O O16 0.131425 0.111314 0.548240
O O17 0.000000 0.500000 0.500000
#
# Coordination Sequence:
#
# PCOD8038254 Si02
#       8
#     2   2   2   2   2   2   2   2
#     4  10  23  38  52  84 122 144 180 240 285 339
#     4  11  20  34  58  83 117 156 183 232 286 321
#     4   8  18  36  56  81 115 145 191 237 274 323
#     4  10  20  37  57  81 117 151 186 226 282 334
#     4  10  17  34  61  85 109 153 201 231 267 329
#     4   8  18  34  56  81 108 144 199 239 254 325
#     4   9  19  39  61  83 110 146 187 237 275 328
#     4  10  22  40  65  86 108 142 191 233 284 345
#
# _framework density 19.210213
#
# number of rings (size 3 to 8) (size 9 to 14) (size 15 to 20)
#    0.750    1.750    1.250    0.375    0.000    8.000 
#    0.000    4.375    0.000    0.000    0.000    0.000 
#    0.000    0.000    0.000    0.000    0.000    0.000 
#
# Total GULP energy -198247.626399 kJ/mol
# GULP energy per Si atom -12390.476650 kJ/mol
# Density = 1.916649 g / cm^3
# Si number density = 19.210213 Si / 1000 Ang^3
#
#
#
# Elastic Constant Matrix: (Units=GPa)
#
#
# Indices 1 2 3 4 5 6 
#
# 1 115.3562 43.3503 44.3827 4.7667 15.5262 0.6631
# 2 43.3503 91.4057 41.0720 3.3237 1.3188 -1.8842
# 3 44.3827 41.0720 110.7723 -4.6976 11.8468 3.8155
# 4 4.7667 3.3237 -4.6976 22.3608 -1.2508 -6.8528
# 5 15.5262 1.3188 11.8468 -1.2508 30.4137 2.9442
# 6 0.6631 -1.8842 3.8155 -6.8528 2.9442 22.4185
#
#
#
# Elastic Compliance Matrix: (Units=1/GPa)
#
#
# Indices 1 2 3 4 5 6 
#
# 1 0.012194 -0.004329 -0.002855 -0.002987 -0.005000 -0.000495
# 2 -0.004329 0.014940 -0.004240 -0.001650 0.003030 0.001203
# 3 -0.002855 -0.004240 0.012228 0.003356 -0.002892 -0.000948
# 4 -0.002987 -0.001650 0.003356 0.050901 0.000949 0.014813
# 5 -0.005000 0.003030 -0.002892 0.000949 0.036820 -0.003651
# 6 -0.000495 0.001203 -0.000948 0.014813 -0.003651 0.049891
#
#
# Mechanical properties :
#
#
# Convention : Reuss Voigt Hill
#
# Bulk Modulus (GPa) = 60.56301 63.90489 62.23395
# Shear Modulus (GPa) = 24.35148 27.62053 25.98601
#
# Velocity S-wave (km/s) = 3.56424 3.79595 3.68192
# Velocity P-wave (km/s) = 6.96659 7.24918 7.10929
#
# Compressibility (1/GPa) = 0.01651173
#
# Stress axis : x y z
#
# Youngs Moduli (GPa) = 82.01068 66.93482 81.78029
#
# Poissons Ratio (x) = 0.28979 0.23350
# Poissons Ratio (y) = 0.35506 0.34676
# Poissons Ratio (z) = 0.23415 0.28382
#
# Static dielectric constant tensor:
#      x y z
#    x 3.497920 -0.063240 0.069800 
#    y -0.063240 3.285770 -0.115330 
#    z 0.069800 -0.115330 3.577640 
# 
# 
# High freq. dielectric constant tensor:
#      x y z
#    x 1.736630 0.000850 0.006170 
#    y 0.000850 1.728550 -0.009000 
#    z 0.006170 -0.009000 1.749050 
# 
# From -- ./inp_files/585073.got.cif
#   From: 2010.06.25/outbox.cif.g09.slc.cpg/sg2_293_cif.got.tgz:585073.got - 2010.06.27 13:26:56.
