data_PCOD8038395
_publ_section_title
;
Structure prediction by ZEFSAII (Michael W. Deem and Ramdas Pophale) SiO2 
 PCOD8038395
Probable space group: P -1
;
_chemical_formula_sum "Si O2"
_cell_formula_units_Z 14
_cell_length_a 19.474782
_cell_length_b 7.365880
_cell_length_c 9.822660
_cell_angle_alpha 83.044489
_cell_angle_beta 44.695842
_cell_angle_gamma 117.825722
_cell_volume 600.750076
_symmetry_space_group_name_H-M "P -1"
_symmetry_group_IT_number 2
_symmetry_cell_setting 'triclinic'
loop_
_space_group_symop_operation_xyz
x,y,z
-x,-y,-z
loop_
_atom_site_type_symbol
_atom_site_label
_atom_site_fract_x
_atom_site_fract_y
_atom_site_fract_z
Si Si1 0.247017 0.416017 0.225959
Si Si2 0.014347 0.698043 0.290233
Si Si3 0.587825 0.506081 0.570314
Si Si4 0.065034 0.893662 0.908708
Si Si5 0.875623 0.156309 0.447845
Si Si6 0.535133 0.761028 0.959751
Si Si7 0.323591 0.377597 0.853924
O O1 0.119535 0.379526 0.442677
O O2 0.414800 0.705389 0.042347
O O3 0.178606 0.113116 0.383152
O O4 0.729210 0.541547 0.975170
O O5 0.983157 0.433188 0.380228
O O6 0.996160 0.684047 0.153086
O O7 0.188966 0.020184 0.061350
O O8 0.500854 0.249126 0.827859
O O9 0.479802 0.518536 0.683959
O O10 0.637402 0.475366 0.362590
O O11 0.743386 0.818777 0.394287
O O12 0.018276 0.728323 0.846917
O O13 0.000000 0.000000 0.000000
O O14 0.723537 0.066360 0.638642
O O15 0.500000 0.500000 0.000000
#
# Coordination Sequence:
#
# PCOD8038395 Si02
#       7
#     2   2   2   2   2   2   2
#     4  11  20  40  60  86 114 154 194 237 283 339
#     4  11  24  35  57  91 117 151 192 233 292 342
#     4  10  18  35  60  87 110 156 197 228 288 343
#     4  11  19  37  62  88 115 150 192 241 288 337
#     4  11  21  36  60  88 117 148 188 245 287 336
#     4  10  17  35  62  84 111 152 193 237 285 334
#     4  10  21  35  58  85 118 155 193 231 284 351
#
# _framework density 23.304198
#
# number of rings (size 3 to 8) (size 9 to 14) (size 15 to 20)
#    0.000    1.429    7.143    0.857    0.000    1.143 
#    0.000    0.000    0.000    1.714    0.000    0.000 
#    0.000    0.000    0.000    0.000    0.000    0.000 
#
# Total GULP energy -173506.338080 kJ/mol
# GULP energy per Si atom -12393.309863 kJ/mol
# Density = 2.325116 g / cm^3
# Si number density = 23.304198 Si / 1000 Ang^3
#
#
#
# Elastic Constant Matrix: (Units=GPa)
#
#
# Indices 1 2 3 4 5 6 
#
# 1 42.3495 30.7433 17.4003 16.6684 4.8805 16.9351
# 2 30.7433 88.2008 51.3200 21.6564 -3.9029 12.6411
# 3 17.4003 51.3200 118.1738 33.8760 4.1092 13.5364
# 4 16.6684 21.6564 33.8760 35.4195 16.4685 7.7554
# 5 4.8805 -3.9029 4.1092 16.4685 46.0798 11.9005
# 6 16.9351 12.6411 13.5364 7.7554 11.9005 31.6749
#
#
#
# Elastic Compliance Matrix: (Units=1/GPa)
#
#
# Indices 1 2 3 4 5 6 
#
# 1 0.042821 -0.011023 0.005163 -0.016514 0.004734 -0.018437
# 2 -0.011023 0.019790 -0.006234 -0.002998 0.004553 -0.000317
# 3 0.005163 -0.006234 0.014604 -0.013222 0.003538 -0.004606
# 4 -0.016514 -0.002998 -0.013222 0.057968 -0.020406 0.009150
# 5 0.004734 0.004553 0.003538 -0.020406 0.031880 -0.012841
# 6 -0.018437 -0.000317 -0.004606 0.009150 -0.012841 0.046107
#
#
# Mechanical properties :
#
#
# Convention : Reuss Voigt Hill
#
# Bulk Modulus (GPa) = 18.85827 49.73904 34.29865
# Shear Modulus (GPa) = 19.60529 32.58553 26.09541
#
# Velocity S-wave (km/s) = 2.90362 3.74340 3.34993
# Velocity P-wave (km/s) = 4.39900 6.33038 5.45091
#
# Compressibility (1/GPa) = 0.05302715
#
# Stress axis : x y z
#
# Youngs Moduli (GPa) = 23.35314 50.52987 68.47452
#
# Poissons Ratio (x) = 0.55700 -0.35355
# Poissons Ratio (y) = 0.25743 0.42687
# Poissons Ratio (z) = -0.12058 0.31500
#
# Static dielectric constant tensor:
#      x y z
#    x 4.285460 0.557010 0.132570 
#    y 0.557010 4.089240 0.066010 
#    z 0.132570 0.066010 4.849850 
# 
# 
# High freq. dielectric constant tensor:
#      x y z
#    x 1.904230 0.035130 0.002280 
#    y 0.035130 1.896180 0.019590 
#    z 0.002280 0.019590 1.941780 
# 
# From -- ./inp_files/468635.got.cif
#   From: 2010.06.25/outbox.cif.g09.slc.cpg/sg2_235_cif.got.tgz:468635.got - 2010.06.27 13:26:56.
