data_PCOD8038089
_publ_section_title
;
Structure prediction by ZEFSAII (Michael W. Deem and Ramdas Pophale) SiO2 
 PCOD8038089
Probable space group: P -1
;
_chemical_formula_sum "Si O2"
_cell_formula_units_Z 14
_cell_length_a 8.339590
_cell_length_b 9.540389
_cell_length_c 22.364483
_cell_angle_alpha 25.316732
_cell_angle_beta 108.341867
_cell_angle_gamma 102.354715
_cell_volume 711.268653
_symmetry_space_group_name_H-M "P -1"
_symmetry_group_IT_number 2
_symmetry_cell_setting 'triclinic'
loop_
_space_group_symop_operation_xyz
x,y,z
-x,-y,-z
loop_
_atom_site_type_symbol
_atom_site_label
_atom_site_fract_x
_atom_site_fract_y
_atom_site_fract_z
Si Si1 0.077318 0.208641 0.878154
Si Si2 0.711830 0.601224 0.975097
Si Si3 0.326903 0.350213 0.541505
Si Si4 0.304940 0.612217 0.815346
Si Si5 0.654539 0.145476 0.041427
Si Si6 0.441714 0.207895 0.730828
Si Si7 0.196091 0.730438 0.273208
O O1 0.149394 0.522316 0.792292
O O2 0.936385 0.373963 0.749387
O O3 0.228104 0.947690 0.965970
O O4 0.000000 0.000000 0.000000
O O5 0.756503 0.396649 0.119946
O O6 0.744040 0.373694 0.008379
O O7 0.514382 0.813731 0.872905
O O8 0.159737 0.131081 0.119392
O O9 0.500000 0.500000 0.500000
O O10 0.179122 0.572741 0.398368
O O11 0.345215 0.974412 0.663634
O O12 0.295067 0.355515 0.607945
O O13 0.469759 0.335167 0.925513
O O14 0.636747 0.804203 0.207487
O O15 0.606414 0.397157 0.677349
#
# Coordination Sequence:
#
# PCOD8038089 Si02
#       7
#     2   2   2   2   2   2   2
#     4  12  24  37  51  81 124 151 181 226 283 335
#     4   9  16  33  60  85 104 134 196 230 272 311
#     4  10  17  33  63  86 111 140 185 236 278 321
#     4  11  19  36  60  87 108 147 186 230 279 330
#     4  11  18  33  61  86 104 143 196 237 267 320
#     4   8  15  32  58  84 104 133 189 237 265 313
#     4   9  20  34  53  84 119 148 174 224 286 334
#
# _framework density 19.683140000000002
#
# number of rings (size 3 to 8) (size 9 to 14) (size 15 to 20)
#    0.857    1.143    4.286    1.286    0.000    1.143 
#    0.000    0.714    0.000   11.143    0.000    0.000 
#    0.000    0.000    0.000    0.000    0.000    0.000 
#
# Total GULP energy -173440.630389 kJ/mol
# GULP energy per Si atom -12388.616456 kJ/mol
# Density = 1.963834 g / cm^3
# Si number density = 19.683140 Si / 1000 Ang^3
#
#
#
# Elastic Constant Matrix: (Units=GPa)
#
#
# Indices 1 2 3 4 5 6 
#
# 1 69.4953 47.7849 35.9449 6.3652 -10.1659 14.5286
# 2 47.7849 86.8589 30.7376 4.6192 -5.5709 31.7254
# 3 35.9449 30.7376 94.8608 18.3455 -16.0113 19.5212
# 4 6.3652 4.6192 18.3455 28.3633 10.1279 6.4312
# 5 -10.1659 -5.5709 -16.0113 10.1279 21.6719 3.7033
# 6 14.5286 31.7254 19.5212 6.4312 3.7033 42.4136
#
#
#
# Elastic Compliance Matrix: (Units=1/GPa)
#
#
# Indices 1 2 3 4 5 6 
#
# 1 0.026839 -0.013633 -0.004245 -0.004410 0.007503 0.002971
# 2 -0.013633 0.023972 0.000139 0.001659 0.001436 -0.013703
# 3 -0.004245 0.000139 0.021907 -0.020433 0.025116 -0.007828
# 4 -0.004410 0.001659 -0.020433 0.065435 -0.047992 0.003942
# 5 0.007503 0.001436 0.025116 -0.047992 0.093769 -0.016115
# 6 0.002971 -0.013703 -0.007828 0.003942 -0.016115 0.037221
#
#
# Mechanical properties :
#
#
# Convention : Reuss Voigt Hill
#
# Bulk Modulus (GPa) = 26.85114 53.34999 40.10056
# Shear Modulus (GPa) = 15.77122 27.60627 21.68874
#
# Velocity S-wave (km/s) = 2.83372 3.74910 3.32308
# Velocity P-wave (km/s) = 4.93740 6.77527 5.92799
#
# Compressibility (1/GPa) = 0.03724237
#
# Stress axis : x y z
#
# Youngs Moduli (GPa) = 37.25910 41.71484 45.64817
#
# Poissons Ratio (x) = 0.56868 0.19376
# Poissons Ratio (y) = 0.50794 -0.00636
# Poissons Ratio (z) = 0.15815 -0.00582
#
# Static dielectric constant tensor:
#      x y z
#    x 3.387660 0.255260 -0.291570 
#    y 0.255260 3.499370 0.353790 
#    z -0.291570 0.353790 3.627660 
# 
# 
# High freq. dielectric constant tensor:
#      x y z
#    x 1.744610 0.028920 -0.027890 
#    y 0.028920 1.754950 0.029580 
#    z -0.027890 0.029580 1.748300 
# 
# From -- ./inp_files/204229.got.cif
#   From: 2010.06.25/outbox.cif.g09.slc.cpg/sg2_103_cif.got.tgz:204229.got - 2010.06.27 13:26:56.
