data_PCOD8038659
_publ_section_title
;
Structure prediction by ZEFSAII (Michael W. Deem and Ramdas Pophale) SiO2 
 PCOD8038659
Probable space group: P -1
;
_chemical_formula_sum "Si O2"
_cell_formula_units_Z 16
_cell_length_a 14.651234
_cell_length_b 12.617831
_cell_length_c 14.567770
_cell_angle_alpha 29.527490
_cell_angle_beta 125.937197
_cell_angle_gamma 105.098811
_cell_volume 837.179497
_symmetry_space_group_name_H-M "P -1"
_symmetry_group_IT_number 2
_symmetry_cell_setting 'triclinic'
loop_
_space_group_symop_operation_xyz
x,y,z
-x,-y,-z
loop_
_atom_site_type_symbol
_atom_site_label
_atom_site_fract_x
_atom_site_fract_y
_atom_site_fract_z
Si Si1 0.448139 0.069799 0.639807
Si Si2 0.493011 0.261252 0.700388
Si Si3 0.795384 0.292504 0.483663
Si Si4 0.012893 0.194432 0.924187
Si Si5 0.233248 0.300701 0.970894
Si Si6 0.644840 0.718586 0.762631
Si Si7 0.508423 0.462350 0.925844
Si Si8 0.281670 0.342847 0.659536
O O1 0.416097 0.244103 0.580305
O O2 0.329199 0.254507 0.349678
O O3 0.606283 0.937256 0.792999
O O4 0.437017 0.838992 0.840701
O O5 0.500000 0.500000 0.500000
O O6 0.398232 0.345773 0.671978
O O7 0.650872 0.968806 0.036526
O O8 0.825425 0.406190 0.328075
O O9 0.654916 0.306695 0.380941
O O10 0.767456 0.481843 0.409956
O O11 0.932654 0.969350 0.822903
O O12 0.133806 0.220047 0.942322
O O13 0.860959 0.505199 0.604435
O O14 0.000000 0.000000 0.000000
O O15 0.230095 0.346271 0.045504
O O16 0.622798 0.488176 0.929495
O O17 0.500000 0.000000 0.500000
O O18 0.500000 0.500000 0.000000
#
# Coordination Sequence:
#
# PCOD8038659 Si02
#       8
#     2   2   2   2   2   2   2   2
#     4  10  21  34  53  85 113 144 183 231 282 332
#     4  11  24  39  60  76 111 153 195 237 269 324
#     4  10  19  34  56  84 120 145 176 229 287 337
#     4  10  23  34  56  79 117 154 181 229 282 336
#     4  10  19  33  52  86 117 140 178 221 280 347
#     4  10  18  28  51  82 114 143 175 219 283 343
#     4  11  17  30  53  84 121 143 169 226 291 340
#     4  10  23  40  51  84 109 149 196 227 270 331
#
# _framework density 19.111791
#
# number of rings (size 3 to 8) (size 9 to 14) (size 15 to 20)
#    0.000    1.750    6.250    1.500    5.250    3.000 
#    0.000    0.000    0.000    0.750    0.000    2.625 
#    0.000    0.000    0.000    0.000    0.000    0.000 
#
# Total GULP energy -198254.203923 kJ/mol
# GULP energy per Si atom -12390.887745 kJ/mol
# Density = 1.906829 g / cm^3
# Si number density = 19.111791 Si / 1000 Ang^3
#
#
#
# Elastic Constant Matrix: (Units=GPa)
#
#
# Indices 1 2 3 4 5 6 
#
# 1 50.1936 20.8541 34.4187 -0.5386 -14.4512 15.0302
# 2 20.8541 86.3576 38.3348 3.9097 -10.4517 12.6444
# 3 34.4187 38.3348 121.3512 15.1373 -16.0113 -2.5177
# 4 -0.5386 3.9097 15.1373 30.7613 1.1206 -7.7760
# 5 -14.4512 -10.4517 -16.0113 1.1206 24.5036 3.4285
# 6 15.0302 12.6444 -2.5177 -7.7760 3.4285 36.1888
#
#
#
# Elastic Compliance Matrix: (Units=1/GPa)
#
#
# Indices 1 2 3 4 5 6 
#
# 1 0.035932 -0.000407 -0.007963 -0.000400 0.018232 -0.017149
# 2 -0.000407 0.014936 -0.003927 -0.001682 0.004497 -0.006110
# 3 -0.007963 -0.003927 0.012625 -0.004798 0.001484 0.004386
# 4 -0.000400 -0.001682 -0.004798 0.037656 -0.007095 0.009183
# 5 0.018232 0.004497 0.001484 -0.007095 0.057009 -0.015966
# 6 -0.017149 -0.006110 0.004386 0.009183 -0.015966 0.040681
#
#
# Mechanical properties :
#
#
# Convention : Reuss Voigt Hill
#
# Bulk Modulus (GPa) = 25.70675 49.45752 37.58213
# Shear Modulus (GPa) = 21.15062 29.24372 25.19717
#
# Velocity S-wave (km/s) = 3.33029 3.91594 3.63493
# Velocity P-wave (km/s) = 5.31674 6.81031 6.10934
#
# Compressibility (1/GPa) = 0.03890029
#
# Stress axis : x y z
#
# Youngs Moduli (GPa) = 27.83002 66.95187 79.20823
#
# Poissons Ratio (x) = 0.02722 0.63077
# Poissons Ratio (y) = 0.01131 0.31102
# Poissons Ratio (z) = 0.22162 0.26290
#
# Static dielectric constant tensor:
#      x y z
#    x 2.084660 -0.703570 0.365790 
#    y -0.703570 3.304460 1.019240 
#    z 0.365790 1.019240 3.597500 
# 
# 
# High freq. dielectric constant tensor:
#      x y z
#    x 1.707500 0.012800 -0.046640 
#    y 0.012800 1.743670 0.021850 
#    z -0.046640 0.021850 1.739030 
# 
# From -- ./inp_files/532277.got.cif
#   From: 2010.06.25/outbox.cif.g09.slc.cpg/sg2_267_cif.got.tgz:532277.got - 2010.06.27 13:26:56.
