data_PCOD8038998
_publ_section_title
;
Structure prediction by ZEFSAII (Michael W. Deem and Ramdas Pophale) SiO2 
 PCOD8038998
Probable space group: P -1
;
_chemical_formula_sum "Si O2"
_cell_formula_units_Z 14
_cell_length_a 12.974678
_cell_length_b 13.256036
_cell_length_c 24.423450
_cell_angle_alpha 22.294035
_cell_angle_beta 32.213534
_cell_angle_gamma 31.260650
_cell_volume 793.836869
_symmetry_space_group_name_H-M "P -1"
_symmetry_group_IT_number 2
_symmetry_cell_setting 'triclinic'
loop_
_space_group_symop_operation_xyz
x,y,z
-x,-y,-z
loop_
_atom_site_type_symbol
_atom_site_label
_atom_site_fract_x
_atom_site_fract_y
_atom_site_fract_z
Si Si1 0.970805 0.461097 0.596230
Si Si2 0.560443 0.942981 0.121868
Si Si3 0.460331 0.487925 0.194622
Si Si4 0.581689 0.561042 0.989834
Si Si5 0.870399 0.070400 0.695752
Si Si6 0.095001 0.855275 0.815954
Si Si7 0.992985 0.510415 0.126050
O O1 0.080111 0.649877 0.484813
O O2 0.000000 0.500000 0.500000
O O3 0.730145 0.583324 0.660108
O O4 0.072162 0.123544 0.732178
O O5 0.377274 0.838988 0.237016
O O6 0.768570 0.671899 0.171045
O O7 0.506891 0.100501 0.126070
O O8 0.582859 0.171821 0.952141
O O9 0.664857 0.304027 0.228997
O O10 0.505576 0.400745 0.153501
O O11 0.832017 0.453987 0.930197
O O12 0.500000 0.500000 0.000000
O O13 0.973770 0.820900 0.730613
O O14 0.957954 0.964875 0.769254
O O15 0.016075 0.632614 0.994594
#
# Coordination Sequence:
#
# PCOD8038998 Si02
#       7
#     2   2   2   2   2   2   2
#     4  10  21  34  47  73 106 140 171 206 242 298
#     4   9  19  32  50  75  99 132 167 207 252 293
#     4   9  19  33  52  73 101 134 171 207 249 297
#     4   8  17  33  54  80  99 120 170 221 252 296
#     4  10  21  30  47  76 104 135 170 211 240 296
#     4  10  18  33  50  70 102 139 176 204 243 294
#     4  10  18  32  52  75 101 132 167 212 251 298
#
# _framework density 17.635864999999999
#
# number of rings (size 3 to 8) (size 9 to 14) (size 15 to 20)
#    0.857    1.714    2.857    0.429    0.000    6.857 
#    0.000    0.000    0.000    3.429    0.000   18.000 
#    0.000    0.000    0.000    0.000    0.000    0.000 
#
# Total GULP energy -173461.221620 kJ/mol
# GULP energy per Si atom -12390.087259 kJ/mol
# Density = 1.759572 g / cm^3
# Si number density = 17.635865 Si / 1000 Ang^3
#
#
#
# Elastic Constant Matrix: (Units=GPa)
#
#
# Indices 1 2 3 4 5 6 
#
# 1 82.7869 43.0777 20.4795 10.6595 -18.5132 -7.7773
# 2 43.0777 147.7638 38.4095 16.3783 -19.3168 -15.2273
# 3 20.4795 38.4095 73.5426 12.4523 -28.1402 1.0164
# 4 10.6595 16.3783 12.4523 31.0977 -1.2059 -5.5850
# 5 -18.5132 -19.3168 -28.1402 -1.2059 23.1776 3.3560
# 6 -7.7773 -15.2273 1.0164 -5.5850 3.3560 16.2171
#
#
#
# Elastic Compliance Matrix: (Units=1/GPa)
#
#
# Indices 1 2 3 4 5 6 
#
# 1 0.016870 -0.003373 0.003484 -0.004831 0.014640 0.000011
# 2 -0.003373 0.009650 -0.004640 -0.000726 -0.001450 0.007784
# 3 0.003484 -0.004640 0.033540 -0.013829 0.041545 -0.018148
# 4 -0.004831 -0.000726 -0.013829 0.041907 -0.021499 0.016749
# 5 0.014640 -0.001450 0.041545 -0.021499 0.106781 -0.026446
# 6 0.000011 0.007784 -0.018148 0.016749 -0.026446 0.081357
#
#
# Mechanical properties :
#
#
# Convention : Reuss Voigt Hill
#
# Bulk Modulus (GPa) = 19.60765 56.44740 38.02753
# Shear Modulus (GPa) = 15.81458 27.57359 21.69409
#
# Velocity S-wave (km/s) = 2.99779 3.95840 3.51110
# Velocity P-wave (km/s) = 4.80880 7.27795 6.16819
#
# Compressibility (1/GPa) = 0.05100050
#
# Stress axis : x y z
#
# Youngs Moduli (GPa) = 59.27849 103.62483 29.81514
#
# Poissons Ratio (x) = 0.34953 -0.10387
# Poissons Ratio (y) = 0.19995 0.13835
# Poissons Ratio (z) = -0.20651 0.48085
#
# Static dielectric constant tensor:
#      x y z
#    x 2.862290 0.028630 -0.361620 
#    y 0.028630 3.450660 -0.253930 
#    z -0.361620 -0.253930 3.503830 
# 
# 
# High freq. dielectric constant tensor:
#      x y z
#    x 1.638180 -0.005200 -0.026840 
#    y -0.005200 1.694960 -0.000470 
#    z -0.026840 -0.000470 1.663450 
# 
# From -- ./inp_files/313894.got.cif
#   From: 2010.06.25/outbox.cif.g09.slc.cpg/sg2_157_cif.got.tgz:313894.got - 2010.06.27 13:26:56.
