data_PCOD8038979
_publ_section_title
;
Structure prediction by ZEFSAII (Michael W. Deem and Ramdas Pophale) SiO2 
 PCOD8038979
Probable space group: P -1
;
_chemical_formula_sum "Si O2"
_cell_formula_units_Z 14
_cell_length_a 10.872152
_cell_length_b 9.204749
_cell_length_c 12.058672
_cell_angle_alpha 99.971835
_cell_angle_beta 119.855517
_cell_angle_gamma 39.016379
_cell_volume 606.365636
_symmetry_space_group_name_H-M "P -1"
_symmetry_group_IT_number 2
_symmetry_cell_setting 'triclinic'
loop_
_space_group_symop_operation_xyz
x,y,z
-x,-y,-z
loop_
_atom_site_type_symbol
_atom_site_label
_atom_site_fract_x
_atom_site_fract_y
_atom_site_fract_z
Si Si1 0.649827 0.210390 0.128010
Si Si2 0.861873 0.416352 0.985405
Si Si3 0.031979 0.211139 0.624383
Si Si4 0.097860 0.470373 0.213089
Si Si5 0.688721 0.255125 0.918369
Si Si6 0.490410 0.599915 0.368296
Si Si7 0.420319 0.793833 0.583541
O O1 0.569173 0.448255 0.131667
O O2 0.881283 0.992750 0.281552
O O3 0.420291 0.303772 0.079414
O O4 0.729967 0.110411 0.021783
O O5 0.025564 0.362598 0.143120
O O6 0.947444 0.394005 0.899529
O O7 0.901359 0.204299 0.992894
O O8 0.058643 0.336769 0.727463
O O9 0.765552 0.411479 0.487534
O O10 0.199082 0.068734 0.572652
O O11 0.376098 0.252685 0.344712
O O12 0.633014 0.222173 0.771602
O O13 0.339764 0.787873 0.430287
O O14 0.475641 0.432418 0.325928
#
# Coordination Sequence:
#
# PCOD8038979 Si02
#       7
#     2   2   2   2   2   2   2
#     4   9  18  33  55  77 110 136 171 215 262 314
#     4   9  17  34  50  76 110 141 168 212 266 312
#     4  11  20  32  54  85 103 135 178 219 261 304
#     4  10  19  31  53  79 109 137 170 219 263 305
#     4   9  17  35  55  77 107 142 169 210 268 314
#     4  10  19  31  55  76 107 138 173 218 263 302
#     4  10  18  32  49  76 109 133 170 221 257 303
#
# _framework density 23.088380999999998
#
# number of rings (size 3 to 8) (size 9 to 14) (size 15 to 20)
#    0.857    1.429    4.286    0.429    0.000    0.571 
#    0.000    0.714    3.143    3.429    0.000    5.000 
#    0.000    0.000    0.000    0.000    0.000    0.000 
#
# Total GULP energy -173444.954351 kJ/mol
# GULP energy per Si atom -12388.925311 kJ/mol
# Density = 2.303583 g / cm^3
# Si number density = 23.088381 Si / 1000 Ang^3
#
#
#
# Elastic Constant Matrix: (Units=GPa)
#
#
# Indices 1 2 3 4 5 6 
#
# 1 67.2330 39.6150 37.8702 12.4000 14.1741 -4.9498
# 2 39.6150 86.7836 40.4855 33.0285 4.7384 -19.7740
# 3 37.8702 40.4855 109.9312 25.6545 9.6519 -7.9295
# 4 12.4000 33.0285 25.6545 31.8189 -1.3621 -6.9619
# 5 14.1741 4.7384 9.6519 -1.3621 36.2321 8.9885
# 6 -4.9498 -19.7740 -7.9295 -6.9619 8.9885 28.2861
#
#
#
# Elastic Compliance Matrix: (Units=1/GPa)
#
#
# Indices 1 2 3 4 5 6 
#
# 1 0.024324 -0.010614 -0.005239 0.005193 -0.006193 -0.001386
# 2 -0.010614 0.028173 -0.000272 -0.022096 -0.003634 0.013478
# 3 -0.005239 -0.000272 0.013160 -0.008104 -0.002031 0.001233
# 4 0.005193 -0.022096 -0.008104 0.058159 0.006320 -0.004504
# 5 -0.006193 -0.003634 -0.002031 0.006320 0.034664 -0.013653
# 6 -0.001386 0.013478 0.001233 -0.004504 -0.013653 0.048109
#
#
# Mechanical properties :
#
#
# Convention : Reuss Voigt Hill
#
# Bulk Modulus (GPa) = 29.93194 55.54325 42.73760
# Shear Modulus (GPa) = 20.00215 28.99922 24.50068
#
# Velocity S-wave (km/s) = 2.94654 3.54787 3.26109
# Velocity P-wave (km/s) = 4.95665 6.39470 5.72104
#
# Compressibility (1/GPa) = 0.03340913
#
# Stress axis : x y z
#
# Youngs Moduli (GPa) = 41.11168 35.49447 75.98870
#
# Poissons Ratio (x) = 0.37672 0.39809
# Poissons Ratio (y) = 0.43634 0.02064
# Poissons Ratio (z) = 0.21537 0.00964
#
# Static dielectric constant tensor:
#      x y z
#    x 3.817250 -0.346190 -0.029770 
#    y -0.346190 4.162940 0.396870 
#    z -0.029770 0.396870 4.261360 
# 
# 
# High freq. dielectric constant tensor:
#      x y z
#    x 1.863040 -0.036110 0.006210 
#    y -0.036110 1.908760 0.022010 
#    z 0.006210 0.022010 1.919630 
# 
# From -- ./inp_files/421475.got.cif
#   From: 2010.06.25/outbox.cif.g09.slc.cpg/sg2_211_cif.got.tgz:421475.got - 2010.06.27 13:26:56.
