data_PCOD8038744
_publ_section_title
;
Structure prediction by ZEFSAII (Michael W. Deem and Ramdas Pophale) SiO2 
 PCOD8038744
Probable space group: P -1
;
_chemical_formula_sum "Si O2"
_cell_formula_units_Z 14
_cell_length_a 15.377170
_cell_length_b 11.909783
_cell_length_c 14.744457
_cell_angle_alpha 105.002860
_cell_angle_beta 19.237602
_cell_angle_gamma 113.717549
_cell_volume 746.277048
_symmetry_space_group_name_H-M "P -1"
_symmetry_group_IT_number 2
_symmetry_cell_setting 'triclinic'
loop_
_space_group_symop_operation_xyz
x,y,z
-x,-y,-z
loop_
_atom_site_type_symbol
_atom_site_label
_atom_site_fract_x
_atom_site_fract_y
_atom_site_fract_z
Si Si1 0.118592 0.152198 0.937629
Si Si2 0.799296 0.309850 0.586120
Si Si3 0.220666 0.703828 0.757889
Si Si4 0.406810 0.422337 0.307224
Si Si5 0.145988 0.617338 0.256193
Si Si6 0.754883 0.729747 0.975540
Si Si7 0.632637 0.443610 0.280118
O O1 0.482265 0.238440 0.585205
O O2 0.061181 0.167818 0.102953
O O3 0.925394 0.199051 0.074479
O O4 0.000000 0.000000 0.000000
O O5 0.757762 0.286546 0.730432
O O6 0.949079 0.466044 0.451442
O O7 0.007020 0.251874 0.332741
O O8 0.477879 0.232711 0.834967
O O9 0.318502 0.676510 0.754785
O O10 0.959208 0.561151 0.946394
O O11 0.406631 0.387604 0.406101
O O12 0.058315 0.352403 0.605005
O O13 0.554348 0.354817 0.086171
O O14 0.586553 0.581576 0.151690
O O15 0.500000 0.500000 0.500000
#
# Coordination Sequence:
#
# PCOD8038744 Si02
#       7
#     2   2   2   2   2   2   2
#     4  12  24  39  55  79 112 145 190 228 262 314
#     4   9  17  29  45  66 101 136 172 210 253 320
#     4  11  23  37  55  78 108 148 181 223 274 306
#     4  10  19  28  49  71 105 137 172 206 261 326
#     4   9  18  28  42  71 101 136 168 210 256 314
#     4  10  18  30  50  69  99 141 177 207 262 317
#     4  11  22  35  58  79 113 144 186 220 263 339
#
# _framework density 18.759789000000001
#
# number of rings (size 3 to 8) (size 9 to 14) (size 15 to 20)
#    0.000    1.714    2.857    2.143    8.000    3.429 
#    0.000    0.000    0.000    0.000    0.000    0.000 
#    0.000   22.857    0.000    0.000    0.000    0.000 
#
# Total GULP energy -173573.904726 kJ/mol
# GULP energy per Si atom -12398.136052 kJ/mol
# Density = 1.871709 g / cm^3
# Si number density = 18.759789 Si / 1000 Ang^3
#
#
#
# Elastic Constant Matrix: (Units=GPa)
#
#
# Indices 1 2 3 4 5 6 
#
# 1 119.0630 39.2268 15.7526 2.7241 -17.0905 5.6281
# 2 39.2268 71.7109 21.3101 11.1306 -2.3242 3.5657
# 3 15.7526 21.3101 65.8442 15.1867 -10.5959 -2.3901
# 4 2.7241 11.1306 15.1867 17.0772 -4.4713 -4.7316
# 5 -17.0905 -2.3242 -10.5959 -4.4713 29.1713 11.2211
# 6 5.6281 3.5657 -2.3901 -4.7316 11.2211 25.4514
#
#
#
# Elastic Compliance Matrix: (Units=1/GPa)
#
#
# Indices 1 2 3 4 5 6 
#
# 1 0.012010 -0.006478 -0.000349 0.003546 0.008873 -0.005034
# 2 -0.006478 0.020071 -0.003213 -0.010820 -0.004337 -0.001780
# 3 -0.000349 -0.003213 0.020738 -0.015595 0.005834 -0.002997
# 4 0.003546 -0.010820 -0.015595 0.083456 0.003199 0.013372
# 5 0.008873 -0.004337 0.005834 0.003199 0.050366 -0.022417
# 6 -0.005034 -0.001780 -0.002997 0.013372 -0.022417 0.052741
#
#
# Mechanical properties :
#
#
# Convention : Reuss Voigt Hill
#
# Bulk Modulus (GPa) = 30.54586 45.46634 38.00610
# Shear Modulus (GPa) = 18.49289 26.36187 22.42738
#
# Velocity S-wave (km/s) = 3.14311 3.75271 3.46136
# Velocity P-wave (km/s) = 5.43048 6.56245 6.02312
#
# Compressibility (1/GPa) = 0.03273767
#
# Stress axis : x y z
#
# Youngs Moduli (GPa) = 83.26439 49.82378 48.22118
#
# Poissons Ratio (x) = 0.32277 0.01684
# Poissons Ratio (y) = 0.53941 0.15493
# Poissons Ratio (z) = 0.02908 0.16008
#
# Static dielectric constant tensor:
#      x y z
#    x 3.605330 -0.017360 -0.207720 
#    y -0.017360 3.043420 0.357490 
#    z -0.207720 0.357490 3.489600 
# 
# 
# High freq. dielectric constant tensor:
#      x y z
#    x 1.736190 0.008470 -0.018310 
#    y 0.008470 1.670240 0.044970 
#    z -0.018310 0.044970 1.726370 
# 
# From -- ./inp_files/74888.got.cif
#   From: 2010.06.25/outbox.cif.g09.slc.cpg/sg2_38_cif.got.tgz:74888.got - 2010.06.27 13:26:56.
