data_PCOD8038278
_publ_section_title
;
Structure prediction by ZEFSAII (Michael W. Deem and Ramdas Pophale) SiO2 
 PCOD8038278
Probable space group: P -1
;
_chemical_formula_sum "Si O2"
_cell_formula_units_Z 16
_cell_length_a 11.035174
_cell_length_b 11.048804
_cell_length_c 10.979841
_cell_angle_alpha 116.148544
_cell_angle_beta 123.205475
_cell_angle_gamma 37.482180
_cell_volume 681.563217
_symmetry_space_group_name_H-M "P -1"
_symmetry_group_IT_number 2
_symmetry_cell_setting 'triclinic'
loop_
_space_group_symop_operation_xyz
x,y,z
-x,-y,-z
loop_
_atom_site_type_symbol
_atom_site_label
_atom_site_fract_x
_atom_site_fract_y
_atom_site_fract_z
Si Si1 0.623038 0.449995 0.255334
Si Si2 0.831396 0.721320 0.265866
Si Si3 0.740960 0.674527 0.431224
Si Si4 0.825736 0.258335 0.781879
Si Si5 0.188835 0.251073 0.260219
Si Si6 0.993513 0.102853 0.154941
Si Si7 0.152756 0.268764 0.987316
Si Si8 0.879114 0.222093 0.527495
O O1 0.639162 0.598976 0.333487
O O2 0.375617 0.575906 0.166619
O O3 0.749035 0.305185 0.144730
O O4 0.709788 0.329744 0.375008
O O5 0.665178 0.806573 0.324371
O O6 0.722900 0.820965 0.115551
O O7 0.979812 0.487465 0.235339
O O8 0.961894 0.762230 0.399007
O O9 0.659711 0.795941 0.568344
O O10 0.000000 0.500000 0.500000
O O11 0.758138 0.329144 0.636509
O O12 0.014639 0.228208 0.912380
O O13 0.901276 0.050926 0.743365
O O14 0.126510 0.144864 0.220820
O O15 0.298366 0.176797 0.150823
O O16 0.000000 0.000000 0.000000
O O17 0.000000 0.500000 0.000000
O O18 0.000000 0.000000 0.500000
#
# Coordination Sequence:
#
# PCOD8038278 Si02
#       8
#     2   2   2   2   2   2   2   2
#     4  12  23  42  66  92 136 160 208 280 314 386
#     4   9  17  32  59  89 115 165 217 243 313 383
#     4  10  17  34  65  89 115 172 208 251 325 374
#     4  11  25  39  63 103 121 167 217 258 336 374
#     4  10  17  34  62  86 122 165 213 253 313 388
#     4  12  23  40  63  92 131 169 214 266 321 378
#     4   9  19  36  59  88 120 168 214 249 308 392
#     4  11  20  37  66  93 128 167 208 263 321 384
#
# _framework density 23.475444
#
# number of rings (size 3 to 8) (size 9 to 14) (size 15 to 20)
#    0.000    1.500    7.500    0.375    0.000    0.500 
#    0.000    0.625    0.000    0.750    0.000    0.000 
#    0.000    0.000    0.000    0.000    0.000    0.000 
#
# Total GULP energy -198231.102354 kJ/mol
# GULP energy per Si atom -12389.443897 kJ/mol
# Density = 2.342201 g / cm^3
# Si number density = 23.475444 Si / 1000 Ang^3
#
#
#
# Elastic Constant Matrix: (Units=GPa)
#
#
# Indices 1 2 3 4 5 6 
#
# 1 113.5574 41.8230 56.5395 6.5152 -26.6399 27.6155
# 2 41.8230 46.5992 22.5696 16.5011 -1.2022 24.1838
# 3 56.5395 22.5696 150.8276 9.4602 -41.8003 9.2876
# 4 6.5152 16.5011 9.4602 31.8108 15.2038 -3.5525
# 5 -26.6399 -1.2022 -41.8003 15.2038 44.6240 8.8909
# 6 27.6155 24.1838 9.2876 -3.5525 8.8909 41.7014
#
#
#
# Elastic Compliance Matrix: (Units=1/GPa)
#
#
# Indices 1 2 3 4 5 6 
#
# 1 0.019161 -0.004530 0.000553 -0.012628 0.019196 -0.015353
# 2 -0.004530 0.078941 0.011251 -0.072688 0.046980 -0.061495
# 3 0.000553 0.011251 0.014804 -0.025094 0.026638 -0.018005
# 4 -0.012628 -0.072688 -0.025094 0.135243 -0.096661 0.088235
# 5 0.019196 0.046980 0.026638 -0.096661 0.108409 -0.077237
# 6 -0.015353 -0.061495 -0.018005 0.088235 -0.077237 0.097803
#
#
# Mechanical properties :
#
#
# Convention : Reuss Voigt Hill
#
# Bulk Modulus (GPa) = 7.84595 61.42758 34.63676
# Shear Modulus (GPa) = 10.36704 36.29738 23.33221
#
# Velocity S-wave (km/s) = 2.10374 3.93642 3.15604
# Velocity P-wave (km/s) = 3.04145 6.84720 5.29785
#
# Compressibility (1/GPa) = 0.12745428
#
# Stress axis : x y z
#
# Youngs Moduli (GPa) = 52.19046 12.66763 67.54776
#
# Poissons Ratio (x) = 0.05738 -0.03732
# Poissons Ratio (y) = 0.23640 -0.75999
# Poissons Ratio (z) = -0.02884 -0.14252
#
# Static dielectric constant tensor:
#      x y z
#    x 1.342740 -1.773350 -0.196670 
#    y -1.773350 2.519700 0.420240 
#    z -0.196670 0.420240 4.977760 
# 
# 
# High freq. dielectric constant tensor:
#      x y z
#    x 1.930710 0.040850 -0.031720 
#    y 0.040850 1.899630 0.014420 
#    z -0.031720 0.014420 1.943190 
# 
# From -- ./inp_files/424114.got.cif
#   From: 2010.06.25/outbox.cif.g09.slc.cpg/sg2_213_cif.got.tgz:424114.got - 2010.06.27 13:26:56.
