data_PCOD8038813
_publ_section_title
;
Structure prediction by ZEFSAII (Michael W. Deem and Ramdas Pophale) SiO2 
 PCOD8038813
Probable space group: P -1
;
_chemical_formula_sum "Si O2"
_cell_formula_units_Z 16
_cell_length_a 22.039060
_cell_length_b 9.620551
_cell_length_c 12.152395
_cell_angle_alpha 34.450800
_cell_angle_beta 35.333147
_cell_angle_gamma 38.249254
_cell_volume 791.471771
_symmetry_space_group_name_H-M "P -1"
_symmetry_group_IT_number 2
_symmetry_cell_setting 'triclinic'
loop_
_space_group_symop_operation_xyz
x,y,z
-x,-y,-z
loop_
_atom_site_type_symbol
_atom_site_label
_atom_site_fract_x
_atom_site_fract_y
_atom_site_fract_z
Si Si1 0.130397 0.866182 0.407910
Si Si2 0.290225 0.280875 0.285103
Si Si3 0.280219 0.833798 0.006284
Si Si4 0.516828 0.728003 0.706946
Si Si5 0.252188 0.284766 0.575804
Si Si6 0.448294 0.520124 0.404687
Si Si7 0.266936 0.002110 0.299539
Si Si8 0.535583 0.870682 0.186620
O O1 0.158093 0.553051 0.579582
O O2 0.164329 0.987224 0.388636
O O3 0.191171 0.938950 0.165727
O O4 0.000000 0.000000 0.500000
O O5 0.236727 0.201320 0.527682
O O6 0.225719 0.224041 0.310524
O O7 0.421736 0.115661 0.185511
O O8 0.265629 0.590100 0.123098
O O9 0.406068 0.755376 0.925155
O O10 0.260140 0.059980 0.797054
O O11 0.634102 0.639627 0.655625
O O12 0.516980 0.524251 0.744274
O O13 0.500000 0.000000 0.500000
O O14 0.534366 0.636531 0.259773
O O15 0.450512 0.246562 0.634095
O O16 0.322202 0.726713 0.461869
O O17 0.359944 0.047055 0.053126
#
# Coordination Sequence:
#
# PCOD8038813 Si02
#       8
#     2   2   2   2   2   2   2   2
#     4  11  26  43  62  86 114 159 212 255 289 338
#     4  10  21  35  57  91 120 154 191 236 299 364
#     4  10  22  39  62  85 123 157 194 244 300 356
#     4  10  18  30  56  86 117 152 189 226 290 360
#     4  10  22  39  61  88 122 155 195 245 298 358
#     4  10  19  34  50  87 128 156 190 231 289 368
#     4  11  22  36  59  83 120 158 200 242 295 347
#     4  10  20  31  55  85 127 161 185 230 294 364
#
# _framework density 20.215505
#
# number of rings (size 3 to 8) (size 9 to 14) (size 15 to 20)
#    0.000    1.750    1.250    4.500    5.250    3.500 
#    0.000    2.500    0.000    1.500    0.000    0.000 
#    0.000    0.000    0.000    0.000    0.000    0.000 
#
# Total GULP energy -198325.451923 kJ/mol
# GULP energy per Si atom -12395.340745 kJ/mol
# Density = 2.016949 g / cm^3
# Si number density = 20.215505 Si / 1000 Ang^3
#
#
#
# Elastic Constant Matrix: (Units=GPa)
#
#
# Indices 1 2 3 4 5 6 
#
# 1 116.3582 48.7508 32.6696 11.6379 -6.2557 8.8241
# 2 48.7508 91.6509 27.9981 4.9300 -7.4159 1.0725
# 3 32.6696 27.9981 68.8038 -1.8813 11.9382 -4.2157
# 4 11.6379 4.9300 -1.8813 29.9119 -3.7743 2.7142
# 5 -6.2557 -7.4159 11.9382 -3.7743 23.8244 4.1374
# 6 8.8241 1.0725 -4.2157 2.7142 4.1374 33.9786
#
#
#
# Elastic Compliance Matrix: (Units=1/GPa)
#
#
# Indices 1 2 3 4 5 6 
#
# 1 0.013020 -0.004595 -0.005524 -0.003652 0.004912 -0.004228
# 2 -0.004595 0.015502 -0.005278 -0.000234 0.006349 -0.000705
# 3 -0.005524 -0.005278 0.022335 0.001980 -0.015021 0.006043
# 4 -0.003652 -0.000234 0.001980 0.035715 0.004005 -0.002139
# 5 0.004912 0.006349 -0.015021 0.004005 0.055204 -0.010381
# 6 -0.004228 -0.000705 0.006043 -0.002139 -0.010381 0.032735
#
#
# Mechanical properties :
#
#
# Convention : Reuss Voigt Hill
#
# Bulk Modulus (GPa) = 49.83824 55.07220 52.45522
# Shear Modulus (GPa) = 23.58581 28.70261 26.14421
#
# Velocity S-wave (km/s) = 3.41943 3.77215 3.60012
# Velocity P-wave (km/s) = 6.34799 6.80249 6.57917
#
# Compressibility (1/GPa) = 0.02006492
#
# Stress axis : x y z
#
# Youngs Moduli (GPa) = 76.80399 64.50863 44.77254
#
# Poissons Ratio (x) = 0.29641 0.24731
# Poissons Ratio (y) = 0.35290 0.23629
# Poissons Ratio (z) = 0.42424 0.34045
#
# Static dielectric constant tensor:
#      x y z
#    x 1.985180 -0.806280 0.368350 
#    y -0.806280 3.091720 -0.029090 
#    z 0.368350 -0.029090 3.601820 
# 
# 
# High freq. dielectric constant tensor:
#      x y z
#    x 1.778310 0.030490 0.024750 
#    y 0.030490 1.782050 -0.026610 
#    z 0.024750 -0.026610 1.777900 
# 
# From -- ./inp_files/272066.got.cif
#   From: 2010.06.25/outbox.cif.g09.slc.cpg/sg2_137_cif.got.tgz:272066.got - 2010.06.27 13:26:56.
