data_PCOD8038614
_publ_section_title
;
Structure prediction by ZEFSAII (Michael W. Deem and Ramdas Pophale) SiO2 
 PCOD8038614
Probable space group: P -1
;
_chemical_formula_sum "Si O2"
_cell_formula_units_Z 14
_cell_length_a 9.527532
_cell_length_b 23.968843
_cell_length_c 20.936827
_cell_angle_alpha 161.546967
_cell_angle_beta 41.151977
_cell_angle_gamma 149.633348
_cell_volume 698.076915
_symmetry_space_group_name_H-M "P -1"
_symmetry_group_IT_number 2
_symmetry_cell_setting 'triclinic'
loop_
_space_group_symop_operation_xyz
x,y,z
-x,-y,-z
loop_
_atom_site_type_symbol
_atom_site_label
_atom_site_fract_x
_atom_site_fract_y
_atom_site_fract_z
Si Si1 0.571731 0.401196 0.150039
Si Si2 0.638977 0.677720 0.998233
Si Si3 0.711272 0.053839 0.930224
Si Si4 0.788538 0.046153 0.455340
Si Si5 0.665648 0.109275 0.866662
Si Si6 0.671158 0.383065 0.497886
Si Si7 0.750658 0.713883 0.193597
O O1 0.532080 0.334983 0.016740
O O2 0.491443 0.175669 0.970291
O O3 0.329653 0.410774 0.261867
O O4 0.911342 0.659155 0.333072
O O5 0.391751 0.393889 0.804058
O O6 0.758537 0.891384 0.239770
O O7 0.946551 0.763151 0.961423
O O8 0.551337 0.777071 0.661143
O O9 0.732609 0.189589 0.006329
O O10 0.500000 0.000000 0.000000
O O11 0.817496 0.957171 0.416337
O O12 0.500000 0.000000 0.500000
O O13 0.962110 0.245215 0.870017
O O14 0.459935 0.810688 0.608279
O O15 0.000000 0.500000 0.500000
O O16 0.500000 0.500000 0.000000
#
# Coordination Sequence:
#
# PCOD8038614 Si02
#       7
#     2   2   2   2   2   2   2
#     4  12  23  42  68  98 132 171 218 272 326 383
#     4  11  23  40  66  97 133 171 222 264 321 402
#     4  10  20  43  66  91 130 172 213 269 326 383
#     4  11  22  39  64  96 136 175 213 269 326 387
#     4  10  22  40  68  92 135 167 215 275 326 380
#     4  10  21  43  66  90 133 172 214 270 326 375
#     4  10  17  40  63  90 133 170 207 268 325 378
#
# _framework density 20.055097
#
# number of rings (size 3 to 8) (size 9 to 14) (size 15 to 20)
#    0.857    0.571    5.714    2.571    0.000    3.429 
#    2.571    2.143    0.000    0.000    0.000    0.000 
#    0.000    0.000    0.000    0.000    0.000    0.000 
#
# Total GULP energy -173448.981293 kJ/mol
# GULP energy per Si atom -12389.212949 kJ/mol
# Density = 2.000945 g / cm^3
# Si number density = 20.055097 Si / 1000 Ang^3
#
#
#
# Elastic Constant Matrix: (Units=GPa)
#
#
# Indices 1 2 3 4 5 6 
#
# 1 116.2451 41.2731 32.6767 -8.9000 -15.9662 2.2441
# 2 41.2731 146.2667 19.8012 -5.6720 -8.9109 15.1574
# 3 32.6767 19.8012 45.9122 -4.9341 -12.9772 2.8629
# 4 -8.9000 -5.6720 -4.9341 18.7282 4.9286 -0.6681
# 5 -15.9662 -8.9109 -12.9772 4.9286 36.8170 -6.8260
# 6 2.2441 15.1574 2.8629 -0.6681 -6.8260 30.0687
#
#
#
# Elastic Compliance Matrix: (Units=1/GPa)
#
#
# Indices 1 2 3 4 5 6 
#
# 1 0.011744 -0.002348 -0.006551 0.002635 0.002136 0.001474
# 2 -0.002348 0.008125 -0.001626 0.000900 -0.000459 -0.003850
# 3 -0.006551 -0.001626 0.029312 0.002329 0.006807 0.000115
# 4 0.002635 0.000900 0.002329 0.056979 -0.005609 -0.000880
# 5 0.002136 -0.000459 0.006807 -0.005609 0.032359 0.006645
# 6 0.001474 -0.003850 0.000115 -0.000880 0.006645 0.036566
#
#
# Mechanical properties :
#
#
# Convention : Reuss Voigt Hill
#
# Bulk Modulus (GPa) = 35.54780 55.10288 45.32534
# Shear Modulus (GPa) = 24.32947 31.43431 27.88189
#
# Velocity S-wave (km/s) = 3.48678 3.96333 3.73267
# Velocity P-wave (km/s) = 5.82870 6.96271 6.42079
#
# Compressibility (1/GPa) = 0.02813114
#
# Stress axis : x y z
#
# Youngs Moduli (GPa) = 85.14839 123.07161 34.11596
#
# Poissons Ratio (x) = 0.28891 0.22350
# Poissons Ratio (y) = 0.19989 0.05549
# Poissons Ratio (z) = 0.55781 0.20018
#
# Static dielectric constant tensor:
#      x y z
#    x 4.352820 -0.230330 -0.458420 
#    y -0.230330 3.837570 0.239870 
#    z -0.458420 0.239870 3.800590 
# 
# 
# High freq. dielectric constant tensor:
#      x y z
#    x 1.774840 0.009170 0.002910 
#    y 0.009170 1.789130 0.006250 
#    z 0.002910 0.006250 1.763640 
# 
# From -- ./inp_files/591982.got.cif
#   From: 2010.06.25/outbox.cif.g09.slc.cpg/sg2_296_cif.got.tgz:591982.got - 2010.06.27 13:26:56.
