data_PCOD8038563
_publ_section_title
;
Structure prediction by ZEFSAII (Michael W. Deem and Ramdas Pophale) SiO2 
 PCOD8038563
Probable space group: P -1
;
_chemical_formula_sum "Si O2"
_cell_formula_units_Z 16
_cell_length_a 15.665554
_cell_length_b 12.037279
_cell_length_c 9.810452
_cell_angle_alpha 127.706291
_cell_angle_beta 37.009585
_cell_angle_gamma 106.530985
_cell_volume 796.217097
_symmetry_space_group_name_H-M "P -1"
_symmetry_group_IT_number 2
_symmetry_cell_setting 'triclinic'
loop_
_space_group_symop_operation_xyz
x,y,z
-x,-y,-z
loop_
_atom_site_type_symbol
_atom_site_label
_atom_site_fract_x
_atom_site_fract_y
_atom_site_fract_z
Si Si1 0.399249 0.126327 0.621812
Si Si2 0.421674 0.429356 0.840772
Si Si3 0.143260 0.980203 0.202766
Si Si4 0.906242 0.738262 0.725017
Si Si5 0.160469 0.548756 0.461373
Si Si6 0.234665 0.653181 0.715667
Si Si7 0.354810 0.459515 0.659439
Si Si8 0.517395 0.099861 0.173425
O O1 0.475363 0.246660 0.626907
O O2 0.432533 0.056992 0.375348
O O3 0.500000 0.000000 0.500000
O O4 0.219303 0.190505 0.940494
O O5 0.582776 0.446320 0.633449
O O6 0.300172 0.494401 0.914168
O O7 0.338231 0.496202 0.140936
O O8 0.098425 0.135556 0.285771
O O9 0.176962 0.835976 0.950120
O O10 0.299281 0.943987 0.065076
O O11 0.000000 0.000000 0.500000
O O12 0.881158 0.597996 0.579012
O O13 0.065291 0.670338 0.556873
O O14 0.133757 0.630516 0.704173
O O15 0.216217 0.570398 0.817506
O O16 0.500000 0.500000 0.500000
O O17 0.416248 0.280566 0.402931
O O18 0.500000 0.000000 0.000000
#
# Coordination Sequence:
#
# PCOD8038563 Si02
#       8
#     2   2   2   2   2   2   2   2
#     4  10  17  37  66  84 121 168 206 259 314 368
#     4   9  18  35  61  89 122 158 203 255 318 371
#     4  12  26  43  63  92 136 173 209 269 332 380
#     4  10  23  43  62  90 132 165 212 261 330 381
#     4  10  23  38  66  95 121 163 210 266 317 383
#     4  11  21  39  62  95 123 165 217 252 319 382
#     4   9  18  36  60  85 127 160 200 254 308 375
#     4  11  23  39  65  99 124 164 221 262 318 379
#
# _framework density 20.095020999999999
#
# number of rings (size 3 to 8) (size 9 to 14) (size 15 to 20)
#    0.000    1.750    5.000    0.375    3.500    1.500 
#    0.000    4.375    0.000    0.000    0.000    0.000 
#    0.000    0.000    0.000    0.000    0.000    0.000 
#
# Total GULP energy -198235.803965 kJ/mol
# GULP energy per Si atom -12389.737748 kJ/mol
# Density = 2.004928 g / cm^3
# Si number density = 20.095021 Si / 1000 Ang^3
#
#
#
# Elastic Constant Matrix: (Units=GPa)
#
#
# Indices 1 2 3 4 5 6 
#
# 1 116.1833 52.4809 45.7568 9.9720 24.4429 0.4478
# 2 52.4809 126.3302 27.5087 7.5273 11.2447 -21.3745
# 3 45.7568 27.5087 74.0185 -5.9869 16.6295 4.3050
# 4 9.9720 7.5273 -5.9869 30.4860 1.7510 -3.3394
# 5 24.4429 11.2447 16.6295 1.7510 33.9338 3.7587
# 6 0.4478 -21.3745 4.3050 -3.3394 3.7587 26.0267
#
#
#
# Elastic Compliance Matrix: (Units=1/GPa)
#
#
# Indices 1 2 3 4 5 6 
#
# 1 0.014720 -0.004359 -0.006514 -0.004993 -0.005419 -0.002614
# 2 -0.004359 0.012114 -0.002285 -0.000823 -0.000866 0.010421
# 3 -0.006514 -0.002285 0.020096 0.006493 -0.004332 -0.003630
# 4 -0.004993 -0.000823 0.006493 0.036355 -0.001546 0.003224
# 5 -0.005419 -0.000866 -0.004332 -0.001546 0.036456 -0.005365
# 6 -0.002614 0.010421 -0.003630 0.003224 -0.005365 0.048814
#
#
# Mechanical properties :
#
#
# Convention : Reuss Voigt Hill
#
# Bulk Modulus (GPa) = 48.51380 63.11387 55.81383
# Shear Modulus (GPa) = 24.78401 30.80836 27.79618
#
# Velocity S-wave (km/s) = 3.51570 3.91977 3.72322
# Velocity P-wave (km/s) = 6.37768 7.20847 6.80577
#
# Compressibility (1/GPa) = 0.02061269
#
# Stress axis : x y z
#
# Youngs Moduli (GPa) = 67.93333 82.55235 49.76168
#
# Poissons Ratio (x) = 0.35985 0.32415
# Poissons Ratio (y) = 0.29613 0.11372
# Poissons Ratio (z) = 0.44252 0.18866
#
# Static dielectric constant tensor:
#      x y z
#    x 4.000820 -0.960350 0.204170 
#    y -0.960350 4.968540 -0.159300 
#    z 0.204170 -0.159300 3.528860 
# 
# 
# High freq. dielectric constant tensor:
#      x y z
#    x 1.770100 -0.016620 0.008450 
#    y -0.016620 1.791520 -0.000820 
#    z 0.008450 -0.000820 1.783820 
# 
# From -- ./inp_files/308257.got.cif
#   From: 2010.06.25/outbox.cif.g09.slc.cpg/sg2_155_cif.got.tgz:308257.got - 2010.06.27 13:26:56.
