data_PCOD8038159
_publ_section_title
;
Structure prediction by ZEFSAII (Michael W. Deem and Ramdas Pophale) SiO2 
 PCOD8038159
Probable space group: P -1
;
_chemical_formula_sum "Si O2"
_cell_formula_units_Z 16
_cell_length_a 12.057597
_cell_length_b 14.771764
_cell_length_c 7.874102
_cell_angle_alpha 143.904695
_cell_angle_beta 74.570408
_cell_angle_gamma 115.091893
_cell_volume 740.510927
_symmetry_space_group_name_H-M "P -1"
_symmetry_group_IT_number 2
_symmetry_cell_setting 'triclinic'
loop_
_space_group_symop_operation_xyz
x,y,z
-x,-y,-z
loop_
_atom_site_type_symbol
_atom_site_label
_atom_site_fract_x
_atom_site_fract_y
_atom_site_fract_z
Si Si1 0.058444 0.878084 0.214168
Si Si2 0.205480 0.087627 0.976169
Si Si3 0.700726 0.933860 0.436984
Si Si4 0.065910 0.565710 0.899665
Si Si5 0.000956 0.214364 0.279538
Si Si6 0.472521 0.800432 0.517092
Si Si7 0.656383 0.244975 0.831444
Si Si8 0.480538 0.165202 0.079969
O O1 0.205827 0.959974 0.297325
O O2 0.012485 0.698953 0.051264
O O3 0.000000 0.000000 0.500000
O O4 0.029809 0.864359 0.010117
O O5 0.125866 0.185859 0.243974
O O6 0.335152 0.136179 0.095698
O O7 0.232844 0.137915 0.842270
O O8 0.119481 0.889540 0.714476
O O9 0.593979 0.787623 0.356235
O O10 0.645093 0.053831 0.539729
O O11 0.026124 0.407542 0.552482
O O12 0.212536 0.634913 0.970780
O O13 0.000000 0.500000 0.000000
O O14 0.362006 0.709146 0.289235
O O15 0.458323 0.732626 0.614611
O O16 0.500153 0.993904 0.815151
O O17 0.553017 0.264501 0.033866
#
# Coordination Sequence:
#
# PCOD8038159 Si02
#       8
#     2   2   2   2   2   2   2   2
#     4  11  22  39  66  96 125 166 219 266 315 389
#     4  11  20  36  65  89 131 167 219 265 324 373
#     4  10  17  34  56  92 125 158 202 278 316 368
#     4  11  26  45  63  91 135 174 207 265 335 383
#     4  11  24  39  61  94 130 175 214 262 327 389
#     4  10  18  31  58  91 121 160 209 271 324 369
#     4  10  19  37  60  84 129 164 213 258 330 375
#     4  10  19  33  59  94 120 159 219 273 313 380
#
# _framework density 21.606704000000001
#
# number of rings (size 3 to 8) (size 9 to 14) (size 15 to 20)
#    0.000    1.500    3.750    3.375    1.750    1.000 
#    2.250    0.625    0.000    0.750    0.000    0.000 
#    0.000    0.000    0.000    0.000    0.000    0.000 
#
# Total GULP energy -198276.060893 kJ/mol
# GULP energy per Si atom -12392.253806 kJ/mol
# Density = 2.155753 g / cm^3
# Si number density = 21.606704 Si / 1000 Ang^3
#
#
#
# Elastic Constant Matrix: (Units=GPa)
#
#
# Indices 1 2 3 4 5 6 
#
# 1 99.6448 29.5931 29.3370 -6.0514 2.3813 9.4914
# 2 29.5931 74.2533 27.6459 -18.6684 -2.2940 7.2615
# 3 29.3370 27.6459 90.1742 -9.4215 1.1872 -7.0865
# 4 -6.0514 -18.6684 -9.4215 38.7357 -11.0138 1.3427
# 5 2.3813 -2.2940 1.1872 -11.0138 28.3247 -6.3802
# 6 9.4914 7.2615 -7.0865 1.3427 -6.3802 30.0728
#
#
#
# Elastic Compliance Matrix: (Units=1/GPa)
#
#
# Indices 1 2 3 4 5 6 
#
# 1 0.012537 -0.003712 -0.003381 -0.001266 -0.002690 -0.004372
# 2 -0.003712 0.019324 -0.004120 0.009220 0.004764 -0.003866
# 3 -0.003381 -0.004120 0.013976 0.000975 0.000988 0.005521
# 4 -0.001266 0.009220 0.000975 0.034320 0.014128 -0.000132
# 5 -0.002690 0.004764 0.000988 0.014128 0.043280 0.008483
# 6 -0.004372 -0.003866 0.005521 -0.000132 0.008483 0.038673
#
#
# Mechanical properties :
#
#
# Convention : Reuss Voigt Hill
#
# Bulk Modulus (GPa) = 42.71555 48.58045 45.64800
# Shear Modulus (GPa) = 25.99582 31.25975 28.62778
#
# Velocity S-wave (km/s) = 3.47239 3.80776 3.64393
# Velocity P-wave (km/s) = 5.99076 6.47030 6.23514
#
# Compressibility (1/GPa) = 0.02341068
#
# Stress axis : x y z
#
# Youngs Moduli (GPa) = 79.76227 51.74955 71.55302
#
# Poissons Ratio (x) = 0.19207 0.24195
# Poissons Ratio (y) = 0.29604 0.29481
# Poissons Ratio (z) = 0.26970 0.21322
#
# Static dielectric constant tensor:
#      x y z
#    x 5.635590 -2.277330 -6.798130 
#    y -2.277330 8.098490 11.076850 
#    z -6.798130 11.076850 36.555090 
# 
# 
# High freq. dielectric constant tensor:
#      x y z
#    x 1.856850 0.012280 0.016350 
#    y 0.012280 1.833350 -0.036870 
#    z 0.016350 -0.036870 1.819560 
# 
# From -- ./inp_files/278592.got.cif
#   From: 2010.06.25/outbox.cif.g09.slc.cpg/sg2_140_cif.got.tgz:278592.got - 2010.06.27 13:26:56.
