data_PCOD8038370
_publ_section_title
;
Structure prediction by ZEFSAII (Michael W. Deem and Ramdas Pophale) SiO2 
 PCOD8038370
Probable space group: P -1
;
_chemical_formula_sum "Si O2"
_cell_formula_units_Z 16
_cell_length_a 9.323305
_cell_length_b 11.212144
_cell_length_c 11.581618
_cell_angle_alpha 130.164444
_cell_angle_beta 79.882571
_cell_angle_gamma 116.909585
_cell_volume 812.923867
_symmetry_space_group_name_H-M "P -1"
_symmetry_group_IT_number 2
_symmetry_cell_setting 'triclinic'
loop_
_space_group_symop_operation_xyz
x,y,z
-x,-y,-z
loop_
_atom_site_type_symbol
_atom_site_label
_atom_site_fract_x
_atom_site_fract_y
_atom_site_fract_z
Si Si1 0.320292 0.754418 0.943552
Si Si2 0.382906 0.073267 0.612498
Si Si3 0.825353 0.257040 0.451164
Si Si4 0.277585 0.314168 0.179832
Si Si5 0.036838 0.627789 0.736337
Si Si6 0.504402 0.306173 0.540414
Si Si7 0.488171 0.331669 0.961155
Si Si8 0.395914 0.135870 0.210448
O O1 0.137403 0.658089 0.859239
O O2 0.438969 0.785912 0.838279
O O3 0.354610 0.637298 0.961787
O O4 0.342913 0.932785 0.113899
O O5 0.371216 0.198940 0.592229
O O6 0.470679 0.184696 0.781654
O O7 0.500000 0.000000 0.500000
O O8 0.205844 0.918909 0.582290
O O9 0.856187 0.244749 0.302656
O O10 0.659468 0.269576 0.499272
O O11 0.979285 0.425213 0.585341
O O12 0.430495 0.488372 0.317223
O O13 0.253140 0.158725 0.175140
O O14 0.115357 0.333640 0.196199
O O15 0.325887 0.263137 0.018834
O O16 0.417382 0.244731 0.392048
O O17 0.500000 0.500000 0.000000
#
# Coordination Sequence:
#
# PCOD8038370 Si02
#       8
#     2   2   2   2   2   2   2   2
#     4  10  21  36  61  85 118 157 196 248 293 353
#     4  10  20  35  63  87 116 159 203 244 288 352
#     4   9  19  34  58  85 120 158 200 241 290 363
#     4  10  22  35  60  90 122 152 193 251 302 347
#     4  10  20  38  57  87 121 160 195 239 306 355
#     4  10  17  35  59  87 115 154 204 248 289 348
#     4  11  22  41  62  92 119 151 201 252 298 342
#     4  10  20  35  58  93 115 149 207 252 287 339
#
# _framework density 19.682039
#
# number of rings (size 3 to 8) (size 9 to 14) (size 15 to 20)
#    0.000    2.000    2.500    1.875    3.500    0.500 
#    0.000    0.625    0.000    1.500    0.000    0.000 
#    0.000    0.000    0.000    0.000    0.000    0.000 
#
# Total GULP energy -198295.899769 kJ/mol
# GULP energy per Si atom -12393.493736 kJ/mol
# Density = 1.963724 g / cm^3
# Si number density = 19.682039 Si / 1000 Ang^3
#
#
#
# Elastic Constant Matrix: (Units=GPa)
#
#
# Indices 1 2 3 4 5 6 
#
# 1 88.6479 38.3430 41.4628 1.4675 12.3799 -19.9985
# 2 38.3430 119.4891 36.1092 -6.0900 8.7491 -13.8214
# 3 41.4628 36.1092 117.1026 -16.4782 2.2535 -3.7520
# 4 1.4675 -6.0900 -16.4782 25.9469 -1.9609 -0.1143
# 5 12.3799 8.7491 2.2535 -1.9609 26.6946 -2.3341
# 6 -19.9985 -13.8214 -3.7520 -0.1143 -2.3341 27.0376
#
#
#
# Elastic Compliance Matrix: (Units=1/GPa)
#
#
# Indices 1 2 3 4 5 6 
#
# 1 0.018949 -0.002715 -0.006248 -0.006145 -0.006848 0.011144
# 2 -0.002715 0.010338 -0.001928 0.001246 -0.001623 0.002874
# 3 -0.006248 -0.001928 0.012288 0.007897 0.002755 -0.003630
# 4 -0.006145 0.001246 0.007897 0.044553 0.004855 -0.002205
# 5 -0.006848 -0.001623 0.002755 0.004855 0.041123 -0.001942
# 6 0.011144 0.002874 -0.003630 -0.002205 -0.001942 0.046016
#
#
# Mechanical properties :
#
#
# Convention : Reuss Voigt Hill
#
# Bulk Modulus (GPa) = 50.52303 61.89660 56.20982
# Shear Modulus (GPa) = 24.79585 29.89081 27.34333
#
# Velocity S-wave (km/s) = 3.55325 3.90126 3.73131
# Velocity P-wave (km/s) = 6.52376 7.19789 6.86910
#
# Compressibility (1/GPa) = 0.01979295
#
# Stress axis : x y z
#
# Youngs Moduli (GPa) = 52.77192 96.73457 81.37958
#
# Poissons Ratio (x) = 0.26267 0.50847
# Poissons Ratio (y) = 0.14329 0.15687
# Poissons Ratio (z) = 0.32973 0.18647
#
# Static dielectric constant tensor:
#      x y z
#    x 3.326260 -0.201390 -0.092940 
#    y -0.201390 4.108420 0.032980 
#    z -0.092940 0.032980 3.811870 
# 
# 
# High freq. dielectric constant tensor:
#      x y z
#    x 1.733870 -0.016720 -0.010470 
#    y -0.016720 1.762480 -0.004210 
#    z -0.010470 -0.004210 1.778600 
# 
# From -- ./inp_files/189458.got.cif
#   From: 2010.06.25/outbox.cif.g09.slc.cpg/sg2_95_cif.got.tgz:189458.got - 2010.06.27 13:26:56.
