data_PCOD8038725
_publ_section_title
;
Structure prediction by ZEFSAII (Michael W. Deem and Ramdas Pophale) SiO2 
 PCOD8038725
Probable space group: P -1
;
_chemical_formula_sum "Si O2"
_cell_formula_units_Z 16
_cell_length_a 17.314901
_cell_length_b 16.242288
_cell_length_c 11.446011
_cell_angle_alpha 39.121879
_cell_angle_beta 40.796211
_cell_angle_gamma 23.202670
_cell_volume 787.598871
_symmetry_space_group_name_H-M "P -1"
_symmetry_group_IT_number 2
_symmetry_cell_setting 'triclinic'
loop_
_space_group_symop_operation_xyz
x,y,z
-x,-y,-z
loop_
_atom_site_type_symbol
_atom_site_label
_atom_site_fract_x
_atom_site_fract_y
_atom_site_fract_z
Si Si1 0.552693 0.804700 0.676164
Si Si2 0.117875 0.459858 0.238717
Si Si3 0.076817 0.042797 0.213862
Si Si4 0.831978 0.490775 0.300760
Si Si5 0.881175 0.892904 0.145363
Si Si6 0.908426 0.385356 0.584663
Si Si7 0.899632 0.711219 0.992455
Si Si8 0.289472 0.634107 0.556732
O O1 0.663284 0.693831 0.797449
O O2 0.694799 0.624148 0.610873
O O3 0.500000 0.000000 0.500000
O O4 0.356355 0.889825 0.806419
O O5 0.947331 0.691006 0.248534
O O6 0.078182 0.345168 0.440743
O O7 0.095139 0.507067 0.074351
O O8 0.854952 0.244511 0.299821
O O9 0.194979 0.811361 0.372424
O O10 0.056879 0.057145 0.080068
O O11 0.196501 0.068723 0.090307
O O12 0.878926 0.372332 0.497583
O O13 0.756109 0.708999 0.168987
O O14 0.681243 0.534855 0.350034
O O15 0.036727 0.322831 0.176938
O O16 0.000454 0.812373 0.220363
O O17 0.500000 0.500000 0.500000
#
# Coordination Sequence:
#
# PCOD8038725 Si02
#       8
#     2   2   2   2   2   2   2   2
#     4  11  17  27  48  77 110 149 184 214 266 330
#     4   9  16  28  48  73 109 145 178 218 271 323
#     4   9  20  37  60  85 106 141 191 228 265 333
#     4   9  18  34  56  79 114 148 174 227 290 323
#     4  10  18  30  50  78 108 141 183 227 264 318
#     4  10  18  30  47  73 112 147 175 219 275 324
#     4   8  16  33  57  82 110 143 178 229 284 323
#     4  10  21  40  63  80 107 147 187 227 278 331
#
# _framework density 20.314910000000001
#
# number of rings (size 3 to 8) (size 9 to 14) (size 15 to 20)
#    0.000    2.500    2.500    0.750    0.000    4.000 
#    0.000    5.000    0.000    1.500    0.000    0.000 
#    0.000    0.000    0.000    0.000    0.000    0.000 
#
# Total GULP energy -198217.087162 kJ/mol
# GULP energy per Si atom -12388.567948 kJ/mol
# Density = 2.026867 g / cm^3
# Si number density = 20.314910 Si / 1000 Ang^3
#
#
#
# Elastic Constant Matrix: (Units=GPa)
#
#
# Indices 1 2 3 4 5 6 
#
# 1 92.7924 32.4309 43.6211 10.7955 9.2169 -13.2008
# 2 32.4309 82.8228 31.3118 9.1392 7.5084 -18.8358
# 3 43.6211 31.3118 114.6742 4.4076 24.0302 -6.9550
# 4 10.7955 9.1392 4.4076 16.0461 3.6878 -4.8460
# 5 9.2169 7.5084 24.0302 3.6878 48.3467 -0.3427
# 6 -13.2008 -18.8358 -6.9550 -4.8460 -0.3427 18.2256
#
#
#
# Elastic Compliance Matrix: (Units=1/GPa)
#
#
# Indices 1 2 3 4 5 6 
#
# 1 0.015210 -0.002374 -0.004648 -0.006107 0.000282 0.005170
# 2 -0.002374 0.017837 -0.002831 -0.003193 -0.000562 0.014775
# 3 -0.004648 -0.002831 0.012128 0.002173 -0.004877 -0.001178
# 4 -0.006107 -0.003193 0.002173 0.072478 -0.004861 0.012286
# 5 0.000282 -0.000562 -0.004877 -0.004861 0.023490 -0.003089
# 6 0.005170 0.014775 -0.001178 0.012286 -0.003089 0.076642
#
#
# Mechanical properties :
#
#
# Convention : Reuss Voigt Hill
#
# Bulk Modulus (GPa) = 39.26289 56.11301 47.68795
# Shear Modulus (GPa) = 20.32673 28.71872 24.52273
#
# Velocity S-wave (km/s) = 3.16663 3.76397 3.47815
# Velocity P-wave (km/s) = 5.72181 6.82433 6.29725
#
# Compressibility (1/GPa) = 0.02546934
#
# Stress axis : x y z
#
# Youngs Moduli (GPa) = 65.74800 56.06223 82.45157
#
# Poissons Ratio (x) = 0.13310 0.38324
# Poissons Ratio (y) = 0.15610 0.23340
# Poissons Ratio (z) = 0.30560 0.15870
#
# Static dielectric constant tensor:
#      x y z
#    x 3.732710 -0.024860 0.221040 
#    y -0.024860 3.355960 -0.119000 
#    z 0.221040 -0.119000 3.970450 
# 
# 
# High freq. dielectric constant tensor:
#      x y z
#    x 1.779430 0.001560 0.022390 
#    y 0.001560 1.745530 -0.005330 
#    z 0.022390 -0.005330 1.804760 
# 
# From -- ./inp_files/426187.got.cif
#   From: 2010.06.25/outbox.cif.g09.slc.cpg/sg2_214_cif.got.tgz:426187.got - 2010.06.27 13:26:56.
