data_PCOD8038786
_publ_section_title
;
Structure prediction by ZEFSAII (Michael W. Deem and Ramdas Pophale) SiO2 
 PCOD8038786
Probable space group: P -1
;
_chemical_formula_sum "Si O2"
_cell_formula_units_Z 14
_cell_length_a 25.573281
_cell_length_b 8.822927
_cell_length_c 11.758574
_cell_angle_alpha 141.473240
_cell_angle_beta 150.550808
_cell_angle_gamma 28.914050
_cell_volume 628.421623
_symmetry_space_group_name_H-M "P -1"
_symmetry_group_IT_number 2
_symmetry_cell_setting 'triclinic'
loop_
_space_group_symop_operation_xyz
x,y,z
-x,-y,-z
loop_
_atom_site_type_symbol
_atom_site_label
_atom_site_fract_x
_atom_site_fract_y
_atom_site_fract_z
Si Si1 0.873644 0.719183 0.968049
Si Si2 0.209960 0.649140 0.850037
Si Si3 0.899929 0.379976 0.158124
Si Si4 0.543524 0.697410 0.336373
Si Si5 0.073055 0.160346 0.624270
Si Si6 0.646831 0.472921 0.163754
Si Si7 0.177878 0.696212 0.279274
O O1 0.794232 0.580122 0.749826
O O2 0.940291 0.672651 0.188033
O O3 0.000000 0.500000 0.000000
O O4 0.774982 0.079244 0.947725
O O5 0.218754 0.496221 0.897428
O O6 0.319954 0.411064 0.819354
O O7 0.056282 0.829882 0.619536
O O8 0.927612 0.627639 0.349154
O O9 0.839799 0.344529 0.910199
O O10 0.044243 0.041140 0.270645
O O11 0.562669 0.730224 0.255428
O O12 0.677266 0.378896 0.464979
O O13 0.500000 0.000000 0.500000
O O14 0.424207 0.670256 0.099942
O O15 0.210589 0.804248 0.667714
#
# Coordination Sequence:
#
# PCOD8038786 Si02
#       7
#     2   2   2   2   2   2   2
#     4  10  18  30  53  86 116 150 191 240 287 348
#     4  11  20  35  57  90 124 149 193 252 303 348
#     4  10  20  36  58  91 124 156 190 235 308 374
#     4  11  22  41  63  84 117 161 205 249 298 348
#     4  10  21  36  58  90 125 153 186 243 310 354
#     4  10  23  39  62  92 115 153 210 252 290 357
#     4  10  21  36  60  89 121 159 194 242 299 357
#
# _framework density 22.278037000000001
#
# number of rings (size 3 to 8) (size 9 to 14) (size 15 to 20)
#    0.000    1.714    1.429    5.571    2.000    0.000 
#    0.000    0.714    0.000   12.000    0.000    0.000 
#    0.000    0.000    0.000    0.000    0.000    0.000 
#
# Total GULP energy -173437.597281 kJ/mol
# GULP energy per Si atom -12388.399806 kJ/mol
# Density = 2.222733 g / cm^3
# Si number density = 22.278037 Si / 1000 Ang^3
#
#
#
# Elastic Constant Matrix: (Units=GPa)
#
#
# Indices 1 2 3 4 5 6 
#
# 1 165.0074 34.8176 5.7171 13.9059 3.4226 -18.1315
# 2 34.8176 39.2604 8.7951 14.1661 -2.1274 -1.5592
# 3 5.7171 8.7951 60.7587 4.1022 11.9582 -16.0996
# 4 13.9059 14.1661 4.1022 32.0037 -5.3183 -2.4738
# 5 3.4226 -2.1274 11.9582 -5.3183 25.7020 9.1792
# 6 -18.1315 -1.5592 -16.0996 -2.4738 9.1792 35.1277
#
#
#
# Elastic Compliance Matrix: (Units=1/GPa)
#
#
# Indices 1 2 3 4 5 6 
#
# 1 0.008703 -0.008189 0.003670 -0.001122 -0.006423 0.007410
# 2 -0.008189 0.039014 -0.008440 -0.011838 0.009229 -0.009609
# 3 0.003670 -0.008440 0.026781 -0.003331 -0.021153 0.019086
# 4 -0.001122 -0.011838 -0.003331 0.038812 0.009611 -0.002409
# 5 -0.006423 0.009229 -0.021153 0.009611 0.062443 -0.028240
# 6 0.007410 -0.009609 0.019086 -0.002409 -0.028240 0.047823
#
#
# Mechanical properties :
#
#
# Convention : Reuss Voigt Hill
#
# Bulk Modulus (GPa) = 20.58524 40.40958 30.49741
# Shear Modulus (GPa) = 18.81904 32.94648 25.88276
#
# Velocity S-wave (km/s) = 2.90959 3.84979 3.41223
# Velocity P-wave (km/s) = 4.53297 6.15949 5.40773
#
# Compressibility (1/GPa) = 0.04857849
#
# Stress axis : x y z
#
# Youngs Moduli (GPa) = 114.90044 25.63152 37.34051
#
# Poissons Ratio (x) = 0.20991 -0.13703
# Poissons Ratio (y) = 0.94098 0.31516
# Poissons Ratio (z) = -0.42166 0.21634
#
# Static dielectric constant tensor:
#      x y z
#    x 4.538800 0.092880 0.001900 
#    y 0.092880 3.951350 0.217960 
#    z 0.001900 0.217960 4.181100 
# 
# 
# High freq. dielectric constant tensor:
#      x y z
#    x 1.900320 -0.013940 -0.011370 
#    y -0.013940 1.832100 0.014770 
#    z -0.011370 0.014770 1.885600 
# 
# From -- ./inp_files/476411.got.cif
#   From: 2010.06.25/outbox.cif.g09.slc.cpg/sg2_239_cif.got.tgz:476411.got - 2010.06.27 13:26:56.
