data_PCOD8038058
_publ_section_title
;
Structure prediction by ZEFSAII (Michael W. Deem and Ramdas Pophale) SiO2 
 PCOD8038058
Probable space group: P -1
;
_chemical_formula_sum "Si O2"
_cell_formula_units_Z 14
_cell_length_a 9.971821
_cell_length_b 8.497089
_cell_length_c 18.986842
_cell_angle_alpha 66.207374
_cell_angle_beta 144.393708
_cell_angle_gamma 92.669521
_cell_volume 727.698979
_symmetry_space_group_name_H-M "P -1"
_symmetry_group_IT_number 2
_symmetry_cell_setting 'triclinic'
loop_
_space_group_symop_operation_xyz
x,y,z
-x,-y,-z
loop_
_atom_site_type_symbol
_atom_site_label
_atom_site_fract_x
_atom_site_fract_y
_atom_site_fract_z
Si Si1 0.101766 0.070895 0.097338
Si Si2 0.028221 0.702568 0.401836
Si Si3 0.408750 0.904662 0.918533
Si Si4 0.285270 0.637989 0.004398
Si Si5 0.407102 0.639074 0.304015
Si Si6 0.866292 0.669706 0.044541
Si Si7 0.307976 0.495933 0.688187
O O1 0.187243 0.222163 0.074649
O O2 0.899017 0.174100 0.057050
O O3 0.347033 0.853637 0.271799
O O4 0.000000 0.000000 0.000000
O O5 0.315010 0.552087 0.510691
O O6 0.090369 0.696541 0.514328
O O7 0.830749 0.620004 0.319710
O O8 0.884679 0.927196 0.269297
O O9 0.380741 0.721403 0.966509
O O10 0.629264 0.824903 0.966113
O O11 0.500000 0.000000 0.000000
O O12 0.126020 0.538358 0.923925
O O13 0.552517 0.465024 0.192676
O O14 0.448145 0.649438 0.235132
O O15 0.154392 0.609495 0.212731
#
# Coordination Sequence:
#
# PCOD8038058 Si02
#       7
#     2   2   2   2   2   2   2
#     4  10  17  33  60  87 108 149 202 236 272 339
#     4   9  19  36  61  87 116 150 196 250 281 342
#     4  12  23  39  62  87 116 159 200 238 292 351
#     4  12  22  37  59  91 123 153 192 243 297 349
#     4   9  18  35  62  84 115 142 201 240 285 326
#     4  11  23  36  59  91 122 152 193 246 294 347
#     4   9  17  34  62  83 118 147 195 239 289 332
#
# _framework density 19.238724000000001
#
# number of rings (size 3 to 8) (size 9 to 14) (size 15 to 20)
#    0.857    0.857    4.286    3.429    0.000    0.000 
#    0.000    4.286    3.143    0.000    0.000    0.000 
#    0.000    0.000    0.000    0.000    0.000    0.000 
#
# Total GULP energy -173436.351183 kJ/mol
# GULP energy per Si atom -12388.310799 kJ/mol
# Density = 1.919494 g / cm^3
# Si number density = 19.238724 Si / 1000 Ang^3
#
#
#
# Elastic Constant Matrix: (Units=GPa)
#
#
# Indices 1 2 3 4 5 6 
#
# 1 67.6514 16.8156 38.7047 -0.3870 14.1392 11.0903
# 2 16.8156 72.8747 32.2511 -2.4556 6.9479 15.7082
# 3 38.7047 32.2511 102.0128 -18.7608 7.4784 3.9827
# 4 -0.3870 -2.4556 -18.7608 16.6131 0.3327 4.4334
# 5 14.1392 6.9479 7.4784 0.3327 30.5337 -3.2279
# 6 11.0903 15.7082 3.9827 4.4334 -3.2279 31.7680
#
#
#
# Elastic Compliance Matrix: (Units=1/GPa)
#
#
# Indices 1 2 3 4 5 6 
#
# 1 0.023090 0.001100 -0.009631 -0.008066 -0.009258 -0.007212
# 2 0.001100 0.018319 -0.005799 -0.001342 -0.004189 -0.008953
# 3 -0.009631 -0.005799 0.018806 0.019809 0.001086 0.001218
# 4 -0.008066 -0.001342 0.019809 0.085223 -0.002923 -0.011194
# 5 -0.009258 -0.004189 0.001086 -0.002923 0.038763 0.009514
# 6 -0.007212 -0.008953 0.001218 -0.011194 0.009514 0.040799
#
#
# Mechanical properties :
#
#
# Convention : Reuss Voigt Hill
#
# Bulk Modulus (GPa) = 31.69178 46.45353 39.07265
# Shear Modulus (GPa) = 18.92667 26.10081 22.51374
#
# Velocity S-wave (km/s) = 3.13993 3.68731 3.42457
# Velocity P-wave (km/s) = 5.44557 6.50589 5.99920
#
# Compressibility (1/GPa) = 0.03155393
#
# Stress axis : x y z
#
# Youngs Moduli (GPa) = 43.30962 54.58861 53.17456
#
# Poissons Ratio (x) = -0.06005 0.51214
# Poissons Ratio (y) = -0.04764 0.30836
# Poissons Ratio (z) = 0.41713 0.31656
#
# Static dielectric constant tensor:
#      x y z
#    x 3.513330 0.112440 0.036840 
#    y 0.112440 3.392670 -0.321770 
#    z 0.036840 -0.321770 3.701980 
# 
# 
# High freq. dielectric constant tensor:
#      x y z
#    x 1.748860 0.008700 0.013360 
#    y 0.008700 1.717740 -0.013560 
#    z 0.013360 -0.013560 1.739670 
# 
# From -- ./inp_files/555235.got.cif
#   From: 2010.06.25/outbox.cif.g09.slc.cpg/sg2_278_cif.got.tgz:555235.got - 2010.06.27 13:26:56.
