data_PCOD8038904
_publ_section_title
;
Structure prediction by ZEFSAII (Michael W. Deem and Ramdas Pophale) SiO2 
 PCOD8038904
Probable space group: P -1
;
_chemical_formula_sum "Si O2"
_cell_formula_units_Z 14
_cell_length_a 5.199771
_cell_length_b 23.183598
_cell_length_c 12.839336
_cell_angle_alpha 145.986124
_cell_angle_beta 90.746529
_cell_angle_gamma 70.945855
_cell_volume 714.706132
_symmetry_space_group_name_H-M "P -1"
_symmetry_group_IT_number 2
_symmetry_cell_setting 'triclinic'
loop_
_space_group_symop_operation_xyz
x,y,z
-x,-y,-z
loop_
_atom_site_type_symbol
_atom_site_label
_atom_site_fract_x
_atom_site_fract_y
_atom_site_fract_z
Si Si1 0.784497 0.474135 0.894767
Si Si2 0.734237 0.794120 0.478739
Si Si3 0.453657 0.285326 0.848011
Si Si4 0.746486 0.004356 0.076691
Si Si5 0.597704 0.819276 0.105898
Si Si6 0.946538 0.925569 0.540744
Si Si7 0.033915 0.866330 0.067625
O O1 0.987764 0.329353 0.643389
O O2 0.500000 0.500000 0.000000
O O3 0.646798 0.571628 0.942590
O O4 0.000000 0.500000 0.000000
O O5 0.652604 0.747810 0.306379
O O6 0.444782 0.868029 0.666343
O O7 0.857139 0.879147 0.572907
O O8 0.303490 0.268389 0.923955
O O9 0.832724 0.187912 0.707736
O O10 0.937246 0.881859 0.969140
O O11 0.500000 0.000000 0.000000
O O12 0.000000 0.000000 0.000000
O O13 0.406653 0.790701 0.978607
O O14 0.908024 0.793546 0.016611
O O15 0.371095 0.966615 0.358036
O O16 0.123084 0.990578 0.677226
#
# Coordination Sequence:
#
# PCOD8038904 Si02
#       7
#     2   2   2   2   2   2   2
#     4  10  22  35  54  77 111 157 183 214 264 321
#     4  11  21  37  54  81 121 140 186 237 260 328
#     4  11  21  33  55  82 115 154 180 203 272 344
#     4  12  23  37  59  80 105 146 187 233 289 317
#     4  10  21  32  53  80 115 149 172 211 275 336
#     4  10  18  31  54  73 119 143 173 209 277 307
#     4  10  21  37  48  82 112 140 177 225 276 320
#
# _framework density 19.588470000000001
#
# number of rings (size 3 to 8) (size 9 to 14) (size 15 to 20)
#    0.857    0.571    4.286    2.143    2.000    1.143 
#    0.000    0.000    0.000    0.000    0.000    6.000 
#    0.000    0.000    0.000    0.000    0.000    0.000 
#
# Total GULP energy -173458.055352 kJ/mol
# GULP energy per Si atom -12389.861097 kJ/mol
# Density = 1.954389 g / cm^3
# Si number density = 19.588470 Si / 1000 Ang^3
#
#
#
# Elastic Constant Matrix: (Units=GPa)
#
#
# Indices 1 2 3 4 5 6 
#
# 1 129.1380 43.4812 23.9637 -6.4447 -1.4733 26.5449
# 2 43.4812 136.6235 42.4462 9.0966 4.7940 31.7014
# 3 23.9637 42.4462 34.6182 2.2903 -4.3899 7.0465
# 4 -6.4447 9.0966 2.2903 31.5667 1.0480 4.1082
# 5 -1.4733 4.7940 -4.3899 1.0480 20.6551 -6.9017
# 6 26.5449 31.7014 7.0465 4.1082 -6.9017 39.8678
#
#
#
# Elastic Compliance Matrix: (Units=1/GPa)
#
#
# Indices 1 2 3 4 5 6 
#
# 1 0.010483 0.000265 -0.006822 0.003567 -0.003255 -0.006916
# 2 0.000265 0.016512 -0.019439 -0.001370 -0.011809 -0.011773
# 3 -0.006822 -0.019439 0.057469 -0.002442 0.020948 0.013720
# 4 0.003567 -0.001370 -0.002442 0.033726 -0.003295 -0.004900
# 5 -0.003255 -0.011809 0.020948 -0.003295 0.061859 0.018904
# 6 -0.006916 -0.011773 0.013720 -0.004900 0.018904 0.040402
#
#
# Mechanical properties :
#
#
# Convention : Reuss Voigt Hill
#
# Bulk Modulus (GPa) = 30.79739 57.79576 44.29658
# Shear Modulus (GPa) = 17.65111 31.11715 24.38413
#
# Velocity S-wave (km/s) = 3.00508 3.98998 3.53203
# Velocity P-wave (km/s) = 5.27229 7.12710 6.26868
#
# Compressibility (1/GPa) = 0.03247029
#
# Stress axis : x y z
#
# Youngs Moduli (GPa) = 95.39338 60.56198 17.40056
#
# Poissons Ratio (x) = -0.01603 0.11871
# Poissons Ratio (y) = -0.02525 0.33826
# Poissons Ratio (z) = 0.65079 1.17729
#
# Static dielectric constant tensor:
#      x y z
#    x 3.609470 -0.044990 -0.071680 
#    y -0.044990 3.813600 0.376450 
#    z -0.071680 0.376450 3.357430 
# 
# 
# High freq. dielectric constant tensor:
#      x y z
#    x 1.781260 0.003010 -0.001950 
#    y 0.003010 1.767250 0.019110 
#    z -0.001950 0.019110 1.689430 
# 
# From -- ./inp_files/370113.got.cif
#   From: 2010.06.25/outbox.cif.g09.slc.cpg/sg2_186_cif.got.tgz:370113.got - 2010.06.27 13:26:56.
