data_PCOD8038321
_publ_section_title
;
Structure prediction by ZEFSAII (Michael W. Deem and Ramdas Pophale) SiO2 
 PCOD8038321
Probable space group: P -1
;
_chemical_formula_sum "Si O2"
_cell_formula_units_Z 14
_cell_length_a 8.992567
_cell_length_b 8.914990
_cell_length_c 18.089825
_cell_angle_alpha 57.540528
_cell_angle_beta 41.531362
_cell_angle_gamma 68.309090
_cell_volume 809.985856
_symmetry_space_group_name_H-M "P -1"
_symmetry_group_IT_number 2
_symmetry_cell_setting 'triclinic'
loop_
_space_group_symop_operation_xyz
x,y,z
-x,-y,-z
loop_
_atom_site_type_symbol
_atom_site_label
_atom_site_fract_x
_atom_site_fract_y
_atom_site_fract_z
Si Si1 0.558082 0.617454 0.076876
Si Si2 0.901624 0.332361 0.999896
Si Si3 0.886087 0.275952 0.853292
Si Si4 0.618304 0.503198 0.234855
Si Si5 0.045276 0.100179 0.138219
Si Si6 0.681890 0.489917 0.372069
Si Si7 0.670403 0.159385 0.371382
O O1 0.342652 0.628539 0.103094
O O2 0.481022 0.602289 0.196770
O O3 0.674795 0.435269 0.063594
O O4 0.726090 0.788084 0.956182
O O5 0.904552 0.239302 0.943328
O O6 0.115112 0.474304 0.892263
O O7 0.911272 0.179688 0.098311
O O8 0.089759 0.407579 0.713604
O O9 0.884981 0.094980 0.856433
O O10 0.587163 0.584768 0.307371
O O11 0.558428 0.289349 0.318011
O O12 0.892295 0.083668 0.273064
O O13 0.500000 0.500000 0.500000
O O14 0.731425 0.284492 0.387463
O O15 0.500000 0.000000 0.500000
#
# Coordination Sequence:
#
# PCOD8038321 Si02
#       7
#     2   2   2   2   2   2   2
#     4  11  18  35  53  77 111 136 168 211 264 310
#     4  10  17  35  53  75 105 141 172 210 252 311
#     4  11  22  29  52  87 106 132 167 222 264 293
#     4   8  17  32  55  75  95 139 177 203 251 308
#     4  11  19  34  52  79 107 139 174 208 251 314
#     4   9  18  36  52  75 101 136 176 212 251 305
#     4  10  18  32  58  76  93 136 189 208 238 306
#
# _framework density 17.284253
#
# number of rings (size 3 to 8) (size 9 to 14) (size 15 to 20)
#    0.857    1.143    2.857    3.000    0.000    0.000 
#    0.000    0.714    0.000    0.857    0.000    0.000 
#    0.000    0.000    0.000    0.000    0.000    0.000 
#
# Total GULP energy -173478.161747 kJ/mol
# GULP energy per Si atom -12391.297268 kJ/mol
# Density = 1.724491 g / cm^3
# Si number density = 17.284253 Si / 1000 Ang^3
#
#
#
# Elastic Constant Matrix: (Units=GPa)
#
#
# Indices 1 2 3 4 5 6 
#
# 1 59.2236 10.4049 32.9393 6.2937 -3.7853 -4.1031
# 2 10.4049 63.3467 23.7383 8.4390 -3.9812 1.0651
# 3 32.9393 23.7383 116.4272 5.5672 0.7765 1.9536
# 4 6.2937 8.4390 5.5672 30.4362 7.6532 2.3514
# 5 -3.7853 -3.9812 0.7765 7.6532 21.0525 0.3810
# 6 -4.1031 1.0651 1.9536 2.3514 0.3810 20.4835
#
#
#
# Elastic Compliance Matrix: (Units=1/GPa)
#
#
# Indices 1 2 3 4 5 6 
#
# 1 0.021517 -0.000367 -0.005896 -0.005140 0.005788 0.005374
# 2 -0.000367 0.018232 -0.003373 -0.005760 0.005603 -0.000143
# 3 -0.005896 -0.003373 0.010952 0.000917 -0.002397 -0.002111
# 4 -0.005140 -0.005760 0.000917 0.039878 -0.016452 -0.005089
# 5 0.005788 0.005603 -0.002397 -0.016452 0.055634 0.001951
# 6 0.005374 -0.000143 -0.002111 -0.005089 0.001951 0.050653
#
#
# Mechanical properties :
#
#
# Convention : Reuss Voigt Hill
#
# Bulk Modulus (GPa) = 31.81618 41.46250 36.63934
# Shear Modulus (GPa) = 22.06379 25.85545 23.95962
#
# Velocity S-wave (km/s) = 3.57673 3.87188 3.72722
# Velocity P-wave (km/s) = 5.95860 6.63545 6.30611
#
# Compressibility (1/GPa) = 0.03143055
#
# Stress axis : x y z
#
# Youngs Moduli (GPa) = 46.47429 54.84758 91.30407
#
# Poissons Ratio (x) = 0.02011 0.53831
# Poissons Ratio (y) = 0.01704 0.30798
# Poissons Ratio (z) = 0.27401 0.18501
#
# Static dielectric constant tensor:
#      x y z
#    x 3.122960 0.138290 0.191050 
#    y 0.138290 3.058820 0.020840 
#    z 0.191050 0.020840 3.218930 
# 
# 
# High freq. dielectric constant tensor:
#      x y z
#    x 1.643800 0.019240 0.011570 
#    y 0.019240 1.657660 0.002910 
#    z 0.011570 0.002910 1.666900 
# 
# From -- ./inp_files/211720.got.cif
#   From: 2010.06.25/outbox.cif.g09.slc.cpg/sg2_106_cif.got.tgz:211720.got - 2010.06.27 13:26:56.
