data_PCOD8038273
_publ_section_title
;
Structure prediction by ZEFSAII (Michael W. Deem and Ramdas Pophale) SiO2 
 PCOD8038273
Probable space group: P -1
;
_chemical_formula_sum "Si O2"
_cell_formula_units_Z 16
_cell_length_a 18.000000
_cell_length_b 21.000000
_cell_length_c 12.000000
_cell_angle_alpha 40.000000
_cell_angle_beta 150.000000
_cell_angle_gamma 160.000000
_cell_volume 744.844803
_symmetry_space_group_name_H-M "P -1"
_symmetry_group_IT_number 2
_symmetry_cell_setting 'triclinic'
loop_
_space_group_symop_operation_xyz
x,y,z
-x,-y,-z
loop_
_atom_site_type_symbol
_atom_site_label
_atom_site_fract_x
_atom_site_fract_y
_atom_site_fract_z
Si Si1 0.177377 0.840541 0.326709
Si Si2 0.683196 0.851835 0.877808
Si Si3 0.183190 0.734166 0.704285
Si Si4 0.342756 0.509786 0.039566
Si Si5 0.714813 0.875933 0.644982
Si Si6 0.630105 0.466267 0.490089
Si Si7 0.546136 0.080553 0.836350
Si Si8 0.802538 0.486042 0.925551
O O1 0.085724 0.719783 0.475870
O O2 0.500000 0.000000 0.500000
O O3 0.186599 0.963673 0.188230
O O4 0.954646 0.689331 0.141334
O O5 0.536787 0.762506 0.683369
O O6 0.453691 0.676651 0.903689
O O7 0.953830 0.933916 0.138433
O O8 0.939859 0.621351 0.630124
O O9 0.483609 0.963481 0.816567
O O10 0.254447 0.658752 0.911873
O O11 0.569658 0.548441 0.285074
O O12 0.288319 0.494896 0.118615
O O13 0.629105 0.738270 0.636288
O O14 0.674752 0.955573 0.420976
O O15 0.630777 0.423776 0.674995
O O16 0.858687 0.308420 0.931981
O O17 0.500000 0.000000 0.000000
#
# Coordination Sequence:
#
# PCOD8038273 Si02
#       8
#     2   2   2   2   2   2   2   2
#     4  12  26  45  71 102 138 177 227 284 348 418
#     4  11  25  45  70 101 138 174 229 288 344 407
#     4  12  24  43  75 101 133 180 234 284 344 398
#     4  12  28  45  69  99 143 188 218 282 356 402
#     4  11  23  44  72 102 135 173 233 293 336 400
#     4  12  24  46  70 100 137 181 235 281 335 412
#     4  12  23  42  72 102 135 179 227 284 338 398
#     4  12  27  46  66 102 142 182 231 281 337 414
#
# _framework density 21.480985
#
# number of rings (size 3 to 8) (size 9 to 14) (size 15 to 20)
#    0.000    0.250    5.000    4.500    1.750    2.000 
#    0.000    0.625    0.000    0.000    0.000    0.000 
#    0.000    0.000    0.000    0.000    0.000    0.000 
#
# Total GULP energy -198298.279191 kJ/mol
# GULP energy per Si atom -12393.642449 kJ/mol
# Density = 2.143209 g / cm^3
# Si number density = 21.480985 Si / 1000 Ang^3
#
#
#
# Elastic Constant Matrix: (Units=GPa)
#
#
# Indices 1 2 3 4 5 6 
#
# 1 111.8661 29.2642 46.7299 -9.1789 -29.7388 -2.2903
# 2 29.2642 111.2827 42.8594 -25.3321 -11.3683 -10.8309
# 3 46.7299 42.8594 138.9401 -26.8365 -21.3383 0.0540
# 4 -9.1789 -25.3321 -26.8365 48.3780 0.0547 -7.0587
# 5 -29.7388 -11.3683 -21.3383 0.0547 42.7587 -3.5295
# 6 -2.2903 -10.8309 0.0540 -7.0587 -3.5295 36.7547
#
#
#
# Elastic Compliance Matrix: (Units=1/GPa)
#
#
# Indices 1 2 3 4 5 6 
#
# 1 0.012273 -0.001332 -0.002575 0.000358 0.006989 0.001116
# 2 -0.001332 0.011985 -0.001899 0.005653 0.001693 0.004700
# 3 -0.002575 -0.001899 0.009826 0.004007 0.002626 0.000287
# 4 0.000358 0.005653 0.004007 0.026979 0.004318 0.007278
# 5 0.006989 0.001693 0.002626 0.004318 0.030389 0.004678
# 6 0.001116 0.004700 0.000287 0.007278 0.004678 0.030509
#
#
# Mechanical properties :
#
#
# Convention : Reuss Voigt Hill
#
# Bulk Modulus (GPa) = 44.49751 66.64401 55.57076
# Shear Modulus (GPa) = 35.44486 41.79397 38.61942
#
# Velocity S-wave (km/s) = 4.06650 4.41571 4.24470
# Velocity P-wave (km/s) = 6.54281 7.55579 7.06747
#
# Compressibility (1/GPa) = 0.02247317
#
# Stress axis : x y z
#
# Youngs Moduli (GPa) = 81.47653 83.43721 101.76621
#
# Poissons Ratio (x) = 0.11112 0.26206
# Poissons Ratio (y) = 0.10851 0.19325
# Poissons Ratio (z) = 0.20981 0.15844
#
# Static dielectric constant tensor:
#      x y z
#    x 3.887700 0.012920 -0.430120 
#    y 0.012920 4.064200 -0.108760 
#    z -0.430120 -0.108760 4.003180 
# 
# 
# High freq. dielectric constant tensor:
#      x y z
#    x 1.837290 -0.007990 -0.021820 
#    y -0.007990 1.861390 -0.020380 
#    z -0.021820 -0.020380 1.871330 
# 
# From -- ./inp_files/272430.got.cif
#   From: 2010.06.25/outbox.ucp.g09.slc.cvg/sg2_137_cif.got.tgz:272430.got - 2010.06.28 11:54:26.
