data_PCOD8038330
_publ_section_title
;
Structure prediction by ZEFSAII (Michael W. Deem and Ramdas Pophale) SiO2 
 PCOD8038330
Probable space group: P -1
;
_chemical_formula_sum "Si O2"
_cell_formula_units_Z 16
_cell_length_a 19.210243
_cell_length_b 10.964375
_cell_length_c 9.064375
_cell_angle_alpha 134.459304
_cell_angle_beta 95.855106
_cell_angle_gamma 51.454982
_cell_volume 853.367347
_symmetry_space_group_name_H-M "P -1"
_symmetry_group_IT_number 2
_symmetry_cell_setting 'triclinic'
loop_
_space_group_symop_operation_xyz
x,y,z
-x,-y,-z
loop_
_atom_site_type_symbol
_atom_site_label
_atom_site_fract_x
_atom_site_fract_y
_atom_site_fract_z
Si Si1 0.778723 0.991183 0.879584
Si Si2 0.037434 0.784643 0.675381
Si Si3 0.064943 0.486789 0.695354
Si Si4 0.375614 0.676516 0.124279
Si Si5 0.185862 0.700755 0.829219
Si Si6 0.628365 0.713550 0.258948
Si Si7 0.129586 0.357342 0.129051
Si Si8 0.751814 0.803932 0.286679
O O1 0.664926 0.186818 0.930284
O O2 0.877033 0.784306 0.603530
O O3 0.785137 0.840820 0.884776
O O4 0.785504 0.163044 0.098266
O O5 0.018126 0.692317 0.729637
O O6 0.148752 0.680045 0.652403
O O7 0.062122 0.656288 0.412725
O O8 0.920885 0.109892 0.919556
O O9 0.152914 0.418263 0.760057
O O10 0.961330 0.621268 0.885738
O O11 0.314247 0.899201 0.428591
O O12 0.500000 0.500000 0.000000
O O13 0.359218 0.500564 0.991785
O O14 0.297993 0.411557 0.681618
O O15 0.675545 0.780061 0.225287
O O16 0.500000 0.000000 0.500000
O O17 0.194357 0.254022 0.906068
#
# Coordination Sequence:
#
# PCOD8038330 Si02
#       8
#     2   2   2   2   2   2   2   2
#     4   9  18  33  60  80 110 148 198 226 275 349
#     4  10  18  32  58  82 118 151 195 230 279 348
#     4  10  17  35  55  80 114 160 189 219 278 358
#     4  10  21  40  66  83 105 150 204 243 282 340
#     4  10  18  33  57  86 108 148 205 237 270 336
#     4  11  22  39  64  84 109 149 205 245 282 342
#     4  11  20  35  54  87 123 153 180 233 299 347
#     4  11  23  38  56  89 122 150 186 242 298 342
#
# _framework density 18.749253
#
# number of rings (size 3 to 8) (size 9 to 14) (size 15 to 20)
#    0.000    1.750    5.000    1.125    0.000    0.000 
#    2.250    1.250    0.000    1.500    0.000    0.000 
#    0.000    0.000    0.000    0.000    0.000    0.000 
#
# Total GULP energy -198219.282546 kJ/mol
# GULP energy per Si atom -12388.705159 kJ/mol
# Density = 1.870658 g / cm^3
# Si number density = 18.749253 Si / 1000 Ang^3
#
#
#
# Elastic Constant Matrix: (Units=GPa)
#
#
# Indices 1 2 3 4 5 6 
#
# 1 115.5069 32.6573 46.1555 -2.7751 -1.6275 -8.8443
# 2 32.6573 76.4168 43.8933 12.6916 -13.7370 -16.0307
# 3 46.1555 43.8933 98.1037 -0.9145 -2.6704 -3.3682
# 4 -2.7751 12.6916 -0.9145 30.9291 0.1470 -4.4830
# 5 -1.6275 -13.7370 -2.6704 0.1470 29.6593 5.8312
# 6 -8.8443 -16.0307 -3.3682 -4.4830 5.8312 27.7652
#
#
#
# Elastic Compliance Matrix: (Units=1/GPa)
#
#
# Indices 1 2 3 4 5 6 
#
# 1 0.011226 -0.002651 -0.004036 0.002305 -0.001424 0.002227
# 2 -0.002651 0.024506 -0.009264 -0.009326 0.008676 0.008853
# 3 -0.004036 -0.009264 0.016080 0.003399 -0.002366 -0.003638
# 4 0.002305 -0.009326 0.003399 0.036877 -0.004597 0.002682
# 5 -0.001424 0.008676 -0.002366 -0.004597 0.038357 -0.004529
# 6 0.002227 0.008853 -0.003638 0.002682 -0.004529 0.042780
#
#
# Mechanical properties :
#
#
# Convention : Reuss Voigt Hill
#
# Bulk Modulus (GPa) = 50.22859 59.49329 54.86094
# Shear Modulus (GPa) = 23.99664 28.82547 26.41105
#
# Velocity S-wave (km/s) = 3.58141 3.92525 3.75726
# Velocity P-wave (km/s) = 6.62947 7.23487 6.93877
#
# Compressibility (1/GPa) = 0.01990898
#
# Stress axis : x y z
#
# Youngs Moduli (GPa) = 89.08213 40.80672 62.19095
#
# Poissons Ratio (x) = 0.10816 0.25102
# Poissons Ratio (y) = 0.23613 0.57614
# Poissons Ratio (z) = 0.35956 0.37804
#
# Static dielectric constant tensor:
#      x y z
#    x 3.644550 -0.226500 0.335350 
#    y -0.226500 3.451210 0.315980 
#    z 0.335350 0.315980 3.381350 
# 
# 
# High freq. dielectric constant tensor:
#      x y z
#    x 1.736920 -0.020350 0.025180 
#    y -0.020350 1.714370 0.028580 
#    z 0.025180 0.028580 1.702890 
# 
# From -- ./inp_files/177930.got.cif
#   From: 2010.06.25/outbox.cif.g09.slc.cpg/sg2_89_cif.got.tgz:177930.got - 2010.06.27 13:26:56.
