data_PCOD8038518
_publ_section_title
;
Structure prediction by ZEFSAII (Michael W. Deem and Ramdas Pophale) SiO2 
 PCOD8038518
Probable space group: P -1
;
_chemical_formula_sum "Si O2"
_cell_formula_units_Z 16
_cell_length_a 11.347104
_cell_length_b 9.797822
_cell_length_c 16.519380
_cell_angle_alpha 80.554649
_cell_angle_beta 123.578720
_cell_angle_gamma 54.060642
_cell_volume 853.837252
_symmetry_space_group_name_H-M "P -1"
_symmetry_group_IT_number 2
_symmetry_cell_setting 'triclinic'
loop_
_space_group_symop_operation_xyz
x,y,z
-x,-y,-z
loop_
_atom_site_type_symbol
_atom_site_label
_atom_site_fract_x
_atom_site_fract_y
_atom_site_fract_z
Si Si1 0.414331 0.958670 0.365865
Si Si2 0.966093 0.229359 0.902231
Si Si3 0.176801 0.524398 0.621372
Si Si4 0.248705 0.144271 0.693349
Si Si5 0.215571 0.191287 0.860412
Si Si6 0.686548 0.175403 0.793453
Si Si7 0.111448 0.306610 0.355190
Si Si8 0.740815 0.673103 0.842590
O O1 0.365671 0.858155 0.308269
O O2 0.708917 0.741025 0.516364
O O3 0.266238 0.071528 0.384007
O O4 0.314420 0.173581 0.262568
O O5 0.131833 0.143579 0.897329
O O6 0.822836 0.207910 0.822029
O O7 0.761228 0.506814 0.824643
O O8 0.146051 0.056741 0.063385
O O9 0.269970 0.290758 0.668074
O O10 0.422883 0.419839 0.713629
O O11 0.970990 0.739148 0.457331
O O12 0.068296 0.634826 0.659220
O O13 0.179413 0.166864 0.757427
O O14 0.513633 0.857644 0.802599
O O15 0.051784 0.461328 0.786376
O O16 0.500000 0.000000 0.000000
O O17 0.000000 0.500000 0.000000
#
# Coordination Sequence:
#
# PCOD8038518 Si02
#       8
#     2   2   2   2   2   2   2   2
#     4  11  20  36  60  87 114 151 191 239 281 335
#     4  11  24  38  57  88 117 147 191 238 287 351
#     4  10  17  37  56  83 111 155 186 232 283 346
#     4  10  20  32  59  85 112 144 199 236 277 332
#     4  11  21  34  56  88 116 143 189 243 282 326
#     4  11  22  40  59  80 118 158 183 229 305 348
#     4  10  21  33  60  89 114 143 200 240 275 328
#     4  12  19  36  61  87 112 146 198 243 279 327
#
# _framework density 18.738935000000001
#
# number of rings (size 3 to 8) (size 9 to 14) (size 15 to 20)
#    0.000    1.250    5.000    3.750    0.000    0.000 
#    0.000    4.375    0.000    3.750    0.000    0.000 
#    0.000    0.000    0.000    0.000    0.000    0.000 
#
# Total GULP energy -198432.785487 kJ/mol
# GULP energy per Si atom -12402.049093 kJ/mol
# Density = 1.869628 g / cm^3
# Si number density = 18.738935 Si / 1000 Ang^3
#
#
#
# Elastic Constant Matrix: (Units=GPa)
#
#
# Indices 1 2 3 4 5 6 
#
# 1 118.8693 44.9405 36.5609 2.0457 10.3887 -13.8933
# 2 44.9405 85.0299 26.8129 0.7743 5.3302 -15.6911
# 3 36.5609 26.8129 95.2424 -5.8151 11.2132 4.4250
# 4 2.0457 0.7743 -5.8151 29.6209 -5.1192 3.0385
# 5 10.3887 5.3302 11.2132 -5.1192 29.5292 -4.4997
# 6 -13.8933 -15.6911 4.4250 3.0385 -4.4997 24.5115
#
#
#
# Elastic Compliance Matrix: (Units=1/GPa)
#
#
# Indices 1 2 3 4 5 6 
#
# 1 0.011784 -0.004147 -0.003497 -0.002165 -0.001743 0.004604
# 2 -0.004147 0.016870 -0.003826 -0.001707 0.001024 0.009539
# 3 -0.003497 -0.003826 0.013969 0.003213 -0.004061 -0.008097
# 4 -0.002165 -0.001707 0.003213 0.036132 0.005133 -0.006437
# 5 -0.001743 0.001024 -0.004061 0.005133 0.037745 0.006693
# 6 0.004604 0.009539 -0.008097 -0.006437 0.006693 0.053002
#
#
# Mechanical properties :
#
#
# Convention : Reuss Voigt Hill
#
# Bulk Modulus (GPa) = 50.80051 57.30781 54.05416
# Shear Modulus (GPa) = 25.12535 29.45413 27.28974
#
# Velocity S-wave (km/s) = 3.66568 3.96891 3.82031
# Velocity P-wave (km/s) = 6.71452 7.18691 6.95472
#
# Compressibility (1/GPa) = 0.01968484
#
# Stress axis : x y z
#
# Youngs Moduli (GPa) = 84.86368 59.27605 71.58553
#
# Poissons Ratio (x) = 0.24579 0.25033
# Poissons Ratio (y) = 0.35189 0.27386
# Poissons Ratio (z) = 0.29677 0.22677
#
# Static dielectric constant tensor:
#      x y z
#    x 3.328050 -0.314410 -0.011430 
#    y -0.314410 3.353380 -0.066730 
#    z -0.011430 -0.066730 3.550380 
# 
# 
# High freq. dielectric constant tensor:
#      x y z
#    x 1.711930 -0.037300 0.002150 
#    y -0.037300 1.708100 -0.006220 
#    z 0.002150 -0.006220 1.747040 
# 
# From -- ./inp_files/277786.got.cif
#   From: 2010.06.25/outbox.cif.g09.slc.cpg/sg2_139_cif.got.tgz:277786.got - 2010.06.27 13:26:56.
