data_PCOD8038407
_publ_section_title
;
Structure prediction by ZEFSAII (Michael W. Deem and Ramdas Pophale) SiO2 
 PCOD8038407
Probable space group: P -1
;
_chemical_formula_sum "Si O2"
_cell_formula_units_Z 16
_cell_length_a 12.745166
_cell_length_b 8.782106
_cell_length_c 21.727210
_cell_angle_alpha 131.015736
_cell_angle_beta 152.859708
_cell_angle_gamma 57.802570
_cell_volume 827.749722
_symmetry_space_group_name_H-M "P -1"
_symmetry_group_IT_number 2
_symmetry_cell_setting 'triclinic'
loop_
_space_group_symop_operation_xyz
x,y,z
-x,-y,-z
loop_
_atom_site_type_symbol
_atom_site_label
_atom_site_fract_x
_atom_site_fract_y
_atom_site_fract_z
Si Si1 0.742412 0.359911 0.531558
Si Si2 0.416210 0.451672 0.033914
Si Si3 0.331386 0.385459 0.109410
Si Si4 0.232639 0.236364 0.765262
Si Si5 0.158284 0.777843 0.143660
Si Si6 0.883673 0.212126 0.018595
Si Si7 0.469839 0.875341 0.756145
Si Si8 0.286473 0.226621 0.325812
O O1 0.633486 0.290765 0.391294
O O2 0.557370 0.292097 0.470608
O O3 0.800927 0.608189 0.629541
O O4 0.961154 0.247592 0.630920
O O5 0.429493 0.365805 0.086688
O O6 0.659138 0.591836 0.181729
O O7 0.361078 0.270913 0.907648
O O8 0.207009 0.583443 0.953510
O O9 0.351725 0.623377 0.205108
O O10 0.480068 0.254046 0.192911
O O11 0.057085 0.300737 0.945393
O O12 0.270424 0.012428 0.703809
O O13 0.264151 0.000787 0.283955
O O14 0.071578 0.791767 0.031794
O O15 0.132237 0.211330 0.179334
O O16 0.701935 0.016428 0.891892
#
# Coordination Sequence:
#
# PCOD8038407 Si02
#       8
#     2   2   2   2   2   2   2   2
#     4  11  23  36  59  94 120 150 200 244 298 342
#     4   9  20  37  62  89 111 151 202 258 275 345
#     4  10  21  35  59  93 121 149 200 237 306 344
#     4  10  21  40  62  84 116 156 206 245 287 335
#     4  10  19  34  59  90 123 152 187 252 288 349
#     4  10  17  35  63  88 115 149 210 240 286 337
#     4  11  21  37  62  89 118 159 195 245 286 357
#     4  11  20  35  61  90 120 151 193 252 286 348
#
# _framework density 19.329514
#
# number of rings (size 3 to 8) (size 9 to 14) (size 15 to 20)
#    0.000    1.750    3.750    1.500    0.000    0.500 
#    0.000    1.250    0.000    0.000    0.000    0.000 
#    0.000    0.000    0.000    0.000    0.000    0.000 
#
# Total GULP energy -198374.180966 kJ/mol
# GULP energy per Si atom -12398.386310 kJ/mol
# Density = 1.928552 g / cm^3
# Si number density = 19.329514 Si / 1000 Ang^3
#
#
#
# Elastic Constant Matrix: (Units=GPa)
#
#
# Indices 1 2 3 4 5 6 
#
# 1 92.1670 46.2572 27.6128 0.5003 -7.7476 0.8623
# 2 46.2572 97.4238 38.1875 12.9183 1.3597 2.4081
# 3 27.6128 38.1875 65.5294 3.6145 2.8964 -0.0331
# 4 0.5003 12.9183 3.6145 35.1656 -10.1816 -3.3649
# 5 -7.7476 1.3597 2.8964 -10.1816 24.3795 -4.9176
# 6 0.8623 2.4081 -0.0331 -3.3649 -4.9176 33.5832
#
#
#
# Elastic Compliance Matrix: (Units=1/GPa)
#
#
# Indices 1 2 3 4 5 6 
#
# 1 0.016153 -0.007290 -0.003237 0.005449 0.008585 0.001908
# 2 -0.007290 0.017402 -0.006365 -0.007728 -0.006317 -0.002766
# 3 -0.003237 -0.006365 0.020524 -0.000714 -0.003413 -0.000012
# 4 0.005449 -0.007728 -0.000714 0.037542 0.019340 0.007007
# 5 0.008585 -0.006317 -0.003413 0.019340 0.054632 0.010167
# 6 0.001908 -0.002766 -0.000012 0.007007 0.010167 0.032117
#
#
# Mechanical properties :
#
#
# Convention : Reuss Voigt Hill
#
# Bulk Modulus (GPa) = 49.27566 53.24834 51.26200
# Shear Modulus (GPa) = 22.83955 28.16318 25.50136
#
# Velocity S-wave (km/s) = 3.44115 3.82121 3.63615
# Velocity P-wave (km/s) = 6.42935 6.86122 6.64879
#
# Compressibility (1/GPa) = 0.02029399
#
# Stress axis : x y z
#
# Youngs Moduli (GPa) = 61.90921 57.46455 48.72347
#
# Poissons Ratio (x) = 0.41892 0.15773
# Poissons Ratio (y) = 0.45132 0.31013
# Poissons Ratio (z) = 0.20041 0.36577
#
# Static dielectric constant tensor:
#      x y z
#    x 3.520200 -0.226150 0.025670 
#    y -0.226150 3.769730 0.234210 
#    z 0.025670 0.234210 3.352450 
# 
# 
# High freq. dielectric constant tensor:
#      x y z
#    x 1.746500 -0.021890 0.002480 
#    y -0.021890 1.759690 0.011640 
#    z 0.002480 0.011640 1.731680 
# 
# From -- ./inp_files/199502.got.cif
#   From: 2010.06.25/outbox.cif.g09.slc.cpg/sg2_100_cif.got.tgz:199502.got - 2010.06.27 13:26:56.
