data_PCOD8038593
_publ_section_title
;
Structure prediction by ZEFSAII (Michael W. Deem and Ramdas Pophale) SiO2 
 PCOD8038593
Probable space group: P -1
;
_chemical_formula_sum "Si O2"
_cell_formula_units_Z 14
_cell_length_a 9.640479
_cell_length_b 13.642962
_cell_length_c 8.865990
_cell_angle_alpha 54.345994
_cell_angle_beta 62.074375
_cell_angle_gamma 43.268731
_cell_volume 647.425556
_symmetry_space_group_name_H-M "P -1"
_symmetry_group_IT_number 2
_symmetry_cell_setting 'triclinic'
loop_
_space_group_symop_operation_xyz
x,y,z
-x,-y,-z
loop_
_atom_site_type_symbol
_atom_site_label
_atom_site_fract_x
_atom_site_fract_y
_atom_site_fract_z
Si Si1 0.152567 0.684080 0.262089
Si Si2 0.524925 0.065218 0.078449
Si Si3 0.882752 0.212390 0.149313
Si Si4 0.504943 0.339503 0.408591
Si Si5 0.224611 0.861784 0.267964
Si Si6 0.098634 0.338648 0.012619
Si Si7 0.216653 0.270584 0.667205
O O1 0.380982 0.524765 0.310027
O O2 0.112821 0.802308 0.304238
O O3 0.993752 0.649662 0.387745
O O4 0.114404 0.766622 0.048214
O O5 0.656429 0.915698 0.253931
O O6 0.644165 0.131511 0.929765
O O7 0.298766 0.205290 0.128247
O O8 0.500000 0.000000 0.000000
O O9 0.662151 0.271131 0.252601
O O10 0.052741 0.032277 0.271138
O O11 0.935173 0.310100 0.124116
O O12 0.624942 0.258351 0.573154
O O13 0.344987 0.311133 0.482819
O O14 0.170874 0.329834 0.811639
O O15 0.000000 0.500000 0.000000
#
# Coordination Sequence:
#
# PCOD8038593 Si02
#       7
#     2   2   2   2   2   2   2
#     4  11  25  42  66  94 131 171 212 259 328 376
#     4  10  17  38  67  91 121 169 218 252 316 375
#     4  11  24  43  63  97 131 170 211 264 320 380
#     4  12  24  41  66  95 134 164 212 271 319 365
#     4  12  22  42  71  94 124 172 221 259 308 390
#     4  10  20  36  64  96 125 162 216 262 309 376
#     4  10  21  44  65  89 128 176 210 256 320 387
#
# _framework density 21.624108
#
# number of rings (size 3 to 8) (size 9 to 14) (size 15 to 20)
#    0.000    1.143    7.143    2.143    2.000    1.143 
#    0.000    0.714    0.000    0.000    0.000    0.000 
#    0.000    0.000    0.000    0.000    0.000    0.000 
#
# Total GULP energy -173592.167006 kJ/mol
# GULP energy per Si atom -12399.440500 kJ/mol
# Density = 2.157489 g / cm^3
# Si number density = 21.624108 Si / 1000 Ang^3
#
#
#
# Elastic Constant Matrix: (Units=GPa)
#
#
# Indices 1 2 3 4 5 6 
#
# 1 129.6901 56.7734 29.6278 4.5361 -19.5051 -0.5349
# 2 56.7734 140.2361 20.1411 -17.0448 3.8029 -11.4975
# 3 29.6278 20.1411 42.8246 -2.8492 -12.6199 -6.9805
# 4 4.5361 -17.0448 -2.8492 23.6159 -20.5081 0.9184
# 5 -19.5051 3.8029 -12.6199 -20.5081 35.1979 -0.5553
# 6 -0.5349 -11.4975 -6.9805 0.9184 -0.5553 39.0850
#
#
#
# Elastic Compliance Matrix: (Units=1/GPa)
#
#
# Indices 1 2 3 4 5 6 
#
# 1 0.011510 -0.004559 -0.005673 -0.003912 0.002525 -0.002069
# 2 -0.004559 0.010392 0.000205 0.010576 0.002631 0.002820
# 3 -0.005673 0.000205 0.038689 0.030436 0.028543 0.006583
# 4 -0.003912 0.010576 0.030436 0.123138 0.079455 0.006729
# 5 0.002525 0.002631 0.028543 0.079455 0.086137 0.005263
# 6 -0.002069 0.002820 0.006583 0.006729 0.005263 0.027479
#
#
# Mechanical properties :
#
#
# Convention : Reuss Voigt Hill
#
# Bulk Modulus (GPa) = 24.66799 58.42615 41.54707
# Shear Modulus (GPa) = 15.10981 33.32701 24.21841
#
# Velocity S-wave (km/s) = 2.64625 3.93007 3.35023
# Velocity P-wave (km/s) = 4.55733 6.90446 5.84982
#
# Compressibility (1/GPa) = 0.04053837
#
# Stress axis : x y z
#
# Youngs Moduli (GPa) = 86.87856 96.22517 25.84735
#
# Poissons Ratio (x) = 0.43867 0.14662
# Poissons Ratio (y) = 0.39606 -0.00530
# Poissons Ratio (z) = 0.49284 -0.01973
#
# Static dielectric constant tensor:
#      x y z
#    x 4.219620 -0.448850 -0.156690 
#    y -0.448850 4.108550 -0.363060 
#    z -0.156690 -0.363060 3.761780 
# 
# 
# High freq. dielectric constant tensor:
#      x y z
#    x 1.859700 -0.020240 -0.012040 
#    y -0.020240 1.847620 -0.030500 
#    z -0.012040 -0.030500 1.825510 
# 
# From -- ./inp_files/159288.got.cif
#   From: 2010.06.25/outbox.cif.g09.slc.cpg/sg2_80_cif.got.tgz:159288.got - 2010.06.27 13:26:56.
