data_PCOD8038156
_publ_section_title
;
Structure prediction by ZEFSAII (Michael W. Deem and Ramdas Pophale) SiO2 
 PCOD8038156
Probable space group: P -1
;
_chemical_formula_sum "Si O2"
_cell_formula_units_Z 16
_cell_length_a 9.383769
_cell_length_b 10.127741
_cell_length_c 15.463365
_cell_angle_alpha 107.976549
_cell_angle_beta 50.107902
_cell_angle_gamma 72.627445
_cell_volume 786.018597
_symmetry_space_group_name_H-M "P -1"
_symmetry_group_IT_number 2
_symmetry_cell_setting 'triclinic'
loop_
_space_group_symop_operation_xyz
x,y,z
-x,-y,-z
loop_
_atom_site_type_symbol
_atom_site_label
_atom_site_fract_x
_atom_site_fract_y
_atom_site_fract_z
Si Si1 0.686382 0.808988 0.082550
Si Si2 0.997259 0.364575 0.529617
Si Si3 0.478624 0.387422 0.110840
Si Si4 0.108397 0.069603 0.304033
Si Si5 0.276884 0.024658 0.052221
Si Si6 0.813371 0.947492 0.371086
Si Si7 0.507214 0.957212 0.631761
Si Si8 0.216688 0.532803 0.065315
O O1 0.399217 0.921710 0.189389
O O2 0.688250 0.874182 0.190365
O O3 0.816430 0.853515 0.974753
O O4 0.847992 0.583931 0.975628
O O5 0.772033 0.467322 0.705991
O O6 0.000000 0.500000 0.500000
O O7 0.958773 0.252696 0.459439
O O8 0.266118 0.235282 0.446927
O O9 0.412500 0.395469 0.038151
O O10 0.655310 0.434919 0.051910
O O11 0.634925 0.177017 0.044055
O O12 0.066095 0.131096 0.231668
O O13 0.999778 0.970876 0.337417
O O14 0.500000 0.000000 0.000000
O O15 0.621459 0.018688 0.538565
O O16 0.969675 0.728870 0.242531
O O17 0.652166 0.068814 0.371954
#
# Coordination Sequence:
#
# PCOD8038156 Si02
#       8
#     2   2   2   2   2   2   2   2
#     4  10  21  35  60  90 114 151 199 248 287 344
#     4  11  23  37  63  89 117 149 201 249 288 345
#     4  11  19  33  55  92 114 144 194 252 287 330
#     4  10  20  35  60  86 114 158 193 242 289 349
#     4  10  17  34  56  85 120 144 188 241 301 340
#     4  11  22  41  57  84 122 161 190 237 301 358
#     4  10  24  39  59  83 123 157 191 239 301 355
#     4  11  20  33  59  85 115 147 199 246 283 339
#
# _framework density 20.355753
#
# number of rings (size 3 to 8) (size 9 to 14) (size 15 to 20)
#    0.000    1.500    5.000    3.000    1.750    1.500 
#    0.000    1.250    0.000    0.000    0.000    0.000 
#    0.000    0.000    0.000    0.000    0.000    0.000 
#
# Total GULP energy -198328.735338 kJ/mol
# GULP energy per Si atom -12395.545959 kJ/mol
# Density = 2.030942 g / cm^3
# Si number density = 20.355753 Si / 1000 Ang^3
#
#
#
# Elastic Constant Matrix: (Units=GPa)
#
#
# Indices 1 2 3 4 5 6 
#
# 1 54.4982 29.2257 3.6853 3.1006 11.6772 -3.5370
# 2 29.2257 111.4604 25.9259 2.3515 16.9892 13.1221
# 3 3.6853 25.9259 68.4687 -4.1946 22.5653 4.5673
# 4 3.1006 2.3515 -4.1946 29.0121 1.7171 4.4445
# 5 11.6772 16.9892 22.5653 1.7171 27.8870 -0.1808
# 6 -3.5370 13.1221 4.5673 4.4445 -0.1808 23.5325
#
#
#
# Elastic Compliance Matrix: (Units=1/GPa)
#
#
# Indices 1 2 3 4 5 6 
#
# 1 0.024070 -0.006562 0.003472 -0.002084 -0.008717 0.006929
# 2 -0.006562 0.012679 -0.003056 0.000547 -0.002587 -0.007586
# 3 0.003472 -0.003056 0.021843 0.004535 -0.017566 -0.003005
# 4 -0.002084 0.000547 0.004535 0.036930 -0.005459 -0.008515
# 5 -0.008717 -0.002587 -0.017566 -0.005459 0.055667 0.005000
# 6 0.006929 -0.007586 -0.003005 -0.008515 0.005000 0.049996
#
#
# Mechanical properties :
#
#
# Convention : Reuss Voigt Hill
#
# Bulk Modulus (GPa) = 21.59790 39.12235 30.36013
# Shear Modulus (GPa) = 21.84273 27.79233 24.81753
#
# Velocity S-wave (km/s) = 3.27930 3.69905 3.49548
# Velocity P-wave (km/s) = 4.99716 6.12413 5.58912
#
# Compressibility (1/GPa) = 0.04630079
#
# Stress axis : x y z
#
# Youngs Moduli (GPa) = 41.54622 78.87028 45.78180
#
# Poissons Ratio (x) = 0.51754 -0.15897
# Poissons Ratio (y) = 0.27262 0.13989
# Poissons Ratio (z) = -0.14426 0.24100
#
# Static dielectric constant tensor:
#      x y z
#    x 3.563860 0.000970 0.317040 
#    y 0.000970 3.880620 -0.210070 
#    z 0.317040 -0.210070 3.734620 
# 
# 
# High freq. dielectric constant tensor:
#      x y z
#    x 1.768180 0.006720 0.021510 
#    y 0.006720 1.792440 -0.013400 
#    z 0.021510 -0.013400 1.800100 
# 
# From -- ./inp_files/281857.got.cif
#   From: 2010.06.25/outbox.cif.g09.slc.cpg/sg2_141_cif.got.tgz:281857.got - 2010.06.27 13:26:56.
