data_PCOD8038785
_publ_section_title
;
Structure prediction by ZEFSAII (Michael W. Deem and Ramdas Pophale) SiO2 
 PCOD8038785
Probable space group: P -1
;
_chemical_formula_sum "Si O2"
_cell_formula_units_Z 14
_cell_length_a 34.742041
_cell_length_b 9.364127
_cell_length_c 5.343622
_cell_angle_alpha 74.643991
_cell_angle_beta 121.286880
_cell_angle_gamma 152.188563
_cell_volume 605.053829
_symmetry_space_group_name_H-M "P -1"
_symmetry_group_IT_number 2
_symmetry_cell_setting 'triclinic'
loop_
_space_group_symop_operation_xyz
x,y,z
-x,-y,-z
loop_
_atom_site_type_symbol
_atom_site_label
_atom_site_fract_x
_atom_site_fract_y
_atom_site_fract_z
Si Si1 0.261320 0.021754 0.653926
Si Si2 0.188190 0.253429 0.807219
Si Si3 0.207457 0.201748 0.396809
Si Si4 0.123167 0.376777 0.682066
Si Si5 0.308166 0.016780 0.306811
Si Si6 0.412448 0.023360 0.699108
Si Si7 0.558876 0.020726 0.683473
O O1 0.148177 0.595985 0.493004
O O2 0.313379 0.138539 0.508473
O O3 0.247897 0.155894 0.562848
O O4 0.334754 0.187653 0.060922
O O5 0.137304 0.029352 0.488204
O O6 0.166627 0.363892 0.684016
O O7 0.138422 0.027018 0.992607
O O8 0.313388 0.584507 0.068038
O O9 0.303932 0.605885 0.528510
O O10 0.189972 0.591191 0.067690
O O11 0.000000 0.000000 0.500000
O O12 0.393149 0.140525 0.574915
O O13 0.478575 0.176309 0.602548
O O14 0.478424 0.181568 0.101320
O O15 0.500000 0.000000 0.500000
#
# Coordination Sequence:
#
# PCOD8038785 Si02
#       7
#     2   2   2   2   2   2   2
#     4  10  20  33  54  81 104 140 184 214 263 317
#     4  10  20  36  56  77 108 141 176 216 270 311
#     4  10  18  34  55  77 108 141 174 219 266 315
#     4  10  22  38  57  79 107 141 182 221 262 315
#     4  10  19  36  54  78 106 140 182 213 266 307
#     4  10  18  33  54  79 106 142 175 217 266 309
#     4  10  18  30  53  85 108 132 174 224 263 307
#
# _framework density 23.138439000000002
#
# number of rings (size 3 to 8) (size 9 to 14) (size 15 to 20)
#    0.857    1.143    2.857    3.857    0.000    0.571 
#    0.000    1.429    0.000    0.000    0.000  136.000 
#    0.000    0.000    0.000    0.000    0.000    0.000 
#
# Total GULP energy -173439.395207 kJ/mol
# GULP energy per Si atom -12388.528229 kJ/mol
# Density = 2.308578 g / cm^3
# Si number density = 23.138439 Si / 1000 Ang^3
#
#
#
# Elastic Constant Matrix: (Units=GPa)
#
#
# Indices 1 2 3 4 5 6 
#
# 1 162.3212 9.3243 57.4168 -23.1932 -35.5037 -12.6051
# 2 9.3243 58.5175 18.2999 -33.8836 10.2943 8.7835
# 3 57.4168 18.2999 106.5981 -40.5184 -37.9295 7.1861
# 4 -23.1932 -33.8836 -40.5184 58.7096 11.3970 -2.1006
# 5 -35.5037 10.2943 -37.9295 11.3970 61.3299 -10.1519
# 6 -12.6051 8.7835 7.1861 -2.1006 -10.1519 40.2400
#
#
#
# Elastic Compliance Matrix: (Units=1/GPa)
#
#
# Indices 1 2 3 4 5 6 
#
# 1 0.008694 -0.002345 -0.003450 -0.000956 0.004278 0.004881
# 2 -0.002345 0.032687 -0.000732 0.019518 -0.012561 -0.009889
# 3 -0.003450 -0.000732 0.017246 0.008718 0.006871 -0.001812
# 4 -0.000956 0.019518 0.008718 0.034870 -0.005874 -0.005778
# 5 0.004278 -0.012561 0.006871 -0.005874 0.027815 0.009565
# 6 0.004881 -0.009889 -0.001812 -0.005778 0.009565 0.030974
#
#
# Mechanical properties :
#
#
# Convention : Reuss Voigt Hill
#
# Bulk Modulus (GPa) = 21.94367 55.27985 38.61176
# Shear Modulus (GPa) = 27.69604 48.21561 37.95582
#
# Velocity S-wave (km/s) = 3.46348 4.56981 4.05455
# Velocity P-wave (km/s) = 5.04960 7.19631 6.21633
#
# Compressibility (1/GPa) = 0.04557123
#
# Stress axis : x y z
#
# Youngs Moduli (GPa) = 115.02176 30.59330 57.98440
#
# Poissons Ratio (x) = 0.07175 0.20007
# Poissons Ratio (y) = 0.26974 0.04246
# Poissons Ratio (z) = 0.39687 0.02240
#
# Static dielectric constant tensor:
#      x y z
#    x 4.072300 -0.030430 -0.398890 
#    y -0.030430 3.700680 -0.402680 
#    z -0.398890 -0.402680 4.540650 
# 
# 
# High freq. dielectric constant tensor:
#      x y z
#    x 1.927490 -0.008310 -0.020280 
#    y -0.008310 1.880660 -0.034080 
#    z -0.020280 -0.034080 1.912310 
# 
# From -- ./inp_files/36395.got.cif
#   From: 2010.06.25/outbox.cif.g09.slc.cpg/sg2_19_cif.got.tgz:36395.got - 2010.06.27 13:26:56.
