data_PCOD8038388
_publ_section_title
;
Structure prediction by ZEFSAII (Michael W. Deem and Ramdas Pophale) SiO2 
 PCOD8038388
Probable space group: P -1
;
_chemical_formula_sum "Si O2"
_cell_formula_units_Z 16
_cell_length_a 17.373556
_cell_length_b 19.443086
_cell_length_c 9.079112
_cell_angle_alpha 40.204622
_cell_angle_beta 149.306460
_cell_angle_gamma 149.862107
_cell_volume 783.584225
_symmetry_space_group_name_H-M "P -1"
_symmetry_group_IT_number 2
_symmetry_cell_setting 'triclinic'
loop_
_space_group_symop_operation_xyz
x,y,z
-x,-y,-z
loop_
_atom_site_type_symbol
_atom_site_label
_atom_site_fract_x
_atom_site_fract_y
_atom_site_fract_z
Si Si1 0.717666 0.617737 0.417921
Si Si2 0.684644 0.041133 0.084661
Si Si3 0.717705 0.533051 0.969016
Si Si4 0.734626 0.830497 0.559210
Si Si5 0.693674 0.394399 0.884575
Si Si6 0.851090 0.699284 0.182920
Si Si7 0.254716 0.817860 0.758669
Si Si8 0.948101 0.815206 0.709508
O O1 0.794281 0.533984 0.727358
O O2 0.721644 0.630975 0.227739
O O3 0.856626 0.771244 0.466025
O O4 0.505779 0.534319 0.274532
O O5 0.735643 0.160054 0.084902
O O6 0.820555 0.102979 0.061593
O O7 0.718052 0.946538 0.387892
O O8 0.460471 0.947109 0.815163
O O9 0.807823 0.574827 0.214037
O O10 0.730382 0.429671 0.064085
O O11 0.840975 0.676088 0.852551
O O12 0.534887 0.704099 0.363389
O O13 0.901815 0.900107 0.591614
O O14 0.786602 0.780537 0.866217
O O15 0.788724 0.325517 0.107305
O O16 0.080279 0.807575 0.417629
#
# Coordination Sequence:
#
# PCOD8038388 Si02
#       8
#     2   2   2   2   2   2   2   2
#     4  11  18  35  61  90 115 144 183 242 282 336
#     4  10  21  40  61  79 112 156 198 233 268 337
#     4  10  20  35  61  88 120 138 186 242 283 336
#     4  10  20  36  62  87 112 145 195 238 279 325
#     4  10  19  37  60  82 116 154 186 224 280 348
#     4  11  22  35  58  91 119 145 180 237 299 326
#     4  10  23  39  55  83 119 151 193 231 278 337
#     4  10  17  35  61  89 104 149 193 234 276 335
#
# _framework density 20.418990999999998
#
# number of rings (size 3 to 8) (size 9 to 14) (size 15 to 20)
#    0.000    1.750    5.000    1.500    0.000    1.500 
#    0.000    2.500    0.000    0.000    0.000    0.000 
#    0.000    0.000    0.000    0.000    0.000    0.000 
#
# Total GULP energy -198250.108247 kJ/mol
# GULP energy per Si atom -12390.631765 kJ/mol
# Density = 2.037252 g / cm^3
# Si number density = 20.418991 Si / 1000 Ang^3
#
#
#
# Elastic Constant Matrix: (Units=GPa)
#
#
# Indices 1 2 3 4 5 6 
#
# 1 118.0683 27.0515 23.5320 -10.1486 -4.8641 -2.5055
# 2 27.0515 43.5500 22.4149 5.2422 4.3375 -0.3556
# 3 23.5320 22.4149 45.5530 4.2727 -2.7210 0.2922
# 4 -10.1486 5.2422 4.2727 23.6599 2.7543 5.0314
# 5 -4.8641 4.3375 -2.7210 2.7543 33.3327 4.6121
# 6 -2.5055 -0.3556 0.2922 5.0314 4.6121 45.4991
#
#
#
# Elastic Compliance Matrix: (Units=1/GPa)
#
#
# Indices 1 2 3 4 5 6 
#
# 1 0.011176 -0.006255 -0.003215 0.006632 0.001678 -0.000316
# 2 -0.006255 0.035579 -0.013942 -0.007639 -0.006257 0.001502
# 3 -0.003215 -0.013942 0.031139 -0.004320 0.004306 -0.000445
# 4 0.006632 -0.007639 -0.004320 0.048827 -0.001749 -0.004889
# 5 0.001678 -0.006257 0.004306 -0.001749 0.031975 -0.003032
# 6 -0.000316 0.001502 -0.000445 -0.004889 -0.003032 0.022824
#
#
# Mechanical properties :
#
#
# Convention : Reuss Voigt Hill
#
# Bulk Modulus (GPa) = 32.18738 39.24090 35.71414
# Shear Modulus (GPa) = 20.94663 29.44320 25.19491
#
# Velocity S-wave (km/s) = 3.20635 3.80142 3.51650
# Velocity P-wave (km/s) = 5.43187 6.20704 5.83235
#
# Compressibility (1/GPa) = 0.03106808
#
# Stress axis : x y z
#
# Youngs Moduli (GPa) = 89.47546 28.10655 32.11391
#
# Poissons Ratio (x) = 0.17582 0.10325
# Poissons Ratio (y) = 0.55971 0.44775
# Poissons Ratio (z) = 0.28768 0.39187
#
# Static dielectric constant tensor:
#      x y z
#    x 4.114270 -0.256120 0.045790 
#    y -0.256120 3.874000 0.240730 
#    z 0.045790 0.240730 3.386860 
# 
# 
# High freq. dielectric constant tensor:
#      x y z
#    x 1.813500 -0.006760 0.010010 
#    y -0.006760 1.803770 0.020520 
#    z 0.010010 0.020520 1.754040 
# 
# From -- ./inp_files/207039.got.cif
#   From: 2010.06.25/outbox.cif.g09.slc.cpg/sg2_104_cif.got.tgz:207039.got - 2010.06.27 13:26:56.
