data_PCOD8038080
_publ_section_title
;
Structure prediction by ZEFSAII (Michael W. Deem and Ramdas Pophale) SiO2 
 PCOD8038080
Probable space group: P -1
;
_chemical_formula_sum "Si O2"
_cell_formula_units_Z 16
_cell_length_a 12.000000
_cell_length_b 18.000000
_cell_length_c 21.000000
_cell_angle_alpha 160.000000
_cell_angle_beta 40.000000
_cell_angle_gamma 150.000000
_cell_volume 744.844803
_symmetry_space_group_name_H-M "P -1"
_symmetry_group_IT_number 2
_symmetry_cell_setting 'triclinic'
loop_
_space_group_symop_operation_xyz
x,y,z
-x,-y,-z
loop_
_atom_site_type_symbol
_atom_site_label
_atom_site_fract_x
_atom_site_fract_y
_atom_site_fract_z
Si Si1 0.926668 0.089547 0.813514
Si Si2 0.545936 0.167833 0.237969
Si Si3 0.880699 0.490644 0.233815
Si Si4 0.043249 0.334159 0.469508
Si Si5 0.060694 0.125720 0.171615
Si Si6 0.738504 0.834805 0.360455
Si Si7 0.556325 0.385300 0.184454
Si Si8 0.770134 0.532257 0.757565
O O1 0.115414 0.240485 0.795905
O O2 0.666907 0.854245 0.707985
O O3 0.993755 0.924688 0.687643
O O4 0.958144 0.332982 0.037648
O O5 0.738963 0.308625 0.211731
O O6 0.685013 0.368691 0.400886
O O7 0.437865 0.840971 0.037576
O O8 0.704711 0.487498 0.266043
O O9 0.107482 0.820381 0.417904
O O10 0.976692 0.241956 0.350614
O O11 0.868062 0.374218 0.604205
O O12 0.285571 0.206262 0.172404
O O13 0.119092 0.293947 0.216464
O O14 0.860878 0.776631 0.968510
O O15 0.661718 0.672540 0.330634
O O16 0.509845 0.704505 0.313905
#
# Coordination Sequence:
#
# PCOD8038080 Si02
#       8
#     2   2   2   2   2   2   2   2
#     4  11  25  40  65  96 131 169 211 262 314 387
#     4  11  22  41  68  98 128 162 219 268 309 375
#     4  11  23  43  65  97 132 164 211 266 320 376
#     4  12  22  39  69  95 119 171 217 264 313 364
#     4  10  21  41  67  94 124 167 220 264 310 371
#     4  11  25  44  62  95 136 167 207 260 327 383
#     4  10  21  42  68  95 129 169 205 271 320 370
#     4  10  24  43  62  93 132 166 213 267 308 379
#
# _framework density 21.480985
#
# number of rings (size 3 to 8) (size 9 to 14) (size 15 to 20)
#    0.000    1.250    2.500    4.125    1.750    3.500 
#    4.500    1.250    0.000    0.000    0.000    0.000 
#    0.000    0.000    0.000    0.000    0.000    0.000 
#
# Total GULP energy -198370.553912 kJ/mol
# GULP energy per Si atom -12398.159620 kJ/mol
# Density = 2.143209 g / cm^3
# Si number density = 21.480985 Si / 1000 Ang^3
#
#
#
# Elastic Constant Matrix: (Units=GPa)
#
#
# Indices 1 2 3 4 5 6 
#
# 1 95.6824 32.5033 56.6601 3.5588 6.7518 30.2474
# 2 32.5033 79.4419 55.0717 8.5872 8.9652 26.1716
# 3 56.6601 55.0717 149.8291 3.6660 18.9640 16.9462
# 4 3.5588 8.5872 3.6660 34.8243 2.9291 4.9918
# 5 6.7518 8.9652 18.9640 2.9291 47.1434 1.8878
# 6 30.2474 26.1716 16.9462 4.9918 1.8878 33.5134
#
#
#
# Elastic Compliance Matrix: (Units=1/GPa)
#
#
# Indices 1 2 3 4 5 6 
#
# 1 0.017858 0.001243 -0.005602 0.000513 0.000002 -0.014332
# 2 0.001243 0.021835 -0.006695 -0.002676 -0.000897 -0.014339
# 3 -0.005602 -0.006695 0.011028 0.000597 -0.002588 0.004765
# 4 0.000513 -0.002676 0.000597 0.029824 -0.001536 -0.003031
# 5 0.000002 -0.000897 -0.002588 -0.001536 0.022480 0.000970
# 6 -0.014332 -0.014339 0.004765 -0.003031 0.000970 0.051959
#
#
# Mechanical properties :
#
#
# Convention : Reuss Voigt Hill
#
# Bulk Modulus (GPa) = 34.94998 68.15818 51.55408
# Shear Modulus (GPa) = 26.79134 35.14411 30.96772
#
# Velocity S-wave (km/s) = 3.53542 4.04921 3.80101
# Velocity P-wave (km/s) = 5.74205 7.32529 6.58145
#
# Compressibility (1/GPa) = 0.02861232
#
# Stress axis : x y z
#
# Youngs Moduli (GPa) = 55.99831 45.79887 90.68198
#
# Poissons Ratio (x) = -0.05692 0.50798
# Poissons Ratio (y) = -0.06960 0.60711
# Poissons Ratio (z) = 0.31369 0.30662
#
# Static dielectric constant tensor:
#      x y z
#    x 4.035570 0.211070 0.126100 
#    y 0.211070 3.808400 -0.032780 
#    z 0.126100 -0.032780 4.171290 
# 
# 
# High freq. dielectric constant tensor:
#      x y z
#    x 1.859220 0.014080 0.000280 
#    y 0.014080 1.822720 0.002790 
#    z 0.000280 0.002790 1.864500 
# 
# From -- ./inp_files/516127.got.cif
#   From: 2010.06.25/outbox.ucp.g09.slc.cvg/sg2_259_cif.got.tgz:516127.got - 2010.06.28 11:54:26.
