data_PCOD8038224
_publ_section_title
;
Structure prediction by ZEFSAII (Michael W. Deem and Ramdas Pophale) SiO2 
 PCOD8038224
Probable space group: P -1
;
_chemical_formula_sum "Si O2"
_cell_formula_units_Z 14
_cell_length_a 14.811499
_cell_length_b 11.148327
_cell_length_c 19.176274
_cell_angle_alpha 33.735101
_cell_angle_beta 25.231014
_cell_angle_gamma 38.890348
_cell_volume 745.034274
_symmetry_space_group_name_H-M "P -1"
_symmetry_group_IT_number 2
_symmetry_cell_setting 'triclinic'
loop_
_space_group_symop_operation_xyz
x,y,z
-x,-y,-z
loop_
_atom_site_type_symbol
_atom_site_label
_atom_site_fract_x
_atom_site_fract_y
_atom_site_fract_z
Si Si1 0.783626 0.087384 0.648823
Si Si2 0.661763 0.878764 0.608966
Si Si3 0.335638 0.708037 0.502388
Si Si4 0.864500 0.630467 0.843152
Si Si5 0.357410 0.762536 0.770231
Si Si6 0.800167 0.826172 0.390484
Si Si7 0.048431 0.415598 0.354376
O O1 0.620217 0.193090 0.653278
O O2 0.848824 0.268521 0.570076
O O3 0.717982 0.867045 0.837154
O O4 0.000000 0.000000 0.500000
O O5 0.435122 0.815452 0.768880
O O6 0.830040 0.873287 0.429358
O O7 0.747283 0.703766 0.691548
O O8 0.625573 0.118770 0.549438
O O9 0.500000 0.500000 0.500000
O O10 0.096797 0.643165 0.707625
O O11 0.888764 0.546290 0.787602
O O12 0.745478 0.462151 0.052242
O O13 0.563975 0.746761 0.581946
O O14 0.183917 0.955702 0.771059
O O15 0.984429 0.645852 0.323944
#
# Coordination Sequence:
#
# PCOD8038224 Si02
#       7
#     2   2   2   2   2   2   2
#     4   8  16  32  53  77 109 135 172 221 279 306
#     4  10  18  36  56  77 109 144 183 212 271 329
#     4  10  19  33  58  83 107 142 181 224 275 323
#     4  10  19  37  56  81 110 139 180 235 270 303
#     4   9  22  36  53  78 114 146 177 226 270 314
#     4   9  21  36  54  76 115 152 178 206 284 325
#     4  10  17  34  60  81 102 149 180 220 266 332
#
# _framework density 18.791083
#
# number of rings (size 3 to 8) (size 9 to 14) (size 15 to 20)
#    0.857    2.000    4.286    0.429    4.000    1.143 
#    0.000    1.429    0.000    0.000    0.000    0.000 
#    0.000    0.000    0.000    0.000    0.000    0.000 
#
# Total GULP energy -173458.990888 kJ/mol
# GULP energy per Si atom -12389.927921 kJ/mol
# Density = 1.874831 g / cm^3
# Si number density = 18.791083 Si / 1000 Ang^3
#
#
#
# Elastic Constant Matrix: (Units=GPa)
#
#
# Indices 1 2 3 4 5 6 
#
# 1 46.9337 10.1905 1.5064 -9.2453 -4.9188 -12.9816
# 2 10.1905 90.5392 7.3557 -25.5034 9.9078 -20.1138
# 3 1.5064 7.3557 86.6428 -29.7899 4.6721 -13.9352
# 4 -9.2453 -25.5034 -29.7899 26.2282 -4.1065 5.8221
# 5 -4.9188 9.9078 4.6721 -4.1065 17.4031 -4.3314
# 6 -12.9816 -20.1138 -13.9352 5.8221 -4.3314 26.9299
#
#
#
# Elastic Compliance Matrix: (Units=1/GPa)
#
#
# Indices 1 2 3 4 5 6 
#
# 1 0.033193 0.007112 0.011824 0.029155 0.014893 0.023523
# 2 0.007112 0.024365 0.014032 0.037307 -0.001711 0.020546
# 3 0.011824 0.014032 0.029740 0.047339 0.004010 0.021980
# 4 0.029155 0.037307 0.047339 0.131904 0.015468 0.040385
# 5 0.014893 -0.001711 0.004010 0.015468 0.069138 0.015752
# 6 0.023523 0.020546 0.021980 0.040385 0.015752 0.068995
#
#
# Mechanical properties :
#
#
# Convention : Reuss Voigt Hill
#
# Bulk Modulus (GPa) = 6.52603 29.13566 17.83084
# Shear Modulus (GPa) = 14.59946 27.78312 21.19129
#
# Velocity S-wave (km/s) = 2.79038 3.84933 3.36181
# Velocity P-wave (km/s) = 3.72319 5.94098 4.95769
#
# Compressibility (1/GPa) = 0.15323248
#
# Stress axis : x y z
#
# Youngs Moduli (GPa) = 30.12662 41.04256 33.62482
#
# Poissons Ratio (x) = -0.29189 -0.39757
# Poissons Ratio (y) = -0.21426 -0.47181
# Poissons Ratio (z) = -0.35620 -0.57590
#
# Static dielectric constant tensor:
#      x y z
#    x 3.512160 -0.107360 0.037460 
#    y -0.107360 3.422090 -0.514480 
#    z 0.037460 -0.514480 3.311820 
# 
# 
# High freq. dielectric constant tensor:
#      x y z
#    x 1.729710 -0.009770 0.000910 
#    y -0.009770 1.720770 -0.036640 
#    z 0.000910 -0.036640 1.690740 
# 
# From -- ./inp_files/310682.got.cif
#   From: 2010.06.25/outbox.cif.g09.slc.cpg/sg2_156_cif.got.tgz:310682.got - 2010.06.27 13:26:56.
