data_PCOD8038849
_publ_section_title
;
Structure prediction by ZEFSAII (Michael W. Deem and Ramdas Pophale) SiO2 
 PCOD8038849
Probable space group: P -1
;
_chemical_formula_sum "Si O2"
_cell_formula_units_Z 16
_cell_length_a 22.278129
_cell_length_b 8.405469
_cell_length_c 12.229206
_cell_angle_alpha 56.350171
_cell_angle_beta 32.689050
_cell_angle_gamma 46.171313
_cell_volume 889.813532
_symmetry_space_group_name_H-M "P -1"
_symmetry_group_IT_number 2
_symmetry_cell_setting 'triclinic'
loop_
_space_group_symop_operation_xyz
x,y,z
-x,-y,-z
loop_
_atom_site_type_symbol
_atom_site_label
_atom_site_fract_x
_atom_site_fract_y
_atom_site_fract_z
Si Si1 0.085685 0.480094 0.566565
Si Si2 0.329050 0.026967 0.332463
Si Si3 0.330755 0.693874 0.110648
Si Si4 0.139762 0.713009 0.568924
Si Si5 0.490087 0.811665 0.956761
Si Si6 0.918824 0.279361 0.904295
Si Si7 0.176074 0.812986 0.707481
Si Si8 0.890286 0.181754 0.750098
O O1 0.197405 0.255907 0.428242
O O2 0.126038 0.512833 0.614750
O O3 0.063359 0.683154 0.447667
O O4 0.954000 0.473704 0.777802
O O5 0.384174 0.946037 0.158776
O O6 0.298440 0.850747 0.504687
O O7 0.428549 0.065473 0.238491
O O8 0.252806 0.728278 0.328981
O O9 0.421716 0.799131 0.954135
O O10 0.234672 0.814145 0.111263
O O11 0.414671 0.435241 0.050873
O O12 0.177287 0.670374 0.655264
O O13 0.004863 0.933743 0.673440
O O14 0.851809 0.286952 0.889518
O O15 0.819316 0.318208 0.139867
O O16 0.047946 0.048588 0.811120
#
# Coordination Sequence:
#
# PCOD8038849 Si02
#       8
#     2   2   2   2   2   2   2   2
#     4  10  18  31  49  79 104 124 166 204 253 295
#     4  10  18  31  50  77 100 127 167 213 242 283
#     4  10  18  32  49  77 101 128 164 205 255 293
#     4  10  18  32  50  75 105 132 157 202 261 293
#     4  10  19  30  51  77  98 130 169 205 249 281
#     4   9  19  32  50  72  98 138 164 199 246 299
#     4   9  18  33  50  70 102 133 168 199 243 299
#     4  10  19  33  50  73 108 131 156 204 258 299
#
# _framework density 17.981294999999999
#
# number of rings (size 3 to 8) (size 9 to 14) (size 15 to 20)
#    0.000    2.250    3.750    1.875    0.000    0.500 
#    2.250    0.000    0.000    1.500    0.000    0.000 
#    0.000    0.000    0.000    0.000    0.000    0.000 
#
# Total GULP energy -198330.824934 kJ/mol
# GULP energy per Si atom -12395.676558 kJ/mol
# Density = 1.794037 g / cm^3
# Si number density = 17.981295 Si / 1000 Ang^3
#
#
#
# Elastic Constant Matrix: (Units=GPa)
#
#
# Indices 1 2 3 4 5 6 
#
# 1 126.3697 35.2071 63.9246 -14.1245 -1.4964 20.9336
# 2 35.2071 42.4191 23.3513 7.2520 -2.8504 11.3440
# 3 63.9246 23.3513 92.7473 -8.7946 -2.1984 7.0135
# 4 -14.1245 7.2520 -8.7946 22.3647 3.9029 2.6291
# 5 -1.4964 -2.8504 -2.1984 3.9029 32.2151 0.7417
# 6 20.9336 11.3440 7.0135 2.6291 0.7417 16.2018
#
#
#
# Elastic Compliance Matrix: (Units=1/GPa)
#
#
# Indices 1 2 3 4 5 6 
#
# 1 0.018932 -0.009298 -0.008164 0.014031 -0.001818 -0.016610
# 2 -0.009298 0.040949 -0.004865 -0.020700 0.005631 -0.011451
# 3 -0.008164 -0.004865 0.017423 0.002580 -0.000071 0.005997
# 4 0.014031 -0.020700 0.002580 0.064525 -0.008480 -0.014835
# 5 -0.001818 0.005631 -0.000071 -0.008480 0.032516 -0.001675
# 6 -0.016610 -0.011451 0.005997 -0.014835 -0.001675 0.091089
#
#
# Mechanical properties :
#
#
# Convention : Reuss Voigt Hill
#
# Bulk Modulus (GPa) = 30.62748 56.27801 43.45274
# Shear Modulus (GPa) = 15.57777 23.42653 19.50215
#
# Velocity S-wave (km/s) = 2.94654 3.61339 3.29687
# Velocity P-wave (km/s) = 5.35221 6.98389 6.22177
#
# Compressibility (1/GPa) = 0.03265042
#
# Stress axis : x y z
#
# Youngs Moduli (GPa) = 52.82134 24.42081 57.39426
#
# Poissons Ratio (x) = 0.22705 0.46857
# Poissons Ratio (y) = 0.49111 0.27922
# Poissons Ratio (z) = 0.43124 0.11881
#
# Static dielectric constant tensor:
#      x y z
#    x 3.538910 0.316100 -0.095290 
#    y 0.316100 3.135960 0.038930 
#    z -0.095290 0.038930 3.463670 
# 
# 
# High freq. dielectric constant tensor:
#      x y z
#    x 1.700560 0.032890 -0.011280 
#    y 0.032890 1.667510 0.015010 
#    z -0.011280 0.015010 1.681510 
# 
# From -- ./inp_files/266827.got.cif
#   From: 2010.06.25/outbox.cif.g09.slc.cpg/sg2_134_cif.got.tgz:266827.got - 2010.06.27 13:26:56.
