data_PCOD8038712
_publ_section_title
;
Structure prediction by ZEFSAII (Michael W. Deem and Ramdas Pophale) SiO2 
 PCOD8038712
Probable space group: P -1
;
_chemical_formula_sum "Si O2"
_cell_formula_units_Z 14
_cell_length_a 17.511934
_cell_length_b 9.838316
_cell_length_c 11.701441
_cell_angle_alpha 100.185525
_cell_angle_beta 53.509497
_cell_angle_gamma 143.502702
_cell_volume 748.698982
_symmetry_space_group_name_H-M "P -1"
_symmetry_group_IT_number 2
_symmetry_cell_setting 'triclinic'
loop_
_space_group_symop_operation_xyz
x,y,z
-x,-y,-z
loop_
_atom_site_type_symbol
_atom_site_label
_atom_site_fract_x
_atom_site_fract_y
_atom_site_fract_z
Si Si1 0.675883 0.045378 0.158204
Si Si2 0.616743 0.176412 0.037736
Si Si3 0.473038 0.227775 0.335316
Si Si4 0.915524 0.513579 0.194906
Si Si5 0.188238 0.165657 0.801348
Si Si6 0.649803 0.422480 0.441873
Si Si7 0.922306 0.241587 0.279135
O O1 0.588539 0.004713 0.115913
O O2 0.792451 0.319226 0.160591
O O3 0.496539 0.744436 0.344553
O O4 0.847487 0.149775 0.993827
O O5 0.520886 0.188383 0.182962
O O6 0.851819 0.508394 0.847100
O O7 0.500000 0.000000 0.000000
O O8 0.615643 0.548571 0.251411
O O9 0.516944 0.207712 0.416118
O O10 0.236909 0.970995 0.505226
O O11 0.812854 0.514713 0.342934
O O12 0.913566 0.385648 0.265238
O O13 0.229506 0.282433 0.654356
O O14 0.150983 0.955039 0.787527
O O15 0.000000 0.000000 0.000000
#
# Coordination Sequence:
#
# PCOD8038712 Si02
#       7
#     2   2   2   2   2   2   2
#     4  10  18  30  51  79 107 136 177 225 278 319
#     4  11  23  37  53  79 118 156 186 223 266 329
#     4  10  20  33  56  81 115 139 181 224 285 329
#     4  10  18  29  54  81 109 137 171 230 287 318
#     4  10  20  34  54  87 119 143 170 228 302 332
#     4  10  19  32  53  83 116 134 173 227 288 333
#     4  11  20  36  56  87 113 140 183 233 282 331
#
# _framework density 18.699104999999999
#
# number of rings (size 3 to 8) (size 9 to 14) (size 15 to 20)
#    0.857    0.857    4.286    1.714    4.000    0.571 
#    0.000    0.000    0.000    0.857    0.000   10.000 
#    0.000    0.000    0.000    0.000    0.000    0.000 
#
# Total GULP energy -173475.471785 kJ/mol
# GULP energy per Si atom -12391.105127 kJ/mol
# Density = 1.865654 g / cm^3
# Si number density = 18.699105 Si / 1000 Ang^3
#
#
#
# Elastic Constant Matrix: (Units=GPa)
#
#
# Indices 1 2 3 4 5 6 
#
# 1 33.5116 17.6797 19.9936 -1.3671 0.8176 6.1797
# 2 17.6797 66.8988 40.4119 -2.5466 0.5543 11.2141
# 3 19.9936 40.4119 148.1346 -27.3994 -16.8398 6.2643
# 4 -1.3671 -2.5466 -27.3994 23.7572 -4.1856 2.7943
# 5 0.8176 0.5543 -16.8398 -4.1856 30.4972 3.3425
# 6 6.1797 11.2141 6.2643 2.7943 3.3425 25.2842
#
#
#
# Elastic Compliance Matrix: (Units=1/GPa)
#
#
# Indices 1 2 3 4 5 6 
#
# 1 0.036367 -0.006702 -0.003781 -0.002993 -0.002884 -0.004267
# 2 -0.006702 0.021020 -0.005950 -0.005021 -0.003609 -0.005179
# 3 -0.003781 -0.005950 0.013197 0.016476 0.010071 -0.002859
# 4 -0.002993 -0.005021 0.016476 0.065080 0.019393 -0.010880
# 5 -0.002884 -0.003609 0.010071 0.019393 0.042020 -0.007888
# 6 -0.004267 -0.005179 -0.002859 -0.010880 -0.007888 0.045844
#
#
# Mechanical properties :
#
#
# Convention : Reuss Voigt Hill
#
# Bulk Modulus (GPa) = 26.51168 44.96837 35.74003
# Shear Modulus (GPa) = 18.58964 27.27172 22.93068
#
# Velocity S-wave (km/s) = 3.15643 3.82311 3.50565
# Velocity P-wave (km/s) = 5.24337 6.60218 5.96162
#
# Compressibility (1/GPa) = 0.03771923
#
# Stress axis : x y z
#
# Youngs Moduli (GPa) = 27.49742 47.57357 75.77252
#
# Poissons Ratio (x) = 0.31881 0.28651
# Poissons Ratio (y) = 0.18427 0.45085
# Poissons Ratio (z) = 0.10397 0.28306
#
# Static dielectric constant tensor:
#      x y z
#    x 3.151300 -0.120820 -0.196110 
#    y -0.120820 2.986240 -0.319350 
#    z -0.196110 -0.319350 3.852580 
# 
# 
# High freq. dielectric constant tensor:
#      x y z
#    x 1.700930 -0.023160 -0.020340 
#    y -0.023160 1.664120 -0.026220 
#    z -0.020340 -0.026220 1.754210 
# 
# From -- ./inp_files/457219.got.cif
#   From: 2010.06.25/outbox.cif.g09.slc.cpg/sg2_229_cif.got.tgz:457219.got - 2010.06.27 13:26:56.
