data_PCOD8038793
_publ_section_title
;
Structure prediction by ZEFSAII (Michael W. Deem and Ramdas Pophale) SiO2 
 PCOD8038793
Probable space group: P -1
;
_chemical_formula_sum "Si O2"
_cell_formula_units_Z 16
_cell_length_a 11.417950
_cell_length_b 14.691704
_cell_length_c 22.464775
_cell_angle_alpha 151.190527
_cell_angle_beta 30.040817
_cell_angle_gamma 131.034546
_cell_volume 823.852868
_symmetry_space_group_name_H-M "P -1"
_symmetry_group_IT_number 2
_symmetry_cell_setting 'triclinic'
loop_
_space_group_symop_operation_xyz
x,y,z
-x,-y,-z
loop_
_atom_site_type_symbol
_atom_site_label
_atom_site_fract_x
_atom_site_fract_y
_atom_site_fract_z
Si Si1 0.140064 0.123452 0.588576
Si Si2 0.144069 0.131124 0.380453
Si Si3 0.412884 0.285095 0.855435
Si Si4 0.080560 0.467028 0.513601
Si Si5 0.866812 0.382370 0.748227
Si Si6 0.984723 0.465998 0.056391
Si Si7 0.615198 0.248192 0.112944
Si Si8 0.363886 0.132543 0.047965
O O1 0.168263 0.307965 0.717427
O O2 0.952506 0.209759 0.664075
O O3 0.430652 0.964116 0.349577
O O4 0.023751 0.999546 0.610831
O O5 0.052871 0.263883 0.435542
O O6 0.098712 0.300457 0.550804
O O7 0.447603 0.974579 0.152244
O O8 0.612342 0.391523 0.832369
O O9 0.200419 0.389706 0.062357
O O10 0.271261 0.347139 0.889628
O O11 0.384448 0.416237 0.351337
O O12 0.000000 0.500000 0.500000
O O13 0.897960 0.674996 0.749597
O O14 0.839827 0.321771 0.050538
O O15 0.000000 0.500000 0.000000
O O16 0.516219 0.221977 0.076298
O O17 0.726400 0.025961 0.969728
#
# Coordination Sequence:
#
# PCOD8038793 Si02
#       8
#     2   2   2   2   2   2   2   2
#     4  10  21  36  55  83 116 148 181 227 280 328
#     4  10  18  30  54  84 106 132 180 232 274 321
#     4   9  19  35  53  77 111 151 181 215 275 327
#     4   9  19  32  51  76 102 140 183 227 269 312
#     4   9  19  35  56  83 112 140 188 239 270 318
#     4  11  23  35  52  83 120 151 179 217 273 345
#     4   9  19  35  50  73 108 142 181 223 265 322
#     4   9  18  34  55  73 100 144 186 228 270 306
#
# _framework density 19.420943000000001
#
# number of rings (size 3 to 8) (size 9 to 14) (size 15 to 20)
#    0.000    2.500    0.000    3.000    0.000   11.500 
#    0.000    0.000    0.000   12.000    0.000   24.500 
#    0.000    0.000    0.000    0.000    0.000    0.000 
#
# Total GULP energy -198250.755929 kJ/mol
# GULP energy per Si atom -12390.672246 kJ/mol
# Density = 1.937674 g / cm^3
# Si number density = 19.420943 Si / 1000 Ang^3
#
#
#
# Elastic Constant Matrix: (Units=GPa)
#
#
# Indices 1 2 3 4 5 6 
#
# 1 86.4772 40.5571 40.1842 -2.5530 -6.1597 0.3501
# 2 40.5571 95.7236 39.3669 3.0112 -0.9171 -1.2889
# 3 40.1842 39.3669 169.4070 2.0739 3.8497 -1.4700
# 4 -2.5530 3.0112 2.0739 25.6611 -7.6131 4.0413
# 5 -6.1597 -0.9171 3.8497 -7.6131 29.9989 0.2599
# 6 0.3501 -1.2889 -1.4700 4.0413 0.2599 19.0664
#
#
#
# Elastic Compliance Matrix: (Units=1/GPa)
#
#
# Indices 1 2 3 4 5 6 
#
# 1 0.015937 -0.005792 -0.002602 0.004091 0.004483 -0.001813
# 2 -0.005792 0.013707 -0.001738 -0.002642 -0.001230 0.001476
# 3 -0.002602 -0.001738 0.006988 -0.001279 -0.001815 0.000765
# 4 0.004091 -0.002642 -0.001279 0.045070 0.012448 -0.010075
# 5 0.004483 -0.001230 -0.001815 0.012448 0.037640 -0.003457
# 6 -0.001813 0.001476 0.000765 -0.010075 -0.003457 0.054823
#
#
# Mechanical properties :
#
#
# Convention : Reuss Voigt Hill
#
# Bulk Modulus (GPa) = 61.10071 65.75825 63.42948
# Shear Modulus (GPa) = 25.01452 30.37858 27.69655
#
# Velocity S-wave (km/s) = 3.59279 3.95931 3.78049
# Velocity P-wave (km/s) = 6.98143 7.40503 7.19635
#
# Compressibility (1/GPa) = 0.01636642
#
# Stress axis : x y z
#
# Youngs Moduli (GPa) = 62.74776 72.95596 143.11084
#
# Poissons Ratio (x) = 0.42259 0.37237
# Poissons Ratio (y) = 0.36346 0.24875
# Poissons Ratio (z) = 0.16327 0.12681
#
# Static dielectric constant tensor:
#      x y z
#    x 3.348130 -0.197800 0.172540 
#    y -0.197800 3.232000 0.043950 
#    z 0.172540 0.043950 4.468090 
# 
# 
# High freq. dielectric constant tensor:
#      x y z
#    x 1.723240 -0.022710 0.007170 
#    y -0.022710 1.722850 0.008160 
#    z 0.007170 0.008160 1.788500 
# 
# From -- ./inp_files/458122.got.cif
#   From: 2010.06.25/outbox.cif.g09.slc.cpg/sg2_230_cif.got.tgz:458122.got - 2010.06.27 13:26:56.
