data_PCOD8038027
_publ_section_title
;
Structure prediction by ZEFSAII (Michael W. Deem and Ramdas Pophale) SiO2 
 PCOD8038027
Probable space group: P -1
;
_chemical_formula_sum "Si O2"
_cell_formula_units_Z 16
_cell_length_a 16.759865
_cell_length_b 18.716459
_cell_length_c 9.049177
_cell_angle_alpha 116.203549
_cell_angle_beta 130.303409
_cell_angle_gamma 22.799529
_cell_volume 714.697314
_symmetry_space_group_name_H-M "P -1"
_symmetry_group_IT_number 2
_symmetry_cell_setting 'triclinic'
loop_
_space_group_symop_operation_xyz
x,y,z
-x,-y,-z
loop_
_atom_site_type_symbol
_atom_site_label
_atom_site_fract_x
_atom_site_fract_y
_atom_site_fract_z
Si Si1 0.889395 0.851959 0.938926
Si Si2 0.463852 0.435124 0.079709
Si Si3 0.772975 0.359863 0.311814
Si Si4 0.216252 0.929663 0.307254
Si Si5 0.088770 0.991016 0.871034
Si Si6 0.913659 0.704406 0.328674
Si Si7 0.357447 0.266971 0.470826
Si Si8 0.309342 0.152697 0.124422
O O1 0.829017 0.831499 0.974348
O O2 0.161010 0.630068 0.967519
O O3 0.602947 0.066962 0.696414
O O4 0.979565 0.871739 0.142606
O O5 0.445768 0.447827 0.891102
O O6 0.602119 0.423511 0.281908
O O7 0.688034 0.204170 0.158997
O O8 0.931607 0.320941 0.544682
O O9 0.973317 0.163511 0.271501
O O10 0.513290 0.766729 0.535064
O O11 0.204728 0.915328 0.107877
O O12 0.190918 0.868690 0.324667
O O13 0.108732 0.498557 0.454187
O O14 0.652211 0.904062 0.308784
O O15 0.802883 0.746965 0.080664
O O16 0.220960 0.285201 0.251726
#
# Coordination Sequence:
#
# PCOD8038027 Si02
#       8
#     2   2   2   2   2   2   2   2
#     4  11  22  37  60  91 125 149 187 250 300 348
#     4  10  19  31  58  90 123 148 187 244 295 348
#     4  10  17  33  58  88 117 152 194 240 288 345
#     4   9  16  30  55  85 119 142 190 241 277 343
#     4   9  18  30  51  89 119 151 177 232 301 340
#     4  11  24  41  62  84 113 163 204 239 288 350
#     4  11  21  37  63  90 112 152 203 247 288 339
#     4  11  25  43  58  83 122 159 199 243 291 351
#
# _framework density 22.387101000000001
#
# number of rings (size 3 to 8) (size 9 to 14) (size 15 to 20)
#    0.000    1.750    3.750    2.250    3.500    1.500 
#    0.000    0.625    0.000    1.500    0.000    0.000 
#    0.000    0.000    0.000    0.000    0.000    0.000 
#
# Total GULP energy -198215.940097 kJ/mol
# GULP energy per Si atom -12388.496256 kJ/mol
# Density = 2.233615 g / cm^3
# Si number density = 22.387101 Si / 1000 Ang^3
#
#
#
# Elastic Constant Matrix: (Units=GPa)
#
#
# Indices 1 2 3 4 5 6 
#
# 1 99.3178 21.2269 10.5469 2.2020 28.1341 10.3770
# 2 21.2269 90.0286 10.9886 -2.9017 2.4218 12.0881
# 3 10.5469 10.9886 28.3677 0.4931 15.2106 0.7950
# 4 2.2020 -2.9017 0.4931 22.9991 2.5027 12.1821
# 5 28.1341 2.4218 15.2106 2.5027 27.2440 6.2592
# 6 10.3770 12.0881 0.7950 12.1821 6.2592 23.3695
#
#
#
# Elastic Compliance Matrix: (Units=1/GPa)
#
#
# Indices 1 2 3 4 5 6 
#
# 1 0.015715 -0.003923 0.005983 -0.000047 -0.019221 0.000020
# 2 -0.003923 0.014861 -0.009560 0.007970 0.010209 -0.012509
# 3 0.005983 -0.009560 0.058177 -0.006258 -0.040550 0.014433
# 4 -0.000047 0.007970 -0.006258 0.064760 0.005897 -0.039227
# 5 -0.019221 0.010209 -0.040550 0.005897 0.082460 -0.020526
# 6 0.000020 -0.012509 0.014433 -0.039227 -0.020526 0.074708
#
#
# Mechanical properties :
#
#
# Convention : Reuss Voigt Hill
#
# Bulk Modulus (GPa) = 13.55863 33.69323 23.62593
# Shear Modulus (GPa) = 14.27482 26.38598 20.33040
#
# Velocity S-wave (km/s) = 2.52789 3.43683 3.01679
# Velocity P-wave (km/s) = 3.81967 5.55266 4.76560
#
# Compressibility (1/GPa) = 0.07375375
#
# Stress axis : x y z
#
# Youngs Moduli (GPa) = 63.63170 67.28903 17.18880
#
# Poissons Ratio (x) = 0.26396 -0.10284
# Poissons Ratio (y) = 0.24961 0.16433
# Poissons Ratio (z) = -0.38070 0.64331
#
# Static dielectric constant tensor:
#      x y z
#    x 4.163050 0.169810 0.697860 
#    y 0.169810 4.139190 -0.089870 
#    z 0.697860 -0.089870 3.767330 
# 
# 
# High freq. dielectric constant tensor:
#      x y z
#    x 1.861250 0.011080 0.049200 
#    y 0.011080 1.894700 -0.001370 
#    z 0.049200 -0.001370 1.843630 
# 
# From -- ./inp_files/337767.got.cif
#   From: 2010.06.25/outbox.cif.g09.slc.cpg/sg2_169_cif.got.tgz:337767.got - 2010.06.27 13:26:56.
