data_PCOD8038103
_publ_section_title
;
Structure prediction by ZEFSAII (Michael W. Deem and Ramdas Pophale) SiO2 
 PCOD8038103
Probable space group: P -1
;
_chemical_formula_sum "Si O2"
_cell_formula_units_Z 16
_cell_length_a 13.386405
_cell_length_b 12.960698
_cell_length_c 7.644414
_cell_angle_alpha 131.069478
_cell_angle_beta 68.379377
_cell_angle_gamma 119.641501
_cell_volume 867.132430
_symmetry_space_group_name_H-M "P -1"
_symmetry_group_IT_number 2
_symmetry_cell_setting 'triclinic'
loop_
_space_group_symop_operation_xyz
x,y,z
-x,-y,-z
loop_
_atom_site_type_symbol
_atom_site_label
_atom_site_fract_x
_atom_site_fract_y
_atom_site_fract_z
Si Si1 0.167159 0.440201 0.890734
Si Si2 0.953158 0.031127 0.297245
Si Si3 0.215011 0.667551 0.806938
Si Si4 0.166234 0.194919 0.136789
Si Si5 0.058128 0.824277 0.187751
Si Si6 0.332894 0.329695 0.469872
Si Si7 0.428860 0.634225 0.551691
Si Si8 0.240787 0.512101 0.295093
O O1 0.163533 0.546590 0.855762
O O2 0.038352 0.334247 0.896670
O O3 0.240982 0.337403 0.682606
O O4 0.220694 0.540745 0.138227
O O5 0.047115 0.166726 0.287500
O O6 0.902462 0.089423 0.558938
O O7 0.017279 0.920817 0.188373
O O8 0.848554 0.942482 0.135650
O O9 0.356428 0.729386 0.787458
O O10 0.175354 0.586260 0.553430
O O11 0.169462 0.800316 0.006996
O O12 0.268444 0.213567 0.231082
O O13 0.191748 0.338128 0.162807
O O14 0.393088 0.489883 0.532229
O O15 0.433109 0.281285 0.439779
O O16 0.378853 0.582376 0.329892
#
# Coordination Sequence:
#
# PCOD8038103 Si02
#       8
#     2   2   2   2   2   2   2   2
#     4  11  18  30  53  79 104 133 166 204 261 305
#     4  10  21  32  50  71 100 141 177 205 245 288
#     4   9  20  35  49  74 110 134 159 210 259 305
#     4  10  17  34  50  75 105 128 173 215 241 301
#     4  11  20  34  49  72 103 139 172 206 250 303
#     4   9  15  30  55  72 104 131 163 209 256 294
#     4   7  16  32  49  76 100 135 158 204 261 302
#     4   9  18  33  50  80 104 127 169 201 260 306
#
# _framework density 18.451623000000001
#
# number of rings (size 3 to 8) (size 9 to 14) (size 15 to 20)
#    0.750    1.750    3.750    0.375    0.000    1.000 
#    4.500    0.000    0.000    1.500    0.000    0.000 
#    0.000    0.000    0.000    0.000    0.000    0.000 
#
# Total GULP energy -198212.724419 kJ/mol
# GULP energy per Si atom -12388.295276 kJ/mol
# Density = 1.840963 g / cm^3
# Si number density = 18.451623 Si / 1000 Ang^3
#
#
#
# Elastic Constant Matrix: (Units=GPa)
#
#
# Indices 1 2 3 4 5 6 
#
# 1 95.4792 8.1076 69.5033 -1.9871 -1.1929 11.9614
# 2 8.1076 20.1589 10.7209 -6.2595 5.8392 -1.5486
# 3 69.5033 10.7209 112.9280 -15.8290 14.4878 0.3525
# 4 -1.9871 -6.2595 -15.8290 22.5526 -4.4575 6.0765
# 5 -1.1929 5.8392 14.4878 -4.4575 28.3257 -2.3029
# 6 11.9614 -1.5486 0.3525 6.0765 -2.3029 18.3233
#
#
#
# Elastic Compliance Matrix: (Units=1/GPa)
#
#
# Indices 1 2 3 4 5 6 
#
# 1 0.024682 -0.006565 -0.016483 -0.005894 0.008816 -0.013288
# 2 -0.006565 0.059059 0.001791 0.014051 -0.010895 0.003213
# 3 -0.016483 0.001791 0.021589 0.010694 -0.009959 0.005698
# 4 -0.005894 0.014051 0.010694 0.059124 -0.000517 -0.014843
# 5 0.008816 -0.010895 -0.009959 -0.000517 0.042858 -0.000926
# 6 -0.013288 0.003213 0.005698 -0.014843 -0.000926 0.068217
#
#
# Mechanical properties :
#
#
# Convention : Reuss Voigt Hill
#
# Bulk Modulus (GPa) = 15.91961 45.02553 30.47257
# Shear Modulus (GPa) = 14.75001 23.18927 18.96964
#
# Velocity S-wave (km/s) = 2.83041 3.54893 3.20984
# Velocity P-wave (km/s) = 4.39638 6.42247 5.50346
#
# Compressibility (1/GPa) = 0.06281559
#
# Stress axis : x y z
#
# Youngs Moduli (GPa) = 40.51542 16.93210 46.31998
#
# Poissons Ratio (x) = 0.11116 0.76351
# Poissons Ratio (y) = 0.26598 -0.08295
# Poissons Ratio (z) = 0.66783 -0.03032
#
# Static dielectric constant tensor:
#      x y z
#    x 3.632710 0.102120 0.135130 
#    y 0.102120 3.106840 -0.163620 
#    z 0.135130 -0.163620 3.379580 
# 
# 
# High freq. dielectric constant tensor:
#      x y z
#    x 1.698420 -0.000110 0.017780 
#    y -0.000110 1.686420 -0.016440 
#    z 0.017780 -0.016440 1.708660 
# 
# From -- ./inp_files/292544.got.cif
#   From: 2010.06.25/outbox.cif.g09.slc.cpg/sg2_147_cif.got.tgz:292544.got - 2010.06.27 13:26:56.
