data_PCOD8038300
_publ_section_title
;
Structure prediction by ZEFSAII (Michael W. Deem and Ramdas Pophale) SiO2 
 PCOD8038300
Probable space group: P -1
;
_chemical_formula_sum "Si O2"
_cell_formula_units_Z 16
_cell_length_a 12.000000
_cell_length_b 12.000000
_cell_length_c 12.000000
_cell_angle_alpha 110.000000
_cell_angle_beta 80.000000
_cell_angle_gamma 40.000000
_cell_volume 722.981415
_symmetry_space_group_name_H-M "P -1"
_symmetry_group_IT_number 2
_symmetry_cell_setting 'triclinic'
loop_
_space_group_symop_operation_xyz
x,y,z
-x,-y,-z
loop_
_atom_site_type_symbol
_atom_site_label
_atom_site_fract_x
_atom_site_fract_y
_atom_site_fract_z
Si Si1 0.078380 0.246717 0.204837
Si Si2 0.644427 0.410303 0.793801
Si Si3 0.245729 0.046414 0.859057
Si Si4 0.400987 0.645760 0.682203
Si Si5 0.107334 0.586553 0.158950
Si Si6 0.879705 0.052574 0.823773
Si Si7 0.751355 0.770292 0.445991
Si Si8 0.471448 0.974455 0.196925
O O1 0.303844 0.120086 0.164803
O O2 0.832290 0.556546 0.374120
O O3 0.084608 0.123295 0.239525
O O4 0.098577 0.192538 0.052537
O O5 0.577004 0.435652 0.684395
O O6 0.761561 0.431929 0.798479
O O7 0.838702 0.136193 0.729368
O O8 0.369870 0.666298 0.980576
O O9 0.069068 0.196621 0.833124
O O10 0.425582 0.764234 0.730249
O O11 0.420719 0.995631 0.798916
O O12 0.500000 0.500000 0.500000
O O13 0.104060 0.893846 0.808884
O O14 0.960926 0.643179 0.293623
O O15 0.304292 0.328041 0.962069
O O16 0.695818 0.888314 0.614346
O O17 0.500000 0.000000 0.500000
#
# Coordination Sequence:
#
# PCOD8038300 Si02
#       8
#     2   2   2   2   2   2   2   2
#     4  12  26  45  77 108 148 201 251 317 377 461
#     4  11  25  50  78 105 149 197 256 319 369 455
#     4  12  24  46  74 104 154 199 248 310 385 451
#     4  12  28  46  73 110 150 202 250 315 379 447
#     4  12  24  49  77 111 151 203 253 312 384 454
#     4  11  25  49  74 109 143 196 264 298 382 443
#     4  12  27  46  71 112 151 196 249 311 379 457
#     4  12  25  47  72 114 148 197 251 310 386 453
#
# _framework density 22.130583000000001
#
# number of rings (size 3 to 8) (size 9 to 14) (size 15 to 20)
#    0.000    0.250    6.250    2.250    3.500    1.500 
#    4.500    0.000    0.000    0.000    0.000    0.000 
#    0.000    0.000    0.000    0.000    0.000    0.000 
#
# Total GULP energy -198246.890133 kJ/mol
# GULP energy per Si atom -12390.430633 kJ/mol
# Density = 2.208021 g / cm^3
# Si number density = 22.130583 Si / 1000 Ang^3
#
#
#
# Elastic Constant Matrix: (Units=GPa)
#
#
# Indices 1 2 3 4 5 6 
#
# 1 115.6500 59.8958 36.6674 -3.2489 6.2685 -18.3581
# 2 59.8958 176.1140 43.5972 -10.6214 4.7850 -12.6660
# 3 36.6674 43.5972 133.4329 -12.1787 17.6393 10.0790
# 4 -3.2489 -10.6214 -12.1787 42.8673 -7.3171 7.6897
# 5 6.2685 4.7850 17.6393 -7.3171 30.1085 -0.4802
# 6 -18.3581 -12.6660 10.0790 7.6897 -0.4802 53.4332
#
#
#
# Elastic Compliance Matrix: (Units=1/GPa)
#
#
# Indices 1 2 3 4 5 6 
#
# 1 0.011698 -0.003137 -0.002521 -0.001443 -0.000748 0.003952
# 2 -0.003137 0.007232 -0.001551 0.001092 0.000690 0.000778
# 3 -0.002521 -0.001551 0.009730 0.002033 -0.004489 -0.003402
# 4 -0.001443 0.001092 0.002033 0.025706 0.005115 -0.004274
# 5 -0.000748 0.000690 -0.004489 0.005115 0.037138 0.000351
# 6 0.003952 0.000778 -0.003402 -0.004274 0.000351 0.021517
#
#
# Mechanical properties :
#
#
# Convention : Reuss Voigt Hill
#
# Bulk Modulus (GPa) = 70.21746 78.39085 74.30415
# Shear Modulus (GPa) = 37.82505 44.28425 41.05465
#
# Velocity S-wave (km/s) = 4.13870 4.47815 4.31177
# Velocity P-wave (km/s) = 7.39162 7.88906 7.64439
#
# Compressibility (1/GPa) = 0.01424147
#
# Stress axis : x y z
#
# Youngs Moduli (GPa) = 85.48445 138.27283 102.77402
#
# Poissons Ratio (x) = 0.43374 0.25911
# Poissons Ratio (y) = 0.26815 0.15944
# Poissons Ratio (z) = 0.21552 0.21451
#
# Static dielectric constant tensor:
#      x y z
#    x 4.258140 -0.183180 0.024120 
#    y -0.183180 4.899430 -0.050190 
#    z 0.024120 -0.050190 4.205410 
# 
# 
# High freq. dielectric constant tensor:
#      x y z
#    x 1.887410 -0.013430 0.008390 
#    y -0.013430 1.912860 -0.001720 
#    z 0.008390 -0.001720 1.877190 
# 
# From -- ./inp_files/428554.got.cif
#   From: 2010.06.25/outbox.ucp.g09.slc.cvg/sg2_215_cif.got.tgz:428554.got - 2010.06.28 11:54:26.
