data_PCOD8038107
_publ_section_title
;
Structure prediction by ZEFSAII (Michael W. Deem and Ramdas Pophale) SiO2 
 PCOD8038107
Probable space group: P -1
;
_chemical_formula_sum "Si O2"
_cell_formula_units_Z 14
_cell_length_a 18.907092
_cell_length_b 12.131427
_cell_length_c 12.343083
_cell_angle_alpha 149.452958
_cell_angle_beta 39.784331
_cell_angle_gamma 144.338480
_cell_volume 815.989230
_symmetry_space_group_name_H-M "P -1"
_symmetry_group_IT_number 2
_symmetry_cell_setting 'triclinic'
loop_
_space_group_symop_operation_xyz
x,y,z
-x,-y,-z
loop_
_atom_site_type_symbol
_atom_site_label
_atom_site_fract_x
_atom_site_fract_y
_atom_site_fract_z
Si Si1 0.705080 0.180041 0.903580
Si Si2 0.938460 0.627520 0.106050
Si Si3 0.210660 0.166043 0.426947
Si Si4 0.583785 0.599590 0.881239
Si Si5 0.806256 0.071836 0.986461
Si Si6 0.635648 0.327214 0.417435
Si Si7 0.504914 0.103428 0.911698
O O1 0.639101 0.223208 0.912297
O O2 0.755450 0.984759 0.649896
O O3 0.816121 0.441876 0.028413
O O4 0.606309 0.057041 0.011607
O O5 0.907647 0.806885 0.368952
O O6 0.049169 0.793621 0.030398
O O7 0.000000 0.500000 0.000000
O O8 0.327493 0.433315 0.497166
O O9 0.183750 0.003486 0.212926
O O10 0.610519 0.386514 0.619657
O O11 0.716250 0.828891 0.954069
O O12 0.500000 0.500000 0.000000
O O13 0.515888 0.684128 0.941110
O O14 0.750698 0.263499 0.222141
O O15 0.507332 0.098250 0.334523
#
# Coordination Sequence:
#
# PCOD8038107 Si02
#       7
#     2   2   2   2   2   2   2
#     4  11  21  30  49  77 111 142 167 201 252 317
#     4  12  19  30  49  75 111 143 166 206 252 303
#     4  11  17  30  47  75 106 143 167 197 253 306
#     4  10  21  37  58  77  96 132 178 222 259 295
#     4  10  20  31  48  79 103 130 174 211 251 302
#     4  10  17  34  52  74 104 134 168 216 255 298
#     4  10  20  35  47  77 109 135 175 206 250 312
#
# _framework density 17.157088000000002
#
# number of rings (size 3 to 8) (size 9 to 14) (size 15 to 20)
#    0.000    1.429    8.571    0.429    0.000    4.000 
#    0.000    0.000    0.000    0.857    0.000    3.000 
#    0.000    0.000    0.000    0.000    0.000    0.000 
#
# Total GULP energy -173444.140003 kJ/mol
# GULP energy per Si atom -12388.867143 kJ/mol
# Density = 1.711804 g / cm^3
# Si number density = 17.157088 Si / 1000 Ang^3
#
#
#
# Elastic Constant Matrix: (Units=GPa)
#
#
# Indices 1 2 3 4 5 6 
#
# 1 65.8976 45.6008 37.2773 -5.3567 -2.1990 20.2314
# 2 45.6008 107.8686 46.8301 -10.4749 3.5233 16.8114
# 3 37.2773 46.8301 136.4614 -0.7701 -7.2347 6.3156
# 4 -5.3567 -10.4749 -0.7701 23.6289 3.2303 1.7425
# 5 -2.1990 3.5233 -7.2347 3.2303 14.5440 1.8196
# 6 20.2314 16.8114 6.3156 1.7425 1.8196 25.2495
#
#
#
# Elastic Compliance Matrix: (Units=1/GPa)
#
#
# Indices 1 2 3 4 5 6 
#
# 1 0.028431 -0.007318 -0.004138 0.003619 0.005400 -0.017512
# 2 -0.007318 0.015219 -0.003432 0.006241 -0.007473 -0.003303
# 3 -0.004138 -0.003432 0.009766 -0.003096 0.005378 0.002984
# 4 0.003619 0.006241 -0.003096 0.048105 -0.012097 -0.008729
# 5 0.005400 -0.007473 0.005378 -0.012097 0.077427 -0.005441
# 6 -0.017512 -0.003303 0.002984 -0.008729 -0.005441 0.056083
#
#
# Mechanical properties :
#
#
# Convention : Reuss Voigt Hill
#
# Bulk Modulus (GPa) = 42.30165 63.29376 52.79771
# Shear Modulus (GPa) = 18.33610 24.71911 21.52760
#
# Velocity S-wave (km/s) = 3.27267 3.79984 3.54607
# Velocity P-wave (km/s) = 6.24416 7.49817 6.89971
#
# Compressibility (1/GPa) = 0.02363974
#
# Stress axis : x y z
#
# Youngs Moduli (GPa) = 35.17326 65.70690 102.39949
#
# Poissons Ratio (x) = 0.48086 0.42371
# Poissons Ratio (y) = 0.25741 0.35142
# Poissons Ratio (z) = 0.14554 0.22549
#
# Static dielectric constant tensor:
#      x y z
#    x 3.033380 0.353150 -0.112420 
#    y 0.353150 3.401650 0.157100 
#    z -0.112420 0.157100 3.613150 
# 
# 
# High freq. dielectric constant tensor:
#      x y z
#    x 1.610550 0.029100 -0.013910 
#    y 0.029100 1.648660 0.016320 
#    z -0.013910 0.016320 1.681980 
# 
# From -- ./inp_files/62054.got.cif
#   From: 2010.06.25/outbox.cif.g09.slc.cpg/sg2_32_cif.got.tgz:62054.got - 2010.06.27 13:26:56.
