data_PCOD8038033
_publ_section_title
;
Structure prediction by ZEFSAII (Michael W. Deem and Ramdas Pophale) SiO2 
 PCOD8038033
Probable space group: P -1
;
_chemical_formula_sum "Si O2"
_cell_formula_units_Z 16
_cell_length_a 8.865469
_cell_length_b 8.911434
_cell_length_c 14.262406
_cell_angle_alpha 101.545206
_cell_angle_beta 141.324699
_cell_angle_gamma 74.223374
_cell_volume 677.473394
_symmetry_space_group_name_H-M "P -1"
_symmetry_group_IT_number 2
_symmetry_cell_setting 'triclinic'
loop_
_space_group_symop_operation_xyz
x,y,z
-x,-y,-z
loop_
_atom_site_type_symbol
_atom_site_label
_atom_site_fract_x
_atom_site_fract_y
_atom_site_fract_z
Si Si1 0.695355 0.790981 0.053210
Si Si2 0.245087 0.619082 0.798934
Si Si3 0.746320 0.059362 0.434591
Si Si4 0.274610 0.235834 0.499191
Si Si5 0.456668 0.954449 0.125021
Si Si6 0.040304 0.536667 0.885230
Si Si7 0.541757 0.659408 0.583865
Si Si8 0.431909 0.658627 0.179248
O O1 0.686200 0.863682 0.162343
O O2 0.926556 0.650419 0.135082
O O3 0.435892 0.736929 0.899216
O O4 0.733916 0.930621 0.019042
O O5 0.170489 0.604275 0.868593
O O6 0.366333 0.447780 0.801019
O O7 0.010428 0.678940 0.626182
O O8 0.703094 0.237283 0.475594
O O9 0.707835 0.941695 0.483567
O O10 0.542109 0.064678 0.257225
O O11 0.000000 0.000000 0.500000
O O12 0.371745 0.233886 0.440630
O O13 0.443501 0.325500 0.657762
O O14 0.337547 0.825824 0.105306
O O15 0.754006 0.614399 0.760062
O O16 0.185220 0.580500 0.054549
O O17 0.500000 0.500000 0.500000
#
# Coordination Sequence:
#
# PCOD8038033 Si02
#       8
#     2   2   2   2   2   2   2   2
#     4  10  18  33  58  96 132 170 215 268 325 378
#     4  10  17  33  58  96 133 173 216 264 319 387
#     4  11  25  45  69  96 134 172 225 272 328 398
#     4  10  23  40  68  97 134 176 216 274 332 389
#     4  10  20  33  59  96 131 162 222 265 317 382
#     4  10  20  38  62  86 131 173 216 270 324 390
#     4  11  27  47  67  95 135 175 221 273 339 395
#     4  10  18  36  61  98 130 174 219 265 322 396
#
# _framework density 23.617163000000001
#
# number of rings (size 3 to 8) (size 9 to 14) (size 15 to 20)
#    0.000    1.750    2.500    2.250    1.750    4.000 
#    0.000    6.250    0.000    0.000    0.000    0.000 
#    0.000    0.000    0.000    0.000    0.000    0.000 
#
# Total GULP energy -198330.773626 kJ/mol
# GULP energy per Si atom -12395.673352 kJ/mol
# Density = 2.356341 g / cm^3
# Si number density = 23.617163 Si / 1000 Ang^3
#
#
#
# Elastic Constant Matrix: (Units=GPa)
#
#
# Indices 1 2 3 4 5 6 
#
# 1 36.2588 35.9515 14.4156 -15.5978 8.8941 -15.2757
# 2 35.9515 145.8335 44.5106 -7.4126 2.7531 -25.6810
# 3 14.4156 44.5106 108.6838 -12.1932 0.0645 -13.9997
# 4 -15.5978 -7.4126 -12.1932 30.5079 -0.1662 -2.7445
# 5 8.8941 2.7531 0.0645 -0.1662 31.3369 -9.1568
# 6 -15.2757 -25.6810 -13.9997 -2.7445 -9.1568 29.7147
#
#
#
# Elastic Compliance Matrix: (Units=1/GPa)
#
#
# Indices 1 2 3 4 5 6 
#
# 1 0.064427 -0.010314 0.002780 0.033799 -0.009713 0.025645
# 2 -0.010314 0.010605 -0.002995 -0.003608 0.002859 0.003000
# 3 0.002780 -0.002995 0.011339 0.005680 0.000941 0.004997
# 4 0.033799 -0.003608 0.005680 0.053323 -0.002877 0.020971
# 5 -0.009713 0.002859 0.000941 -0.002877 0.037051 0.009073
# 6 0.025645 0.003000 0.004997 0.020971 0.009073 0.056517
#
#
# Mechanical properties :
#
#
# Convention : Reuss Voigt Hill
#
# Bulk Modulus (GPa) = 15.31107 53.39237 34.35172
# Shear Modulus (GPa) = 18.10991 31.37179 24.74085
#
# Velocity S-wave (km/s) = 2.77214 3.64860 3.24014
# Velocity P-wave (km/s) = 4.09188 6.35659 5.34555
#
# Compressibility (1/GPa) = 0.06531223
#
# Stress axis : x y z
#
# Youngs Moduli (GPa) = 15.52145 94.29702 88.18798
#
# Poissons Ratio (x) = 0.97256 -0.24512
# Poissons Ratio (y) = 0.16008 0.26414
# Poissons Ratio (z) = -0.04314 0.28244
#
# Static dielectric constant tensor:
#      x y z
#    x 3.751380 0.211900 0.049610 
#    y 0.211900 4.137890 -0.271000 
#    z 0.049610 -0.271000 4.059600 
# 
# 
# High freq. dielectric constant tensor:
#      x y z
#    x 1.910070 0.003870 -0.021200 
#    y 0.003870 1.946010 -0.006960 
#    z -0.021200 -0.006960 1.933190 
# 
# From -- ./inp_files/495329.got.cif
#   From: 2010.06.25/outbox.cif.g09.slc.cpg/sg2_248_cif.got.tgz:495329.got - 2010.06.27 13:26:56.
