data_PCOD8038196
_publ_section_title
;
Structure prediction by ZEFSAII (Michael W. Deem and Ramdas Pophale) SiO2 
 PCOD8038196
Probable space group: P -1
;
_chemical_formula_sum "Si O2"
_cell_formula_units_Z 16
_cell_length_a 9.000000
_cell_length_b 12.000000
_cell_length_c 15.000000
_cell_angle_alpha 130.000000
_cell_angle_beta 70.000000
_cell_angle_gamma 70.000000
_cell_volume 728.972637
_symmetry_space_group_name_H-M "P -1"
_symmetry_group_IT_number 2
_symmetry_cell_setting 'triclinic'
loop_
_space_group_symop_operation_xyz
x,y,z
-x,-y,-z
loop_
_atom_site_type_symbol
_atom_site_label
_atom_site_fract_x
_atom_site_fract_y
_atom_site_fract_z
Si Si1 0.212866 0.647014 0.457163
Si Si2 0.162512 0.880613 0.314573
Si Si3 0.027440 0.567172 0.910330
Si Si4 0.680666 0.076343 0.223721
Si Si5 0.403825 0.374350 0.598788
Si Si6 0.758905 0.488283 0.976939
Si Si7 0.929331 0.209490 0.244118
Si Si8 0.486014 0.842032 0.888215
O O1 0.426138 0.619585 0.390766
O O2 0.154286 0.656280 0.577123
O O3 0.297600 0.438156 0.277162
O O4 0.951644 0.904124 0.607394
O O5 0.138478 0.740562 0.198474
O O6 0.461227 0.698200 0.169471
O O7 0.000000 0.000000 0.500000
O O8 0.287718 0.358797 0.693892
O O9 0.842472 0.559508 0.929718
O O10 0.086275 0.572331 0.000820
O O11 0.890775 0.806396 0.023479
O O12 0.554004 0.158377 0.389848
O O13 0.791811 0.156381 0.230907
O O14 0.489339 0.183885 0.237111
O O15 0.164710 0.612599 0.719405
O O16 0.227268 0.967320 0.047880
O O17 0.500000 0.000000 0.000000
#
# Coordination Sequence:
#
# PCOD8038196 Si02
#       8
#     2   2   2   2   2   2   2   2
#     4  11  23  42  68  99 129 176 226 272 318 397
#     4  11  25  47  73  92 133 181 225 266 332 397
#     4  11  23  41  72  99 134 166 217 285 335 374
#     4  11  21  40  65  99 130 173 219 267 319 398
#     4  11  20  39  72  97 126 176 225 266 321 387
#     4  10  25  47  66 103 130 169 227 282 328 387
#     4  11  21  41  67  93 133 176 223 266 312 392
#     4  12  25  39  60  96 141 175 209 263 336 394
#
# _framework density 21.948698
#
# number of rings (size 3 to 8) (size 9 to 14) (size 15 to 20)
#    0.000    1.000    3.750    4.125    0.000    5.500 
#    2.250    3.125    0.000    0.000    0.000    0.000 
#    0.000    0.000    0.000    0.000    0.000    0.000 
#
# Total GULP energy -198215.738281 kJ/mol
# GULP energy per Si atom -12388.483643 kJ/mol
# Density = 2.189874 g / cm^3
# Si number density = 21.948698 Si / 1000 Ang^3
#
#
#
# Elastic Constant Matrix: (Units=GPa)
#
#
# Indices 1 2 3 4 5 6 
#
# 1 107.5145 22.5587 58.8968 -2.9486 23.8646 5.0778
# 2 22.5587 42.1023 26.0383 1.9887 7.3173 1.8285
# 3 58.8968 26.0383 158.3155 -2.0605 17.3322 8.5495
# 4 -2.9486 1.9887 -2.0605 49.1884 6.4051 -6.8791
# 5 23.8646 7.3173 17.3322 6.4051 42.1981 5.4341
# 6 5.0778 1.8285 8.5495 -6.8791 5.4341 9.1475
#
#
#
# Elastic Compliance Matrix: (Units=1/GPa)
#
#
# Indices 1 2 3 4 5 6 
#
# 1 0.013491 -0.004029 -0.003782 0.001817 -0.005873 0.001706
# 2 -0.004029 0.028036 -0.002961 -0.001535 -0.000983 -0.001170
# 3 -0.003782 -0.002961 0.008512 -0.000535 -0.000036 -0.005646
# 4 0.001817 -0.001535 -0.000535 0.024563 -0.007171 0.022531
# 5 -0.005873 -0.000983 -0.000036 -0.007171 0.030902 -0.020260
# 6 0.001706 -0.001170 -0.005646 0.022531 -0.020260 0.142863
#
#
# Mechanical properties :
#
#
# Convention : Reuss Voigt Hill
#
# Bulk Modulus (GPa) = 35.09373 58.10221 46.59797
# Shear Modulus (GPa) = 17.89480 33.46935 25.68208
#
# Velocity S-wave (km/s) = 2.85845 3.90922 3.42438
# Velocity P-wave (km/s) = 5.18825 6.84874 6.07549
#
# Compressibility (1/GPa) = 0.02849512
#
# Stress axis : x y z
#
# Youngs Moduli (GPa) = 74.12361 35.66835 117.47654
#
# Poissons Ratio (x) = 0.14370 0.44428
# Poissons Ratio (y) = 0.29863 0.34790
# Poissons Ratio (z) = 0.28032 0.10563
#
# Static dielectric constant tensor:
#      x y z
#    x 4.082520 0.143450 0.177180 
#    y 0.143450 4.289260 -0.041980 
#    z 0.177180 -0.041980 4.420860 
# 
# 
# High freq. dielectric constant tensor:
#      x y z
#    x 1.856760 0.004490 0.010040 
#    y 0.004490 1.853930 -0.002450 
#    z 0.010040 -0.002450 1.898790 
# 
# From -- ./inp_files/500821.got.cif
#   From: 2010.06.25/outbox.ucp.g09.slc.cvg/sg2_251_cif.got.tgz:500821.got - 2010.06.28 11:54:26.
