data_PCOD8038581
_publ_section_title
;
Structure prediction by ZEFSAII (Michael W. Deem and Ramdas Pophale) SiO2 
 PCOD8038581
Probable space group: P -1
;
_chemical_formula_sum "Si O2"
_cell_formula_units_Z 10
_cell_length_a 8.250025
_cell_length_b 12.296856
_cell_length_c 12.585757
_cell_angle_alpha 145.047360
_cell_angle_beta 71.659655
_cell_angle_gamma 131.602887
_cell_volume 461.833900
_symmetry_space_group_name_H-M "P -1"
_symmetry_group_IT_number 2
_symmetry_cell_setting 'triclinic'
loop_
_space_group_symop_operation_xyz
x,y,z
-x,-y,-z
loop_
_atom_site_type_symbol
_atom_site_label
_atom_site_fract_x
_atom_site_fract_y
_atom_site_fract_z
Si Si1 0.219699 0.778395 0.610281
Si Si2 0.698134 0.348048 0.048987
Si Si3 0.005744 0.861585 0.534201
Si Si4 0.072363 0.327261 0.957691
Si Si5 0.486852 0.790071 0.393058
O O1 0.096548 0.804989 0.566065
O O2 0.401849 0.763625 0.510343
O O3 0.000000 0.500000 0.500000
O O4 0.395276 0.050590 0.871087
O O5 0.778873 0.470361 0.012234
O O6 0.751506 0.562627 0.292821
O O7 0.855995 0.295280 0.013655
O O8 0.940719 0.015201 0.714723
O O9 0.227807 0.063179 0.557826
O O10 0.281900 0.480642 0.131388
O O11 0.500000 0.000000 0.500000
#
# Coordination Sequence:
#
# PCOD8038581 Si02
#       5
#     2   2   2   2   2
#     4  11  24  42  61  85 125 167 198 241 301 356
#     4  11  21  38  63  92 122 153 197 253 300 349
#     4  11  22  40  65  93 118 156 201 249 300 354
#     4  11  20  37  67  95 120 148 200 259 299 346
#     4  10  17  38  63  86 122 154 193 250 297 343
#
# _framework density 21.652806999999999
#
# number of rings (size 3 to 8) (size 9 to 14) (size 15 to 20)
#    0.000    1.200    8.000    2.400    0.000    0.800 
#    0.000    2.000    0.000    0.000    0.000    0.000 
#    0.000    0.000    0.000    0.000    0.000    0.000 
#
# Total GULP energy -124004.285456 kJ/mol
# GULP energy per Si atom -12400.428546 kJ/mol
# Density = 2.160352 g / cm^3
# Si number density = 21.652807 Si / 1000 Ang^3
#
#
#
# Elastic Constant Matrix: (Units=GPa)
#
#
# Indices 1 2 3 4 5 6 
#
# 1 21.4631 14.3299 28.9355 3.4834 -9.2361 -1.2415
# 2 14.3299 80.2784 39.2902 17.4487 -0.0330 5.8118
# 3 28.9355 39.2902 223.3677 6.4153 7.4595 4.9788
# 4 3.4834 17.4487 6.4153 24.2524 5.0119 -0.1889
# 5 -9.2361 -0.0330 7.4595 5.0119 45.6085 -2.4186
# 6 -1.2415 5.8118 4.9788 -0.1889 -2.4186 10.3165
#
#
#
# Elastic Compliance Matrix: (Units=1/GPa)
#
#
# Indices 1 2 3 4 5 6 
#
# 1 0.075333 -0.009541 -0.009064 -0.005207 0.018526 0.023063
# 2 -0.009541 0.018033 -0.001333 -0.011117 -0.001069 -0.011118
# 3 -0.009064 -0.001333 0.006043 0.001288 -0.003177 -0.003978
# 4 -0.005207 -0.011117 0.001288 0.051047 -0.006650 0.004390
# 5 0.018526 -0.001069 -0.003177 -0.006650 0.027494 0.010689
# 6 0.023063 -0.011118 -0.003978 0.004390 0.010689 0.110477
#
#
# Mechanical properties :
#
#
# Convention : Reuss Voigt Hill
#
# Bulk Modulus (GPa) = 16.79755 54.46893 35.63324
# Shear Modulus (GPa) = 14.36173 32.20572 23.28373
#
# Velocity S-wave (km/s) = 2.57820 3.86083 3.28277
# Velocity P-wave (km/s) = 4.07889 6.71453 5.55528
#
# Compressibility (1/GPa) = 0.05953250
#
# Stress axis : x y z
#
# Youngs Moduli (GPa) = 13.27445 55.45392 165.47181
#
# Poissons Ratio (x) = 0.52911 1.49978
# Poissons Ratio (y) = 0.12666 0.22060
# Poissons Ratio (z) = 0.12031 0.07393
#
# Static dielectric constant tensor:
#      x y z
#    x 4.009880 0.199140 -0.017450 
#    y 0.199140 3.686270 -0.214380 
#    z -0.017450 -0.214380 4.364660 
# 
# 
# High freq. dielectric constant tensor:
#      x y z
#    x 1.839380 -0.003590 0.004320 
#    y -0.003590 1.789750 -0.008610 
#    z 0.004320 -0.008610 1.878280 
# 
# From -- ./inp_files/144132.got.cif
#   From: 2010.06.25/outbox.cif.g09.slc.cpg/sg2_73_cif.got.tgz:144132.got - 2010.06.27 13:26:56.
