data_PCOD8038482
_publ_section_title
;
Structure prediction by ZEFSAII (Michael W. Deem and Ramdas Pophale) SiO2 
 PCOD8038482
Probable space group: P -1
;
_chemical_formula_sum "Si O2"
_cell_formula_units_Z 16
_cell_length_a 32.911577
_cell_length_b 16.820069
_cell_length_c 9.441429
_cell_angle_alpha 135.163809
_cell_angle_beta 144.835380
_cell_angle_gamma 17.481347
_cell_volume 825.463155
_symmetry_space_group_name_H-M "P -1"
_symmetry_group_IT_number 2
_symmetry_cell_setting 'triclinic'
loop_
_space_group_symop_operation_xyz
x,y,z
-x,-y,-z
loop_
_atom_site_type_symbol
_atom_site_label
_atom_site_fract_x
_atom_site_fract_y
_atom_site_fract_z
Si Si1 0.087034 0.695654 0.204418
Si Si2 0.536843 0.668397 0.509434
Si Si3 0.598012 0.594350 0.265157
Si Si4 0.031281 0.758011 0.440310
Si Si5 0.576182 0.917479 0.262007
Si Si6 0.896836 0.136911 0.025851
Si Si7 0.358280 0.713724 0.992756
Si Si8 0.626733 0.885891 0.813721
O O1 0.242267 0.556853 0.513882
O O2 0.983950 0.832418 0.231732
O O3 0.169199 0.456960 0.073207
O O4 0.951212 0.938378 0.001662
O O5 0.620681 0.539663 0.428546
O O6 0.424355 0.948770 0.544898
O O7 0.685007 0.451482 0.782381
O O8 0.408836 0.748258 0.275501
O O9 0.622077 0.436385 0.059143
O O10 0.407285 0.932089 0.095363
O O11 0.212994 0.420276 0.550487
O O12 0.054069 0.842967 0.691241
O O13 0.850363 0.965139 0.250803
O O14 0.438848 0.047050 0.131052
O O15 0.500000 0.000000 0.000000
O O16 0.000000 0.000000 0.000000
O O17 0.500000 0.500000 0.000000
O O18 0.500000 0.000000 0.500000
#
# Coordination Sequence:
#
# PCOD8038482 Si02
#       8
#     2   2   2   2   2   2   2   2
#     4  11  20  35  62  95 117 151 211 253 293 355
#     4  11  21  38  58  90 124 162 191 245 309 353
#     4  10  17  36  63  86 117 157 202 243 300 358
#     4  12  23  37  64  92 115 161 209 249 296 360
#     4  12  22  36  61  96 125 146 200 263 302 346
#     4  12  21  35  60  90 124 153 201 257 301 347
#     4  10  23  40  58  87 126 166 200 237 303 372
#     4  10  18  35  60  90 119 155 192 256 307 341
#
# _framework density 19.383057999999998
#
# number of rings (size 3 to 8) (size 9 to 14) (size 15 to 20)
#    0.000    1.000    8.750    1.125    0.000    0.500 
#    0.000    0.625    0.000    0.750    0.000    0.000 
#    0.000    0.000    0.000    0.000    0.000    0.000 
#
# Total GULP energy -198228.880452 kJ/mol
# GULP energy per Si atom -12389.305028 kJ/mol
# Density = 1.933894 g / cm^3
# Si number density = 19.383058 Si / 1000 Ang^3
#
#
#
# Elastic Constant Matrix: (Units=GPa)
#
#
# Indices 1 2 3 4 5 6 
#
# 1 72.3618 34.3573 31.4941 -7.0365 -17.9528 -0.5179
# 2 34.3573 125.8040 28.6699 -12.4376 -2.7980 7.1272
# 3 31.4941 28.6699 71.5409 -7.7898 -0.4373 -1.5683
# 4 -7.0365 -12.4376 -7.7898 28.4809 5.3380 1.1303
# 5 -17.9528 -2.7980 -0.4373 5.3380 36.4662 0.2410
# 6 -0.5179 7.1272 -1.5683 1.1303 0.2410 36.3543
#
#
#
# Elastic Compliance Matrix: (Units=1/GPa)
#
#
# Indices 1 2 3 4 5 6 
#
# 1 0.021678 -0.003973 -0.007928 -0.000514 0.010343 0.000693
# 2 -0.003973 0.009873 -0.001916 0.003206 -0.001677 -0.002163
# 3 -0.007928 -0.001916 0.018563 0.003044 -0.004280 0.000997
# 4 -0.000514 0.003206 0.003044 0.038327 -0.005570 -0.001659
# 5 0.010343 -0.001677 -0.004280 -0.005570 0.033148 0.000245
# 6 0.000693 -0.002163 0.000997 -0.001659 0.000245 0.028034
#
#
# Mechanical properties :
#
#
# Convention : Reuss Voigt Hill
#
# Bulk Modulus (GPa) = 44.48694 50.97213 47.72953
# Shear Modulus (GPa) = 27.06345 31.93930 29.50137
#
# Velocity S-wave (km/s) = 3.74069 4.06371 3.90554
# Velocity P-wave (km/s) = 6.45432 6.95504 6.70936
#
# Compressibility (1/GPa) = 0.02247851
#
# Stress axis : x y z
#
# Youngs Moduli (GPa) = 46.13034 101.28754 53.86998
#
# Poissons Ratio (x) = 0.40246 0.42709
# Poissons Ratio (y) = 0.18330 0.10321
# Poissons Ratio (z) = 0.36573 0.19406
#
# Static dielectric constant tensor:
#      x y z
#    x 3.677990 0.374300 -0.003810 
#    y 0.374300 4.885900 0.191040 
#    z -0.003810 0.191040 3.584530 
# 
# 
# High freq. dielectric constant tensor:
#      x y z
#    x 1.739230 0.004420 -0.012420 
#    y 0.004420 1.781480 0.001720 
#    z -0.012420 0.001720 1.716910 
# 
# From -- ./inp_files/320704.got.cif
#   From: 2010.06.25/outbox.cif.g09.slc.cpg/sg2_161_cif.got.tgz:320704.got - 2010.06.27 13:26:56.
