data_PCOD8038104
_publ_section_title
;
Structure prediction by ZEFSAII (Michael W. Deem and Ramdas Pophale) SiO2 
 PCOD8038104
Probable space group: P -1
;
_chemical_formula_sum "Si O2"
_cell_formula_units_Z 16
_cell_length_a 15.000000
_cell_length_b 12.000000
_cell_length_c 9.000000
_cell_angle_alpha 70.000000
_cell_angle_beta 80.000000
_cell_angle_gamma 30.000000
_cell_volume 734.803614
_symmetry_space_group_name_H-M "P -1"
_symmetry_group_IT_number 2
_symmetry_cell_setting 'triclinic'
loop_
_space_group_symop_operation_xyz
x,y,z
-x,-y,-z
loop_
_atom_site_type_symbol
_atom_site_label
_atom_site_fract_x
_atom_site_fract_y
_atom_site_fract_z
Si Si1 0.960100 0.926149 0.635061
Si Si2 0.365966 0.666253 0.635495
Si Si3 0.374171 0.187823 0.586926
Si Si4 0.858587 0.414619 0.746571
Si Si5 0.266462 0.882011 0.872928
Si Si6 0.350082 0.401458 0.739423
Si Si7 0.242964 0.737403 0.212901
Si Si8 0.475833 0.196317 0.117199
O O1 0.760314 0.114138 0.543909
O O2 0.926083 0.996602 0.785548
O O3 0.000000 0.000000 0.500000
O O4 0.124637 0.642214 0.701572
O O5 0.268097 0.807486 0.754830
O O6 0.379654 0.508687 0.678685
O O7 0.572761 0.479866 0.639545
O O8 0.184150 0.446227 0.442333
O O9 0.432142 0.238220 0.645569
O O10 0.500000 0.000000 0.500000
O O11 0.375375 0.076202 0.753683
O O12 0.826205 0.315615 0.760834
O O13 0.723459 0.599022 0.840163
O O14 0.077730 0.172310 0.826713
O O15 0.438544 0.775985 0.870371
O O16 0.299847 0.740886 0.046927
O O17 0.445904 0.231859 0.932529
#
# Coordination Sequence:
#
# PCOD8038104 Si02
#       8
#     2   2   2   2   2   2   2   2
#     4  10  22  36  58  93 127 168 207 256 323 382
#     4  11  21  37  63  99 134 166 208 257 327 390
#     4  10  24  43  67  90 119 175 224 266 319 371
#     4  11  22  40  65  93 134 171 213 263 315 382
#     4  12  23  40  65 102 134 170 209 260 326 389
#     4  11  20  41  65  89 128 162 214 268 318 375
#     4  12  21  38  62  98 137 167 208 259 329 392
#     4  11  23  42  65  93 129 175 218 262 312 378
#
# _framework density 21.774525000000001
#
# number of rings (size 3 to 8) (size 9 to 14) (size 15 to 20)
#    0.000    1.000    2.500    6.750    0.000    0.500 
#    0.000    0.000    2.750    4.500    0.000    0.000 
#    0.000    0.000    0.000    0.000    0.000    0.000 
#
# Total GULP energy -198210.593435 kJ/mol
# GULP energy per Si atom -12388.162090 kJ/mol
# Density = 2.172497 g / cm^3
# Si number density = 21.774525 Si / 1000 Ang^3
#
#
#
# Elastic Constant Matrix: (Units=GPa)
#
#
# Indices 1 2 3 4 5 6 
#
# 1 49.8443 21.3828 19.9978 1.5119 3.6371 12.6963
# 2 21.3828 95.9588 20.1837 4.3180 5.1267 9.3848
# 3 19.9978 20.1837 104.5686 -14.3830 -3.6960 13.7486
# 4 1.5119 4.3180 -14.3830 50.1070 7.6814 7.1192
# 5 3.6371 5.1267 -3.6960 7.6814 30.3448 -1.3684
# 6 12.6963 9.3848 13.7486 7.1192 -1.3684 41.3211
#
#
#
# Elastic Compliance Matrix: (Units=1/GPa)
#
#
# Indices 1 2 3 4 5 6 
#
# 1 0.024821 -0.004118 -0.003323 -0.000096 -0.002915 -0.005665
# 2 -0.004118 0.011875 -0.001596 -0.001020 -0.001484 -0.000774
# 3 -0.003323 -0.001596 0.011468 0.003817 0.000961 -0.003058
# 4 -0.000096 -0.001020 0.003817 0.022683 -0.005323 -0.005093
# 5 -0.002915 -0.001484 0.000961 -0.005323 0.035154 0.002994
# 6 -0.005665 -0.000774 -0.003058 -0.005093 0.002994 0.028111
#
#
# Mechanical properties :
#
#
# Convention : Reuss Voigt Hill
#
# Bulk Modulus (GPa) = 33.23302 41.50006 37.36654
# Shear Modulus (GPa) = 30.82303 36.94173 33.88238
#
# Velocity S-wave (km/s) = 3.76647 4.12340 3.94897
# Velocity P-wave (km/s) = 5.84898 6.46299 6.16363
#
# Compressibility (1/GPa) = 0.03009055
#
# Stress axis : x y z
#
# Youngs Moduli (GPa) = 40.28837 84.20905 87.20224
#
# Poissons Ratio (x) = 0.34675 0.28981
# Poissons Ratio (y) = 0.16590 0.13913
# Poissons Ratio (z) = 0.13389 0.13436
#
# Static dielectric constant tensor:
#      x y z
#    x 3.817980 -0.126470 0.250090 
#    y -0.126470 4.526830 -0.394120 
#    z 0.250090 -0.394120 4.510000 
# 
# 
# High freq. dielectric constant tensor:
#      x y z
#    x 1.818380 0.005500 0.008840 
#    y 0.005500 1.876670 -0.004850 
#    z 0.008840 -0.004850 1.879780 
# 
# From -- ./inp_files/257612.got.cif
#   From: 2010.06.25/outbox.ucp.g09.slc.cvg/sg2_129_cif.got.tgz:257612.got - 2010.06.28 11:54:26.
