data_PCOD8038243
_publ_section_title
;
Structure prediction by ZEFSAII (Michael W. Deem and Ramdas Pophale) SiO2 
 PCOD8038243
Probable space group: P -1
;
_chemical_formula_sum "Si O2"
_cell_formula_units_Z 16
_cell_length_a 9.000000
_cell_length_b 12.000000
_cell_length_c 21.000000
_cell_angle_alpha 30.000000
_cell_angle_beta 50.000000
_cell_angle_gamma 40.000000
_cell_volume 727.418465
_symmetry_space_group_name_H-M "P -1"
_symmetry_group_IT_number 2
_symmetry_cell_setting 'triclinic'
loop_
_space_group_symop_operation_xyz
x,y,z
-x,-y,-z
loop_
_atom_site_type_symbol
_atom_site_label
_atom_site_fract_x
_atom_site_fract_y
_atom_site_fract_z
Si Si1 0.201621 0.941582 0.604557
Si Si2 0.992571 0.862767 0.167066
Si Si3 0.387982 0.933359 0.418803
Si Si4 0.436645 0.379945 0.229918
Si Si5 0.098968 0.267107 0.221242
Si Si6 0.889681 0.534851 0.446137
Si Si7 0.725564 0.884186 0.037592
Si Si8 0.527276 0.202050 0.056119
O O1 0.285939 0.893644 0.531625
O O2 0.438214 0.772199 0.663653
O O3 0.053079 0.822713 0.728404
O O4 0.039095 0.258142 0.504154
O O5 0.163590 0.609673 0.200089
O O6 0.909743 0.762748 0.296359
O O7 0.757459 0.108263 0.079866
O O8 0.146066 0.974558 0.092384
O O9 0.614779 0.650427 0.472770
O O10 0.459108 0.148470 0.295273
O O11 0.189333 0.059998 0.357677
O O12 0.556931 0.514295 0.094300
O O13 0.310523 0.234771 0.137840
O O14 0.914023 0.570768 0.140985
O O15 0.000000 0.500000 0.500000
O O16 0.619735 0.964894 0.097383
O O17 0.500000 0.000000 0.000000
#
# Coordination Sequence:
#
# PCOD8038243 Si02
#       8
#     2   2   2   2   2   2   2   2
#     4  12  27  46  66 102 146 183 230 288 343 418
#     4  11  22  45  71 100 139 177 232 291 341 407
#     4  12  24  44  69 102 136 186 237 279 346 415
#     4  11  22  43  73  97 137 179 231 295 344 405
#     4  12  27  44  71 103 143 187 226 284 356 415
#     4  12  25  42  71 104 134 184 240 286 342 404
#     4  11  26  45  70 105 141 181 226 289 356 412
#     4  11  25  45  70 106 137 180 236 291 343 410
#
# _framework density 21.995591999999998
#
# number of rings (size 3 to 8) (size 9 to 14) (size 15 to 20)
#    0.000    0.500    3.750    6.000    1.750    5.500 
#    0.000    0.000    0.000    0.000    0.000    0.000 
#    0.000    0.000    0.000    0.000    0.000    0.000 
#
# Total GULP energy -198291.093252 kJ/mol
# GULP energy per Si atom -12393.193328 kJ/mol
# Density = 2.194553 g / cm^3
# Si number density = 21.995592 Si / 1000 Ang^3
#
#
#
# Elastic Constant Matrix: (Units=GPa)
#
#
# Indices 1 2 3 4 5 6 
#
# 1 67.4899 29.4132 20.2970 0.8158 0.3924 -17.6155
# 2 29.4132 137.5276 48.6677 1.7985 0.8189 -27.4722
# 3 20.2970 48.6677 113.1968 1.6997 7.9645 -7.0863
# 4 0.8158 1.7985 1.6997 45.2336 -5.9966 4.4226
# 5 0.3924 0.8189 7.9645 -5.9966 40.4555 -2.5093
# 6 -17.6155 -27.4722 -7.0863 4.4226 -2.5093 34.7391
#
#
#
# Elastic Compliance Matrix: (Units=1/GPa)
#
#
# Indices 1 2 3 4 5 6 
#
# 1 0.018158 -0.001593 -0.002122 -0.000851 0.000623 0.007668
# 2 -0.001593 0.010294 -0.003767 -0.000784 0.000850 0.006725
# 3 -0.002122 -0.003767 0.010872 -0.000323 -0.002213 -0.001956
# 4 -0.000851 -0.000784 -0.000323 0.022970 0.003256 -0.003807
# 5 0.000623 0.000850 -0.002213 0.003256 0.025736 0.001981
# 6 0.007668 0.006725 -0.001956 -0.003807 0.001981 0.038221
#
#
# Mechanical properties :
#
#
# Convention : Reuss Voigt Hill
#
# Bulk Modulus (GPa) = 41.05202 57.21891 49.13546
# Shear Modulus (GPa) = 33.48168 38.74139 36.11154
#
# Velocity S-wave (km/s) = 3.90577 4.20137 4.05626
# Velocity P-wave (km/s) = 6.24855 7.04312 6.65770
#
# Compressibility (1/GPa) = 0.02435934
#
# Stress axis : x y z
#
# Youngs Moduli (GPa) = 55.07322 97.14703 91.97710
#
# Poissons Ratio (x) = 0.15479 0.19515
# Poissons Ratio (y) = 0.08775 0.34647
# Poissons Ratio (z) = 0.11685 0.36595
#
# Static dielectric constant tensor:
#      x y z
#    x 4.061760 -0.368520 0.148080 
#    y -0.368520 5.017740 -0.597530 
#    z 0.148080 -0.597530 4.390220 
# 
# 
# High freq. dielectric constant tensor:
#      x y z
#    x 1.859180 -0.024370 0.010440 
#    y -0.024370 1.889050 -0.005610 
#    z 0.010440 -0.005610 1.886610 
# 
# From -- ./inp_files/428464.got.cif
#   From: 2010.06.25/outbox.ucp.g09.slc.cvg/sg2_215_cif.got.tgz:428464.got - 2010.06.28 11:54:26.
