data_PCOD8038745
_publ_section_title
;
Structure prediction by ZEFSAII (Michael W. Deem and Ramdas Pophale) SiO2 
 PCOD8038745
Probable space group: P -1
;
_chemical_formula_sum "Si O2"
_cell_formula_units_Z 10
_cell_length_a 10.788009
_cell_length_b 12.028589
_cell_length_c 10.246253
_cell_angle_alpha 85.582139
_cell_angle_beta 61.579271
_cell_angle_gamma 37.142099
_cell_volume 580.414869
_symmetry_space_group_name_H-M "P -1"
_symmetry_group_IT_number 2
_symmetry_cell_setting 'triclinic'
loop_
_space_group_symop_operation_xyz
x,y,z
-x,-y,-z
loop_
_atom_site_type_symbol
_atom_site_label
_atom_site_fract_x
_atom_site_fract_y
_atom_site_fract_z
Si Si1 0.175070 0.122571 0.058390
Si Si2 0.156085 0.663088 0.050276
Si Si3 0.185315 0.261226 0.282448
Si Si4 0.931760 0.410117 0.662947
Si Si5 0.351452 0.759087 0.008170
O O1 0.478302 0.957958 0.873949
O O2 0.177330 0.990104 0.105960
O O3 0.952060 0.299851 0.039652
O O4 0.070762 0.261484 0.224305
O O5 0.963308 0.737730 0.253852
O O6 0.138662 0.809561 0.059216
O O7 0.483088 0.397672 0.929462
O O8 0.025956 0.488930 0.330317
O O9 0.106257 0.258373 0.460334
O O10 0.594158 0.619249 0.790246
#
# Coordination Sequence:
#
# PCOD8038745 Si02
#       5
#     2   2   2   2   2
#     4  10  18  30  50  71  91 122 151 192 226 267
#     4   9  17  31  54  65  89 125 159 179 229 274
#     4   9  18  31  46  70 100 116 150 191 230 267
#     4   8  16  33  49  64  96 125 144 192 229 268
#     4   8  17  33  50  67  92 119 157 190 221 272
#
# _framework density 17.229054999999999
#
# number of rings (size 3 to 8) (size 9 to 14) (size 15 to 20)
#    1.200    2.000    0.000    0.600    0.000    1.600 
#    0.000    2.000    0.000    0.000    0.000    0.000 
#    0.000    0.000    0.000    0.000    0.000    0.000 
#
# Total GULP energy -123903.996629 kJ/mol
# GULP energy per Si atom -12390.399663 kJ/mol
# Density = 1.718984 g / cm^3
# Si number density = 17.229055 Si / 1000 Ang^3
#
#
#
# Elastic Constant Matrix: (Units=GPa)
#
#
# Indices 1 2 3 4 5 6 
#
# 1 103.8140 40.8735 51.5931 -15.9500 25.6502 6.1699
# 2 40.8735 52.0124 38.2928 -17.5063 13.5253 4.2790
# 3 51.5931 38.2928 83.6910 -8.9501 28.4587 15.0442
# 4 -15.9500 -17.5063 -8.9501 18.8259 -1.3048 -1.9986
# 5 25.6502 13.5253 28.4587 -1.3048 25.2197 -7.8872
# 6 6.1699 4.2790 15.0442 -1.9986 -7.8872 28.0710
#
#
#
# Elastic Compliance Matrix: (Units=1/GPa)
#
#
# Indices 1 2 3 4 5 6 
#
# 1 0.017861 -0.006510 -0.001147 0.006861 -0.014907 -0.006018
# 2 -0.006510 0.043897 -0.015403 0.028902 0.003877 0.006142
# 3 -0.001147 -0.015403 0.042189 -0.002227 -0.048899 -0.033908
# 4 0.006861 0.028902 -0.002227 0.083215 -0.016755 -0.003503
# 5 -0.014907 0.003877 -0.048899 -0.016755 0.126856 0.063343
# 6 -0.006018 0.006142 -0.033908 -0.003503 0.063343 0.071731
#
#
# Mechanical properties :
#
#
# Convention : Reuss Voigt Hill
#
# Bulk Modulus (GPa) = 17.29357 55.67069 36.48213
# Shear Modulus (GPa) = 11.08288 21.67383 16.37835
#
# Velocity S-wave (km/s) = 2.53902 3.55065 3.08656
# Velocity P-wave (km/s) = 4.31911 7.01368 5.82437
#
# Compressibility (1/GPa) = 0.05782495
#
# Stress axis : x y z
#
# Youngs Moduli (GPa) = 55.98751 22.78071 23.70298
#
# Poissons Ratio (x) = 0.14831 0.02720
# Poissons Ratio (y) = 0.36450 0.36510
# Poissons Ratio (z) = 0.06424 0.35089
#
# Static dielectric constant tensor:
#      x y z
#    x 3.194550 0.199150 -0.029890 
#    y 0.199150 2.992520 -0.160340 
#    z -0.029890 -0.160340 2.990580 
# 
# 
# High freq. dielectric constant tensor:
#      x y z
#    x 1.665180 0.015140 -0.002900 
#    y 0.015140 1.648770 -0.017580 
#    z -0.002900 -0.017580 1.634220 
# 
# From -- ./inp_files/19882.got.cif
#   From: 2010.06.25/outbox.cif.g09.slc.cpg/sg2_10_cif.got.tgz:19882.got - 2010.06.27 13:26:56.
