data_PCOD8038268
_publ_section_title
;
Structure prediction by ZEFSAII (Michael W. Deem and Ramdas Pophale) SiO2 
 PCOD8038268
Probable space group: P -1
;
_chemical_formula_sum "Si O2"
_cell_formula_units_Z 16
_cell_length_a 7.845551
_cell_length_b 11.400530
_cell_length_c 11.555715
_cell_angle_alpha 78.434662
_cell_angle_beta 57.441745
_cell_angle_gamma 52.948097
_cell_volume 683.384561
_symmetry_space_group_name_H-M "P -1"
_symmetry_group_IT_number 2
_symmetry_cell_setting 'triclinic'
loop_
_space_group_symop_operation_xyz
x,y,z
-x,-y,-z
loop_
_atom_site_type_symbol
_atom_site_label
_atom_site_fract_x
_atom_site_fract_y
_atom_site_fract_z
Si Si1 0.788349 0.951558 0.615610
Si Si2 0.462467 0.302107 0.413122
Si Si3 0.060805 0.005448 0.672818
Si Si4 0.797427 0.410317 0.259961
Si Si5 0.347647 0.285780 0.703933
Si Si6 0.282433 0.279733 0.257324
Si Si7 0.818303 0.807377 0.025178
Si Si8 0.353792 0.881804 0.033320
O O1 0.634162 0.885410 0.706261
O O2 0.922670 0.897388 0.451023
O O3 0.977913 0.906972 0.662815
O O4 0.624098 0.130754 0.638602
O O5 0.587640 0.386930 0.376405
O O6 0.286942 0.328045 0.581556
O O7 0.289991 0.365421 0.347761
O O8 0.668287 0.124343 0.346680
O O9 0.860713 0.119267 0.821351
O O10 0.655129 0.586393 0.252563
O O11 0.997597 0.370340 0.296674
O O12 0.939227 0.318491 0.110886
O O13 0.155163 0.261146 0.842657
O O14 0.488590 0.250970 0.092490
O O15 0.551890 0.857706 0.060641
O O16 0.802748 0.956169 0.004375
#
# Coordination Sequence:
#
# PCOD8038268 Si02
#       8
#     2   2   2   2   2   2   2   2
#     4  10  19  36  62  93 120 154 201 251 302 357
#     4  11  24  40  62  93 120 161 208 242 299 365
#     4  10  18  34  62  89 120 152 200 247 300 353
#     4  11  23  42  64  87 122 166 199 248 300 357
#     4  11  22  37  64  92 122 159 204 247 303 358
#     4  11  23  40  65  88 124 159 203 250 296 360
#     4  10  18  35  63  92 116 157 207 240 301 363
#     4  10  17  34  61  91 120 154 196 251 299 354
#
# _framework density 23.412877999999999
#
# number of rings (size 3 to 8) (size 9 to 14) (size 15 to 20)
#    0.000    1.500    5.000    1.500    0.000    3.000 
#    0.000    0.000    2.750    6.750    0.000    0.000 
#    0.000    0.000    0.000    0.000    0.000    0.000 
#
# Total GULP energy -198278.012426 kJ/mol
# GULP energy per Si atom -12392.375777 kJ/mol
# Density = 2.335959 g / cm^3
# Si number density = 23.412878 Si / 1000 Ang^3
#
#
#
# Elastic Constant Matrix: (Units=GPa)
#
#
# Indices 1 2 3 4 5 6 
#
# 1 66.9778 11.3879 29.9696 -1.2137 12.5522 -0.9650
# 2 11.3879 73.3948 18.0136 0.1778 -1.2033 2.6606
# 3 29.9696 18.0136 164.1796 -10.6626 5.4271 -1.1981
# 4 -1.2137 0.1778 -10.6626 16.6530 2.2135 1.9676
# 5 12.5522 -1.2033 5.4271 2.2135 19.7506 1.7469
# 6 -0.9650 2.6606 -1.1981 1.9676 1.7469 7.6991
#
#
#
# Elastic Compliance Matrix: (Units=1/GPa)
#
#
# Indices 1 2 3 4 5 6 
#
# 1 0.018926 -0.002674 -0.002683 0.000643 -0.012007 0.005438
# 2 -0.002674 0.014656 -0.001347 -0.000964 0.003617 -0.006184
# 3 -0.002683 -0.001347 0.007044 0.004406 -0.000832 0.000288
# 4 0.000643 -0.000964 0.004406 0.065606 -0.007802 -0.013897
# 5 -0.012007 0.003617 -0.000832 -0.007802 0.060886 -0.014705
# 6 0.005438 -0.006184 0.000288 -0.013897 -0.014705 0.139636
#
#
# Mechanical properties :
#
#
# Convention : Reuss Voigt Hill
#
# Bulk Modulus (GPa) = 36.74007 47.03273 41.88640
# Shear Modulus (GPa) = 15.18674 25.16594 20.17634
#
# Velocity S-wave (km/s) = 2.54962 3.28209 2.93876
# Velocity P-wave (km/s) = 4.93900 5.87323 5.42626
#
# Compressibility (1/GPa) = 0.02721824
#
# Stress axis : x y z
#
# Youngs Moduli (GPa) = 52.83859 68.23015 141.96066
#
# Poissons Ratio (x) = 0.18242 0.38088
# Poissons Ratio (y) = 0.14127 0.19127
# Poissons Ratio (z) = 0.14177 0.09193
#
# Static dielectric constant tensor:
#      x y z
#    x 3.655930 -0.113740 0.008230 
#    y -0.113740 3.980010 -0.115750 
#    z 0.008230 -0.115750 4.614670 
# 
# 
# High freq. dielectric constant tensor:
#      x y z
#    x 1.876190 -0.011160 -0.003460 
#    y -0.011160 1.898080 0.003030 
#    z -0.003460 0.003030 1.951850 
# 
# From -- ./inp_files/392466.got.cif
#   From: 2010.06.25/outbox.cif.g09.slc.cpg/sg2_197_cif.got.tgz:392466.got - 2010.06.27 13:26:56.
