data_PCOD8038892
_publ_section_title
;
Structure prediction by ZEFSAII (Michael W. Deem and Ramdas Pophale) SiO2 
 PCOD8038892
Probable space group: P -1
;
_chemical_formula_sum "Si O2"
_cell_formula_units_Z 16
_cell_length_a 14.984628
_cell_length_b 8.283848
_cell_length_c 9.182999
_cell_angle_alpha 69.017595
_cell_angle_beta 47.370883
_cell_angle_gamma 63.375853
_cell_volume 747.162234
_symmetry_space_group_name_H-M "P -1"
_symmetry_group_IT_number 2
_symmetry_cell_setting 'triclinic'
loop_
_space_group_symop_operation_xyz
x,y,z
-x,-y,-z
loop_
_atom_site_type_symbol
_atom_site_label
_atom_site_fract_x
_atom_site_fract_y
_atom_site_fract_z
Si Si1 0.839526 0.639854 0.788844
Si Si2 0.899465 0.602050 0.425337
Si Si3 0.589549 0.151234 0.208209
Si Si4 0.782180 0.145326 0.417204
Si Si5 0.317790 0.126710 0.560180
Si Si6 0.739853 0.353754 0.129732
Si Si7 0.765684 0.062172 0.781354
Si Si8 0.042827 0.883240 0.221050
O O1 0.824553 0.567794 0.663530
O O2 0.784842 0.853344 0.792209
O O3 0.988344 0.571593 0.699718
O O4 0.755157 0.548399 0.012535
O O5 0.804387 0.691562 0.369199
O O6 0.970773 0.735431 0.377184
O O7 0.440190 0.183484 0.359780
O O8 0.613837 0.325256 0.204642
O O9 0.663930 0.963563 0.271005
O O10 0.639052 0.136609 0.993026
O O11 0.734542 0.333064 0.317847
O O12 0.705374 0.011723 0.487862
O O13 0.749380 0.178711 0.613129
O O14 0.933963 0.069052 0.244876
O O15 0.856873 0.182696 0.999214
O O16 0.887433 0.088050 0.718779
#
# Coordination Sequence:
#
# PCOD8038892 Si02
#       8
#     2   2   2   2   2   2   2   2
#     4  10  19  33  53  81 114 140 166 216 278 323
#     4   9  18  34  57  76 106 149 177 206 265 332
#     4   9  20  35  59  79 103 136 189 227 254 300
#     4  10  18  31  53  78 103 140 178 218 259 315
#     4   9  17  37  59  78  97 144 193 215 245 323
#     4   9  19  34  53  74 106 146 180 209 262 326
#     4  11  20  32  55  84 111 132 173 232 270 300
#     4   9  17  32  53  75 103 141 181 216 254 312
#
# _framework density 21.414359000000001
#
# number of rings (size 3 to 8) (size 9 to 14) (size 15 to 20)
#    0.000    2.500    2.500    0.750    0.000    3.500 
#    0.000    3.125    0.000    9.750    0.000    0.000 
#    0.000    0.000    0.000    0.000    0.000    0.000 
#
# Total GULP energy -198293.115622 kJ/mol
# GULP energy per Si atom -12393.319726 kJ/mol
# Density = 2.136562 g / cm^3
# Si number density = 21.414359 Si / 1000 Ang^3
#
#
#
# Elastic Constant Matrix: (Units=GPa)
#
#
# Indices 1 2 3 4 5 6 
#
# 1 90.0357 7.3187 44.4083 -7.7900 -0.8258 1.8855
# 2 7.3187 33.9582 17.2446 -11.5176 6.5160 -1.4771
# 3 44.4083 17.2446 97.2509 -20.7557 8.6589 7.2174
# 4 -7.7900 -11.5176 -20.7557 22.2125 -1.5589 3.4639
# 5 -0.8258 6.5160 8.6589 -1.5589 39.5887 -2.5435
# 6 1.8855 -1.4771 7.2174 3.4639 -2.5435 19.2447
#
#
#
# Elastic Compliance Matrix: (Units=1/GPa)
#
#
# Indices 1 2 3 4 5 6 
#
# 1 0.014563 -0.000438 -0.007358 -0.002158 0.002026 0.001955
# 2 -0.000438 0.037364 -0.002472 0.016531 -0.004954 0.000208
# 3 -0.007358 -0.002472 0.018162 0.014303 -0.003757 -0.009351
# 4 -0.002158 0.016531 0.014303 0.068517 -0.004274 -0.016781
# 5 0.002026 -0.004954 -0.003757 -0.004274 0.027104 0.005182
# 6 0.001955 0.000208 -0.009351 -0.016781 0.005182 0.058999
#
#
# Mechanical properties :
#
#
# Convention : Reuss Voigt Hill
#
# Bulk Modulus (GPa) = 20.18037 39.90978 30.04507
# Shear Modulus (GPa) = 19.10139 26.36072 22.73106
#
# Velocity S-wave (km/s) = 2.98986 3.51234 3.26158
# Velocity P-wave (km/s) = 4.62204 5.92673 5.31457
#
# Compressibility (1/GPa) = 0.04955311
#
# Stress axis : x y z
#
# Youngs Moduli (GPa) = 68.66943 26.76390 55.05925
#
# Poissons Ratio (x) = 0.01171 0.40514
# Poissons Ratio (y) = 0.03004 0.13610
# Poissons Ratio (z) = 0.50529 0.06616
#
# Static dielectric constant tensor:
#      x y z
#    x 3.917180 -0.100710 -0.058700 
#    y -0.100710 3.509370 -0.176810 
#    z -0.058700 -0.176810 3.959380 
# 
# 
# High freq. dielectric constant tensor:
#      x y z
#    x 1.833300 -0.002100 0.001340 
#    y -0.002100 1.800310 -0.023590 
#    z 0.001340 -0.023590 1.841340 
# 
# From -- ./inp_files/169754.got.cif
#   From: 2010.06.25/outbox.cif.g09.slc.cpg/sg2_85_cif.got.tgz:169754.got - 2010.06.27 13:26:56.
