data_PCOD8038887
_publ_section_title
;
Structure prediction by ZEFSAII (Michael W. Deem and Ramdas Pophale) SiO2 
 PCOD8038887
Probable space group: P -1
;
_chemical_formula_sum "Si O2"
_cell_formula_units_Z 16
_cell_length_a 14.712031
_cell_length_b 24.372789
_cell_length_c 8.871504
_cell_angle_alpha 120.071212
_cell_angle_beta 67.783953
_cell_angle_gamma 161.510386
_cell_volume 816.560236
_symmetry_space_group_name_H-M "P -1"
_symmetry_group_IT_number 2
_symmetry_cell_setting 'triclinic'
loop_
_space_group_symop_operation_xyz
x,y,z
-x,-y,-z
loop_
_atom_site_type_symbol
_atom_site_label
_atom_site_fract_x
_atom_site_fract_y
_atom_site_fract_z
Si Si1 0.049902 0.076678 0.715673
Si Si2 0.176918 0.811541 0.246171
Si Si3 0.304329 0.072616 0.739268
Si Si4 0.275097 0.205142 0.247149
Si Si5 0.018328 0.177642 0.694031
Si Si6 0.393726 0.620466 0.027241
Si Si7 0.427843 0.497739 0.396092
Si Si8 0.232735 0.896878 0.659915
O O1 0.999982 0.120537 0.771073
O O2 0.397718 0.282039 0.838383
O O3 0.000000 0.000000 0.500000
O O4 0.810519 0.911387 0.769641
O O5 0.120101 0.797125 0.435632
O O6 0.130596 0.844408 0.212156
O O7 0.948222 0.615749 0.070167
O O8 0.523566 0.998790 0.265813
O O9 0.390285 0.061668 0.760293
O O10 0.603267 0.300610 0.848819
O O11 0.040240 0.952601 0.823668
O O12 0.171840 0.974179 0.524592
O O13 0.480216 0.318833 0.131857
O O14 0.469896 0.367482 0.461578
O O15 0.373454 0.407551 0.737892
O O16 0.500000 0.500000 0.500000
O O17 0.064287 0.274766 0.283924
#
# Coordination Sequence:
#
# PCOD8038887 Si02
#       8
#     2   2   2   2   2   2   2   2
#     4  11  19  33  54  82 111 143 174 220 282 321
#     4  10  21  33  51  80 115 137 183 221 271 310
#     4   9  17  29  52  77 110 134 174 216 269 319
#     4  10  18  31  52  88 108 130 174 237 267 304
#     4  10  19  34  54  82 104 146 178 221 267 328
#     4  11  20  33  54  85 112 132 180 236 265 313
#     4  11  15  30  57  80 106 133 185 215 267 316
#     4  10  19  33  52  79 109 152 171 219 271 328
#
# _framework density 19.594390000000001
#
# number of rings (size 3 to 8) (size 9 to 14) (size 15 to 20)
#    0.000    1.750    8.750    1.500    0.000    1.000 
#    0.000    0.000    0.000    1.500    6.500    0.000 
#    0.000    0.000    0.000    0.000    0.000    0.000 
#
# Total GULP energy -198312.224900 kJ/mol
# GULP energy per Si atom -12394.514056 kJ/mol
# Density = 1.954979 g / cm^3
# Si number density = 19.594390 Si / 1000 Ang^3
#
#
#
# Elastic Constant Matrix: (Units=GPa)
#
#
# Indices 1 2 3 4 5 6 
#
# 1 155.8959 63.2705 25.6574 18.8845 -5.3587 -6.8644
# 2 63.2705 70.5142 24.0666 20.1792 0.7498 -0.1003
# 3 25.6574 24.0666 40.6888 24.5492 -1.2177 -2.1891
# 4 18.8845 20.1792 24.5492 32.6273 -8.5781 -2.4638
# 5 -5.3587 0.7498 -1.2177 -8.5781 23.0970 5.0914
# 6 -6.8644 -0.1003 -2.1891 -2.4638 5.0914 26.7625
#
#
#
# Elastic Compliance Matrix: (Units=1/GPa)
#
#
# Indices 1 2 3 4 5 6 
#
# 1 0.010496 -0.009340 -0.002363 0.002442 0.003056 0.002107
# 2 -0.009340 0.026945 -0.004494 -0.009731 -0.006376 -0.002345
# 3 -0.002363 -0.004494 0.050898 -0.037134 -0.012042 0.002413
# 4 0.002442 -0.009731 -0.037134 0.069704 0.024985 -0.000784
# 5 0.003056 -0.006376 -0.012042 0.024985 0.054692 -0.008330
# 6 0.002107 -0.002345 0.002413 -0.000784 -0.008330 0.039607
#
#
# Mechanical properties :
#
#
# Convention : Reuss Voigt Hill
#
# Bulk Modulus (GPa) = 17.87407 54.78756 36.33082
# Shear Modulus (GPa) = 16.48083 26.77099 21.62591
#
# Velocity S-wave (km/s) = 2.90332 3.70030 3.32577
# Velocity P-wave (km/s) = 4.51452 6.80278 5.77316
#
# Compressibility (1/GPa) = 0.05594696
#
# Stress axis : x y z
#
# Youngs Moduli (GPa) = 95.27532 37.11324 19.64708
#
# Poissons Ratio (x) = 0.34662 0.04642
# Poissons Ratio (y) = 0.88983 0.08829
# Poissons Ratio (z) = 0.22509 0.16678
#
# Static dielectric constant tensor:
#      x y z
#    x 3.815040 -0.213050 -0.235420 
#    y -0.213050 3.435840 0.303820 
#    z -0.235420 0.303820 3.514390 
# 
# 
# High freq. dielectric constant tensor:
#      x y z
#    x 1.757820 -0.018290 -0.016350 
#    y -0.018290 1.733370 0.024090 
#    z -0.016350 0.024090 1.746620 
# 
# From -- ./inp_files/320143.got.cif
#   From: 2010.06.25/outbox.cif.g09.slc.cpg/sg2_161_cif.got.tgz:320143.got - 2010.06.27 13:26:56.
