data_PCOD8038361
_publ_section_title
;
Structure prediction by ZEFSAII (Michael W. Deem and Ramdas Pophale) SiO2 
 PCOD8038361
Probable space group: P -1
;
_chemical_formula_sum "Si O2"
_cell_formula_units_Z 14
_cell_length_a 15.584371
_cell_length_b 26.587977
_cell_length_c 9.680257
_cell_angle_alpha 129.198562
_cell_angle_beta 144.253135
_cell_angle_gamma 22.342351
_cell_volume 752.944361
_symmetry_space_group_name_H-M "P -1"
_symmetry_group_IT_number 2
_symmetry_cell_setting 'triclinic'
loop_
_space_group_symop_operation_xyz
x,y,z
-x,-y,-z
loop_
_atom_site_type_symbol
_atom_site_label
_atom_site_fract_x
_atom_site_fract_y
_atom_site_fract_z
Si Si1 0.892866 0.898216 0.387800
Si Si2 0.204189 0.206887 0.898759
Si Si3 0.235075 0.263305 0.542952
Si Si4 0.857480 0.432868 0.061543
Si Si5 0.502952 0.705092 0.004983
Si Si6 0.900962 0.308650 0.389337
Si Si7 0.855202 0.927620 0.692883
O O1 0.941730 0.802838 0.247719
O O2 0.695996 0.978744 0.420349
O O3 0.279812 0.776604 0.697284
O O4 0.633520 0.038325 0.184376
O O5 0.122575 0.247822 0.701938
O O6 0.015275 0.339252 0.966661
O O7 0.309373 0.301665 0.781248
O O8 0.135655 0.315409 0.345355
O O9 0.919373 0.354176 0.370063
O O10 0.584762 0.077793 0.691585
O O11 0.796763 0.532707 0.120901
O O12 0.498506 0.540879 0.821953
O O13 0.226400 0.817983 0.969211
O O14 0.062989 0.175670 0.312358
#
# Coordination Sequence:
#
# PCOD8038361 Si02
#       7
#     2   2   2   2   2   2   2
#     4   8  17  33  57  80  93 126 190 213 238 301
#     4  10  17  35  59  75  97 137 179 216 247 302
#     4  12  20  34  53  79 111 137 161 221 266 293
#     4  11  20  35  55  76 102 144 177 205 249 313
#     4   9  20  34  53  80 103 136 180 206 247 321
#     4  10  22  33  51  83 108 128 175 218 260 300
#     4   8  17  35  53  75 100 134 175 208 247 308
#
# _framework density 18.593671000000001
#
# number of rings (size 3 to 8) (size 9 to 14) (size 15 to 20)
#    0.857    1.429    2.857    2.143    0.000    0.000 
#    0.000    1.429    0.000    0.000    0.000    0.000 
#    0.000    0.000    0.000    0.000    0.000    0.000 
#
# Total GULP energy -173499.766029 kJ/mol
# GULP energy per Si atom -12392.840431 kJ/mol
# Density = 1.855135 g / cm^3
# Si number density = 18.593671 Si / 1000 Ang^3
#
#
#
# Elastic Constant Matrix: (Units=GPa)
#
#
# Indices 1 2 3 4 5 6 
#
# 1 47.6368 23.4556 19.3875 6.1524 12.4717 14.4236
# 2 23.4556 92.8810 16.9083 2.9346 1.6948 15.8990
# 3 19.3875 16.9083 61.7289 2.5076 2.0905 18.0427
# 4 6.1524 2.9346 2.5076 21.2605 4.5825 -0.2623
# 5 12.4717 1.6948 2.0905 4.5825 21.5082 4.7487
# 6 14.4236 15.8990 18.0427 -0.2623 4.7487 15.6589
#
#
#
# Elastic Compliance Matrix: (Units=1/GPa)
#
#
# Indices 1 2 3 4 5 6 
#
# 1 0.034943 -0.004368 -0.003217 -0.006393 -0.013837 -0.019954
# 2 -0.004368 0.013824 0.001284 -0.001943 0.004584 -0.012915
# 3 -0.003217 0.001284 0.025525 -0.004079 0.006747 -0.029865
# 4 -0.006393 -0.001943 -0.004079 0.052106 -0.010515 0.016623
# 5 -0.013837 0.004584 0.006747 -0.010515 0.059708 -0.017966
# 6 -0.019954 -0.012915 -0.029865 0.016623 -0.017966 0.135493
#
#
# Mechanical properties :
#
#
# Convention : Reuss Voigt Hill
#
# Bulk Modulus (GPa) = 16.21044 35.74994 25.98019
# Shear Modulus (GPa) = 14.09380 21.18520 17.63950
#
# Velocity S-wave (km/s) = 2.75615 3.37913 3.08341
# Velocity P-wave (km/s) = 4.34346 5.87310 5.16522
#
# Compressibility (1/GPa) = 0.06168864
#
# Stress axis : x y z
#
# Youngs Moduli (GPa) = 28.61837 72.33632 39.17686
#
# Poissons Ratio (x) = 0.31599 0.12604
# Poissons Ratio (y) = 0.12501 -0.05030
# Poissons Ratio (z) = 0.09207 -0.09287
#
# Static dielectric constant tensor:
#      x y z
#    x 2.974150 0.220920 -0.081170 
#    y 0.220920 3.290080 -0.051490 
#    z -0.081170 -0.051490 3.363680 
# 
# 
# High freq. dielectric constant tensor:
#      x y z
#    x 1.677320 0.021990 -0.004950 
#    y 0.021990 1.719500 -0.002720 
#    z -0.004950 -0.002720 1.720240 
# 
# From -- ./inp_files/305837.got.cif
#   From: 2010.06.25/outbox.cif.g09.slc.cpg/sg2_153_cif.got.tgz:305837.got - 2010.06.27 13:26:56.
