data_PCOD8038531
_publ_section_title
;
Structure prediction by ZEFSAII (Michael W. Deem and Ramdas Pophale) SiO2 
 PCOD8038531
Probable space group: P -1
;
_chemical_formula_sum "Si O2"
_cell_formula_units_Z 16
_cell_length_a 11.547043
_cell_length_b 9.279129
_cell_length_c 17.296858
_cell_angle_alpha 44.841927
_cell_angle_beta 75.062353
_cell_angle_gamma 108.002630
_cell_volume 873.812745
_symmetry_space_group_name_H-M "P -1"
_symmetry_group_IT_number 2
_symmetry_cell_setting 'triclinic'
loop_
_space_group_symop_operation_xyz
x,y,z
-x,-y,-z
loop_
_atom_site_type_symbol
_atom_site_label
_atom_site_fract_x
_atom_site_fract_y
_atom_site_fract_z
Si Si1 0.883152 0.889727 0.668864
Si Si2 0.972901 0.880386 0.816035
Si Si3 0.954862 0.262899 0.383955
Si Si4 0.936438 0.775073 0.029534
Si Si5 0.664077 0.834647 0.362774
Si Si6 0.680914 0.155004 0.375445
Si Si7 0.321371 0.728163 0.093880
Si Si8 0.204856 0.757339 0.950318
O O1 0.703067 0.548376 0.808936
O O2 0.896901 0.938678 0.740917
O O3 0.041836 0.935305 0.596658
O O4 0.898169 0.124730 0.533021
O O5 0.179837 0.135200 0.679075
O O6 0.909511 0.866562 0.918319
O O7 0.918495 0.580343 0.923152
O O8 0.816319 0.256673 0.380540
O O9 0.151067 0.599478 0.220182
O O10 0.756879 0.444943 0.207730
O O11 0.083275 0.788880 0.986859
O O12 0.000000 0.000000 0.000000
O O13 0.500000 0.500000 0.500000
O O14 0.648320 0.921309 0.415467
O O15 0.678903 0.032351 0.221545
O O16 0.500000 0.000000 0.500000
O O17 0.330798 0.849370 0.963235
O O18 0.500000 0.000000 0.000000
#
# Coordination Sequence:
#
# PCOD8038531 Si02
#       8
#     2   2   2   2   2   2   2   2
#     4   8  16  31  58  78 105 142 181 228 282 320
#     4  10  17  37  61  74 107 150 179 236 283 321
#     4   9  17  34  51  80 115 141 179 225 279 332
#     4  11  21  36  56  81 108 147 191 225 279 337
#     4  11  21  32  52  85 108 141 190 232 273 328
#     4  12  23  37  53  79 122 152 177 227 283 333
#     4   9  16  28  54  84 103 132 177 240 283 309
#     4  10  18  36  58  73 113 145 178 238 282 319
#
# _framework density 18.310559999999999
#
# number of rings (size 3 to 8) (size 9 to 14) (size 15 to 20)
#    0.750    1.250    5.000    0.750    3.500    2.000 
#    0.000    0.000    0.000    3.000    0.000    0.000 
#    0.000    0.000    0.000    0.000    0.000    0.000 
#
# Total GULP energy -198275.851768 kJ/mol
# GULP energy per Si atom -12392.240735 kJ/mol
# Density = 1.826888 g / cm^3
# Si number density = 18.310560 Si / 1000 Ang^3
#
#
#
# Elastic Constant Matrix: (Units=GPa)
#
#
# Indices 1 2 3 4 5 6 
#
# 1 59.9767 30.8789 51.2650 7.0884 -7.5015 24.0822
# 2 30.8789 106.5306 50.2530 5.8684 -0.5484 23.7460
# 3 51.2650 50.2530 118.4240 2.4416 -6.6753 26.5571
# 4 7.0884 5.8684 2.4416 33.4453 10.8351 -0.3914
# 5 -7.5015 -0.5484 -6.6753 10.8351 29.1531 2.5829
# 6 24.0822 23.7460 26.5571 -0.3914 2.5829 30.2896
#
#
#
# Elastic Compliance Matrix: (Units=1/GPa)
#
#
# Indices 1 2 3 4 5 6 
#
# 1 0.037396 -0.000508 -0.010070 -0.011767 0.013614 -0.021818
# 2 -0.000508 0.012850 -0.003690 -0.002164 0.000648 -0.006518
# 3 -0.010070 -0.003690 0.014830 0.001564 0.000341 -0.002112
# 4 -0.011767 -0.002164 0.001564 0.038667 -0.018120 0.011726
# 5 0.013614 0.000648 0.000341 -0.018120 0.046028 -0.015790
# 6 -0.021818 -0.006518 -0.002112 0.011726 -0.015790 0.058821
#
#
# Mechanical properties :
#
#
# Convention : Reuss Voigt Hill
#
# Bulk Modulus (GPa) = 27.36742 61.08056 44.22399
# Shear Modulus (GPa) = 20.05542 28.74654 24.40098
#
# Velocity S-wave (km/s) = 3.31311 3.96655 3.65446
# Velocity P-wave (km/s) = 5.44190 7.37621 6.48162
#
# Compressibility (1/GPa) = 0.03653980
#
# Stress axis : x y z
#
# Youngs Moduli (GPa) = 26.74092 77.81817 67.42998
#
# Poissons Ratio (x) = 0.03950 0.67904
# Poissons Ratio (y) = 0.01357 0.24885
# Poissons Ratio (z) = 0.26929 0.28718
#
# Static dielectric constant tensor:
#      x y z
#    x 3.043670 0.293240 0.133940 
#    y 0.293240 3.310330 0.144020 
#    z 0.133940 0.144020 3.161960 
# 
# 
# High freq. dielectric constant tensor:
#      x y z
#    x 1.674410 0.028940 0.014770 
#    y 0.028940 1.694010 0.009210 
#    z 0.014770 0.009210 1.714720 
# 
# From -- ./inp_files/566545.got.cif
#   From: 2010.06.25/outbox.cif.g09.slc.cpg/sg2_284_cif.got.tgz:566545.got - 2010.06.27 13:26:56.
