data_PCOD8038655
_publ_section_title
;
Structure prediction by ZEFSAII (Michael W. Deem and Ramdas Pophale) SiO2 
 PCOD8038655
Probable space group: P -1
;
_chemical_formula_sum "Si O2"
_cell_formula_units_Z 14
_cell_length_a 11.525536
_cell_length_b 13.722328
_cell_length_c 11.394207
_cell_angle_alpha 107.318038
_cell_angle_beta 114.554973
_cell_angle_gamma 127.765442
_cell_volume 829.939946
_symmetry_space_group_name_H-M "P -1"
_symmetry_group_IT_number 2
_symmetry_cell_setting 'triclinic'
loop_
_space_group_symop_operation_xyz
x,y,z
-x,-y,-z
loop_
_atom_site_type_symbol
_atom_site_label
_atom_site_fract_x
_atom_site_fract_y
_atom_site_fract_z
Si Si1 0.984609 0.142877 0.574506
Si Si2 0.912483 0.464626 0.821646
Si Si3 0.795503 0.514011 0.130142
Si Si4 0.970891 0.919211 0.077177
Si Si5 0.245588 0.144237 0.809364
Si Si6 0.603603 0.835343 0.493937
Si Si7 0.769757 0.566058 0.873162
O O1 0.086781 0.326762 0.671517
O O2 0.193919 0.213256 0.741185
O O3 0.908325 0.052643 0.381459
O O4 0.752369 0.984294 0.503540
O O5 0.625561 0.245992 0.607134
O O6 0.939943 0.607631 0.877083
O O7 0.065300 0.500612 0.807709
O O8 0.000000 0.500000 0.000000
O O9 0.524877 0.307511 0.979087
O O10 0.825258 0.585649 0.040855
O O11 0.835083 0.898935 0.105678
O O12 0.809685 0.710031 0.908458
O O13 0.233037 0.063547 0.285587
O O14 0.000000 0.000000 0.000000
O O15 0.506642 0.656907 0.348407
#
# Coordination Sequence:
#
# PCOD8038655 Si02
#       7
#     2   2   2   2   2   2   2
#     4  10  18  28  50  79 108 134 161 207 264 313
#     4   8  17  31  51  78 112 133 162 201 266 317
#     4  11  17  31  52  83 106 138 153 205 275 316
#     4  11  23  37  55  73  98 144 183 211 252 295
#     4  10  20  31  48  77 109 127 171 213 258 309
#     4   9  18  34  50  80 107 131 172 209 252 302
#     4   9  18  34  51  79 108 133 164 219 251 302
#
# _framework density 16.868689
#
# number of rings (size 3 to 8) (size 9 to 14) (size 15 to 20)
#    0.857    1.429    4.286    0.429    0.000    1.143 
#    2.571    0.000    0.000    1.714    0.000    0.000 
#    0.000    0.000    0.000    0.000    0.000    0.000 
#
# Total GULP energy -173445.102371 kJ/mol
# GULP energy per Si atom -12388.935884 kJ/mol
# Density = 1.683030 g / cm^3
# Si number density = 16.868689 Si / 1000 Ang^3
#
#
#
# Elastic Constant Matrix: (Units=GPa)
#
#
# Indices 1 2 3 4 5 6 
#
# 1 112.7609 20.4667 38.6811 4.2679 1.0278 18.9018
# 2 20.4667 44.9862 14.2470 -3.9565 -3.8437 6.1024
# 3 38.6811 14.2470 75.1034 13.6104 -0.3887 6.5536
# 4 4.2679 -3.9565 13.6104 17.7113 0.9974 -0.2605
# 5 1.0278 -3.8437 -0.3887 0.9974 40.4764 10.3516
# 6 18.9018 6.1024 6.5536 -0.2605 10.3516 13.0800
#
#
#
# Elastic Compliance Matrix: (Units=1/GPa)
#
#
# Indices 1 2 3 4 5 6 
#
# 1 0.014533 -0.001671 -0.005171 -0.000497 0.004948 -0.021556
# 2 -0.001671 0.027579 -0.005110 0.010008 0.005432 -0.011992
# 3 -0.005171 -0.005110 0.019740 -0.015094 0.000367 -0.000625
# 4 -0.000497 0.010008 -0.015094 0.070678 -0.002767 0.007209
# 5 0.004948 0.005432 0.000367 -0.002767 0.034736 -0.037414
# 6 -0.021556 -0.011992 -0.000625 0.007209 -0.037414 0.143265
#
#
# Mechanical properties :
#
#
# Convention : Reuss Voigt Hill
#
# Bulk Modulus (GPa) = 26.35305 42.18221 34.26763
# Shear Modulus (GPa) = 14.40579 24.88392 19.64485
#
# Velocity S-wave (km/s) = 2.92549 3.84494 3.41629
# Velocity P-wave (km/s) = 5.20266 6.69118 5.99331
#
# Compressibility (1/GPa) = 0.03794627
#
# Stress axis : x y z
#
# Youngs Moduli (GPa) = 68.81069 36.25991 50.65962
#
# Poissons Ratio (x) = 0.06059 0.26197
# Poissons Ratio (y) = 0.11497 0.25888
# Poissons Ratio (z) = 0.35583 0.18530
#
# Static dielectric constant tensor:
#      x y z
#    x 3.709600 0.021070 0.023090 
#    y 0.021070 2.583670 0.166860 
#    z 0.023090 0.166860 3.300040 
# 
# 
# High freq. dielectric constant tensor:
#      x y z
#    x 1.656780 0.006880 -0.007430 
#    y 0.006880 1.583420 0.024430 
#    z -0.007430 0.024430 1.657180 
# 
# From -- ./inp_files/429609.got.cif
#   From: 2010.06.25/outbox.cif.g09.slc.cpg/sg2_215_cif.got.tgz:429609.got - 2010.06.27 13:26:56.
