data_PCOD8038521
_publ_section_title
;
Structure prediction by ZEFSAII (Michael W. Deem and Ramdas Pophale) SiO2 
 PCOD8038521
Probable space group: P -1
;
_chemical_formula_sum "Si O2"
_cell_formula_units_Z 16
_cell_length_a 23.127473
_cell_length_b 15.088186
_cell_length_c 9.510105
_cell_angle_alpha 136.075380
_cell_angle_beta 47.005560
_cell_angle_gamma 159.668506
_cell_volume 799.581588
_symmetry_space_group_name_H-M "P -1"
_symmetry_group_IT_number 2
_symmetry_cell_setting 'triclinic'
loop_
_space_group_symop_operation_xyz
x,y,z
-x,-y,-z
loop_
_atom_site_type_symbol
_atom_site_label
_atom_site_fract_x
_atom_site_fract_y
_atom_site_fract_z
Si Si1 0.820996 0.992702 0.083618
Si Si2 0.069998 0.466644 0.397298
Si Si3 0.559563 0.736911 0.420523
Si Si4 0.815860 0.012812 0.510062
Si Si5 0.538625 0.953430 0.562279
Si Si6 0.189320 0.230343 0.950657
Si Si7 0.706434 0.867205 0.829245
Si Si8 0.497488 0.821815 0.164061
O O1 0.689139 0.905486 0.268459
O O2 0.765406 0.773457 0.979125
O O3 0.825364 0.014874 0.934698
O O4 0.005485 0.275637 0.166666
O O5 0.000000 0.500000 0.500000
O O6 0.265010 0.742057 0.406629
O O7 0.989788 0.315018 0.508268
O O8 0.660596 0.879634 0.562919
O O9 0.480606 0.766211 0.561536
O O10 0.427836 0.435959 0.293785
O O11 0.778546 0.818811 0.289395
O O12 0.823339 0.021140 0.675170
O O13 0.486132 0.822452 0.350185
O O14 0.451116 0.967516 0.748738
O O15 0.313788 0.526500 0.071482
O O16 0.000000 0.000000 0.000000
O O17 0.626265 0.893724 0.992584
#
# Coordination Sequence:
#
# PCOD8038521 Si02
#       8
#     2   2   2   2   2   2   2   2
#     4  10  19  32  60  87 106 158 198 235 280 341
#     4  10  17  37  58  78 113 154 202 231 278 354
#     4  10  18  35  59  81 113 153 199 233 280 348
#     4  10  22  34  62  87 113 155 195 243 293 341
#     4  11  21  35  59  89 112 154 198 244 279 342
#     4  10  20  39  60  87 114 152 199 245 285 344
#     4  12  20  37  59  92 119 146 197 247 293 345
#     4  11  21  33  58  89 120 145 192 248 292 332
#
# _framework density 20.010465
#
# number of rings (size 3 to 8) (size 9 to 14) (size 15 to 20)
#    0.000    1.750    6.250    3.000    0.000    0.000 
#    0.000    3.750    0.000    0.000    0.000    0.000 
#    0.000    0.000    0.000    0.000    0.000    0.000 
#
# Total GULP energy -198286.639660 kJ/mol
# GULP energy per Si atom -12392.914979 kJ/mol
# Density = 1.996492 g / cm^3
# Si number density = 20.010465 Si / 1000 Ang^3
#
#
#
# Elastic Constant Matrix: (Units=GPa)
#
#
# Indices 1 2 3 4 5 6 
#
# 1 99.0551 12.8351 53.1943 -8.5787 -4.6277 -16.5482
# 2 12.8351 53.2455 32.5969 4.4000 2.0460 -3.9541
# 3 53.1943 32.5969 88.0815 -3.3524 10.3701 -16.4240
# 4 -8.5787 4.4000 -3.3524 18.3033 -12.7187 -2.3979
# 5 -4.6277 2.0460 10.3701 -12.7187 45.5020 5.2498
# 6 -16.5482 -3.9541 -16.4240 -2.3979 5.2498 29.7478
#
#
#
# Elastic Compliance Matrix: (Units=1/GPa)
#
#
# Indices 1 2 3 4 5 6 
#
# 1 0.017689 0.001518 -0.010948 0.011224 0.006939 0.003677
# 2 0.001518 0.025762 -0.011169 -0.008169 -0.000456 -0.002476
# 3 -0.010948 -0.011169 0.024194 -0.002382 -0.007590 0.006930
# 4 0.011224 -0.008169 -0.002382 0.078381 0.023262 0.006056
# 5 0.006939 -0.000456 -0.007590 0.023262 0.031404 -0.004058
# 6 0.003677 -0.002476 0.006930 0.006056 -0.004058 0.040363
#
#
# Mechanical properties :
#
#
# Convention : Reuss Voigt Hill
#
# Bulk Modulus (GPa) = 37.81552 48.62608 43.22080
# Shear Modulus (GPa) = 18.67023 28.16101 23.41562
#
# Velocity S-wave (km/s) = 3.05786 3.75549 3.42448
# Velocity P-wave (km/s) = 5.60413 6.56947 6.10591
#
# Compressibility (1/GPa) = 0.02644417
#
# Stress axis : x y z
#
# Youngs Moduli (GPa) = 56.53307 38.81757 41.33319
#
# Poissons Ratio (x) = -0.05891 0.45253
# Poissons Ratio (y) = -0.08579 0.46165
# Poissons Ratio (z) = 0.61894 0.43356
#
# Static dielectric constant tensor:
#      x y z
#    x 4.107180 -0.143580 -0.196370 
#    y -0.143580 3.723470 0.440820 
#    z -0.196370 0.440820 3.541150 
# 
# 
# High freq. dielectric constant tensor:
#      x y z
#    x 1.794800 -0.005510 -0.007570 
#    y -0.005510 1.759160 0.036500 
#    z -0.007570 0.036500 1.754060 
# 
# From -- ./inp_files/354583.got.cif
#   From: 2010.06.25/outbox.cif.g09.slc.cpg/sg2_178_cif.got.tgz:354583.got - 2010.06.27 13:26:56.
