data_PCOD8038023
_publ_section_title
;
Structure prediction by ZEFSAII (Michael W. Deem and Ramdas Pophale) SiO2 
 PCOD8038023
Probable space group: P -1
;
_chemical_formula_sum "Si O2"
_cell_formula_units_Z 16
_cell_length_a 8.861233
_cell_length_b 8.041215
_cell_length_c 18.261135
_cell_angle_alpha 134.170805
_cell_angle_beta 132.057758
_cell_angle_gamma 53.252780
_cell_volume 671.488740
_symmetry_space_group_name_H-M "P -1"
_symmetry_group_IT_number 2
_symmetry_cell_setting 'triclinic'
loop_
_space_group_symop_operation_xyz
x,y,z
-x,-y,-z
loop_
_atom_site_type_symbol
_atom_site_label
_atom_site_fract_x
_atom_site_fract_y
_atom_site_fract_z
Si Si1 0.070591 0.813552 0.279610
Si Si2 0.683101 0.837576 0.555575
Si Si3 0.688261 0.860964 0.734197
Si Si4 0.872955 0.500717 0.201964
Si Si5 0.515097 0.440691 0.323795
Si Si6 0.827069 0.787608 0.047061
Si Si7 0.864163 0.217461 0.977127
Si Si8 0.412359 0.682974 0.853318
O O1 0.298274 0.631311 0.295658
O O2 0.938895 0.753022 0.288303
O O3 0.947118 0.768484 0.155238
O O4 0.101975 0.084663 0.372676
O O5 0.626902 0.888196 0.637820
O O6 0.691005 0.563482 0.453215
O O7 0.500000 0.000000 0.500000
O O8 0.517785 0.757202 0.690181
O O9 0.921700 0.694784 0.765226
O O10 0.683759 0.123269 0.846832
O O11 0.694413 0.522025 0.212503
O O12 0.778358 0.427991 0.072258
O O13 0.603342 0.309080 0.237092
O O14 0.989028 0.684831 0.002863
O O15 0.713802 0.063394 0.076756
O O16 0.652891 0.631111 0.943695
O O17 0.000000 0.000000 0.000000
#
# Coordination Sequence:
#
# PCOD8038023 Si02
#       8
#     2   2   2   2   2   2   2   2
#     4  10  21  41  58  85 116 161 197 240 290 350
#     4  10  20  39  61  88 114 151 205 256 278 336
#     4  10  18  37  61  86 115 156 200 237 292 352
#     4  10  21  35  60  87 125 156 195 232 296 365
#     4  10  23  37  63  88 117 151 203 245 293 342
#     4  11  21  36  60  82 125 154 193 244 297 344
#     4  10  17  33  58  87 113 159 191 232 282 362
#     4  11  22  37  56  91 124 153 193 246 292 351
#
# _framework density 23.827652
#
# number of rings (size 3 to 8) (size 9 to 14) (size 15 to 20)
#    0.000    1.750    3.750    2.625    1.750    2.500 
#    0.000    5.625    0.000    0.000    0.000    0.000 
#    0.000    0.000    0.000    0.000    0.000    0.000 
#
# Total GULP energy -198349.665446 kJ/mol
# GULP energy per Si atom -12396.854090 kJ/mol
# Density = 2.377342 g / cm^3
# Si number density = 23.827652 Si / 1000 Ang^3
#
#
#
# Elastic Constant Matrix: (Units=GPa)
#
#
# Indices 1 2 3 4 5 6 
#
# 1 166.4717 40.2625 67.1709 12.9232 23.3120 58.6289
# 2 40.2625 31.6168 31.5386 -2.6723 13.0453 21.1060
# 3 67.1709 31.5386 159.1759 2.7583 8.8079 31.7332
# 4 12.9232 -2.6723 2.7583 34.5498 19.1239 0.1546
# 5 23.3120 13.0453 8.8079 19.1239 34.1502 13.7447
# 6 58.6289 21.1060 31.7332 0.1546 13.7447 43.4533
#
#
#
# Elastic Compliance Matrix: (Units=1/GPa)
#
#
# Indices 1 2 3 4 5 6 
#
# 1 0.014060 -0.009641 -0.001154 -0.008849 0.005428 -0.015130
# 2 -0.009641 0.070409 -0.007423 0.026817 -0.030976 -0.006067
# 3 -0.001154 -0.007423 0.008536 -0.003080 0.004095 -0.002356
# 4 -0.008849 0.026817 -0.003080 0.057255 -0.041088 0.013956
# 5 0.005428 -0.030976 0.004095 -0.041088 0.065773 -0.015927
# 6 -0.015130 -0.006067 -0.002356 0.013956 -0.015927 0.053083
#
#
# Mechanical properties :
#
#
# Convention : Reuss Voigt Hill
#
# Bulk Modulus (GPa) = 17.67746 70.57871 44.12809
# Shear Modulus (GPa) = 15.41272 36.98350 26.19811
#
# Velocity S-wave (km/s) = 2.54607 3.94398 3.31944
# Velocity P-wave (km/s) = 4.00977 7.10104 5.76641
#
# Compressibility (1/GPa) = 0.05656922
#
# Stress axis : x y z
#
# Youngs Moduli (GPa) = 71.12521 14.20283 117.14403
#
# Poissons Ratio (x) = 0.13693 0.13513
# Poissons Ratio (y) = 0.68572 0.86959
# Poissons Ratio (z) = 0.08204 0.10543
#
# Static dielectric constant tensor:
#      x y z
#    x 4.579170 0.588700 0.440740 
#    y 0.588700 4.408700 0.370830 
#    z 0.440740 0.370830 5.001010 
# 
# 
# High freq. dielectric constant tensor:
#      x y z
#    x 1.937390 0.035910 0.017460 
#    y 0.035910 1.935510 -0.004060 
#    z 0.017460 -0.004060 1.942450 
# 
# From -- ./inp_files/187895.got.cif
#   From: 2010.06.25/outbox.cif.g09.slc.cpg/sg2_94_cif.got.tgz:187895.got - 2010.06.27 13:26:56.
