data_PCOD8038824
_publ_section_title
;
Structure prediction by ZEFSAII (Michael W. Deem and Ramdas Pophale) SiO2 
 PCOD8038824
Probable space group: P -1
;
_chemical_formula_sum "Si O2"
_cell_formula_units_Z 16
_cell_length_a 11.393371
_cell_length_b 8.938006
_cell_length_c 12.175882
_cell_angle_alpha 84.032671
_cell_angle_beta 58.534955
_cell_angle_gamma 121.024078
_cell_volume 779.433427
_symmetry_space_group_name_H-M "P -1"
_symmetry_group_IT_number 2
_symmetry_cell_setting 'triclinic'
loop_
_space_group_symop_operation_xyz
x,y,z
-x,-y,-z
loop_
_atom_site_type_symbol
_atom_site_label
_atom_site_fract_x
_atom_site_fract_y
_atom_site_fract_z
Si Si1 0.538241 0.848917 0.870115
Si Si2 0.430548 0.772522 0.166780
Si Si3 0.782323 0.947243 0.369442
Si Si4 0.404757 0.304302 0.733654
Si Si5 0.791814 0.493073 0.520709
Si Si6 0.288627 0.782886 0.610749
Si Si7 0.050876 0.953298 0.366407
Si Si8 0.581669 0.349054 0.282165
O O1 0.417077 0.713872 0.836034
O O2 0.554213 0.038727 0.845358
O O3 0.436031 0.723564 0.041756
O O4 0.730452 0.899206 0.765952
O O5 0.596155 0.808980 0.151488
O O6 0.235329 0.581449 0.333492
O O7 0.725991 0.856358 0.283102
O O8 0.965522 0.989240 0.307656
O O9 0.621161 0.806268 0.550155
O O10 0.839889 0.165346 0.314857
O O11 0.617099 0.469638 0.570909
O O12 0.340556 0.425162 0.783617
O O13 0.780380 0.337670 0.461374
O O14 0.976766 0.727315 0.409368
O O15 0.268061 0.639231 0.724283
O O16 0.500000 0.000000 0.500000
O O17 0.000000 0.000000 0.500000
#
# Coordination Sequence:
#
# PCOD8038824 Si02
#       8
#     2   2   2   2   2   2   2   2
#     4  11  22  38  56  82 121 154 184 225 290 341
#     4   9  21  40  58  81 107 158 197 230 266 343
#     4  11  18  33  54  82 116 141 186 235 290 321
#     4  10  18  33  58  83 106 143 195 238 269 329
#     4  10  19  36  57  86 109 146 193 233 280 326
#     4  10  18  30  58  87 109 139 193 246 279 314
#     4  12  24  36  53  88 124 151 176 236 293 341
#     4  11  17  31  55  83 112 139 190 240 277 321
#
# _framework density 20.527732
#
# number of rings (size 3 to 8) (size 9 to 14) (size 15 to 20)
#    0.750    0.750    5.000    3.375    0.000    1.000 
#    0.000    0.625    0.000    0.000    0.000    9.625 
#    0.000    0.000    0.000    0.000    0.000    0.000 
#
# Total GULP energy -198258.763243 kJ/mol
# GULP energy per Si atom -12391.172703 kJ/mol
# Density = 2.048101 g / cm^3
# Si number density = 20.527732 Si / 1000 Ang^3
#
#
#
# Elastic Constant Matrix: (Units=GPa)
#
#
# Indices 1 2 3 4 5 6 
#
# 1 97.5501 14.7436 38.6018 7.7825 25.0340 -21.6152
# 2 14.7436 78.7552 24.8265 25.6375 -4.1948 -15.8138
# 3 38.6018 24.8265 62.2837 24.5492 14.5343 -1.5566
# 4 7.7825 25.6375 24.5492 24.5876 7.2490 1.0742
# 5 25.0340 -4.1948 14.5343 7.2490 18.2577 2.0591
# 6 -21.6152 -15.8138 -1.5566 1.0742 2.0591 33.7104
#
#
#
# Elastic Compliance Matrix: (Units=1/GPa)
#
#
# Indices 1 2 3 4 5 6 
#
# 1 0.030537 -0.008705 -0.015398 0.027104 -0.044249 0.016625
# 2 -0.008705 0.030360 0.001979 -0.040855 0.032647 0.008060
# 3 -0.015398 0.001979 0.037280 -0.036189 0.006992 -0.006497
# 4 0.027104 -0.040855 -0.036189 0.131480 -0.069560 -0.003398
# 5 -0.044249 0.032647 0.006992 -0.069560 0.147197 -0.019509
# 6 0.016625 0.008060 -0.006497 -0.003398 -0.019509 0.045105
#
#
# Mechanical properties :
#
#
# Convention : Reuss Voigt Hill
#
# Bulk Modulus (GPa) = 18.54256 43.88140 31.21198
# Shear Modulus (GPa) = 10.32669 26.00562 18.16615
#
# Velocity S-wave (km/s) = 2.24533 3.56315 2.97805
# Velocity P-wave (km/s) = 3.97172 6.19283 5.20219
#
# Compressibility (1/GPa) = 0.05393000
#
# Stress axis : x y z
#
# Youngs Moduli (GPa) = 32.74740 32.93794 26.82407
#
# Poissons Ratio (x) = 0.28671 0.41304
# Poissons Ratio (y) = 0.28505 -0.05309
# Poissons Ratio (z) = 0.50424 -0.06519
#
# Static dielectric constant tensor:
#      x y z
#    x 4.030050 -0.262590 0.216470 
#    y -0.262590 3.725220 0.265940 
#    z 0.216470 0.265940 3.338830 
# 
# 
# High freq. dielectric constant tensor:
#      x y z
#    x 1.816300 -0.017310 0.023670 
#    y -0.017310 1.809000 0.028380 
#    z 0.023670 0.028380 1.744930 
# 
# From -- ./inp_files/419431.got.cif
#   From: 2010.06.25/outbox.cif.g09.slc.cpg/sg2_210_cif.got.tgz:419431.got - 2010.06.27 13:26:56.
