data_PCOD8038252
_publ_section_title
;
Structure prediction by ZEFSAII (Michael W. Deem and Ramdas Pophale) SiO2 
 PCOD8038252
Probable space group: P -1
;
_chemical_formula_sum "Si O2"
_cell_formula_units_Z 14
_cell_length_a 14.842593
_cell_length_b 9.208811
_cell_length_c 6.293147
_cell_angle_alpha 50.743543
_cell_angle_beta 74.790001
_cell_angle_gamma 93.743547
_cell_volume 611.140419
_symmetry_space_group_name_H-M "P -1"
_symmetry_group_IT_number 2
_symmetry_cell_setting 'triclinic'
loop_
_space_group_symop_operation_xyz
x,y,z
-x,-y,-z
loop_
_atom_site_type_symbol
_atom_site_label
_atom_site_fract_x
_atom_site_fract_y
_atom_site_fract_z
Si Si1 0.781697 0.859581 0.248674
Si Si2 0.132556 0.936909 0.597281
Si Si3 0.416022 0.669673 0.220590
Si Si4 0.911039 0.762029 0.949645
Si Si5 0.616431 0.727262 0.159713
Si Si6 0.318023 0.482489 0.073881
Si Si7 0.767102 0.338442 0.394907
O O1 0.704009 0.883183 0.094195
O O2 0.746356 0.644881 0.579203
O O3 0.803463 0.028807 0.257403
O O4 0.886075 0.882263 0.050904
O O5 0.187262 0.840602 0.480775
O O6 0.025334 0.783664 0.850224
O O7 0.122929 0.146041 0.327537
O O8 0.525533 0.814119 0.084951
O O9 0.418830 0.459583 0.494822
O O10 0.406636 0.646915 0.990523
O O11 0.327331 0.730560 0.327348
O O12 0.849542 0.535504 0.238110
O O13 0.652421 0.665088 0.969677
O O14 0.262682 0.613774 0.865523
#
# Coordination Sequence:
#
# PCOD8038252 Si02
#       7
#     2   2   2   2   2   2   2
#     4  11  19  39  60  88 122 157 198 245 296 353
#     4  11  25  38  65  87 119 159 198 248 302 346
#     4   9  18  32  58  91 119 154 200 239 291 352
#     4  11  22  44  60  86 120 158 204 245 293 355
#     4   9  17  31  58  90 118 156 200 237 289 359
#     4  10  17  34  61  84 124 153 193 245 294 342
#     4  11  21  40  60  93 121 153 198 249 292 355
#
# _framework density 22.907990999999999
#
# number of rings (size 3 to 8) (size 9 to 14) (size 15 to 20)
#    0.000    1.714    5.714    1.286    0.000    2.286 
#    0.000    1.429    0.000    4.286    0.000    0.000 
#    0.000    0.000    0.000    0.000    0.000    0.000 
#
# Total GULP energy -173449.634108 kJ/mol
# GULP energy per Si atom -12389.259579 kJ/mol
# Density = 2.285585 g / cm^3
# Si number density = 22.907991 Si / 1000 Ang^3
#
#
#
# Elastic Constant Matrix: (Units=GPa)
#
#
# Indices 1 2 3 4 5 6 
#
# 1 143.7682 68.0069 22.0186 10.1549 -16.2650 11.8534
# 2 68.0069 104.3281 13.3873 19.4337 -0.8288 4.3778
# 3 22.0186 13.3873 47.8398 16.5179 0.6079 7.9082
# 4 10.1549 19.4337 16.5179 20.0719 1.6350 9.2944
# 5 -16.2650 -0.8288 0.6079 1.6350 18.5619 8.6153
# 6 11.8534 4.3778 7.9082 9.2944 8.6153 29.9266
#
#
#
# Elastic Compliance Matrix: (Units=1/GPa)
#
#
# Indices 1 2 3 4 5 6 
#
# 1 0.014878 -0.010438 -0.006280 0.011538 0.016943 -0.011167
# 2 -0.010438 0.019169 0.005310 -0.021246 -0.011106 0.009723
# 3 -0.006280 0.005310 0.031957 -0.029707 -0.005600 0.004104
# 4 0.011538 -0.021246 -0.029707 0.101394 0.014837 -0.029373
# 5 0.016943 -0.011106 -0.005600 0.014837 0.081850 -0.031777
# 6 -0.011167 0.009723 0.004104 -0.029373 -0.031777 0.053602
#
#
# Mechanical properties :
#
#
# Convention : Reuss Voigt Hill
#
# Bulk Modulus (GPa) = 23.15477 55.86241 39.50859
# Shear Modulus (GPa) = 14.70315 26.54696 20.62506
#
# Velocity S-wave (km/s) = 2.53619 3.40788 3.00383
# Velocity P-wave (km/s) = 4.32505 6.31850 5.41431
#
# Compressibility (1/GPa) = 0.04318765
#
# Stress axis : x y z
#
# Youngs Moduli (GPa) = 67.21498 52.16620 31.29179
#
# Poissons Ratio (x) = 0.54453 0.19650
# Poissons Ratio (y) = 0.70161 -0.16615
# Poissons Ratio (z) = 0.42208 -0.27698
#
# Static dielectric constant tensor:
#      x y z
#    x 4.497020 0.392590 -0.101590 
#    y 0.392590 3.828980 0.248290 
#    z -0.101590 0.248290 3.960370 
# 
# 
# High freq. dielectric constant tensor:
#      x y z
#    x 1.907790 0.018200 -0.008920 
#    y 0.018200 1.881160 0.022420 
#    z -0.008920 0.022420 1.893930 
# 
# From -- ./inp_files/43185.got.cif
#   From: 2010.06.25/outbox.cif.g09.slc.cpg/sg2_22_cif.got.tgz:43185.got - 2010.06.27 13:26:56.
