data_PCOD8038433
_publ_section_title
;
Structure prediction by ZEFSAII (Michael W. Deem and Ramdas Pophale) SiO2 
 PCOD8038433
Probable space group: P -1
;
_chemical_formula_sum "Si O2"
_cell_formula_units_Z 16
_cell_length_a 9.420907
_cell_length_b 9.392587
_cell_length_c 17.807985
_cell_angle_alpha 66.387979
_cell_angle_beta 40.284901
_cell_angle_gamma 50.551850
_cell_volume 775.520253
_symmetry_space_group_name_H-M "P -1"
_symmetry_group_IT_number 2
_symmetry_cell_setting 'triclinic'
loop_
_space_group_symop_operation_xyz
x,y,z
-x,-y,-z
loop_
_atom_site_type_symbol
_atom_site_label
_atom_site_fract_x
_atom_site_fract_y
_atom_site_fract_z
Si Si1 0.259897 0.806760 0.346248
Si Si2 0.214568 0.175229 0.060954
Si Si3 0.278553 0.661368 0.686721
Si Si4 0.253010 0.482014 0.366250
Si Si5 0.288217 0.296277 0.238851
Si Si6 0.018681 0.515097 0.153611
Si Si7 0.155175 0.784616 0.551892
Si Si8 0.699900 0.880293 0.127737
O O1 0.219780 0.680869 0.331453
O O2 0.333813 0.707695 0.420809
O O3 0.466650 0.846634 0.220985
O O4 0.973412 0.995457 0.433285
O O5 0.147609 0.170081 0.002244
O O6 0.006586 0.166760 0.201577
O O7 0.199322 0.367212 0.045614
O O8 0.500000 0.000000 0.000000
O O9 0.502217 0.648493 0.650230
O O10 0.252462 0.482367 0.736595
O O11 0.336254 0.689965 0.572085
O O12 0.322759 0.396432 0.273503
O O13 0.000000 0.500000 0.500000
O O14 0.190246 0.436724 0.177482
O O15 0.070118 0.255809 0.354925
O O16 0.571455 0.097866 0.153808
O O17 0.920989 0.730328 0.130105
#
# Coordination Sequence:
#
# PCOD8038433 Si02
#       8
#     2   2   2   2   2   2   2   2
#     4  10  19  34  59  86 114 152 199 247 297 345
#     4  10  17  35  67  93 116 148 206 259 296 339
#     4   9  21  37  58  92 114 153 204 239 303 360
#     4  12  23  38  55  84 129 164 188 248 309 357
#     4  10  21  37  57  87 124 156 197 245 308 353
#     4   9  19  35  61  89 111 155 204 243 291 349
#     4   9  18  37  60  83 111 150 207 253 278 352
#     4  11  19  36  63  90 117 154 204 255 287 362
#
# _framework density 20.631312000000001
#
# number of rings (size 3 to 8) (size 9 to 14) (size 15 to 20)
#    0.750    1.250    3.750    1.125    0.000    1.500 
#    2.250    1.250    0.000    1.500    0.000    0.000 
#    0.000    0.000    0.000    0.000    0.000    0.000 
#
# Total GULP energy -198226.599052 kJ/mol
# GULP energy per Si atom -12389.162441 kJ/mol
# Density = 2.058435 g / cm^3
# Si number density = 20.631312 Si / 1000 Ang^3
#
#
#
# Elastic Constant Matrix: (Units=GPa)
#
#
# Indices 1 2 3 4 5 6 
#
# 1 122.0817 50.1485 24.8841 10.6958 28.7453 -3.6309
# 2 50.1485 98.8661 10.7809 15.4336 18.5347 -6.3409
# 3 24.8841 10.7809 56.0188 9.3779 22.8611 1.1767
# 4 10.6958 15.4336 9.3779 27.7218 -0.5018 5.2048
# 5 28.7453 18.5347 22.8611 -0.5018 40.3189 6.7090
# 6 -3.6309 -6.3409 1.1767 5.2048 6.7090 37.4599
#
#
#
# Elastic Compliance Matrix: (Units=1/GPa)
#
#
# Indices 1 2 3 4 5 6 
#
# 1 0.011942 -0.004335 -0.001787 -0.002034 -0.005834 0.001807
# 2 -0.004335 0.014738 0.002924 -0.008432 -0.006155 0.004257
# 3 -0.001787 0.002924 0.026221 -0.010809 -0.015707 0.003813
# 4 -0.002034 -0.008432 -0.010809 0.047398 0.013765 -0.010336
# 5 -0.005834 -0.006155 -0.015707 0.013765 0.042643 -0.010664
# 6 0.001807 0.004257 0.003813 -0.010336 -0.010664 0.030817
#
#
# Mechanical properties :
#
#
# Convention : Reuss Voigt Hill
#
# Bulk Modulus (GPa) = 21.50358 49.84372 35.67365
# Shear Modulus (GPa) = 25.55471 33.84366 29.69918
#
# Velocity S-wave (km/s) = 3.52325 4.05458 3.79822
# Velocity P-wave (km/s) = 5.19581 6.79200 6.04680
#
# Compressibility (1/GPa) = 0.04650388
#
# Stress axis : x y z
#
# Youngs Moduli (GPa) = 83.73823 67.85093 38.13665
#
# Poissons Ratio (x) = 0.29416 0.06815
# Poissons Ratio (y) = 0.36304 -0.11149
# Poissons Ratio (z) = 0.14964 -0.19836
#
# Static dielectric constant tensor:
#      x y z
#    x 3.484410 -0.163760 0.311340 
#    y -0.163760 3.790470 0.181570 
#    z 0.311340 0.181570 3.819510 
# 
# 
# High freq. dielectric constant tensor:
#      x y z
#    x 1.781420 -0.022940 0.018190 
#    y -0.022940 1.803680 0.025410 
#    z 0.018190 0.025410 1.809300 
# 
# From -- ./inp_files/556170.got.cif
#   From: 2010.06.25/outbox.cif.g09.slc.cpg/sg2_279_cif.got.tgz:556170.got - 2010.06.27 13:26:56.
