data_PCOD8038267
_publ_section_title
;
Structure prediction by ZEFSAII (Michael W. Deem and Ramdas Pophale) SiO2 
 PCOD8038267
Probable space group: P -1
;
_chemical_formula_sum "Si O2"
_cell_formula_units_Z 16
_cell_length_a 8.446785
_cell_length_b 11.613738
_cell_length_c 20.165335
_cell_angle_alpha 129.245641
_cell_angle_beta 148.471127
_cell_angle_gamma 49.533463
_cell_volume 771.143261
_symmetry_space_group_name_H-M "P -1"
_symmetry_group_IT_number 2
_symmetry_cell_setting 'triclinic'
loop_
_space_group_symop_operation_xyz
x,y,z
-x,-y,-z
loop_
_atom_site_type_symbol
_atom_site_label
_atom_site_fract_x
_atom_site_fract_y
_atom_site_fract_z
Si Si1 0.544475 0.325076 0.796935
Si Si2 0.350463 0.014655 0.615419
Si Si3 0.387895 0.208163 0.480809
Si Si4 0.676100 0.410546 0.733460
Si Si5 0.830720 0.328004 0.411113
Si Si6 0.080010 0.460432 0.366437
Si Si7 0.828809 0.401349 0.053445
Si Si8 0.322194 0.242199 0.265246
O O1 0.722981 0.330619 0.793165
O O2 0.277611 0.486872 0.768518
O O3 0.377041 0.187223 0.692527
O O4 0.791107 0.313639 0.940203
O O5 0.454340 0.956845 0.556175
O O6 0.600083 0.911236 0.718577
O O7 0.000000 0.000000 0.500000
O O8 0.673312 0.280085 0.629677
O O9 0.138554 0.309931 0.377829
O O10 0.164058 0.211588 0.466331
O O11 0.325698 0.534191 0.647210
O O12 0.954466 0.484323 0.842043
O O13 0.864523 0.396065 0.520801
O O14 0.593218 0.223697 0.299970
O O15 0.299725 0.399573 0.358238
O O16 0.994318 0.269156 0.117688
O O17 0.500000 0.500000 0.000000
#
# Coordination Sequence:
#
# PCOD8038267 Si02
#       8
#     2   2   2   2   2   2   2   2
#     4  12  22  40  60  89 131 160 208 254 301 366
#     4  11  27  41  60  94 131 167 198 249 327 384
#     4  10  20  38  64  92 124 160 200 256 325 373
#     4  10  21  38  64  96 122 155 208 268 306 357
#     4  10  17  34  65  95 118 155 205 263 321 358
#     4  10  17  34  61  90 120 157 199 262 307 355
#     4  11  24  39  67  94 115 167 219 259 298 349
#     4  10  22  40  60  90 128 166 205 255 304 372
#
# _framework density 20.748412999999999
#
# number of rings (size 3 to 8) (size 9 to 14) (size 15 to 20)
#    0.000    1.500    3.750    2.250    1.750    3.000 
#    0.000    0.000    0.000    3.750    0.000    0.000 
#    0.000    0.000    0.000    0.000    0.000    0.000 
#
# Total GULP energy -198247.156133 kJ/mol
# GULP energy per Si atom -12390.447258 kJ/mol
# Density = 2.070119 g / cm^3
# Si number density = 20.748413 Si / 1000 Ang^3
#
#
#
# Elastic Constant Matrix: (Units=GPa)
#
#
# Indices 1 2 3 4 5 6 
#
# 1 87.8168 33.7836 44.4505 -1.6190 -1.4437 -7.4908
# 2 33.7836 74.7436 45.7867 -9.0091 -8.2752 5.6215
# 3 44.4505 45.7867 118.5964 -7.5090 -6.9981 0.4272
# 4 -1.6190 -9.0091 -7.5090 29.8194 3.5963 -3.5091
# 5 -1.4437 -8.2752 -6.9981 3.5963 36.9983 -4.9973
# 6 -7.4908 5.6215 0.4272 -3.5091 -4.9973 29.7749
#
#
#
# Elastic Compliance Matrix: (Units=1/GPa)
#
#
# Indices 1 2 3 4 5 6 
#
# 1 0.015822 -0.005241 -0.004027 -0.001106 -0.000560 0.004804
# 2 -0.005241 0.020071 -0.005401 0.003642 0.002341 -0.004208
# 3 -0.004027 -0.005401 0.012146 0.001120 0.000838 0.000105
# 4 -0.001106 0.003642 0.001120 0.035443 -0.002077 0.002847
# 5 -0.000560 0.002341 0.000838 -0.002077 0.028421 0.003930
# 6 0.004804 -0.004208 0.000105 0.002847 0.003930 0.036582
#
#
# Mechanical properties :
#
#
# Convention : Reuss Voigt Hill
#
# Bulk Modulus (GPa) = 53.47089 58.79981 56.13535
# Shear Modulus (GPa) = 27.16544 29.79424 28.47984
#
# Velocity S-wave (km/s) = 3.62232 3.79354 3.70892
# Velocity P-wave (km/s) = 6.58194 6.89847 6.74206
#
# Compressibility (1/GPa) = 0.01870176
#
# Stress axis : x y z
#
# Youngs Moduli (GPa) = 63.20223 49.82318 82.32966
#
# Poissons Ratio (x) = 0.26113 0.33155
# Poissons Ratio (y) = 0.33125 0.44463
# Poissons Ratio (z) = 0.25452 0.26907
#
# Static dielectric constant tensor:
#      x y z
#    x 3.950250 -0.084330 -0.243300 
#    y -0.084330 3.618240 -0.291640 
#    z -0.243300 -0.291640 3.796570 
# 
# 
# High freq. dielectric constant tensor:
#      x y z
#    x 1.824060 0.001730 -0.012400 
#    y 0.001730 1.790740 -0.022640 
#    z -0.012400 -0.022640 1.796400 
# 
# From -- ./inp_files/218314.got.cif
#   From: 2010.06.25/outbox.cif.g09.slc.cpg/sg2_110_cif.got.tgz:218314.got - 2010.06.27 13:26:56.
