data_PCOD8038424
_publ_section_title
;
Structure prediction by ZEFSAII (Michael W. Deem and Ramdas Pophale) SiO2 
 PCOD8038424
Probable space group: P -1
;
_chemical_formula_sum "Si O2"
_cell_formula_units_Z 16
_cell_length_a 8.874645
_cell_length_b 23.893819
_cell_length_c 8.443680
_cell_angle_alpha 28.645282
_cell_angle_beta 49.596773
_cell_angle_gamma 46.518245
_cell_volume 617.734355
_symmetry_space_group_name_H-M "P -1"
_symmetry_group_IT_number 2
_symmetry_cell_setting 'triclinic'
loop_
_space_group_symop_operation_xyz
x,y,z
-x,-y,-z
loop_
_atom_site_type_symbol
_atom_site_label
_atom_site_fract_x
_atom_site_fract_y
_atom_site_fract_z
Si Si1 0.084377 0.113885 0.357141
Si Si2 0.674742 0.178136 0.651228
Si Si3 0.349845 0.422328 0.178721
Si Si4 0.470072 0.982736 0.247953
Si Si5 0.763943 0.538840 0.502036
Si Si6 0.045151 0.662427 0.342427
Si Si7 0.245228 0.229909 0.229396
Si Si8 0.178947 0.679518 0.543849
O O1 0.231417 0.003341 0.420359
O O2 0.210205 0.125835 0.398998
O O3 0.867669 0.097819 0.606305
O O4 0.041715 0.237159 0.981187
O O5 0.546339 0.296584 0.336951
O O6 0.744003 0.219487 0.669371
O O7 0.543625 0.090100 0.011568
O O8 0.364231 0.469877 0.231532
O O9 0.140305 0.391352 0.354472
O O10 0.345910 0.539052 0.779831
O O11 0.602949 0.843598 0.551826
O O12 0.500000 0.000000 0.000000
O O13 0.755622 0.443726 0.605843
O O14 0.000000 0.500000 0.500000
O O15 0.662013 0.679001 0.158379
O O16 0.124482 0.718917 0.301065
O O17 0.030682 0.321892 0.220067
#
# Coordination Sequence:
#
# PCOD8038424 Si02
#       8
#     2   2   2   2   2   2   2   2
#     4  11  23  46  70 100 139 183 231 286 349 414
#     4  11  26  46  70  98 143 185 229 292 350 413
#     4  11  20  41  70 101 140 189 233 278 355 420
#     4  12  27  47  73 102 134 187 240 288 346 415
#     4  10  17  35  66 103 132 179 228 278 341 412
#     4  11  20  38  71 103 142 183 229 287 348 411
#     4  11  21  39  68 101 135 185 235 275 348 417
#     4  11  23  37  67 108 142 179 232 293 349 411
#
# _framework density 25.901102999999999
#
# number of rings (size 3 to 8) (size 9 to 14) (size 15 to 20)
#    0.000    1.000    6.250    2.625    0.000    2.500 
#    0.000    6.250    0.000    0.000    0.000    0.000 
#    0.000    0.000    0.000    0.000    0.000    0.000 
#
# Total GULP energy -198349.436534 kJ/mol
# GULP energy per Si atom -12396.839783 kJ/mol
# Density = 2.584215 g / cm^3
# Si number density = 25.901103 Si / 1000 Ang^3
#
#
#
# Elastic Constant Matrix: (Units=GPa)
#
#
# Indices 1 2 3 4 5 6 
#
# 1 83.2657 47.5203 22.1864 -2.4116 18.0465 8.3067
# 2 47.5203 121.8657 12.0749 -0.8667 15.0441 -3.9900
# 3 22.1864 12.0749 86.7338 -7.0580 23.2104 -4.2537
# 4 -2.4116 -0.8667 -7.0580 33.8442 -1.8353 7.9379
# 5 18.0465 15.0441 23.2104 -1.8353 38.6959 -0.6892
# 6 8.3067 -3.9900 -4.2537 7.9379 -0.6892 37.5268
#
#
#
# Elastic Compliance Matrix: (Units=1/GPa)
#
#
# Indices 1 2 3 4 5 6 
#
# 1 0.017836 -0.006326 -0.002671 0.001571 -0.004277 -0.005334
# 2 -0.006326 0.010899 0.000612 -0.000781 -0.001642 0.002764
# 3 -0.002671 0.000612 0.014381 0.002014 -0.007492 0.001723
# 4 0.001571 -0.000781 0.002014 0.031665 -0.000258 -0.006905
# 5 -0.004277 -0.001642 -0.007492 -0.000258 0.032968 0.000583
# 6 -0.005334 0.002764 0.001723 -0.006905 0.000583 0.029789
#
#
# Mechanical properties :
#
#
# Convention : Reuss Voigt Hill
#
# Bulk Modulus (GPa) = 37.95447 50.60315 44.27881
# Shear Modulus (GPa) = 30.65793 36.01895 33.33844
#
# Velocity S-wave (km/s) = 3.44416 3.73317 3.59157
# Velocity P-wave (km/s) = 5.52284 6.17750 5.85932
#
# Compressibility (1/GPa) = 0.02634735
#
# Stress axis : x y z
#
# Youngs Moduli (GPa) = 56.06508 91.74734 69.53712
#
# Poissons Ratio (x) = 0.58039 0.18573
# Poissons Ratio (y) = 0.35466 -0.04257
# Poissons Ratio (z) = 0.14975 -0.05617
#
# Static dielectric constant tensor:
#      x y z
#    x 4.625450 -0.144500 0.014430 
#    y -0.144500 5.193620 -0.015760 
#    z 0.014430 -0.015760 4.281640 
# 
# 
# High freq. dielectric constant tensor:
#      x y z
#    x 2.028340 -0.009920 0.008600 
#    y -0.009920 2.045070 0.000880 
#    z 0.008600 0.000880 2.019530 
# 
# From -- ./inp_files/225830.got.cif
#   From: 2010.06.25/outbox.cif.g09.slc.cpg/sg2_113_cif.got.tgz:225830.got - 2010.06.27 13:26:56.
