data_PCOD8038184
_publ_section_title
;
Structure prediction by ZEFSAII (Michael W. Deem and Ramdas Pophale) SiO2 
 PCOD8038184
Probable space group: P -1
;
_chemical_formula_sum "Si O2"
_cell_formula_units_Z 14
_cell_length_a 23.223938
_cell_length_b 15.826377
_cell_length_c 10.055096
_cell_angle_alpha 145.671173
_cell_angle_beta 34.279837
_cell_angle_gamma 157.789065
_cell_volume 754.075099
_symmetry_space_group_name_H-M "P -1"
_symmetry_group_IT_number 2
_symmetry_cell_setting 'triclinic'
loop_
_space_group_symop_operation_xyz
x,y,z
-x,-y,-z
loop_
_atom_site_type_symbol
_atom_site_label
_atom_site_fract_x
_atom_site_fract_y
_atom_site_fract_z
Si Si1 0.950102 0.544905 0.028303
Si Si2 0.363099 0.816099 0.314394
Si Si3 0.632993 0.328531 0.440773
Si Si4 0.737047 0.012750 0.110859
Si Si5 0.856661 0.306764 0.623280
Si Si6 0.406963 0.585936 0.089382
Si Si7 0.659805 0.820616 0.282966
O O1 0.903541 0.386616 0.788907
O O2 0.805459 0.495760 0.267328
O O3 0.096662 0.816269 0.060369
O O4 0.000000 0.500000 0.000000
O O5 0.286448 0.745739 0.222424
O O6 0.335004 0.615287 0.153834
O O7 0.549686 0.072129 0.288660
O O8 0.277264 0.835031 0.604698
O O9 0.658878 0.441730 0.677360
O O10 0.514480 0.294839 0.531073
O O11 0.597663 0.817324 0.019374
O O12 0.720135 0.876233 0.087238
O O13 0.000000 0.500000 0.500000
O O14 0.792545 0.063754 0.425771
O O15 0.352883 0.357413 0.859967
#
# Coordination Sequence:
#
# PCOD8038184 Si02
#       7
#     2   2   2   2   2   2   2
#     4  12  21  33  60  87 110 139 187 236 272 316
#     4   9  17  32  57  80 105 148 186 227 256 326
#     4   9  19  32  54  87 110 141 187 227 272 317
#     4   9  17  33  55  80 113 146 179 225 272 316
#     4  10  20  38  59  77 113 144 186 224 278 325
#     4  10  17  34  58  84 109 144 194 216 266 335
#     4   9  19  36  59  78 109 155 181 224 267 333
#
# _framework density 18.56579
#
# number of rings (size 3 to 8) (size 9 to 14) (size 15 to 20)
#    0.000    2.857    2.857    5.143    0.000    2.286 
#    0.000    3.571    0.000    6.000    0.000    0.000 
#    0.000    0.000    0.000    0.000    0.000    0.000 
#
# Total GULP energy -173490.985047 kJ/mol
# GULP energy per Si atom -12392.213218 kJ/mol
# Density = 1.852353 g / cm^3
# Si number density = 18.565790 Si / 1000 Ang^3
#
#
#
# Elastic Constant Matrix: (Units=GPa)
#
#
# Indices 1 2 3 4 5 6 
#
# 1 88.5341 37.6278 42.4606 22.3213 -0.9592 -2.3146
# 2 37.6278 124.8146 61.3701 -9.5229 -10.0069 -0.1841
# 3 42.4606 61.3701 67.2309 6.5881 -8.6363 -7.1410
# 4 22.3213 -9.5229 6.5881 45.6731 -8.7041 -3.7727
# 5 -0.9592 -10.0069 -8.6363 -8.7041 29.4202 14.8564
# 6 -2.3146 -0.1841 -7.1410 -3.7727 14.8564 23.1187
#
#
#
# Elastic Compliance Matrix: (Units=1/GPa)
#
#
# Indices 1 2 3 4 5 6 
#
# 1 0.019440 -0.002216 -0.010002 -0.009669 -0.006712 0.001574
# 2 -0.002216 0.017272 -0.015003 0.007665 0.008019 -0.008621
# 3 -0.010002 -0.015003 0.036132 -0.002758 -0.000712 0.010047
# 4 -0.009669 0.007665 -0.002758 0.030701 0.013210 -0.005238
# 5 -0.006712 0.008019 -0.000712 0.013210 0.058517 -0.036276
# 6 0.001574 -0.008621 0.010047 -0.005238 -0.036276 0.068904
#
#
# Mechanical properties :
#
#
# Convention : Reuss Voigt Hill
#
# Bulk Modulus (GPa) = 54.34386 62.61074 58.47730
# Shear Modulus (GPa) = 17.15010 28.91715 23.03363
#
# Velocity S-wave (km/s) = 3.04262 3.95086 3.52611
# Velocity P-wave (km/s) = 6.45584 7.38981 6.93856
#
# Compressibility (1/GPa) = 0.01840134
#
# Stress axis : x y z
#
# Youngs Moduli (GPa) = 51.43967 57.89730 27.67594
#
# Poissons Ratio (x) = 0.12831 0.27682
# Poissons Ratio (y) = 0.11400 0.41523
# Poissons Ratio (z) = 0.51451 0.86865
#
# Static dielectric constant tensor:
#      x y z
#    x 3.338990 0.135350 -0.018650 
#    y 0.135350 3.549750 -0.008480 
#    z -0.018650 -0.008480 3.084540 
# 
# 
# High freq. dielectric constant tensor:
#      x y z
#    x 1.707380 0.008510 -0.005390 
#    y 0.008510 1.726350 0.001150 
#    z -0.005390 0.001150 1.679320 
# 
# From -- ./inp_files/435170.got.cif
#   From: 2010.06.25/outbox.cif.g09.slc.cpg/sg2_218_cif.got.tgz:435170.got - 2010.06.27 13:26:56.
