data_PCOD8038249
_publ_section_title
;
Structure prediction by ZEFSAII (Michael W. Deem and Ramdas Pophale) SiO2 
 PCOD8038249
Probable space group: P -1
;
_chemical_formula_sum "Si O2"
_cell_formula_units_Z 16
_cell_length_a 28.171297
_cell_length_b 16.045848
_cell_length_c 16.991099
_cell_angle_alpha 157.111490
_cell_angle_beta 161.382475
_cell_angle_gamma 21.388224
_cell_volume 842.934244
_symmetry_space_group_name_H-M "P -1"
_symmetry_group_IT_number 2
_symmetry_cell_setting 'triclinic'
loop_
_space_group_symop_operation_xyz
x,y,z
-x,-y,-z
loop_
_atom_site_type_symbol
_atom_site_label
_atom_site_fract_x
_atom_site_fract_y
_atom_site_fract_z
Si Si1 0.899628 0.528610 0.214694
Si Si2 0.488194 0.762815 0.557604
Si Si3 0.945175 0.129081 0.266673
Si Si4 0.623051 0.970553 0.237760
Si Si5 0.823072 0.983033 0.800297
Si Si6 0.398682 0.755355 0.100581
Si Si7 0.742307 0.326418 0.669414
Si Si8 0.497548 0.920797 0.548543
O O1 0.002479 0.660348 0.456101
O O2 0.028232 0.260851 0.216461
O O3 0.777941 0.697485 0.240046
O O4 0.790732 0.501973 0.949304
O O5 0.471468 0.970620 0.775263
O O6 0.590212 0.492670 0.516838
O O7 0.583181 0.780032 0.642238
O O8 0.294165 0.826634 0.285478
O O9 0.794000 0.179096 0.131502
O O10 0.100196 0.864939 0.301141
O O11 0.896857 0.118506 0.090067
O O12 0.683425 0.175762 0.502972
O O13 0.500000 0.000000 0.000000
O O14 0.701562 0.904065 0.591920
O O15 0.498090 0.742498 0.325754
O O16 0.401420 0.944226 0.205881
O O17 0.500000 0.500000 0.000000
#
# Coordination Sequence:
#
# PCOD8038249 Si02
#       8
#     2   2   2   2   2   2   2   2
#     4  10  19  36  56  82 115 151 189 229 277 331
#     4  10  20  39  57  84 117 149 187 237 282 323
#     4   9  19  35  57  85 109 151 189 221 285 344
#     4  11  22  37  58  87 107 155 200 223 275 340
#     4   8  18  36  54  81 115 143 181 235 283 318
#     4  10  17  34  61  84 111 145 186 227 288 340
#     4  10  21  39  59  76 118 155 186 229 281 336
#     4   8  19  35  54  86 114 142 183 233 281 334
#
# _framework density 18.981314999999999
#
# number of rings (size 3 to 8) (size 9 to 14) (size 15 to 20)
#    0.750    1.750    1.250    1.125    0.000    1.500 
#    4.500    6.250    0.000    1.500    0.000    0.000 
#    0.000    0.000    0.000    0.000    0.000    0.000 
#
# Total GULP energy -198227.753587 kJ/mol
# GULP energy per Si atom -12389.234599 kJ/mol
# Density = 1.893811 g / cm^3
# Si number density = 18.981315 Si / 1000 Ang^3
#
#
#
# Elastic Constant Matrix: (Units=GPa)
#
#
# Indices 1 2 3 4 5 6 
#
# 1 78.4620 35.0307 27.4605 3.7320 -16.1668 -4.4158
# 2 35.0307 135.1468 36.5641 -3.0410 -19.5062 0.3366
# 3 27.4605 36.5641 100.3465 4.4854 -1.8838 0.9476
# 4 3.7320 -3.0410 4.4854 27.3455 -1.7326 -6.0643
# 5 -16.1668 -19.5062 -1.8838 -1.7326 21.7139 -4.3910
# 6 -4.4158 0.3366 0.9476 -6.0643 -4.3910 27.4184
#
#
#
# Elastic Compliance Matrix: (Units=1/GPa)
#
#
# Indices 1 2 3 4 5 6 
#
# 1 0.017755 -0.001750 -0.004034 -0.000074 0.012297 0.004973
# 2 -0.001750 0.009881 -0.003109 0.002688 0.007833 0.001553
# 3 -0.004034 -0.003109 0.012245 -0.002705 -0.005457 -0.002507
# 4 -0.000074 0.002688 -0.002705 0.040023 0.007357 0.010079
# 5 0.012297 0.007833 -0.005457 0.007357 0.065219 0.014145
# 6 0.004973 0.001553 -0.002507 0.010079 0.014145 0.041835
#
#
# Mechanical properties :
#
#
# Convention : Reuss Voigt Hill
#
# Bulk Modulus (GPa) = 45.26038 56.89621 51.07829
# Shear Modulus (GPa) = 23.57261 29.62225 26.59743
#
# Velocity S-wave (km/s) = 3.52786 3.95473 3.74738
# Velocity P-wave (km/s) = 6.36324 7.13394 6.75959
#
# Compressibility (1/GPa) = 0.02209438
#
# Stress axis : x y z
#
# Youngs Moduli (GPa) = 56.32082 101.20053 81.66880
#
# Poissons Ratio (x) = 0.17710 0.32945
# Poissons Ratio (y) = 0.09856 0.25394
# Poissons Ratio (z) = 0.22720 0.31468
#
# Static dielectric constant tensor:
#      x y z
#    x 3.247090 -0.242590 -0.120020 
#    y -0.242590 3.512890 -0.071270 
#    z -0.120020 -0.071270 3.419240 
# 
# 
# High freq. dielectric constant tensor:
#      x y z
#    x 1.712730 -0.018690 -0.006960 
#    y -0.018690 1.735100 0.000120 
#    z -0.006960 0.000120 1.738470 
# 
# From -- ./inp_files/580193.got.cif
#   From: 2010.06.25/outbox.cif.g09.slc.cpg/sg2_291_cif.got.tgz:580193.got - 2010.06.27 13:26:56.
