data_PCOD8038948
_publ_section_title
;
Structure prediction by ZEFSAII (Michael W. Deem and Ramdas Pophale) SiO2 
 PCOD8038948
Probable space group: P -1
;
_chemical_formula_sum "Si O2"
_cell_formula_units_Z 16
_cell_length_a 13.961233
_cell_length_b 11.865086
_cell_length_c 13.845668
_cell_angle_alpha 41.916328
_cell_angle_beta 127.817057
_cell_angle_gamma 150.338987
_cell_volume 754.336287
_symmetry_space_group_name_H-M "P -1"
_symmetry_group_IT_number 2
_symmetry_cell_setting 'triclinic'
loop_
_space_group_symop_operation_xyz
x,y,z
-x,-y,-z
loop_
_atom_site_type_symbol
_atom_site_label
_atom_site_fract_x
_atom_site_fract_y
_atom_site_fract_z
Si Si1 0.643954 0.232576 0.582909
Si Si2 0.035787 0.232223 0.669915
Si Si3 0.671565 0.872167 0.542600
Si Si4 0.245495 0.464220 0.346251
Si Si5 0.822111 0.001932 0.355568
Si Si6 0.531558 0.692632 0.220420
Si Si7 0.303470 0.092948 0.194143
Si Si8 0.641981 0.669721 0.121743
O O1 0.825630 0.467887 0.474169
O O2 0.669844 0.339900 0.636876
O O3 0.441839 0.090263 0.504043
O O4 0.619381 0.006876 0.721641
O O5 0.171113 0.216573 0.784699
O O6 0.869008 0.019175 0.621675
O O7 0.915429 0.154117 0.740779
O O8 0.720458 0.985010 0.392643
O O9 0.510804 0.552202 0.639521
O O10 0.213367 0.235733 0.501140
O O11 0.366742 0.618443 0.222633
O O12 0.037398 0.308447 0.288198
O O13 0.731461 0.958656 0.226068
O O14 0.567369 0.748946 0.090787
O O15 0.456735 0.341347 0.206356
O O16 0.290514 0.192636 0.027652
#
# Coordination Sequence:
#
# PCOD8038948 Si02
#       8
#     2   2   2   2   2   2   2   2
#     4  12  22  40  63  98 131 159 199 264 323 368
#     4  12  22  41  65  94 122 161 213 261 307 365
#     4  11  20  34  60  96 130 154 199 255 315 364
#     4  10  19  31  56  93 126 158 195 246 313 370
#     4  10  18  31  56  94 129 160 191 253 308 371
#     4  11  19  35  61  90 124 160 208 249 299 372
#     4  11  27  45  64  85 129 170 213 259 309 364
#     4  11  25  46  64  90 118 173 222 252 298 375
#
# _framework density 21.210699000000002
#
# number of rings (size 3 to 8) (size 9 to 14) (size 15 to 20)
#    0.000    1.000    6.250    1.500    3.500    3.000 
#    0.000    0.625    0.000    0.750    0.000    0.000 
#    0.000    0.000    0.000    0.000    0.000    0.000 
#
# Total GULP energy -198217.776593 kJ/mol
# GULP energy per Si atom -12388.611037 kJ/mol
# Density = 2.116242 g / cm^3
# Si number density = 21.210699 Si / 1000 Ang^3
#
#
#
# Elastic Constant Matrix: (Units=GPa)
#
#
# Indices 1 2 3 4 5 6 
#
# 1 118.2450 38.8318 27.8754 2.3643 -21.3092 5.7337
# 2 38.8318 107.1662 30.9001 18.8570 -7.4343 16.0369
# 3 27.8754 30.9001 45.9293 5.2868 -0.3133 -0.9040
# 4 2.3643 18.8570 5.2868 19.4290 -2.9729 -2.6548
# 5 -21.3092 -7.4343 -0.3133 -2.9729 24.6500 7.4425
# 6 5.7337 16.0369 -0.9040 -2.6548 7.4425 31.2829
#
#
#
# Elastic Compliance Matrix: (Units=1/GPa)
#
#
# Indices 1 2 3 4 5 6 
#
# 1 0.013110 -0.001758 -0.007163 0.003365 0.012441 -0.004383
# 2 -0.001758 0.017201 -0.008990 -0.014780 0.005164 -0.011239
# 3 -0.007163 -0.008990 0.032233 0.000401 -0.011339 0.009585
# 4 0.003365 -0.014780 0.000401 0.067387 0.002965 0.011985
# 5 0.012441 0.005164 -0.011339 0.002965 0.058831 -0.019000
# 6 -0.004383 -0.011239 0.009585 0.011985 -0.019000 0.044345
#
#
# Mechanical properties :
#
#
# Convention : Reuss Voigt Hill
#
# Bulk Modulus (GPa) = 37.42149 51.83947 44.63048
# Shear Modulus (GPa) = 17.99605 26.65459 22.32532
#
# Velocity S-wave (km/s) = 2.91596 3.54878 3.24782
# Velocity P-wave (km/s) = 5.38685 6.42535 5.92888
#
# Compressibility (1/GPa) = 0.02672261
#
# Stress axis : x y z
#
# Youngs Moduli (GPa) = 76.27560 58.13453 31.02387
#
# Poissons Ratio (x) = 0.10223 0.22221
# Poissons Ratio (y) = 0.13413 0.27891
# Poissons Ratio (z) = 0.54633 0.52264
#
# Static dielectric constant tensor:
#      x y z
#    x 4.222380 0.142670 -0.312450 
#    y 0.142670 3.982240 0.164110 
#    z -0.312450 0.164110 3.374930 
# 
# 
# High freq. dielectric constant tensor:
#      x y z
#    x 1.851010 0.009150 -0.028920 
#    y 0.009150 1.839470 0.015490 
#    z -0.028920 0.015490 1.777060 
# 
# From -- ./inp_files/532344.got.cif
#   From: 2010.06.25/outbox.cif.g09.slc.cpg/sg2_267_cif.got.tgz:532344.got - 2010.06.27 13:26:56.
