data_PCOD8038017
_publ_section_title
;
Structure prediction by ZEFSAII (Michael W. Deem and Ramdas Pophale) SiO2 
 PCOD8038017
Probable space group: P -1
;
_chemical_formula_sum "Si O2"
_cell_formula_units_Z 16
_cell_length_a 13.012652
_cell_length_b 9.629016
_cell_length_c 15.447399
_cell_angle_alpha 116.381408
_cell_angle_beta 48.838563
_cell_angle_gamma 145.064039
_cell_volume 813.864277
_symmetry_space_group_name_H-M "P -1"
_symmetry_group_IT_number 2
_symmetry_cell_setting 'triclinic'
loop_
_space_group_symop_operation_xyz
x,y,z
-x,-y,-z
loop_
_atom_site_type_symbol
_atom_site_label
_atom_site_fract_x
_atom_site_fract_y
_atom_site_fract_z
Si Si1 0.798574 0.466266 0.523431
Si Si2 0.189702 0.245638 0.850192
Si Si3 0.427819 0.872802 0.277967
Si Si4 0.956927 0.036964 0.313195
Si Si5 0.015951 0.408150 0.283420
Si Si6 0.879443 0.132252 0.115191
Si Si7 0.746085 0.975683 0.562184
Si Si8 0.318195 0.307900 0.329363
O O1 0.655738 0.274604 0.627609
O O2 0.680786 0.522644 0.575942
O O3 0.823521 0.358423 0.404881
O O4 0.043363 0.726138 0.490352
O O5 0.438226 0.524875 0.785648
O O6 0.094683 0.141694 0.777264
O O7 0.181911 0.080044 0.861489
O O8 0.049380 0.253462 0.977315
O O9 0.257975 0.692177 0.243618
O O10 0.660207 0.008038 0.160400
O O11 0.456292 0.085040 0.334043
O O12 0.999442 0.234916 0.296449
O O13 0.170816 0.179236 0.289120
O O14 0.744158 0.864338 0.447203
O O15 0.985182 0.349562 0.182677
O O16 0.779883 0.905158 0.609760
#
# Coordination Sequence:
#
# PCOD8038017 Si02
#       8
#     2   2   2   2   2   2   2   2
#     4  10  17  33  58  84 110 139 176 223 275 329
#     4  10  22  37  54  81 112 141 193 227 259 323
#     4  11  18  36  58  82 111 144 176 228 276 316
#     4  10  18  34  57  81 112 145 174 224 277 323
#     4  10  18  32  58  84 112 136 179 229 276 318
#     4  10  22  36  55  84 106 143 193 230 260 316
#     4  10  20  34  57  86 115 140 178 218 276 342
#     4  11  21  36  56  83 115 147 173 222 277 325
#
# _framework density 19.659296000000001
#
# number of rings (size 3 to 8) (size 9 to 14) (size 15 to 20)
#    0.000    1.750    5.000    2.250    0.000    3.000 
#    0.000    6.875    0.000    3.750    0.000    0.000 
#    0.000    0.000    0.000    0.000    0.000    0.000 
#
# Total GULP energy -198320.837720 kJ/mol
# GULP energy per Si atom -12395.052357 kJ/mol
# Density = 1.961455 g / cm^3
# Si number density = 19.659296 Si / 1000 Ang^3
#
#
#
# Elastic Constant Matrix: (Units=GPa)
#
#
# Indices 1 2 3 4 5 6 
#
# 1 81.4450 31.4110 43.1188 1.6059 -16.9764 0.0689
# 2 31.4110 44.6448 36.5656 11.7209 -4.1376 12.3161
# 3 43.1188 36.5656 122.7694 18.5885 -26.3065 15.8966
# 4 1.6059 11.7209 18.5885 22.7265 4.6436 -1.9816
# 5 -16.9764 -4.1376 -26.3065 4.6436 31.1965 -1.3176
# 6 0.0689 12.3161 15.8966 -1.9816 -1.3176 27.4003
#
#
#
# Elastic Compliance Matrix: (Units=1/GPa)
#
#
# Indices 1 2 3 4 5 6 
#
# 1 0.022365 -0.017571 -0.004970 0.011673 0.004410 0.011781
# 2 -0.017571 0.048841 -0.002563 -0.023233 -0.002726 -0.022234
# 3 -0.004970 -0.002563 0.017121 -0.015870 0.013364 -0.009274
# 4 0.011673 -0.023233 -0.015870 0.074354 -0.020165 0.024028
# 5 0.004410 -0.002726 0.013364 -0.020165 0.048123 -0.005683
# 6 0.011781 -0.022234 -0.009274 0.024028 -0.005683 0.053305
#
#
# Mechanical properties :
#
#
# Convention : Reuss Voigt Hill
#
# Bulk Modulus (GPa) = 26.23297 52.33888 39.28593
# Shear Modulus (GPa) = 15.28939 25.44893 20.36916
#
# Velocity S-wave (km/s) = 2.79179 3.60182 3.22236
# Velocity P-wave (km/s) = 4.87492 6.63161 5.81993
#
# Compressibility (1/GPa) = 0.03811997
#
# Stress axis : x y z
#
# Youngs Moduli (GPa) = 44.71303 20.47445 58.40653
#
# Poissons Ratio (x) = 0.35976 0.29025
# Poissons Ratio (y) = 0.78565 0.14971
# Poissons Ratio (z) = 0.22220 0.05248
#
# Static dielectric constant tensor:
#      x y z
#    x 3.497080 0.002700 -0.177880 
#    y 0.002700 3.481350 0.287610 
#    z -0.177880 0.287610 3.823170 
# 
# 
# High freq. dielectric constant tensor:
#      x y z
#    x 1.755260 -0.000020 -0.014190 
#    y -0.000020 1.743980 0.011040 
#    z -0.014190 0.011040 1.759780 
# 
# From -- ./inp_files/218616.got.cif
#   From: 2010.06.25/outbox.cif.g09.slc.cpg/sg2_110_cif.got.tgz:218616.got - 2010.06.27 13:26:56.
