data_PCOD8038699
_publ_section_title
;
Structure prediction by ZEFSAII (Michael W. Deem and Ramdas Pophale) SiO2 
 PCOD8038699
Probable space group: P -1
;
_chemical_formula_sum "Si O2"
_cell_formula_units_Z 16
_cell_length_a 11.181486
_cell_length_b 19.867696
_cell_length_c 9.480956
_cell_angle_alpha 150.153239
_cell_angle_beta 61.814096
_cell_angle_gamma 129.758556
_cell_volume 786.906810
_symmetry_space_group_name_H-M "P -1"
_symmetry_group_IT_number 2
_symmetry_cell_setting 'triclinic'
loop_
_space_group_symop_operation_xyz
x,y,z
-x,-y,-z
loop_
_atom_site_type_symbol
_atom_site_label
_atom_site_fract_x
_atom_site_fract_y
_atom_site_fract_z
Si Si1 0.828391 0.806112 0.471079
Si Si2 0.554917 0.669652 0.839372
Si Si3 0.094662 0.840232 0.897744
Si Si4 0.865220 0.819739 0.780980
Si Si5 0.421857 0.866559 0.183878
Si Si6 0.413756 0.911494 0.748012
Si Si7 0.127195 0.863328 0.236770
Si Si8 0.380934 0.224260 0.698639
O O1 0.806475 0.725993 0.492889
O O2 0.671775 0.706202 0.276578
O O3 0.978620 0.814268 0.329669
O O4 0.848085 0.975404 0.794265
O O5 0.500000 0.500000 0.500000
O O6 0.716785 0.806073 0.922400
O O7 0.421665 0.711897 0.954796
O O8 0.576969 0.665149 0.987075
O O9 0.225331 0.813762 0.701295
O O10 0.938568 0.745771 0.713276
O O11 0.065646 0.778089 0.962799
O O12 0.000000 0.000000 0.000000
O O13 0.238800 0.809148 0.148891
O O14 0.500000 0.000000 0.500000
O O15 0.534329 0.946011 0.131050
O O16 0.468064 0.790147 0.450267
O O17 0.500000 0.000000 0.000000
O O18 0.227009 0.052850 0.508931
#
# Coordination Sequence:
#
# PCOD8038699 Si02
#       8
#     2   2   2   2   2   2   2   2
#     4  10  18  30  54  85 120 148 199 252 299 346
#     4  12  25  42  60  88 128 166 199 247 310 367
#     4  10  18  29  51  88 122 151 186 257 305 348
#     4  10  21  34  60  88 115 155 209 249 291 354
#     4  11  21  34  58  87 118 159 209 250 296 357
#     4  11  18  32  56  93 122 150 202 262 302 343
#     4  10  18  30  54  87 117 148 196 254 302 342
#     4  10  19  34  54  82 123 160 195 245 306 354
#
# _framework density 20.332775999999999
#
# number of rings (size 3 to 8) (size 9 to 14) (size 15 to 20)
#    0.000    1.500    6.250    5.250    1.750    0.000 
#    0.000    0.625    0.000    6.000    0.000    0.000 
#    0.000    0.000    0.000    0.000    0.000    0.000 
#
# Total GULP energy -198302.881057 kJ/mol
# GULP energy per Si atom -12393.930066 kJ/mol
# Density = 2.028650 g / cm^3
# Si number density = 20.332776 Si / 1000 Ang^3
#
#
#
# Elastic Constant Matrix: (Units=GPa)
#
#
# Indices 1 2 3 4 5 6 
#
# 1 174.9420 37.1134 61.6613 -29.7702 14.2405 -17.9692
# 2 37.1134 49.8281 37.1623 -35.3902 5.2489 -0.6024
# 3 61.6613 37.1623 106.3327 -29.1060 8.2211 -14.2378
# 4 -29.7702 -35.3902 -29.1060 39.7496 -6.8626 2.4576
# 5 14.2405 5.2489 8.2211 -6.8626 30.2637 -20.3283
# 6 -17.9692 -0.6024 -14.2378 2.4576 -20.3283 33.8902
#
#
#
# Elastic Compliance Matrix: (Units=1/GPa)
#
#
# Indices 1 2 3 4 5 6 
#
# 1 0.007806 -0.002996 -0.002876 0.000833 -0.000488 0.002525
# 2 -0.002996 0.061842 -0.007950 0.047139 -0.002236 -0.008589
# 3 -0.002876 -0.007950 0.014997 0.001953 0.003548 0.006621
# 4 0.000833 0.047139 0.001953 0.070470 0.008139 0.001872
# 5 -0.000488 -0.002236 0.003548 0.008139 0.058528 0.035709
# 6 0.002525 -0.008589 0.006621 0.001872 0.035709 0.054758
#
#
# Mechanical properties :
#
#
# Convention : Reuss Voigt Hill
#
# Bulk Modulus (GPa) = 17.54318 66.99742 42.27030
# Shear Modulus (GPa) = 15.87077 33.79177 24.83127
#
# Velocity S-wave (km/s) = 2.79687 4.08111 3.49842
# Velocity P-wave (km/s) = 4.36769 7.43164 6.09532
#
# Compressibility (1/GPa) = 0.05700221
#
# Stress axis : x y z
#
# Youngs Moduli (GPa) = 128.10369 16.17035 66.67847
#
# Poissons Ratio (x) = 0.04844 0.19176
# Poissons Ratio (y) = 0.38378 0.53007
# Poissons Ratio (z) = 0.36842 0.12855
#
# Static dielectric constant tensor:
#      x y z
#    x -9.793790 -3.997910 5.885400 
#    y -3.997910 2.396220 0.791900 
#    z 5.885400 0.791900 1.310040 
# 
# 
# High freq. dielectric constant tensor:
#      x y z
#    x 1.823910 -0.005080 0.013430 
#    y -0.005080 1.764040 -0.061270 
#    z 0.013430 -0.061270 1.754470 
# 
# From -- ./inp_files/283489.got.cif
#   From: 2010.06.25/outbox.cif.g09.slc.cpg/sg2_142_cif.got.tgz:283489.got - 2010.06.27 13:26:56.
