data_PCOD8038163
_publ_section_title
;
Structure prediction by ZEFSAII (Michael W. Deem and Ramdas Pophale) SiO2 
 PCOD8038163
Probable space group: P -1
;
_chemical_formula_sum "Si O2"
_cell_formula_units_Z 16
_cell_length_a 14.269048
_cell_length_b 13.929068
_cell_length_c 9.435241
_cell_angle_alpha 118.656537
_cell_angle_beta 59.351798
_cell_angle_gamma 147.583772
_cell_volume 859.917494
_symmetry_space_group_name_H-M "P -1"
_symmetry_group_IT_number 2
_symmetry_cell_setting 'triclinic'
loop_
_space_group_symop_operation_xyz
x,y,z
-x,-y,-z
loop_
_atom_site_type_symbol
_atom_site_label
_atom_site_fract_x
_atom_site_fract_y
_atom_site_fract_z
Si Si1 0.340017 0.174128 0.194412
Si Si2 0.528318 0.235056 0.518972
Si Si3 0.902957 0.832615 0.545100
Si Si4 0.813754 0.282694 0.349768
Si Si5 0.602077 0.469826 0.409964
Si Si6 0.198581 0.918164 0.370788
Si Si7 0.176232 0.672488 0.301277
Si Si8 0.558495 0.882132 0.184100
O O1 0.239015 0.212082 0.281370
O O2 0.536309 0.344786 0.238819
O O3 0.229415 0.999349 0.251706
O O4 0.363354 0.146612 0.000753
O O5 0.710918 0.312950 0.416320
O O6 0.554931 0.375186 0.529331
O O7 0.474275 0.203575 0.702129
O O8 0.375441 0.049010 0.421163
O O9 0.810224 0.669747 0.394570
O O10 0.052322 0.877096 0.540746
O O11 0.000000 0.000000 0.500000
O O12 0.824972 0.275837 0.504509
O O13 0.015953 0.455377 0.253235
O O14 0.705418 0.095519 0.233466
O O15 0.500000 0.500000 0.500000
O O16 0.137157 0.742990 0.274468
O O17 0.369408 0.773915 0.190855
#
# Coordination Sequence:
#
# PCOD8038163 Si02
#       8
#     2   2   2   2   2   2   2   2
#     4   9  21  35  55  79 113 144 178 234 282 315
#     4  10  18  34  60  79 106 152 183 222 272 325
#     4   9  18  35  57  78 104 142 187 227 265 329
#     4  10  19  34  56  82 113 148 190 219 264 336
#     4   9  18  36  57  77 100 142 192 221 263 331
#     4  10  17  34  57  80 104 147 194 222 266 328
#     4  10  19  33  57  83 106 152 189 220 268 331
#     4  11  20  38  53  83 123 141 175 233 281 320
#
# _framework density 18.606437
#
# number of rings (size 3 to 8) (size 9 to 14) (size 15 to 20)
#    0.000    2.250    2.500    2.250    0.000    0.500 
#    4.500    3.750    0.000    0.000    0.000    0.000 
#    0.000    0.000    0.000    0.000    0.000    0.000 
#
# Total GULP energy -198216.844924 kJ/mol
# GULP energy per Si atom -12388.552808 kJ/mol
# Density = 1.856409 g / cm^3
# Si number density = 18.606437 Si / 1000 Ang^3
#
#
#
# Elastic Constant Matrix: (Units=GPa)
#
#
# Indices 1 2 3 4 5 6 
#
# 1 79.0493 25.3331 16.7681 -2.5260 -0.2460 -6.9474
# 2 25.3331 128.7532 28.8812 10.3195 -5.1829 2.4425
# 3 16.7681 28.8812 82.8859 4.2368 -4.9795 1.4923
# 4 -2.5260 10.3195 4.2368 13.6250 1.5301 -3.7933
# 5 -0.2460 -5.1829 -4.9795 1.5301 18.2815 -3.3686
# 6 -6.9474 2.4425 1.4923 -3.7933 -3.3686 31.8811
#
#
#
# Elastic Compliance Matrix: (Units=1/GPa)
#
#
# Indices 1 2 3 4 5 6 
#
# 1 0.014745 -0.003055 -0.002428 0.007124 -0.001135 0.004289
# 2 -0.003055 0.009627 -0.002146 -0.008018 0.002406 -0.002002
# 3 -0.002428 -0.002146 0.013708 -0.003757 0.003202 -0.001115
# 4 0.007124 -0.008018 -0.003757 0.086146 -0.008251 0.011720
# 5 -0.001135 0.002406 0.003202 -0.008251 0.057766 0.004540
# 6 0.004289 -0.002002 -0.001115 0.011720 0.004540 0.034381
#
#
# Mechanical properties :
#
#
# Convention : Reuss Voigt Hill
#
# Bulk Modulus (GPa) = 43.81602 48.07256 45.94429
# Shear Modulus (GPa) = 20.89970 27.40461 24.15215
#
# Velocity S-wave (km/s) = 3.35513 3.84194 3.60676
# Velocity P-wave (km/s) = 6.21363 6.75080 6.48778
#
# Compressibility (1/GPa) = 0.02282270
#
# Stress axis : x y z
#
# Youngs Moduli (GPa) = 67.81822 103.87851 72.94862
#
# Poissons Ratio (x) = 0.31730 0.17713
# Poissons Ratio (y) = 0.20715 0.15655
# Poissons Ratio (z) = 0.16468 0.22292
#
# Static dielectric constant tensor:
#      x y z
#    x 3.741740 0.232230 -0.114920 
#    y 0.232230 3.910450 0.019240 
#    z -0.114920 0.019240 2.990430 
# 
# 
# High freq. dielectric constant tensor:
#      x y z
#    x 1.731990 0.002430 -0.005290 
#    y 0.002430 1.743170 0.005240 
#    z -0.005290 0.005240 1.664830 
# 
# From -- ./inp_files/213553.got.cif
#   From: 2010.06.25/outbox.cif.g09.slc.cpg/sg2_107_cif.got.tgz:213553.got - 2010.06.27 13:26:56.
