data_PCOD8038639
_publ_section_title
;
Structure prediction by ZEFSAII (Michael W. Deem and Ramdas Pophale) SiO2 
 PCOD8038639
Probable space group: P -1
;
_chemical_formula_sum "Si O2"
_cell_formula_units_Z 16
_cell_length_a 11.976150
_cell_length_b 12.871274
_cell_length_c 13.388478
_cell_angle_alpha 157.821714
_cell_angle_beta 74.767820
_cell_angle_gamma 100.545115
_cell_volume 741.331298
_symmetry_space_group_name_H-M "P -1"
_symmetry_group_IT_number 2
_symmetry_cell_setting 'triclinic'
loop_
_space_group_symop_operation_xyz
x,y,z
-x,-y,-z
loop_
_atom_site_type_symbol
_atom_site_label
_atom_site_fract_x
_atom_site_fract_y
_atom_site_fract_z
Si Si1 0.122837 0.615023 0.342422
Si Si2 0.519348 0.453354 0.756423
Si Si3 0.299744 0.392838 0.273549
Si Si4 0.415531 0.135382 0.728368
Si Si5 0.987115 0.892075 0.060524
Si Si6 0.269933 0.374673 0.804192
Si Si7 0.863678 0.108106 0.618653
Si Si8 0.188824 0.890045 0.874391
O O1 0.235789 0.476142 0.256122
O O2 0.167433 0.767703 0.373184
O O3 0.034334 0.837067 0.624566
O O4 0.047161 0.377605 0.115002
O O5 0.562876 0.603996 0.782164
O O6 0.383529 0.415137 0.747801
O O7 0.602782 0.143555 0.455747
O O8 0.530335 0.638736 0.017858
O O9 0.249553 0.597371 0.555778
O O10 0.287382 0.085388 0.040717
O O11 0.299646 0.294088 0.842188
O O12 0.500000 0.000000 0.500000
O O13 0.123792 0.836458 0.945414
O O14 0.907086 0.936004 0.020178
O O15 0.209671 0.135771 0.555884
O O16 0.175918 0.657890 0.079835
O O17 0.000000 0.000000 0.500000
#
# Coordination Sequence:
#
# PCOD8038639 Si02
#       8
#     2   2   2   2   2   2   2   2
#     4  10  19  32  49  69  96 132 168 205 246 292
#     4  11  20  31  49  76 105 136 168 196 245 315
#     4  10  18  28  46  74 106 132 159 192 236 301
#     4  10  18  30  48  72  98 131 170 202 238 298
#     4   9  17  30  48  68  97 134 164 191 241 300
#     4  11  21  36  52  69  99 134 168 212 262 299
#     4  12  25  39  53  71  97 132 182 231 260 282
#     4   9  17  28  44  71 104 133 157 191 234 293
#
# _framework density 21.582794
#
# number of rings (size 3 to 8) (size 9 to 14) (size 15 to 20)
#    0.000    1.750    0.000    7.875    0.000    5.000 
#    0.000    0.000    0.000    0.000    0.000    0.000 
#    0.000   20.000    0.000    0.000    0.000    0.000 
#
# Total GULP energy -198337.737506 kJ/mol
# GULP energy per Si atom -12396.108594 kJ/mol
# Density = 2.153367 g / cm^3
# Si number density = 21.582794 Si / 1000 Ang^3
#
#
#
# Elastic Constant Matrix: (Units=GPa)
#
#
# Indices 1 2 3 4 5 6 
#
# 1 61.4238 19.0238 27.7072 10.5168 -2.9821 27.2264
# 2 19.0238 53.2481 13.2021 7.8523 6.7622 36.0257
# 3 27.7072 13.2021 91.3061 26.8294 6.4687 7.6814
# 4 10.5168 7.8523 26.8294 28.1024 13.1007 7.0236
# 5 -2.9821 6.7622 6.4687 13.1007 27.5276 5.1060
# 6 27.2264 36.0257 7.6814 7.0236 5.1060 32.4292
#
#
#
# Elastic Compliance Matrix: (Units=1/GPa)
#
#
# Indices 1 2 3 4 5 6 
#
# 1 0.051259 0.047507 -0.015057 -0.001878 0.015811 -0.094327
# 2 0.047507 0.122193 -0.019980 0.006363 0.009014 -0.173695
# 3 -0.015057 -0.019980 0.020533 -0.016905 0.000266 0.033593
# 4 -0.001878 0.006363 -0.016905 0.066193 -0.027154 -0.011549
# 5 0.015811 0.009014 0.000266 -0.027154 0.053488 -0.025892
# 6 -0.094327 -0.173695 0.033593 -0.011549 -0.025892 0.301609
#
#
# Mechanical properties :
#
#
# Convention : Reuss Voigt Hill
#
# Bulk Modulus (GPa) = 4.56777 36.20491 20.38634
# Shear Modulus (GPa) = 7.53796 27.34819 17.44308
#
# Velocity S-wave (km/s) = 1.87087 3.56354 2.84596
# Velocity P-wave (km/s) = 2.60535 5.80888 4.50172
#
# Compressibility (1/GPa) = 0.21892531
#
# Stress axis : x y z
#
# Youngs Moduli (GPa) = 19.50892 8.18376 48.70310
#
# Poissons Ratio (x) = -0.38879 0.73331
# Poissons Ratio (y) = -0.92682 0.97310
# Poissons Ratio (z) = 0.29374 0.16351
#
# Static dielectric constant tensor:
#      x y z
#    x 3.490620 0.428320 -0.026200 
#    y 0.428320 3.903860 0.429010 
#    z -0.026200 0.429010 4.355630 
# 
# 
# High freq. dielectric constant tensor:
#      x y z
#    x 1.795130 0.056110 -0.002710 
#    y 0.056110 1.823310 0.010850 
#    z -0.002710 0.010850 1.873710 
# 
# From -- ./inp_files/441251.got.cif
#   From: 2010.06.25/outbox.cif.g09.slc.cpg/sg2_221_cif.got.tgz:441251.got - 2010.06.27 13:26:56.
