data_PCOD8038338
_publ_section_title
;
Structure prediction by ZEFSAII (Michael W. Deem and Ramdas Pophale) SiO2 
 PCOD8038338
Probable space group: P -1
;
_chemical_formula_sum "Si O2"
_cell_formula_units_Z 16
_cell_length_a 21.751407
_cell_length_b 8.896979
_cell_length_c 15.190327
_cell_angle_alpha 115.629138
_cell_angle_beta 18.582294
_cell_angle_gamma 113.625997
_cell_volume 844.168478
_symmetry_space_group_name_H-M "P -1"
_symmetry_group_IT_number 2
_symmetry_cell_setting 'triclinic'
loop_
_space_group_symop_operation_xyz
x,y,z
-x,-y,-z
loop_
_atom_site_type_symbol
_atom_site_label
_atom_site_fract_x
_atom_site_fract_y
_atom_site_fract_z
Si Si1 0.219463 0.509710 0.687348
Si Si2 0.251298 0.878237 0.057600
Si Si3 0.764987 0.188502 0.576980
Si Si4 0.703517 0.409552 0.215931
Si Si5 0.095108 0.899376 0.452374
Si Si6 0.629320 0.854720 0.633978
Si Si7 0.113427 0.540516 0.652146
Si Si8 0.648488 0.787328 0.788262
O O1 0.303324 0.630605 0.679433
O O2 0.299360 0.321074 0.546010
O O3 0.242071 0.578155 0.574660
O O4 0.000000 0.500000 0.000000
O O5 0.146987 0.797761 0.265659
O O6 0.268700 0.754601 0.920685
O O7 0.463292 0.927616 0.813431
O O8 0.129859 0.041145 0.230470
O O9 0.868333 0.208373 0.536712
O O10 0.870775 0.308443 0.397832
O O11 0.790694 0.997231 0.457609
O O12 0.536757 0.236880 0.904415
O O13 0.500000 0.500000 0.500000
O O14 0.886024 0.524878 0.977208
O O15 0.229617 0.059076 0.306333
O O16 0.559327 0.823863 0.821488
O O17 0.204942 0.371018 0.444278
#
# Coordination Sequence:
#
# PCOD8038338 Si02
#       8
#     2   2   2   2   2   2   2   2
#     4   9  20  37  58  80 101 145 197 232 266 322
#     4  11  19  34  59  85 107 148 195 221 269 329
#     4  11  20  35  56  87 118 145 178 235 282 328
#     4  11  21  37  62  79 107 150 196 232 268 331
#     4  10  20  34  59  84 117 146 188 221 269 346
#     4  10  18  33  60  82 109 144 193 223 268 335
#     4  10  22  37  56  86 113 143 188 234 287 322
#     4  10  17  35  56  85 112 153 184 220 267 345
#
# _framework density 18.953564
#
# number of rings (size 3 to 8) (size 9 to 14) (size 15 to 20)
#    0.000    1.750    5.000    1.125    1.750    0.000 
#    0.000    4.375    0.000    1.500    0.000    0.000 
#    0.000    0.000    0.000    0.000    0.000    0.000 
#
# Total GULP energy -198220.967821 kJ/mol
# GULP energy per Si atom -12388.810489 kJ/mol
# Density = 1.891042 g / cm^3
# Si number density = 18.953564 Si / 1000 Ang^3
#
#
#
# Elastic Constant Matrix: (Units=GPa)
#
#
# Indices 1 2 3 4 5 6 
#
# 1 113.3197 38.6032 30.3296 10.3145 0.2447 0.6786
# 2 38.6032 56.9188 16.3661 6.0959 14.6735 -3.4766
# 3 30.3296 16.3661 78.9177 11.5159 -8.6042 -4.3968
# 4 10.3145 6.0959 11.5159 27.1953 2.7155 9.2014
# 5 0.2447 14.6735 -8.6042 2.7155 32.9641 5.1627
# 6 0.6786 -3.4766 -4.3968 9.2014 5.1627 34.2143
#
#
#
# Elastic Compliance Matrix: (Units=1/GPa)
#
#
# Indices 1 2 3 4 5 6 
#
# 1 0.012585 -0.008625 -0.002524 -0.001594 0.003460 -0.001544
# 2 -0.008625 0.028685 -0.003606 -0.002003 -0.014314 0.005321
# 3 -0.002524 -0.003606 0.016142 -0.006552 0.005967 0.002620
# 4 -0.001594 -0.002003 -0.006552 0.045176 -0.002527 -0.012782
# 5 0.003460 -0.014314 0.005967 -0.002527 0.039391 -0.006021
# 6 -0.001544 0.005321 0.002620 -0.012782 -0.006021 0.034481
#
#
# Mechanical properties :
#
#
# Convention : Reuss Voigt Hill
#
# Bulk Modulus (GPa) = 35.84029 46.63931 41.23980
# Shear Modulus (GPa) = 23.22642 29.79855 26.51248
#
# Velocity S-wave (km/s) = 3.50442 3.96938 3.74413
# Velocity P-wave (km/s) = 5.94350 6.75785 6.36372
#
# Compressibility (1/GPa) = 0.02790156
#
# Stress axis : x y z
#
# Youngs Moduli (GPa) = 79.45730 34.86106 61.95083
#
# Poissons Ratio (x) = 0.30069 0.15637
# Poissons Ratio (y) = 0.68535 0.22339
# Poissons Ratio (z) = 0.20056 0.12571
#
# Static dielectric constant tensor:
#      x y z
#    x 5.587900 0.266120 -0.144640 
#    y 0.266120 3.116970 0.286840 
#    z -0.144640 0.286840 3.493730 
# 
# 
# High freq. dielectric constant tensor:
#      x y z
#    x 1.755980 0.021540 -0.011780 
#    y 0.021540 1.689390 0.033170 
#    z -0.011780 0.033170 1.735110 
# 
# From -- ./inp_files/176109.got.cif
#   From: 2010.06.25/outbox.cif.g09.slc.cpg/sg2_89_cif.got.tgz:176109.got - 2010.06.27 13:26:56.
