data_PCOD8038240
_publ_section_title
;
Structure prediction by ZEFSAII (Michael W. Deem and Ramdas Pophale) SiO2 
 PCOD8038240
Probable space group: P -1
;
_chemical_formula_sum "Si O2"
_cell_formula_units_Z 16
_cell_length_a 9.365430
_cell_length_b 11.770211
_cell_length_c 10.551281
_cell_angle_alpha 119.959602
_cell_angle_beta 59.232799
_cell_angle_gamma 83.420848
_cell_volume 751.311068
_symmetry_space_group_name_H-M "P -1"
_symmetry_group_IT_number 2
_symmetry_cell_setting 'triclinic'
loop_
_space_group_symop_operation_xyz
x,y,z
-x,-y,-z
loop_
_atom_site_type_symbol
_atom_site_label
_atom_site_fract_x
_atom_site_fract_y
_atom_site_fract_z
Si Si1 0.678504 0.640544 0.846673
Si Si2 0.101605 0.594983 0.970883
Si Si3 0.550502 0.686810 0.413067
Si Si4 0.770824 0.869015 0.797568
Si Si5 0.284283 0.223549 0.848197
Si Si6 0.518490 0.061651 0.232924
Si Si7 0.668277 0.344110 0.894795
Si Si8 0.800456 0.303321 0.550680
O O1 0.731272 0.733569 0.777370
O O2 0.785482 0.466508 0.659282
O O3 0.744033 0.651467 0.965181
O O4 0.444588 0.716765 0.000362
O O5 0.283736 0.488497 0.739346
O O6 0.175219 0.640551 0.086761
O O7 0.000000 0.500000 0.000000
O O8 0.932087 0.745825 0.065737
O O9 0.610706 0.759766 0.312783
O O10 0.523292 0.776977 0.605771
O O11 0.353903 0.690113 0.474108
O O12 0.673070 0.925517 0.735569
O O13 0.992914 0.816071 0.662104
O O14 0.680631 0.002447 0.016992
O O15 0.413994 0.054654 0.746058
O O16 0.774786 0.243743 0.667023
O O17 0.500000 0.500000 0.000000
#
# Coordination Sequence:
#
# PCOD8038240 Si02
#       8
#     2   2   2   2   2   2   2   2
#     4  10  19  39  63  91 126 155 197 256 306 362
#     4  10  19  32  60 100 120 153 192 255 314 353
#     4  11  20  37  63  95 124 150 200 262 306 351
#     4  10  24  42  62  81 120 176 208 236 302 370
#     4  10  21  38  63  94 124 159 200 248 313 359
#     4  10  24  44  59  79 126 173 204 244 294 373
#     4  10  17  34  60  94 128 146 189 264 304 353
#     4  11  20  36  63  98 119 153 203 258 308 350
#
# _framework density 21.296106000000002
#
# number of rings (size 3 to 8) (size 9 to 14) (size 15 to 20)
#    0.000    1.750    3.750    3.000    5.250    0.500 
#    0.000    7.500    0.000    0.000    0.000    0.000 
#    0.000    0.000    0.000    0.000    0.000    0.000 
#
# Total GULP energy -198306.585548 kJ/mol
# GULP energy per Si atom -12394.161597 kJ/mol
# Density = 2.124764 g / cm^3
# Si number density = 21.296106 Si / 1000 Ang^3
#
#
#
# Elastic Constant Matrix: (Units=GPa)
#
#
# Indices 1 2 3 4 5 6 
#
# 1 151.3449 15.6680 48.5796 -3.7769 -16.7939 -3.7582
# 2 15.6680 37.1318 12.3167 -4.8903 -10.9387 -12.8340
# 3 48.5796 12.3167 118.3302 -0.6541 -8.2768 2.9630
# 4 -3.7769 -4.8903 -0.6541 20.0728 5.8428 -2.9163
# 5 -16.7939 -10.9387 -8.2768 5.8428 48.9808 -0.6501
# 6 -3.7582 -12.8340 2.9630 -2.9163 -0.6501 22.6876
#
#
#
# Elastic Compliance Matrix: (Units=1/GPa)
#
#
# Indices 1 2 3 4 5 6 
#
# 1 0.007968 -0.001342 -0.003025 0.000694 0.001853 0.001098
# 2 -0.001342 0.040979 -0.003788 0.011202 0.007048 0.025096
# 3 -0.003025 -0.003788 0.010182 -0.001769 -0.000008 -0.004201
# 4 0.000694 0.011202 -0.001769 0.055790 -0.004032 0.013739
# 5 0.001853 0.007048 -0.000008 -0.004032 0.023164 0.004441
# 6 0.001098 0.025096 -0.004201 0.013739 0.004441 0.060897
#
#
# Mechanical properties :
#
#
# Convention : Reuss Voigt Hill
#
# Bulk Modulus (GPa) = 23.35417 51.10394 37.22905
# Shear Modulus (GPa) = 21.78038 33.69775 27.73907
#
# Velocity S-wave (km/s) = 3.20150 3.98218 3.61299
# Velocity P-wave (km/s) = 4.96552 6.72255 5.90970
#
# Compressibility (1/GPa) = 0.04281890
#
# Stress axis : x y z
#
# Youngs Moduli (GPa) = 125.50778 24.40248 98.21046
#
# Poissons Ratio (x) = 0.03274 0.29713
# Poissons Ratio (y) = 0.16838 0.37203
# Poissons Ratio (z) = 0.37972 0.09244
#
# Static dielectric constant tensor:
#      x y z
#    x 4.254870 -0.121840 -0.266620 
#    y -0.121840 3.709260 -0.018000 
#    z -0.266620 -0.018000 4.109350 
# 
# 
# High freq. dielectric constant tensor:
#      x y z
#    x 1.846250 -0.005230 -0.002790 
#    y -0.005230 1.798780 -0.000640 
#    z -0.002790 -0.000640 1.834650 
# 
# From -- ./inp_files/397724.got.cif
#   From: 2010.06.25/outbox.cif.g09.slc.cpg/sg2_199_cif.got.tgz:397724.got - 2010.06.27 13:26:56.
