data_PCOD8038719
_publ_section_title
;
Structure prediction by ZEFSAII (Michael W. Deem and Ramdas Pophale) SiO2 
 PCOD8038719
Probable space group: P -1
;
_chemical_formula_sum "Si O2"
_cell_formula_units_Z 16
_cell_length_a 13.119194
_cell_length_b 13.075614
_cell_length_c 13.435533
_cell_angle_alpha 102.753673
_cell_angle_beta 158.295617
_cell_angle_gamma 75.449562
_cell_volume 824.484896
_symmetry_space_group_name_H-M "P -1"
_symmetry_group_IT_number 2
_symmetry_cell_setting 'triclinic'
loop_
_space_group_symop_operation_xyz
x,y,z
-x,-y,-z
loop_
_atom_site_type_symbol
_atom_site_label
_atom_site_fract_x
_atom_site_fract_y
_atom_site_fract_z
Si Si1 0.189421 0.119591 0.585426
Si Si2 0.110201 0.924761 0.995233
Si Si3 0.875714 0.775325 0.239522
Si Si4 0.658365 0.589333 0.348820
Si Si5 0.775433 0.992141 0.091319
Si Si6 0.301626 0.202451 0.494884
Si Si7 0.265977 0.598300 0.830070
Si Si8 0.607468 0.352792 0.253887
O O1 0.198056 0.184062 0.707874
O O2 0.196599 0.197439 0.513687
O O3 0.915276 0.060128 0.316437
O O4 0.448857 0.028127 0.799277
O O5 0.923924 0.829628 0.793993
O O6 0.085692 0.992624 0.886264
O O7 0.420735 0.875213 0.290805
O O8 0.000000 0.000000 0.000000
O O9 0.827545 0.868943 0.136839
O O10 0.192595 0.720723 0.506439
O O11 0.694119 0.683652 0.025093
O O12 0.669591 0.672905 0.467568
O O13 0.579770 0.475910 0.288568
O O14 0.961352 0.565388 0.566386
O O15 0.405629 0.648982 0.062910
O O16 0.255141 0.669691 0.736623
O O17 0.500000 0.500000 0.000000
#
# Coordination Sequence:
#
# PCOD8038719 Si02
#       8
#     2   2   2   2   2   2   2   2
#     4  10  19  33  49  72 103 134 171 207 243 300
#     4  10  21  38  58  81 100 120 162 218 271 319
#     4  12  21  32  48  72 104 145 175 200 239 289
#     4  11  20  33  48  72 104 137 176 215 246 293
#     4  10  21  35  52  73 100 133 169 210 255 301
#     4  10  20  33  55  79 102 132 162 207 266 307
#     4  10  18  30  45  65 100 144 181 212 237 266
#     4  11  21  30  45  70 102 141 178 205 234 283
#
# _framework density 19.406054999999999
#
# number of rings (size 3 to 8) (size 9 to 14) (size 15 to 20)
#    0.000    1.500    0.000    8.625    0.000    2.000 
#    0.000    0.000    0.000    0.000    0.000    5.250 
#    0.000    0.000    0.000    0.000    0.000    0.000 
#
# Total GULP energy -198377.025475 kJ/mol
# GULP energy per Si atom -12398.564092 kJ/mol
# Density = 1.936189 g / cm^3
# Si number density = 19.406055 Si / 1000 Ang^3
#
#
#
# Elastic Constant Matrix: (Units=GPa)
#
#
# Indices 1 2 3 4 5 6 
#
# 1 38.3988 21.0897 7.3152 8.5377 -1.7762 -11.7269
# 2 21.0897 94.6493 11.5215 18.0857 -8.6866 2.3251
# 3 7.3152 11.5215 79.1635 11.9839 -0.8652 10.7387
# 4 8.5377 18.0857 11.9839 34.9817 1.6593 -3.4951
# 5 -1.7762 -8.6866 -0.8652 1.6593 17.9563 1.8829
# 6 -11.7269 2.3251 10.7387 -3.4951 1.8829 20.5796
#
#
#
# Elastic Compliance Matrix: (Units=1/GPa)
#
#
# Indices 1 2 3 4 5 6 
#
# 1 0.040673 -0.009325 -0.006210 -0.000025 -0.003700 0.027805
# 2 -0.009325 0.014827 0.001161 -0.007118 0.007963 -0.009532
# 3 -0.006210 0.001161 0.015742 -0.005914 0.002629 -0.013129
# 4 -0.000025 -0.007118 -0.005914 0.035754 -0.008156 0.010694
# 5 -0.003700 0.007963 0.002629 -0.008156 0.061250 -0.011369
# 6 0.027805 -0.009532 -0.013129 0.010694 -0.011369 0.075220
#
#
# Mechanical properties :
#
#
# Convention : Reuss Voigt Hill
#
# Bulk Modulus (GPa) = 23.53205 32.45161 27.99183
# Shear Modulus (GPa) = 17.45952 26.18918 21.82435
#
# Velocity S-wave (km/s) = 3.00274 3.67759 3.35717
# Velocity P-wave (km/s) = 4.91675 5.89844 5.42983
#
# Compressibility (1/GPa) = 0.04249523
#
# Stress axis : x y z
#
# Youngs Moduli (GPa) = 24.58642 67.44572 63.52473
#
# Poissons Ratio (x) = 0.62891 0.39448
# Poissons Ratio (y) = 0.22926 -0.07377
# Poissons Ratio (z) = 0.15268 -0.07833
#
# Static dielectric constant tensor:
#      x y z
#    x 3.050200 0.058360 -0.107050 
#    y 0.058360 3.525770 0.039700 
#    z -0.107050 0.039700 4.226730 
# 
# 
# High freq. dielectric constant tensor:
#      x y z
#    x 1.677350 -0.000510 0.009580 
#    y -0.000510 1.762990 0.001680 
#    z 0.009580 0.001680 1.788230 
# 
# From -- ./inp_files/84087.got.cif
#   From: 2010.06.25/outbox.cif.g09.slc.cpg/sg2_43_cif.got.tgz:84087.got - 2010.06.27 13:26:56.
