data_PCOD8038667
_publ_section_title
;
Structure prediction by ZEFSAII (Michael W. Deem and Ramdas Pophale) SiO2 
 PCOD8038667
Probable space group: P -1
;
_chemical_formula_sum "Si O2"
_cell_formula_units_Z 14
_cell_length_a 14.383258
_cell_length_b 17.221260
_cell_length_c 14.664702
_cell_angle_alpha 65.130025
_cell_angle_beta 159.418027
_cell_angle_gamma 124.554142
_cell_volume 972.207796
_symmetry_space_group_name_H-M "P -1"
_symmetry_group_IT_number 2
_symmetry_cell_setting 'triclinic'
loop_
_space_group_symop_operation_xyz
x,y,z
-x,-y,-z
loop_
_atom_site_type_symbol
_atom_site_label
_atom_site_fract_x
_atom_site_fract_y
_atom_site_fract_z
Si Si1 0.380026 0.228810 0.700936
Si Si2 0.290015 0.476912 0.521986
Si Si3 0.961180 0.633468 0.373493
Si Si4 0.560561 0.416655 0.209976
Si Si5 0.682847 0.120068 0.102353
Si Si6 0.974371 0.728321 0.518132
Si Si7 0.175303 0.548347 0.044034
O O1 0.038995 0.169154 0.365951
O O2 0.328373 0.265156 0.735850
O O3 0.492370 0.150814 0.847489
O O4 0.639628 0.329097 0.835367
O O5 0.434494 0.566344 0.685863
O O6 0.062589 0.367751 0.414700
O O7 0.077977 0.493451 0.249397
O O8 0.579106 0.484516 0.731204
O O9 0.753177 0.523736 0.282522
O O10 0.295819 0.651902 0.644002
O O11 0.004797 0.719108 0.442795
O O12 0.794486 0.642577 0.125898
O O13 0.712661 0.168832 0.206525
O O14 0.500000 0.000000 0.000000
O O15 0.000000 0.500000 0.000000
#
# Coordination Sequence:
#
# PCOD8038667 Si02
#       7
#     2   2   2   2   2   2   2
#     4   9  18  30  41  61  84 112 143 175 209 242
#     4  10  18  30  41  58  87 113 145 175 209 243
#     4   9  16  24  37  57  77 108 146 165 195 239
#     4   9  17  25  37  55  79 110 140 173 197 233
#     4  10  18  29  44  61  82 117 146 169 212 250
#     4   8  18  25  44  56  87 112 144 170 204 243
#     4  11  19  30  46  62  81 115 150 178 209 249
#
# _framework density 14.400214
#
# number of rings (size 3 to 8) (size 9 to 14) (size 15 to 20)
#    0.857    1.714    1.429    1.714    2.000    3.429 
#    0.000    0.000    0.000    0.000    0.000    0.000 
#    0.000    0.000    0.000   25.714    0.000    1.429 
#
# Total GULP energy -173464.708432 kJ/mol
# GULP energy per Si atom -12390.336317 kJ/mol
# Density = 1.436744 g / cm^3
# Si number density = 14.400214 Si / 1000 Ang^3
#
#
#
# Elastic Constant Matrix: (Units=GPa)
#
#
# Indices 1 2 3 4 5 6 
#
# 1 59.5513 30.9225 25.1414 8.2143 -3.6728 -3.3518
# 2 30.9225 61.1566 28.8162 0.7261 3.8026 -6.0310
# 3 25.1414 28.8162 87.8620 -11.7424 -1.7391 -2.0426
# 4 8.2143 0.7261 -11.7424 21.8512 -5.4513 -0.8031
# 5 -3.6728 3.8026 -1.7391 -5.4513 22.5768 -1.8158
# 6 -3.3518 -6.0310 -2.0426 -0.8031 -1.8158 13.5574
#
#
#
# Elastic Compliance Matrix: (Units=1/GPa)
#
#
# Indices 1 2 3 4 5 6 
#
# 1 0.026618 -0.010801 -0.005595 -0.011910 0.002892 0.000615
# 2 -0.010801 0.025395 -0.005319 -0.000909 -0.006104 0.006954
# 3 -0.005595 -0.005319 0.016435 0.012156 0.004188 0.000008
# 4 -0.011910 -0.000909 0.012156 0.060459 0.014068 0.003948
# 5 0.002892 -0.006104 0.004188 0.014068 0.050007 0.006161
# 6 0.000615 0.006954 0.000008 0.003948 0.006161 0.078066
#
#
# Mechanical properties :
#
#
# Convention : Reuss Voigt Hill
#
# Bulk Modulus (GPa) = 39.96886 42.03667 41.00277
# Shear Modulus (GPa) = 16.19446 19.84306 18.01876
#
# Velocity S-wave (km/s) = 3.35714 3.71613 3.54119
# Velocity P-wave (km/s) = 6.54547 6.90419 6.72722
#
# Compressibility (1/GPa) = 0.02501948
#
# Stress axis : x y z
#
# Youngs Moduli (GPa) = 37.56817 39.37793 60.84749
#
# Poissons Ratio (x) = 0.42531 0.34041
# Poissons Ratio (y) = 0.40576 0.32364
# Poissons Ratio (z) = 0.21018 0.20945
#
# Static dielectric constant tensor:
#      x y z
#    x 2.647740 -0.216660 -0.022110 
#    y -0.216660 2.511510 -0.154280 
#    z -0.022110 -0.154280 2.930930 
# 
# 
# High freq. dielectric constant tensor:
#      x y z
#    x 1.520800 -0.026860 -0.001160 
#    y -0.026860 1.508400 -0.021800 
#    z -0.001160 -0.021800 1.562860 
# 
# From -- ./inp_files/101717.got.cif
#   From: 2010.06.25/outbox.cif.g09.slc.cpg/sg2_51_cif.got.tgz:101717.got - 2010.06.27 13:26:56.
