data_PCOD8038876
_publ_section_title
;
Structure prediction by ZEFSAII (Michael W. Deem and Ramdas Pophale) SiO2 
 PCOD8038876
Probable space group: P -1
;
_chemical_formula_sum "Si O2"
_cell_formula_units_Z 16
_cell_length_a 10.663836
_cell_length_b 12.078165
_cell_length_c 9.625209
_cell_angle_alpha 129.857361
_cell_angle_beta 70.538050
_cell_angle_gamma 79.957941
_cell_volume 757.544336
_symmetry_space_group_name_H-M "P -1"
_symmetry_group_IT_number 2
_symmetry_cell_setting 'triclinic'
loop_
_space_group_symop_operation_xyz
x,y,z
-x,-y,-z
loop_
_atom_site_type_symbol
_atom_site_label
_atom_site_fract_x
_atom_site_fract_y
_atom_site_fract_z
Si Si1 0.650936 0.680629 0.041297
Si Si2 0.910010 0.917379 0.527558
Si Si3 0.562539 0.115922 0.504759
Si Si4 0.586754 0.088977 0.906291
Si Si5 0.867769 0.798077 0.170881
Si Si6 0.573009 0.771207 0.655282
Si Si7 0.105700 0.558809 0.681594
Si Si8 0.916863 0.373797 0.564839
O O1 0.511960 0.718345 0.232144
O O2 0.572079 0.815624 0.051779
O O3 0.775846 0.704067 0.099775
O O4 0.742914 0.490179 0.792274
O O5 0.910542 0.786469 0.309003
O O6 0.996109 0.812273 0.549564
O O7 0.734146 0.072838 0.757770
O O8 0.000000 0.000000 0.500000
O O9 0.510580 0.183904 0.424868
O O10 0.500000 0.000000 0.500000
O O11 0.752798 0.001655 0.343602
O O12 0.636627 0.895015 0.763707
O O13 0.551839 0.193664 0.147541
O O14 0.024891 0.709558 0.947626
O O15 0.715730 0.575363 0.446031
O O16 0.103133 0.645513 0.606612
O O17 0.012265 0.464692 0.626090
#
# Coordination Sequence:
#
# PCOD8038876 Si02
#       8
#     2   2   2   2   2   2   2   2
#     4  10  18  35  59  89 121 143 190 262 310 342
#     4  12  26  43  59  81 124 175 205 230 280 372
#     4  10  18  31  51  87 121 148 183 241 307 357
#     4  11  20  36  60  89 121 155 202 239 302 360
#     4  10  21  35  57  90 119 153 197 246 307 346
#     4  11  20  31  61  94 121 150 184 257 314 348
#     4  10  21  34  59  95 125 142 184 265 322 345
#     4  10  22  36  57  90 123 154 191 244 312 358
#
# _framework density 21.120875999999999
#
# number of rings (size 3 to 8) (size 9 to 14) (size 15 to 20)
#    0.000    1.500    6.250    0.750    3.500    1.000 
#    0.000    1.250    0.000    0.750    0.000    0.000 
#    0.000    0.000    0.000    0.000    0.000    0.000 
#
# Total GULP energy -198308.739074 kJ/mol
# GULP energy per Si atom -12394.296192 kJ/mol
# Density = 2.107280 g / cm^3
# Si number density = 21.120876 Si / 1000 Ang^3
#
#
#
# Elastic Constant Matrix: (Units=GPa)
#
#
# Indices 1 2 3 4 5 6 
#
# 1 33.4062 29.5460 21.8434 -1.4379 -12.8732 -6.6613
# 2 29.5460 97.0818 35.0435 -12.9321 -0.4557 -28.3948
# 3 21.8434 35.0435 175.7021 -20.1187 -27.0407 -17.9284
# 4 -1.4379 -12.9321 -20.1187 35.1251 -10.7209 -0.5824
# 5 -12.8732 -0.4557 -27.0407 -10.7209 22.7000 -3.5784
# 6 -6.6613 -28.3948 -17.9284 -0.5824 -3.5784 28.2055
#
#
#
# Elastic Compliance Matrix: (Units=1/GPa)
#
#
# Indices 1 2 3 4 5 6 
#
# 1 0.062646 -0.016200 0.006161 0.016023 0.051570 0.009276
# 2 -0.016200 0.021066 -0.000338 0.006064 -0.003649 0.016829
# 3 0.006161 -0.000338 0.012417 0.015951 0.027841 0.012870
# 4 0.016023 0.006064 0.015951 0.059567 0.060912 0.028986
# 5 0.051570 -0.003649 0.027841 0.060912 0.142333 0.045518
# 6 0.009276 0.016829 0.012870 0.028986 0.045518 0.069140
#
#
# Mechanical properties :
#
#
# Convention : Reuss Voigt Hill
#
# Bulk Modulus (GPa) = 13.26699 53.22844 33.24772
# Shear Modulus (GPa) = 12.10512 31.85661 21.98087
#
# Velocity S-wave (km/s) = 2.39662 3.88790 3.22952
# Velocity P-wave (km/s) = 3.73544 6.73876 5.44813
#
# Compressibility (1/GPa) = 0.07537502
#
# Stress axis : x y z
#
# Youngs Moduli (GPa) = 15.96259 47.47075 80.53259
#
# Poissons Ratio (x) = 0.76904 -0.49614
# Poissons Ratio (y) = 0.25860 0.02718
# Poissons Ratio (z) = -0.09834 0.01602
#
# Static dielectric constant tensor:
#      x y z
#    x 3.285600 -0.407550 -0.362890 
#    y -0.407550 3.622020 -0.160350 
#    z -0.362890 -0.160350 4.686890 
# 
# 
# High freq. dielectric constant tensor:
#      x y z
#    x 1.767080 -0.048110 -0.023760 
#    y -0.048110 1.809240 -0.016210 
#    z -0.023760 -0.016210 1.856280 
# 
# From -- ./inp_files/259973.got.cif
#   From: 2010.06.25/outbox.cif.g09.slc.cpg/sg2_130_cif.got.tgz:259973.got - 2010.06.27 13:26:56.
