data_PCOD8038060
_publ_section_title
;
Structure prediction by ZEFSAII (Michael W. Deem and Ramdas Pophale) SiO2 
 PCOD8038060
Probable space group: P -1
;
_chemical_formula_sum "Si O2"
_cell_formula_units_Z 16
_cell_length_a 9.923213
_cell_length_b 10.249534
_cell_length_c 18.863760
_cell_angle_alpha 53.187043
_cell_angle_beta 151.889870
_cell_angle_gamma 125.408171
_cell_volume 717.113301
_symmetry_space_group_name_H-M "P -1"
_symmetry_group_IT_number 2
_symmetry_cell_setting 'triclinic'
loop_
_space_group_symop_operation_xyz
x,y,z
-x,-y,-z
loop_
_atom_site_type_symbol
_atom_site_label
_atom_site_fract_x
_atom_site_fract_y
_atom_site_fract_z
Si Si1 0.622865 0.097386 0.737734
Si Si2 0.513805 0.733556 0.070745
Si Si3 0.752854 0.189045 0.421091
Si Si4 0.279866 0.123763 0.016883
Si Si5 0.084935 0.631844 0.434033
Si Si6 0.639523 0.630446 0.909400
Si Si7 0.352068 0.350448 0.605138
Si Si8 0.166671 0.661879 0.058543
O O1 0.514961 0.276632 0.638150
O O2 0.939179 0.109226 0.847183
O O3 0.406724 0.987739 0.619956
O O4 0.627716 0.022821 0.844487
O O5 0.551435 0.870770 0.981770
O O6 0.352193 0.562861 0.018801
O O7 0.303404 0.785864 0.018746
O O8 0.825682 0.705601 0.252787
O O9 0.722744 0.216993 0.483485
O O10 0.626872 0.335942 0.273469
O O11 0.089741 0.208488 0.549787
O O12 0.381192 0.297440 0.045538
O O13 0.252609 0.531781 0.485781
O O14 0.000000 0.500000 0.500000
O O15 0.933784 0.734228 0.977351
O O16 0.565988 0.386564 0.758430
O O17 0.000000 0.500000 0.000000
#
# Coordination Sequence:
#
# PCOD8038060 Si02
#       8
#     2   2   2   2   2   2   2   2
#     4  10  22  39  59  84 119 169 201 235 302 354
#     4  11  19  35  60  93 117 155 199 252 301 345
#     4  10  19  35  64  86 113 161 204 235 291 374
#     4  10  22  38  58  83 126 158 202 248 293 359
#     4  10  17  33  60  88 113 150 195 243 297 355
#     4  10  18  35  60  90 116 151 200 250 301 346
#     4  11  18  36  62  89 114 153 203 240 292 367
#     4  10  19  31  60  91 117 145 196 246 297 351
#
# _framework density 22.311675999999999
#
# number of rings (size 3 to 8) (size 9 to 14) (size 15 to 20)
#    0.000    1.750    6.250    1.500    0.000    0.000 
#    0.000    1.875    0.000    3.000    0.000    0.000 
#    0.000    0.000    0.000    0.000    0.000    0.000 
#
# Total GULP energy -198216.981350 kJ/mol
# GULP energy per Si atom -12388.561334 kJ/mol
# Density = 2.226089 g / cm^3
# Si number density = 22.311676 Si / 1000 Ang^3
#
#
#
# Elastic Constant Matrix: (Units=GPa)
#
#
# Indices 1 2 3 4 5 6 
#
# 1 92.3667 20.6824 20.5619 0.5237 3.3026 14.2813
# 2 20.6824 57.7248 26.0511 14.1697 -3.2288 -16.1742
# 3 20.5619 26.0511 88.9086 29.5460 7.3729 -0.4909
# 4 0.5237 14.1697 29.5460 32.9501 -4.9549 -1.4351
# 5 3.3026 -3.2288 7.3729 -4.9549 27.2277 -0.8502
# 6 14.2813 -16.1742 -0.4909 -1.4351 -0.8502 31.7490
#
#
#
# Elastic Compliance Matrix: (Units=1/GPa)
#
#
# Indices 1 2 3 4 5 6 
#
# 1 0.015076 -0.008678 -0.002556 0.005063 -0.001589 -0.011055
# 2 -0.008678 0.029852 -0.004825 -0.006760 0.005258 0.018872
# 3 -0.002556 -0.004825 0.019544 -0.016800 -0.008674 -0.001998
# 4 0.005063 -0.006760 -0.016800 0.049913 0.012111 -0.003401
# 5 -0.001589 0.005258 -0.008674 0.012111 0.042251 0.004939
# 6 -0.011055 0.018872 -0.001998 -0.003401 0.004939 0.046032
#
#
# Mechanical properties :
#
#
# Convention : Reuss Voigt Hill
#
# Bulk Modulus (GPa) = 30.90842 41.51010 36.20926
# Shear Modulus (GPa) = 20.36086 29.83234 25.09660
#
# Velocity S-wave (km/s) = 3.02415 3.66057 3.35747
# Velocity P-wave (km/s) = 5.10657 6.04247 5.59412
#
# Compressibility (1/GPa) = 0.03235364
#
# Stress axis : x y z
#
# Youngs Moduli (GPa) = 66.33110 33.49902 51.16692
#
# Poissons Ratio (x) = 0.29069 0.13078
# Poissons Ratio (y) = 0.57560 0.24690
# Poissons Ratio (z) = 0.16953 0.16165
#
# Static dielectric constant tensor:
#      x y z
#    x 4.400070 -0.422910 0.296870 
#    y -0.422910 3.961150 0.314620 
#    z 0.296870 0.314620 4.037310 
# 
# 
# High freq. dielectric constant tensor:
#      x y z
#    x 1.859880 -0.036230 0.010880 
#    y -0.036230 1.863470 0.031860 
#    z 0.010880 0.031860 1.875350 
# 
# From -- ./inp_files/260386.got.cif
#   From: 2010.06.25/outbox.cif.g09.slc.cpg/sg2_131_cif.got.tgz:260386.got - 2010.06.27 13:26:56.
