data_PCOD8038012
_publ_section_title
;
Structure prediction by ZEFSAII (Michael W. Deem and Ramdas Pophale) SiO2 
 PCOD8038012
Probable space group: P -1
;
_chemical_formula_sum "Si O2"
_cell_formula_units_Z 14
_cell_length_a 15.000000
_cell_length_b 12.000000
_cell_length_c 24.000000
_cell_angle_alpha 30.000000
_cell_angle_beta 160.000000
_cell_angle_gamma 140.000000
_cell_volume 709.376003
_symmetry_space_group_name_H-M "P -1"
_symmetry_group_IT_number 2
_symmetry_cell_setting 'triclinic'
loop_
_space_group_symop_operation_xyz
x,y,z
-x,-y,-z
loop_
_atom_site_type_symbol
_atom_site_label
_atom_site_fract_x
_atom_site_fract_y
_atom_site_fract_z
Si Si1 0.389906 0.144809 0.716589
Si Si2 0.066423 0.785950 0.963285
Si Si3 0.278358 0.893632 0.285874
Si Si4 0.022015 0.880901 0.664058
Si Si5 0.531780 0.890058 0.799642
Si Si6 0.873081 0.734545 0.753033
Si Si7 0.010546 0.503663 0.272421
O O1 0.115697 0.356087 0.454346
O O2 0.299099 0.936173 0.783697
O O3 0.515020 0.074124 0.759592
O O4 0.614293 0.223096 0.850817
O O5 0.925111 0.849499 0.792295
O O6 0.021585 0.543236 0.061300
O O7 0.936575 0.978796 0.849285
O O8 0.559452 0.805256 0.521994
O O9 0.190353 0.684349 0.295699
O O10 0.294829 0.061231 0.171853
O O11 0.958047 0.661547 0.691488
O O12 0.040571 0.828793 0.763348
O O13 0.768349 0.102198 0.402246
O O14 0.690080 0.640361 0.026832
#
# Coordination Sequence:
#
# PCOD8038012 Si02
#       7
#     2   2   2   2   2   2   2
#     4  11  23  37  56  88 119 149 188 227 285 344
#     4  11  22  40  62  84 111 150 195 235 282 328
#     4  11  21  36  61  90 112 145 190 240 284 333
#     4  10  24  38  56  87 117 151 189 228 280 344
#     4  10  21  35  58  86 118 148 182 234 282 338
#     4  10  23  41  61  81 113 152 193 239 273 330
#     4  11  20  35  59  85 118 147 181 232 289 336
#
# _framework density 19.735655000000001
#
# number of rings (size 3 to 8) (size 9 to 14) (size 15 to 20)
#    0.000    1.429    2.857    3.429    2.000    4.571 
#    0.000    0.000    0.000    0.857    0.000    0.000 
#    0.000    0.000    0.000    0.000    0.000    0.000 
#
# Total GULP energy -173521.853000 kJ/mol
# GULP energy per Si atom -12394.418071 kJ/mol
# Density = 1.969074 g / cm^3
# Si number density = 19.735655 Si / 1000 Ang^3
#
#
#
# Elastic Constant Matrix: (Units=GPa)
#
#
# Indices 1 2 3 4 5 6 
#
# 1 88.8176 56.5249 38.2290 10.9864 -6.2684 -3.4263
# 2 56.5249 83.6008 30.8394 11.8444 1.7076 0.7655
# 3 38.2290 30.8394 105.1714 1.5994 -13.6315 -2.5823
# 4 10.9864 11.8444 1.5994 25.9248 -7.1964 -0.0739
# 5 -6.2684 1.7076 -13.6315 -7.1964 20.7409 3.8830
# 6 -3.4263 0.7655 -2.5823 -0.0739 3.8830 16.9956
#
#
#
# Elastic Compliance Matrix: (Units=1/GPa)
#
#
# Indices 1 2 3 4 5 6 
#
# 1 0.021919 -0.013454 -0.003357 -0.001742 0.004260 0.003534
# 2 -0.013454 0.023631 -0.003336 -0.007827 -0.010563 -0.001904
# 3 -0.003357 -0.003336 0.012847 0.004789 0.009501 -0.000724
# 4 -0.001742 -0.007827 0.004789 0.048341 0.020750 -0.003802
# 5 0.004260 -0.010563 0.009501 0.020750 0.066105 -0.012235
# 6 0.003534 -0.001904 -0.000724 -0.003802 -0.012235 0.062306
#
#
# Mechanical properties :
#
#
# Convention : Reuss Voigt Hill
#
# Bulk Modulus (GPa) = 55.23658 58.75293 56.99476
# Shear Modulus (GPa) = 17.76348 22.86536 20.31442
#
# Velocity S-wave (km/s) = 3.00337 3.40749 3.21179
# Velocity P-wave (km/s) = 6.33056 6.73171 6.53421
#
# Compressibility (1/GPa) = 0.01810394
#
# Stress axis : x y z
#
# Youngs Moduli (GPa) = 45.62297 42.31750 77.83695
#
# Poissons Ratio (x) = 0.56935 0.26128
# Poissons Ratio (y) = 0.61382 0.25963
# Poissons Ratio (z) = 0.15314 0.14116
#
# Static dielectric constant tensor:
#      x y z
#    x 3.466050 -0.066240 -0.130050 
#    y -0.066240 3.468060 0.040310 
#    z -0.130050 0.040310 3.971230 
# 
# 
# High freq. dielectric constant tensor:
#      x y z
#    x 1.756530 0.000720 -0.009420 
#    y 0.000720 1.761640 0.007510 
#    z -0.009420 0.007510 1.784090 
# 
# From -- ./inp_files/201149.got.cif
#   From: 2010.06.25/outbox.ucp.g09.slc.cvg/sg2_101_cif.got.tgz:201149.got - 2010.06.28 11:54:26.
