data_PCOD8038201
_publ_section_title
;
Structure prediction by ZEFSAII (Michael W. Deem and Ramdas Pophale) SiO2 
 PCOD8038201
Probable space group: P -1
;
_chemical_formula_sum "Si O2"
_cell_formula_units_Z 14
_cell_length_a 7.975162
_cell_length_b 10.153976
_cell_length_c 11.347356
_cell_angle_alpha 113.586719
_cell_angle_beta 59.748619
_cell_angle_gamma 75.238972
_cell_volume 594.411638
_symmetry_space_group_name_H-M "P -1"
_symmetry_group_IT_number 2
_symmetry_cell_setting 'triclinic'
loop_
_space_group_symop_operation_xyz
x,y,z
-x,-y,-z
loop_
_atom_site_type_symbol
_atom_site_label
_atom_site_fract_x
_atom_site_fract_y
_atom_site_fract_z
Si Si1 0.772262 0.192690 0.501344
Si Si2 0.225851 0.823965 0.241519
Si Si3 0.862710 0.405750 0.939664
Si Si4 0.109756 0.313280 0.052840
Si Si5 0.634527 0.813826 0.445392
Si Si6 0.443064 0.037113 0.222240
Si Si7 0.049397 0.339965 0.348187
O O1 0.715651 0.262263 0.680339
O O2 0.532310 0.255066 0.538559
O O3 0.887474 0.277528 0.424576
O O4 0.945793 0.979688 0.375970
O O5 0.289342 0.665218 0.074695
O O6 0.369011 0.903864 0.188089
O O7 0.899971 0.372475 0.054751
O O8 0.113299 0.316554 0.750852
O O9 0.738644 0.611792 0.023182
O O10 0.270736 0.098602 0.926223
O O11 0.996607 0.395086 0.249816
O O12 0.664816 0.837765 0.580751
O O13 0.500000 0.000000 0.500000
O O14 0.329295 0.174738 0.203111
O O15 0.000000 0.500000 0.500000
#
# Coordination Sequence:
#
# PCOD8038201 Si02
#       7
#     2   2   2   2   2   2   2
#     4  10  19  32  62  90 119 152 202 245 293 357
#     4  10  17  34  58  93 113 152 199 249 299 344
#     4  11  22  37  64  88 123 154 202 254 291 353
#     4  11  23  41  57  88 122 161 196 247 304 348
#     4  12  18  37  64  92 117 153 199 247 295 348
#     4  11  22  38  65  88 121 157 200 248 298 356
#     4  11  24  43  61  85 123 162 200 245 299 359
#
# _framework density 23.552703999999999
#
# number of rings (size 3 to 8) (size 9 to 14) (size 15 to 20)
#    0.000    1.143    4.286    3.857    0.000    0.571 
#    0.000   13.571    0.000    0.000    0.000    0.000 
#    0.000    0.000    0.000    0.000    0.000    0.000 
#
# Total GULP energy -173553.554605 kJ/mol
# GULP energy per Si atom -12396.682472 kJ/mol
# Density = 2.349910 g / cm^3
# Si number density = 23.552704 Si / 1000 Ang^3
#
#
#
# Elastic Constant Matrix: (Units=GPa)
#
#
# Indices 1 2 3 4 5 6 
#
# 1 94.3153 46.9050 18.4909 2.8312 35.3601 9.8116
# 2 46.9050 108.6696 28.5995 -7.0035 20.4354 -10.1699
# 3 18.4909 28.5995 74.6212 -0.2066 28.9049 -5.1659
# 4 2.8312 -7.0035 -0.2066 38.7182 -7.1204 3.3147
# 5 35.3601 20.4354 28.9049 -7.1204 47.9591 1.5767
# 6 9.8116 -10.1699 -5.1659 3.3147 1.5767 30.6125
#
#
#
# Elastic Compliance Matrix: (Units=1/GPa)
#
#
# Indices 1 2 3 4 5 6 
#
# 1 0.019858 -0.007747 0.002741 -0.004689 -0.013450 -0.007275
# 2 -0.007747 0.013875 -0.003905 0.002984 0.002399 0.005987
# 3 0.002741 -0.003905 0.019183 -0.003274 -0.012473 0.002058
# 4 -0.004689 0.002984 -0.003274 0.028376 0.008424 -0.001565
# 5 -0.013450 0.002399 -0.012473 0.008424 0.038510 0.000107
# 6 -0.007275 0.005987 0.002058 -0.001565 0.000107 0.037498
#
#
# Mechanical properties :
#
#
# Convention : Reuss Voigt Hill
#
# Bulk Modulus (GPa) = 28.49319 51.73297 40.11308
# Shear Modulus (GPa) = 26.76401 35.69867 31.23134
#
# Velocity S-wave (km/s) = 3.37463 3.89741 3.64541
# Velocity P-wave (km/s) = 5.22571 6.50120 5.89803
#
# Compressibility (1/GPa) = 0.03509611
#
# Stress axis : x y z
#
# Youngs Moduli (GPa) = 50.35807 72.07243 52.12926
#
# Poissons Ratio (x) = 0.55831 -0.14291
# Poissons Ratio (y) = 0.39010 0.20355
# Poissons Ratio (z) = -0.13805 0.28142
#
# Static dielectric constant tensor:
#      x y z
#    x 3.958820 -0.512640 -0.600290 
#    y -0.512640 4.315450 0.219920 
#    z -0.600290 0.219920 3.596900 
# 
# 
# High freq. dielectric constant tensor:
#      x y z
#    x 1.934900 -0.016880 0.016000 
#    y -0.016880 1.926750 0.021970 
#    z 0.016000 0.021970 1.925610 
# 
# From -- ./inp_files/306411.got.cif
#   From: 2010.06.25/outbox.cif.g09.slc.cpg/sg2_154_cif.got.tgz:306411.got - 2010.06.27 13:26:56.
