data_PCOD8038656
_publ_section_title
;
Structure prediction by ZEFSAII (Michael W. Deem and Ramdas Pophale) SiO2 
 PCOD8038656
Probable space group: P -1
;
_chemical_formula_sum "Si O2"
_cell_formula_units_Z 16
_cell_length_a 12.358952
_cell_length_b 17.193189
_cell_length_c 8.986034
_cell_angle_alpha 91.414086
_cell_angle_beta 88.854477
_cell_angle_gamma 154.720297
_cell_volume 815.142448
_symmetry_space_group_name_H-M "P -1"
_symmetry_group_IT_number 2
_symmetry_cell_setting 'triclinic'
loop_
_space_group_symop_operation_xyz
x,y,z
-x,-y,-z
loop_
_atom_site_type_symbol
_atom_site_label
_atom_site_fract_x
_atom_site_fract_y
_atom_site_fract_z
Si Si1 0.828603 0.779961 0.581900
Si Si2 0.838612 0.554732 0.795514
Si Si3 0.794067 0.458368 0.094079
Si Si4 0.263481 0.680226 0.177963
Si Si5 0.180130 0.909017 0.755667
Si Si6 0.083433 0.175161 0.975828
Si Si7 0.726751 0.831838 0.813585
Si Si8 0.576140 0.592914 0.282201
O O1 0.835640 0.871957 0.653916
O O2 0.786904 0.753897 0.406062
O O3 0.591468 0.586712 0.664387
O O4 0.085036 0.899735 0.619520
O O5 0.805826 0.443904 0.733023
O O6 0.588448 0.437637 0.746547
O O7 0.090016 0.760500 0.730565
O O8 0.863205 0.569618 0.975756
O O9 0.571109 0.342675 0.202066
O O10 0.036613 0.595225 0.196192
O O11 0.704760 0.322881 0.997558
O O12 0.518464 0.887396 0.237447
O O13 0.038511 0.843729 0.907329
O O14 0.287737 0.348504 0.869182
O O15 0.227618 0.201072 0.060018
O O16 0.868400 0.002073 0.864856
#
# Coordination Sequence:
#
# PCOD8038656 Si02
#       8
#     2   2   2   2   2   2   2   2
#     4   9  22  32  49  74 104 130 165 202 248 304
#     4   9  18  30  52  71 100 133 160 201 255 291
#     4   9  17  32  49  73 101 129 162 212 245 284
#     4   9  18  33  48  74 103 126 166 215 242 286
#     4  10  19  32  51  79 100 130 165 207 245 299
#     4  10  18  28  51  74 103 124 162 204 245 304
#     4  10  18  31  48  75 100 130 161 203 252 293
#     4  10  19  34  47  76 103 132 162 202 250 304
#
# _framework density 19.628471000000001
#
# number of rings (size 3 to 8) (size 9 to 14) (size 15 to 20)
#    0.750    1.750    2.500    0.000    5.250    2.500 
#    0.000    0.000    0.000    0.750    3.250    2.625 
#    0.000    0.000    0.000    0.000    0.000    0.000 
#
# Total GULP energy -198268.638565 kJ/mol
# GULP energy per Si atom -12391.789910 kJ/mol
# Density = 1.958380 g / cm^3
# Si number density = 19.628471 Si / 1000 Ang^3
#
#
#
# Elastic Constant Matrix: (Units=GPa)
#
#
# Indices 1 2 3 4 5 6 
#
# 1 59.8066 35.9017 16.8268 5.8766 18.4584 16.2929
# 2 35.9017 111.3242 18.6927 19.0977 15.5962 17.1146
# 3 16.8268 18.6927 45.1198 19.3500 6.5920 3.5088
# 4 5.8766 19.0977 19.3500 24.3159 4.4899 6.8523
# 5 18.4584 15.5962 6.5920 4.4899 18.0106 4.7050
# 6 16.2929 17.1146 3.5088 6.8523 4.7050 28.3859
#
#
#
# Elastic Compliance Matrix: (Units=1/GPa)
#
#
# Indices 1 2 3 4 5 6 
#
# 1 0.033349 -0.005633 -0.011309 0.013804 -0.025070 -0.013524
# 2 -0.005633 0.012814 0.000969 -0.008318 -0.003057 -0.002098
# 3 -0.011309 0.000969 0.038465 -0.031420 0.002323 0.008352
# 4 0.013804 -0.008318 -0.031420 0.075603 -0.010221 -0.015580
# 5 -0.025070 -0.003057 0.002323 -0.010221 0.084405 0.004422
# 6 -0.013524 -0.002098 0.008352 -0.015580 0.004422 0.046252
#
#
# Mechanical properties :
#
#
# Convention : Reuss Voigt Hill
#
# Bulk Modulus (GPa) = 18.98138 39.89922 29.44030
# Shear Modulus (GPa) = 14.68879 23.79778 19.24328
#
# Velocity S-wave (km/s) = 2.73855 3.48575 3.13449
# Velocity P-wave (km/s) = 4.43744 6.04747 5.30390
#
# Compressibility (1/GPa) = 0.05268320
#
# Stress axis : x y z
#
# Youngs Moduli (GPa) = 29.98586 78.03699 25.99765
#
# Poissons Ratio (x) = 0.43956 0.29400
# Poissons Ratio (y) = 0.16890 -0.02519
# Poissons Ratio (z) = 0.33911 -0.07561
#
# Static dielectric constant tensor:
#      x y z
#    x 3.353370 -0.089510 0.143000 
#    y -0.089510 3.588810 0.222310 
#    z 0.143000 0.222310 3.382660 
# 
# 
# High freq. dielectric constant tensor:
#      x y z
#    x 1.740270 -0.005510 0.016880 
#    y -0.005510 1.766440 0.012330 
#    z 0.016880 0.012330 1.728810 
# 
# From -- ./inp_files/318969.got.cif
#   From: 2010.06.25/outbox.cif.g09.slc.cpg/sg2_160_cif.got.tgz:318969.got - 2010.06.27 13:26:56.
