data_PCOD8038800
_publ_section_title
;
Structure prediction by ZEFSAII (Michael W. Deem and Ramdas Pophale) SiO2 
 PCOD8038800
Probable space group: P -1
;
_chemical_formula_sum "Si O2"
_cell_formula_units_Z 16
_cell_length_a 16.984907
_cell_length_b 8.317404
_cell_length_c 5.134744
_cell_angle_alpha 93.911088
_cell_angle_beta 97.942042
_cell_angle_gamma 117.064612
_cell_volume 632.652131
_symmetry_space_group_name_H-M "P -1"
_symmetry_group_IT_number 2
_symmetry_cell_setting 'triclinic'
loop_
_space_group_symop_operation_xyz
x,y,z
-x,-y,-z
loop_
_atom_site_type_symbol
_atom_site_label
_atom_site_fract_x
_atom_site_fract_y
_atom_site_fract_z
Si Si1 0.266527 0.766429 0.340799
Si Si2 0.101466 0.651059 0.574263
Si Si3 0.050004 0.910906 0.364074
Si Si4 0.195869 0.280088 0.383523
Si Si5 0.867888 0.602561 0.115258
Si Si6 0.364964 0.776975 0.890867
Si Si7 0.356848 0.201036 0.433890
Si Si8 0.545241 0.791657 0.016144
O O1 0.159427 0.658575 0.343624
O O2 0.289145 0.696605 0.073101
O O3 0.297875 0.981864 0.379657
O O4 0.317951 0.714589 0.583331
O O5 0.099247 0.843471 0.596879
O O6 0.143647 0.600401 0.840056
O O7 0.000000 0.500000 0.500000
O O8 0.975370 0.742821 0.140966
O O9 0.126856 0.070389 0.244123
O O10 0.000000 0.000000 0.500000
O O11 0.172498 0.328636 0.661232
O O12 0.295010 0.300160 0.435769
O O13 0.186333 0.411441 0.176787
O O14 0.414799 0.992901 0.964578
O O15 0.436726 0.700819 0.947809
O O16 0.417839 0.277254 0.214417
O O17 0.424991 0.267193 0.713924
#
# Coordination Sequence:
#
# PCOD8038800 Si02
#       8
#     2   2   2   2   2   2   2   2
#     4  10  19  34  53  84 110 157 189 239 285 346
#     4  10  21  41  60  88 122 159 201 244 289 347
#     4   9  19  39  61  85 114 153 196 246 292 344
#     4  11  20  38  56  86 114 155 196 245 289 349
#     4  10  23  37  57  81 117 156 199 240 292 338
#     4   9  18  31  52  79 121 145 187 232 300 351
#     4  10  18  30  55  83 116 147 192 236 294 342
#     4   9  17  30  49  85 116 149 177 241 299 349
#
# _framework density 25.290361000000001
#
# number of rings (size 3 to 8) (size 9 to 14) (size 15 to 20)
#    0.000    2.250    1.250    1.875    0.000    4.000 
#    0.000   18.125    0.000    0.000    0.000   17.500 
#    0.000    0.000    0.000    0.000    0.000    0.000 
#
# Total GULP energy -198304.794956 kJ/mol
# GULP energy per Si atom -12394.049685 kJ/mol
# Density = 2.523280 g / cm^3
# Si number density = 25.290361 Si / 1000 Ang^3
#
#
#
# Elastic Constant Matrix: (Units=GPa)
#
#
# Indices 1 2 3 4 5 6 
#
# 1 180.0652 36.4167 58.1561 -3.5059 10.4741 -6.0791
# 2 36.4167 53.1957 24.3783 -19.2709 10.4239 -13.9687
# 3 58.1561 24.3783 152.0433 2.5678 4.6875 -13.5529
# 4 -3.5059 -19.2709 2.5678 22.9899 -3.4887 8.0560
# 5 10.4741 10.4239 4.6875 -3.4887 41.9921 -13.2793
# 6 -6.0791 -13.9687 -13.5529 8.0560 -13.2793 37.1094
#
#
#
# Elastic Compliance Matrix: (Units=1/GPa)
#
#
# Indices 1 2 3 4 5 6 
#
# 1 0.007185 -0.005144 -0.001958 -0.002711 -0.000904 -0.001209
# 2 -0.005144 0.035864 -0.003788 0.027767 -0.003643 0.003942
# 3 -0.001958 -0.003788 0.008235 -0.005207 0.000939 0.002728
# 4 -0.002711 0.027767 -0.005207 0.069311 -0.002336 -0.007776
# 5 -0.000904 -0.003643 0.000939 -0.002336 0.027551 0.009190
# 6 -0.001209 0.003942 0.002728 -0.007776 0.009190 0.034206
#
#
# Mechanical properties :
#
#
# Convention : Reuss Voigt Hill
#
# Bulk Modulus (GPa) = 33.89254 69.24516 51.56885
# Shear Modulus (GPa) = 23.36808 38.17516 30.77162
#
# Velocity S-wave (km/s) = 3.04302 3.88941 3.49195
# Velocity P-wave (km/s) = 5.07711 6.89997 6.05750
#
# Compressibility (1/GPa) = 0.02950502
#
# Stress axis : x y z
#
# Youngs Moduli (GPa) = 139.17569 27.88310 121.42815
#
# Poissons Ratio (x) = 0.14344 0.23771
# Poissons Ratio (y) = 0.71594 0.45996
# Poissons Ratio (z) = 0.27245 0.10562
#
# Static dielectric constant tensor:
#      x y z
#    x 7.299360 0.442000 1.154340 
#    y 0.442000 5.168230 -0.260270 
#    z 1.154340 -0.260270 4.858950 
# 
# 
# High freq. dielectric constant tensor:
#      x y z
#    x 2.028210 0.005220 0.007990 
#    y 0.005220 2.008410 -0.017060 
#    z 0.007990 -0.017060 1.995690 
# 
# From -- ./inp_files/90159.got.cif
#   From: 2010.06.25/outbox.cif.g09.slc.cpg/sg2_46_cif.got.tgz:90159.got - 2010.06.27 13:26:56.
