data_PCOD8038933
_publ_section_title
;
Structure prediction by ZEFSAII (Michael W. Deem and Ramdas Pophale) SiO2 
 PCOD8038933
Probable space group: P -1
;
_chemical_formula_sum "Si O2"
_cell_formula_units_Z 16
_cell_length_a 12.023237
_cell_length_b 11.823291
_cell_length_c 15.624542
_cell_angle_alpha 91.222325
_cell_angle_beta 40.151884
_cell_angle_gamma 59.928263
_cell_volume 854.204849
_symmetry_space_group_name_H-M "P -1"
_symmetry_group_IT_number 2
_symmetry_cell_setting 'triclinic'
loop_
_space_group_symop_operation_xyz
x,y,z
-x,-y,-z
loop_
_atom_site_type_symbol
_atom_site_label
_atom_site_fract_x
_atom_site_fract_y
_atom_site_fract_z
Si Si1 0.357674 0.182658 0.972568
Si Si2 0.864040 0.330574 0.490540
Si Si3 0.791473 0.274522 0.127683
Si Si4 0.878943 0.947790 0.538211
Si Si5 0.125966 0.524837 0.862717
Si Si6 0.570856 0.835294 0.885944
Si Si7 0.099442 0.957953 0.078266
Si Si8 0.788333 0.136190 0.440992
O O1 0.572408 0.086641 0.765715
O O2 0.354218 0.055661 0.006447
O O3 0.435289 0.212409 0.013881
O O4 0.044068 0.380640 0.125380
O O5 0.556267 0.547812 0.656210
O O6 0.924973 0.182090 0.398243
O O7 0.100932 0.302112 0.331367
O O8 0.904380 0.269131 0.565815
O O9 0.896411 0.347792 0.068127
O O10 0.941371 0.133618 0.116095
O O11 0.889606 0.167220 0.979114
O O12 0.847753 0.987784 0.456261
O O13 0.000000 0.000000 0.500000
O O14 0.447239 0.330759 0.641032
O O15 0.000000 0.500000 0.000000
O O16 0.433038 0.815098 0.902635
O O17 0.911214 0.044629 0.274868
#
# Coordination Sequence:
#
# PCOD8038933 Si02
#       8
#     2   2   2   2   2   2   2   2
#     4  10  18  31  55  89 113 141 189 242 283 319
#     4   9  20  34  58  87 113 143 194 241 273 334
#     4  10  24  40  57  83 117 154 188 230 291 340
#     4   9  16  31  51  80 114 142 183 232 288 324
#     4  11  21  37  62  86 113 147 194 239 279 335
#     4  10  19  33  58  85 113 147 188 237 280 329
#     4  11  22  40  58  81 120 155 185 230 288 348
#     4  10  20  33  58  87 110 152 189 236 280 332
#
# _framework density 18.730871
#
# number of rings (size 3 to 8) (size 9 to 14) (size 15 to 20)
#    0.000    2.000    2.500    3.000    1.750    1.500 
#    0.000    1.250    0.000    0.000    0.000    0.000 
#    0.000    0.000    0.000    0.000    0.000    0.000 
#
# Total GULP energy -198253.805267 kJ/mol
# GULP energy per Si atom -12390.862829 kJ/mol
# Density = 1.868824 g / cm^3
# Si number density = 18.730871 Si / 1000 Ang^3
#
#
#
# Elastic Constant Matrix: (Units=GPa)
#
#
# Indices 1 2 3 4 5 6 
#
# 1 116.8866 64.4970 58.6327 -3.6221 2.2393 -22.9944
# 2 64.4970 74.0066 47.7103 -7.7515 2.1149 -10.2210
# 3 58.6327 47.7103 95.0448 -12.8880 -0.7452 -4.5128
# 4 -3.6221 -7.7515 -12.8880 29.1207 -6.8416 -1.6516
# 5 2.2393 2.1149 -0.7452 -6.8416 34.5477 1.6911
# 6 -22.9944 -10.2210 -4.5128 -1.6516 1.6911 22.1226
#
#
#
# Elastic Compliance Matrix: (Units=1/GPa)
#
#
# Indices 1 2 3 4 5 6 
#
# 1 0.022222 -0.013068 -0.006888 -0.003403 -0.002225 0.015571
# 2 -0.013068 0.029051 -0.006139 0.003239 -0.000366 -0.001144
# 3 -0.006888 -0.006139 0.018394 0.005941 0.002690 -0.006006
# 4 -0.003403 0.003239 0.005941 0.039342 0.007868 0.001508
# 5 -0.002225 -0.000366 0.002690 0.007868 0.030910 -0.003709
# 6 0.015571 -0.001144 -0.006006 0.001508 -0.003709 0.060029
#
#
# Mechanical properties :
#
#
# Convention : Reuss Voigt Hill
#
# Bulk Modulus (GPa) = 57.22229 69.73532 63.47881
# Shear Modulus (GPa) = 19.38264 24.83141 22.10703
#
# Velocity S-wave (km/s) = 3.22032 3.64496 3.43920
# Velocity P-wave (km/s) = 6.66658 7.41790 7.05225
#
# Compressibility (1/GPa) = 0.01747571
#
# Stress axis : x y z
#
# Youngs Moduli (GPa) = 45.00125 34.42270 54.36612
#
# Poissons Ratio (x) = 0.44983 0.37448
# Poissons Ratio (y) = 0.58807 0.33376
# Poissons Ratio (z) = 0.30997 0.21132
#
# Static dielectric constant tensor:
#      x y z
#    x 3.677790 -0.461760 -0.202500 
#    y -0.461760 3.947920 -0.172680 
#    z -0.202500 -0.172680 3.381010 
# 
# 
# High freq. dielectric constant tensor:
#      x y z
#    x 1.720080 -0.030500 -0.025340 
#    y -0.030500 1.723400 -0.009000 
#    z -0.025340 -0.009000 1.717960 
# 
# From -- ./inp_files/182355.got.cif
#   From: 2010.06.25/outbox.cif.g09.slc.cpg/sg2_92_cif.got.tgz:182355.got - 2010.06.27 13:26:56.
