data_PCOD8038155
_publ_section_title
;
Structure prediction by ZEFSAII (Michael W. Deem and Ramdas Pophale) SiO2 
 PCOD8038155
Probable space group: P -1
;
_chemical_formula_sum "Si O2"
_cell_formula_units_Z 16
_cell_length_a 19.689720
_cell_length_b 11.114673
_cell_length_c 9.205321
_cell_angle_alpha 79.749254
_cell_angle_beta 66.806108
_cell_angle_gamma 136.442378
_cell_volume 869.928392
_symmetry_space_group_name_H-M "P -1"
_symmetry_group_IT_number 2
_symmetry_cell_setting 'triclinic'
loop_
_space_group_symop_operation_xyz
x,y,z
-x,-y,-z
loop_
_atom_site_type_symbol
_atom_site_label
_atom_site_fract_x
_atom_site_fract_y
_atom_site_fract_z
Si Si1 0.897352 0.964417 0.644046
Si Si2 0.329253 0.560051 0.052216
Si Si3 0.540734 0.173247 0.832157
Si Si4 0.925348 0.516764 0.112257
Si Si5 0.005025 0.684901 0.325355
Si Si6 0.582028 0.068448 0.560525
Si Si7 0.935957 0.643900 0.785975
Si Si8 0.201070 0.749639 0.202114
O O1 0.727197 0.661286 0.887141
O O2 0.966354 0.132732 0.691632
O O3 0.000000 0.000000 0.500000
O O4 0.905275 0.075454 0.481829
O O5 0.346578 0.585124 0.209470
O O6 0.205098 0.478110 0.122475
O O7 0.484369 0.820057 0.777886
O O8 0.613440 0.230865 0.606563
O O9 0.500000 0.000000 0.000000
O O10 0.383952 0.019682 0.962594
O O11 0.741556 0.234897 0.348591
O O12 0.008022 0.684886 0.150365
O O13 0.956347 0.669147 0.935875
O O14 0.000000 0.500000 0.000000
O O15 0.143122 0.804421 0.253257
O O16 0.841817 0.394526 0.587874
O O17 0.500000 0.000000 0.500000
O O18 0.893532 0.445283 0.812165
#
# Coordination Sequence:
#
# PCOD8038155 Si02
#       8
#     2   2   2   2   2   2   2   2
#     4   9  21  37  59  77 113 157 191 236 274 342
#     4  10  19  37  58  83 114 146 193 234 284 338
#     4  10  18  31  58  80 111 142 192 237 281 332
#     4  12  23  35  57  90 119 148 182 241 297 342
#     4  10  21  33  57  84 115 150 194 226 297 331
#     4  11  21  34  58  87 117 142 187 243 292 328
#     4  10  18  36  55  84 118 144 185 241 280 331
#     4  10  17  34  56  85 111 145 188 251 278 329
#
# _framework density 18.392316999999998
#
# number of rings (size 3 to 8) (size 9 to 14) (size 15 to 20)
#    0.000    1.750    5.000    1.500    3.500    0.000 
#    0.000    4.375    0.000    0.750    0.000    0.000 
#    0.000    0.000    0.000    0.000    0.000    0.000 
#
# Total GULP energy -198247.059212 kJ/mol
# GULP energy per Si atom -12390.441201 kJ/mol
# Density = 1.835046 g / cm^3
# Si number density = 18.392317 Si / 1000 Ang^3
#
#
#
# Elastic Constant Matrix: (Units=GPa)
#
#
# Indices 1 2 3 4 5 6 
#
# 1 66.7015 52.3553 39.9326 3.5067 -8.3740 -0.9879
# 2 52.3553 128.7400 51.8539 18.7902 14.5242 -2.4125
# 3 39.9326 51.8539 103.7302 8.7047 2.1121 2.6523
# 4 3.5067 18.7902 8.7047 34.9905 2.2821 6.7952
# 5 -8.3740 14.5242 2.1121 2.2821 34.0078 6.4959
# 6 -0.9879 -2.4125 2.6523 6.7952 6.4959 24.5541
#
#
#
# Elastic Compliance Matrix: (Units=1/GPa)
#
#
# Indices 1 2 3 4 5 6 
#
# 1 0.028965 -0.011636 -0.005892 0.004760 0.012927 -0.004079
# 2 -0.011636 0.015961 -0.002842 -0.007218 -0.010186 0.006100
# 3 -0.005892 -0.002842 0.013458 -0.000886 -0.000720 -0.001534
# 4 0.004760 -0.007218 -0.000886 0.034054 0.004114 -0.010935
# 5 0.012927 -0.010186 -0.000720 0.004114 0.038971 -0.011851
# 6 -0.004079 0.006100 -0.001534 -0.010935 -0.011851 0.047489
#
#
# Mechanical properties :
#
#
# Convention : Reuss Voigt Hill
#
# Bulk Modulus (GPa) = 56.67843 65.27281 60.97562
# Shear Modulus (GPa) = 22.17089 29.04580 25.60834
#
# Velocity S-wave (km/s) = 3.47572 3.97827 3.73545
# Velocity P-wave (km/s) = 6.85498 7.52784 7.19928
#
# Compressibility (1/GPa) = 0.01764340
#
# Stress axis : x y z
#
# Youngs Moduli (GPa) = 34.52415 62.65077 74.30545
#
# Poissons Ratio (x) = 0.72899 0.43784
# Poissons Ratio (y) = 0.40171 0.21121
# Poissons Ratio (z) = 0.20343 0.17808
#
# Static dielectric constant tensor:
#      x y z
#    x 2.611440 -2.968090 0.708690 
#    y -2.968090 -8.301280 2.439860 
#    z 0.708690 2.439860 3.294940 
# 
# 
# High freq. dielectric constant tensor:
#      x y z
#    x 1.696630 0.008530 -0.007730 
#    y 0.008530 1.704540 0.017900 
#    z -0.007730 0.017900 1.703630 
# 
# From -- ./inp_files/254258.got.cif
#   From: 2010.06.25/outbox.cif.g09.slc.cpg/sg2_128_cif.got.tgz:254258.got - 2010.06.27 13:26:56.
