data_PCOD8038758
_publ_section_title
;
Structure prediction by ZEFSAII (Michael W. Deem and Ramdas Pophale) SiO2 
 PCOD8038758
Probable space group: P -1
;
_chemical_formula_sum "Si O2"
_cell_formula_units_Z 16
_cell_length_a 11.036144
_cell_length_b 11.391856
_cell_length_c 11.191065
_cell_angle_alpha 108.430279
_cell_angle_beta 113.635325
_cell_angle_gamma 37.426394
_cell_volume 783.337972
_symmetry_space_group_name_H-M "P -1"
_symmetry_group_IT_number 2
_symmetry_cell_setting 'triclinic'
loop_
_space_group_symop_operation_xyz
x,y,z
-x,-y,-z
loop_
_atom_site_type_symbol
_atom_site_label
_atom_site_fract_x
_atom_site_fract_y
_atom_site_fract_z
Si Si1 0.529770 0.279781 0.882141
Si Si2 0.694156 0.422523 0.918922
Si Si3 0.716527 0.726809 0.366755
Si Si4 0.143349 0.575058 0.229291
Si Si5 0.687522 0.909791 0.210133
Si Si6 0.821743 0.643752 0.637796
Si Si7 0.705770 0.741029 0.954651
Si Si8 0.865526 0.835749 0.896888
O O1 0.580737 0.375999 0.877401
O O2 0.369301 0.337754 0.743292
O O3 0.732870 0.052357 0.891840
O O4 0.439598 0.367333 0.009519
O O5 0.720381 0.418660 0.782505
O O6 0.907935 0.273397 0.027772
O O7 0.626297 0.915219 0.323836
O O8 0.669992 0.767941 0.503643
O O9 0.958886 0.558984 0.386757
O O10 0.255745 0.415609 0.327640
O O11 0.125723 0.485130 0.084277
O O12 0.922881 0.790856 0.251529
O O13 0.514724 0.125926 0.158021
O O14 0.677183 0.780183 0.098469
O O15 0.843895 0.757560 0.751560
O O16 0.782866 0.823815 0.976558
#
# Coordination Sequence:
#
# PCOD8038758 Si02
#       8
#     2   2   2   2   2   2   2   2
#     4  11  23  37  56  77 110 148 180 219 260 327
#     4  11  23  37  54  79 111 147 180 215 270 317
#     4  10  18  37  56  80 111 142 177 219 274 313
#     4  10  20  33  51  77 108 138 174 219 269 318
#     4  10  18  30  51  78 109 134 166 219 274 315
#     4   9  21  34  58  84 105 139 178 228 271 316
#     4  10  19  27  51  85 104 132 169 225 275 316
#     4  11  20  36  55  83 112 134 182 222 267 326
#
# _framework density 20.425412000000001
#
# number of rings (size 3 to 8) (size 9 to 14) (size 15 to 20)
#    0.000    1.750    3.750    1.500    3.500    0.500 
#    0.000    0.625    0.000    0.000    0.000    2.625 
#    0.000    0.000    0.000    0.000    0.000    0.000 
#
# Total GULP energy -198214.953032 kJ/mol
# GULP energy per Si atom -12388.434565 kJ/mol
# Density = 2.037892 g / cm^3
# Si number density = 20.425412 Si / 1000 Ang^3
#
#
#
# Elastic Constant Matrix: (Units=GPa)
#
#
# Indices 1 2 3 4 5 6 
#
# 1 57.2025 4.5332 28.8459 -5.1094 -13.4551 -10.7838
# 2 4.5332 37.1693 7.0852 0.9310 -8.1131 6.6308
# 3 28.8459 7.0852 97.2370 -11.2049 -24.5145 1.9038
# 4 -5.1094 0.9310 -11.2049 20.0431 3.9859 -3.3483
# 5 -13.4551 -8.1131 -24.5145 3.9859 28.2567 1.9973
# 6 -10.7838 6.6308 1.9038 -3.3483 1.9973 17.6637
#
#
#
# Elastic Compliance Matrix: (Units=1/GPa)
#
#
# Indices 1 2 3 4 5 6 
#
# 1 0.025873 -0.004760 -0.006156 0.005858 0.003445 0.018967
# 2 -0.004760 0.032929 0.001184 -0.007165 0.010494 -0.017940
# 3 -0.006156 0.001184 0.015238 0.003740 0.010549 -0.006329
# 4 0.005858 -0.007165 0.003740 0.057797 -0.005408 0.017431
# 5 0.003445 0.010494 0.010549 -0.005408 0.050645 -0.009725
# 6 0.018967 -0.017940 -0.006329 0.017431 -0.009725 0.080013
#
#
# Mechanical properties :
#
#
# Convention : Reuss Voigt Hill
#
# Bulk Modulus (GPa) = 18.32326 30.28193 24.30259
# Shear Modulus (GPa) = 16.65825 23.26902 19.96363
#
# Velocity S-wave (km/s) = 2.85891 3.37889 3.12972
# Velocity P-wave (km/s) = 4.45961 5.48456 4.99842
#
# Compressibility (1/GPa) = 0.05457545
#
# Stress axis : x y z
#
# Youngs Moduli (GPa) = 38.65082 30.36824 65.62370
#
# Poissons Ratio (x) = 0.14456 0.40399
# Poissons Ratio (y) = 0.18399 -0.07770
# Poissons Ratio (z) = 0.23794 -0.03596
#
# Static dielectric constant tensor:
#      x y z
#    x 3.790180 -0.166680 -0.451630 
#    y -0.166680 3.736200 -0.188720 
#    z -0.451630 -0.188720 3.845600 
# 
# 
# High freq. dielectric constant tensor:
#      x y z
#    x 1.788760 -0.015710 -0.035520 
#    y -0.015710 1.807460 -0.013760 
#    z -0.035520 -0.013760 1.765160 
# 
# From -- ./inp_files/302538.got.cif
#   From: 2010.06.25/outbox.cif.g09.slc.cpg/sg2_152_cif.got.tgz:302538.got - 2010.06.27 13:26:56.
