data_PCOD8038928
_publ_section_title
;
Structure prediction by ZEFSAII (Michael W. Deem and Ramdas Pophale) SiO2 
 PCOD8038928
Probable space group: P -1
;
_chemical_formula_sum "Si O2"
_cell_formula_units_Z 14
_cell_length_a 12.149722
_cell_length_b 12.057067
_cell_length_c 9.557999
_cell_angle_alpha 126.358562
_cell_angle_beta 129.515945
_cell_angle_gamma 89.235007
_cell_volume 705.057156
_symmetry_space_group_name_H-M "P -1"
_symmetry_group_IT_number 2
_symmetry_cell_setting 'triclinic'
loop_
_space_group_symop_operation_xyz
x,y,z
-x,-y,-z
loop_
_atom_site_type_symbol
_atom_site_label
_atom_site_fract_x
_atom_site_fract_y
_atom_site_fract_z
Si Si1 0.081352 0.336796 0.669131
Si Si2 0.493927 0.709069 0.609132
Si Si3 0.854623 0.454425 0.640512
Si Si4 0.952430 0.795396 0.900882
Si Si5 0.835862 0.021690 0.041962
Si Si6 0.386964 0.397482 0.116263
Si Si7 0.290648 0.497815 0.695429
O O1 0.230389 0.484299 0.795924
O O2 0.996811 0.414961 0.745847
O O3 0.926517 0.170206 0.340513
O O4 0.183551 0.295019 0.828308
O O5 0.305634 0.662334 0.469489
O O6 0.464274 0.588502 0.367213
O O7 0.596588 0.694631 0.808868
O O8 0.625184 0.904031 0.809443
O O9 0.779565 0.412623 0.388527
O O10 0.946916 0.657225 0.894690
O O11 0.132078 0.907969 0.039006
O O12 0.798269 0.691354 0.581404
O O13 0.915035 0.912205 0.045054
O O14 0.499201 0.401556 0.077876
#
# Coordination Sequence:
#
# PCOD8038928 Si02
#       7
#     2   2   2   2   2   2   2
#     4  11  21  30  55  88 108 126 176 236 261 291
#     4  10  19  36  55  71 108 150 177 201 262 333
#     4   9  19  35  55  79 106 144 174 206 265 328
#     4   8  16  32  56  79  99 140 184 201 251 324
#     4  10  18  31  55  83 103 136 177 224 254 305
#     4  10  19  34  55  79 102 143 185 213 250 318
#     4   8  16  33  55  76 100 138 176 211 249 315
#
# _framework density 19.856545000000001
#
# number of rings (size 3 to 8) (size 9 to 14) (size 15 to 20)
#    0.857    1.714    1.429    1.714    0.000    1.714 
#    0.000    0.000    0.000    4.286    0.000    0.000 
#    0.000    0.000    0.000    0.000    0.000    0.000 
#
# Total GULP energy -173454.878512 kJ/mol
# GULP energy per Si atom -12389.634179 kJ/mol
# Density = 1.981135 g / cm^3
# Si number density = 19.856545 Si / 1000 Ang^3
#
#
#
# Elastic Constant Matrix: (Units=GPa)
#
#
# Indices 1 2 3 4 5 6 
#
# 1 104.1622 27.1455 29.3013 5.7380 29.6925 -2.2226
# 2 27.1455 32.9362 20.2871 2.5192 15.9361 -12.1469
# 3 29.3013 20.2871 46.3630 15.0799 22.6053 6.4722
# 4 5.7380 2.5192 15.0799 27.1000 2.4511 4.8460
# 5 29.6925 15.9361 22.6053 2.4511 29.8889 3.7422
# 6 -2.2226 -12.1469 6.4722 4.8460 3.7422 28.8093
#
#
#
# Elastic Compliance Matrix: (Units=1/GPa)
#
#
# Indices 1 2 3 4 5 6 
#
# 1 0.014495 -0.006011 -0.001329 -0.000916 -0.010159 0.000356
# 2 -0.006011 0.074791 -0.026124 0.003660 -0.019310 0.038832
# 3 -0.001329 -0.026124 0.054034 -0.022415 -0.021692 -0.016668
# 4 -0.000916 0.003660 -0.022415 0.048699 0.012329 -0.003285
# 5 -0.010159 -0.019310 -0.021692 0.012329 0.071165 -0.015370
# 6 0.000356 0.038832 -0.016668 -0.003285 -0.015370 0.057405
#
#
# Mechanical properties :
#
#
# Convention : Reuss Voigt Hill
#
# Bulk Modulus (GPa) = 13.09034 37.43657 25.26345
# Shear Modulus (GPa) = 12.10711 24.27480 18.19096
#
# Velocity S-wave (km/s) = 2.47195 3.50023 3.03003
# Velocity P-wave (km/s) = 3.84111 5.93548 4.99920
#
# Compressibility (1/GPa) = 0.07639223
#
# Stress axis : x y z
#
# Youngs Moduli (GPa) = 68.99055 13.37058 18.50685
#
# Poissons Ratio (x) = 0.08037 0.02460
# Poissons Ratio (y) = 0.41469 0.48347
# Poissons Ratio (z) = 0.09170 0.34929
#
# Static dielectric constant tensor:
#      x y z
#    x 3.613330 0.152840 0.225910 
#    y 0.152840 3.250970 0.154730 
#    z 0.225910 0.154730 3.318270 
# 
# 
# High freq. dielectric constant tensor:
#      x y z
#    x 1.784590 0.010340 0.015960 
#    y 0.010340 1.735130 0.010660 
#    z 0.015960 0.010660 1.739860 
# 
# From -- ./inp_files/431975.got.cif
#   From: 2010.06.25/outbox.cif.g09.slc.cpg/sg2_216_cif.got.tgz:431975.got - 2010.06.27 13:26:56.
