data_PCOD8038368
_publ_section_title
;
Structure prediction by ZEFSAII (Michael W. Deem and Ramdas Pophale) SiO2 
 PCOD8038368
Probable space group: P -1
;
_chemical_formula_sum "Si O2"
_cell_formula_units_Z 16
_cell_length_a 20.997620
_cell_length_b 10.678504
_cell_length_c 8.688021
_cell_angle_alpha 74.013885
_cell_angle_beta 44.553016
_cell_angle_gamma 40.620933
_cell_volume 724.052389
_symmetry_space_group_name_H-M "P -1"
_symmetry_group_IT_number 2
_symmetry_cell_setting 'triclinic'
loop_
_space_group_symop_operation_xyz
x,y,z
-x,-y,-z
loop_
_atom_site_type_symbol
_atom_site_label
_atom_site_fract_x
_atom_site_fract_y
_atom_site_fract_z
Si Si1 0.854792 0.398645 0.914331
Si Si2 0.002703 0.371216 0.145823
Si Si3 0.141915 0.917844 0.712968
Si Si4 0.517810 0.794089 0.956517
Si Si5 0.312588 0.846270 0.731554
Si Si6 0.769367 0.686485 0.716675
Si Si7 0.749389 0.478569 0.403498
Si Si8 0.615007 0.503288 0.139910
O O1 0.837478 0.560831 0.809261
O O2 0.747899 0.522939 0.213109
O O3 0.785694 0.373059 0.924105
O O4 0.049851 0.136203 0.692669
O O5 0.925206 0.506684 0.395585
O O6 0.906286 0.362479 0.247886
O O7 0.000000 0.500000 0.000000
O O8 0.192501 0.098164 0.926605
O O9 0.245279 0.861867 0.686182
O O10 0.247455 0.682483 0.519922
O O11 0.000000 0.000000 0.000000
O O12 0.626640 0.759612 0.884923
O O13 0.582550 0.721924 0.693907
O O14 0.541056 0.626027 0.056694
O O15 0.323716 0.062862 0.197162
O O16 0.485010 0.703462 0.429539
O O17 0.349036 0.693989 0.849972
#
# Coordination Sequence:
#
# PCOD8038368 Si02
#       8
#     2   2   2   2   2   2   2   2
#     4  10  18  36  62  84 112 147 190 234 275 333
#     4  11  21  36  58  82 116 154 185 227 284 338
#     4  10  17  35  59  86 115 144 183 236 282 330
#     4   9  19  36  53  83 117 147 187 236 277 330
#     4  11  20  35  60  87 116 149 186 228 288 339
#     4   9  20  35  55  82 113 151 193 227 272 337
#     4  10  19  35  62  83 109 152 192 225 286 336
#     4  10  20  34  60  86 114 145 188 237 280 327
#
# _framework density 22.097850000000001
#
# number of rings (size 3 to 8) (size 9 to 14) (size 15 to 20)
#    0.000    2.000    5.000    0.750    0.000    2.500 
#    0.000    5.000    2.750    0.000    0.000    0.000 
#    0.000    0.000    0.000    0.000    0.000    0.000 
#
# Total GULP energy -198285.120515 kJ/mol
# GULP energy per Si atom -12392.820032 kJ/mol
# Density = 2.204755 g / cm^3
# Si number density = 22.097850 Si / 1000 Ang^3
#
#
#
# Elastic Constant Matrix: (Units=GPa)
#
#
# Indices 1 2 3 4 5 6 
#
# 1 40.3733 24.8811 8.9558 3.8510 10.9698 -3.5131
# 2 24.8811 193.7956 64.7597 2.5355 26.3298 -13.0171
# 3 8.9558 64.7597 95.7982 10.1747 26.3921 1.0694
# 4 3.8510 2.5355 10.1747 40.3037 -0.6313 8.3830
# 5 10.9698 26.3298 26.3921 -0.6313 32.2695 -1.6812
# 6 -3.5131 -13.0171 1.0694 8.3830 -1.6812 20.0956
#
#
#
# Elastic Compliance Matrix: (Units=1/GPa)
#
#
# Indices 1 2 3 4 5 6 
#
# 1 0.029344 -0.002905 0.002163 -0.004164 -0.009242 0.004097
# 2 -0.002905 0.007511 -0.004522 -0.000008 -0.001208 0.004500
# 3 0.002163 -0.004522 0.016740 -0.003738 -0.010955 -0.002799
# 4 -0.004164 -0.000008 -0.003738 0.028752 0.004408 -0.012160
# 5 -0.009242 -0.001208 -0.010955 0.004408 0.044165 0.000041
# 6 0.004097 0.004500 -0.002799 -0.012160 0.000041 0.058618
#
#
# Mechanical properties :
#
#
# Convention : Reuss Voigt Hill
#
# Bulk Modulus (GPa) = 23.21980 58.57337 40.89659
# Shear Modulus (GPa) = 23.80805 33.95847 28.88326
#
# Velocity S-wave (km/s) = 3.28593 3.92437 3.61925
# Velocity P-wave (km/s) = 4.99269 6.86281 6.00105
#
# Compressibility (1/GPa) = 0.04306670
#
# Stress axis : x y z
#
# Youngs Moduli (GPa) = 34.07838 133.14305 59.73776
#
# Poissons Ratio (x) = 0.38677 -0.12923
# Poissons Ratio (y) = 0.09900 0.27015
# Poissons Ratio (z) = -0.07372 0.60211
#
# Static dielectric constant tensor:
#      x y z
#    x 4.419230 0.890360 0.200860 
#    y 0.890360 5.609020 0.568060 
#    z 0.200860 0.568060 4.185060 
# 
# 
# High freq. dielectric constant tensor:
#      x y z
#    x 1.832650 -0.001190 -0.002870 
#    y -0.001190 1.878870 0.006500 
#    z -0.002870 0.006500 1.860640 
# 
# From -- ./inp_files/345260.got.cif
#   From: 2010.06.25/outbox.cif.g09.slc.cpg/sg2_173_cif.got.tgz:345260.got - 2010.06.27 13:26:56.
