data_PCOD8038057
_publ_section_title
;
Structure prediction by ZEFSAII (Michael W. Deem and Ramdas Pophale) SiO2 
 PCOD8038057
Probable space group: P -1
;
_chemical_formula_sum "Si O2"
_cell_formula_units_Z 16
_cell_length_a 13.974641
_cell_length_b 9.575032
_cell_length_c 12.615405
_cell_angle_alpha 52.482823
_cell_angle_beta 76.008490
_cell_angle_gamma 42.160611
_cell_volume 826.069284
_symmetry_space_group_name_H-M "P -1"
_symmetry_group_IT_number 2
_symmetry_cell_setting 'triclinic'
loop_
_space_group_symop_operation_xyz
x,y,z
-x,-y,-z
loop_
_atom_site_type_symbol
_atom_site_label
_atom_site_fract_x
_atom_site_fract_y
_atom_site_fract_z
Si Si1 0.167885 0.878919 0.703928
Si Si2 0.432238 0.556306 0.300751
Si Si3 0.819571 0.291295 0.591159
Si Si4 0.338462 0.038783 0.200086
Si Si5 0.649399 0.808513 0.281549
Si Si6 0.407182 0.730212 0.831119
Si Si7 0.258057 0.902268 0.457880
Si Si8 0.681049 0.701615 0.094660
O O1 0.236088 0.882916 0.787494
O O2 0.282366 0.557108 0.795771
O O3 0.168665 0.018343 0.540820
O O4 0.996205 0.049773 0.695621
O O5 0.285705 0.629687 0.320549
O O6 0.379595 0.829797 0.201069
O O7 0.498901 0.418186 0.233452
O O8 0.557622 0.350509 0.454989
O O9 0.768455 0.556351 0.448089
O O10 0.800633 0.190025 0.543001
O O11 0.493679 0.907952 0.267991
O O12 0.230594 0.111308 0.291986
O O13 0.244713 0.309839 0.025909
O O14 0.736649 0.703535 0.192206
O O15 0.605748 0.053829 0.228510
O O16 0.500000 0.500000 0.000000
O O17 0.500000 0.000000 0.000000
#
# Coordination Sequence:
#
# PCOD8038057 Si02
#       8
#     2   2   2   2   2   2   2   2
#     4  11  23  38  60  86 117 154 190 237 295 341
#     4  10  19  37  60  87 112 151 195 233 283 343
#     4  11  20  36  61  87 118 148 190 240 295 339
#     4  10  17  33  60  86 112 142 194 243 273 329
#     4  11  19  33  60  85 113 150 194 240 282 333
#     4  11  23  39  59  82 114 155 200 237 283 342
#     4  10  17  35  60  88 111 150 189 234 280 340
#     4  10  19  34  58  87 112 149 195 234 280 344
#
# _framework density 19.368836000000002
#
# number of rings (size 3 to 8) (size 9 to 14) (size 15 to 20)
#    0.000    1.500    3.750    5.625    0.000    1.000 
#    0.000    3.125    2.750    0.000    0.000    0.000 
#    0.000    0.000    0.000    0.000    0.000    0.000 
#
# Total GULP energy -198272.523503 kJ/mol
# GULP energy per Si atom -12392.032719 kJ/mol
# Density = 1.932475 g / cm^3
# Si number density = 19.368836 Si / 1000 Ang^3
#
#
#
# Elastic Constant Matrix: (Units=GPa)
#
#
# Indices 1 2 3 4 5 6 
#
# 1 102.1689 46.2420 61.7619 2.7532 -2.3237 -8.9722
# 2 46.2420 40.5916 32.5073 -0.2764 5.0919 4.2863
# 3 61.7619 32.5073 101.4442 6.3424 -6.8088 7.8454
# 4 2.7532 -0.2764 6.3424 25.4022 2.2322 0.6376
# 5 -2.3237 5.0919 -6.8088 2.2322 23.5039 -4.7654
# 6 -8.9722 4.2863 7.8454 0.6376 -4.7654 36.1871
#
#
#
# Elastic Compliance Matrix: (Units=1/GPa)
#
#
# Indices 1 2 3 4 5 6 
#
# 1 0.030752 -0.030469 -0.009243 -0.002618 0.010177 0.014624
# 2 -0.030469 0.066973 -0.003525 0.007368 -0.022864 -0.017864
# 3 -0.009243 -0.003525 0.017519 -0.003657 0.004249 -0.005048
# 4 -0.002618 0.007368 -0.003657 0.041349 -0.007333 -0.002423
# 5 0.010177 -0.022864 0.004249 -0.007333 0.052741 0.011385
# 6 0.014624 -0.017864 -0.005048 -0.002423 0.011385 0.036012
#
#
# Mechanical properties :
#
#
# Convention : Reuss Voigt Hill
#
# Bulk Modulus (GPa) = 34.75800 58.35855 46.55827
# Shear Modulus (GPa) = 14.64517 23.93154 19.28836
#
# Velocity S-wave (km/s) = 2.75275 3.51888 3.15912
# Velocity P-wave (km/s) = 5.29979 6.83415 6.11528
#
# Compressibility (1/GPa) = 0.02877036
#
# Stress axis : x y z
#
# Youngs Moduli (GPa) = 32.51840 14.93134 57.08158
#
# Poissons Ratio (x) = 0.45494 0.52761
# Poissons Ratio (y) = 0.99080 0.20120
# Poissons Ratio (z) = 0.30057 0.05263
#
# Static dielectric constant tensor:
#      x y z
#    x 3.565040 -0.037940 -0.096750 
#    y -0.037940 3.161410 0.155920 
#    z -0.096750 0.155920 4.036060 
# 
# 
# High freq. dielectric constant tensor:
#      x y z
#    x 1.745520 0.003480 -0.011320 
#    y 0.003480 1.717770 0.012850 
#    z -0.011320 0.012850 1.764900 
# 
# From -- ./inp_files/238373.got.cif
#   From: 2010.06.25/outbox.cif.g09.slc.cpg/sg2_120_cif.got.tgz:238373.got - 2010.06.27 13:26:56.
