data_PCOD8038620
_publ_section_title
;
Structure prediction by ZEFSAII (Michael W. Deem and Ramdas Pophale) SiO2 
 PCOD8038620
Probable space group: P -1
;
_chemical_formula_sum "Si O2"
_cell_formula_units_Z 16
_cell_length_a 15.197510
_cell_length_b 5.124002
_cell_length_c 12.885088
_cell_angle_alpha 106.160676
_cell_angle_beta 77.885435
_cell_angle_gamma 85.408744
_cell_volume 931.978930
_symmetry_space_group_name_H-M "P -1"
_symmetry_group_IT_number 2
_symmetry_cell_setting 'triclinic'
loop_
_space_group_symop_operation_xyz
x,y,z
-x,-y,-z
loop_
_atom_site_type_symbol
_atom_site_label
_atom_site_fract_x
_atom_site_fract_y
_atom_site_fract_z
Si Si1 0.631807 0.974124 0.376657
Si Si2 0.228719 0.464245 0.004704
Si Si3 0.816560 0.686349 0.233010
Si Si4 0.076865 0.878185 0.826176
Si Si5 0.877756 0.970489 0.936257
Si Si6 0.450903 0.811635 0.780117
Si Si7 0.431786 0.414598 0.923692
Si Si8 0.471183 0.638222 0.415289
O O1 0.729890 0.791672 0.338022
O O2 0.549878 0.795563 0.367440
O O3 0.624416 0.154279 0.291016
O O4 0.619518 0.151195 0.507474
O O5 0.188787 0.779581 0.070928
O O6 0.335013 0.401189 0.000234
O O7 0.174923 0.289749 0.075641
O O8 0.218323 0.378967 0.878994
O O9 0.872130 0.423906 0.246330
O O10 0.884307 0.911013 0.236323
O O11 0.094345 0.945794 0.947804
O O12 0.968706 0.896085 0.836565
O O13 0.474303 0.109795 0.839396
O O14 0.540543 0.606094 0.691271
O O15 0.412522 0.650528 0.866784
O O16 0.500000 0.500000 0.000000
O O17 0.500000 0.500000 0.500000
#
# Coordination Sequence:
#
# PCOD8038620 Si02
#       8
#     2   2   2   2   2   2   2   2
#     4  10  19  31  49  75  94 131 169 194 233 296
#     4  10  18  29  47  60  85 127 158 198 234 276
#     4  10  18  26  45  63  95 121 156 190 229 275
#     4   9  18  27  39  65  87 120 153 196 225 271
#     4   9  17  29  43  59  86 118 163 188 231 282
#     4  11  20  36  50  65  98 130 163 206 242 281
#     4  12  24  35  50  72  95 128 174 214 245 270
#     4   9  19  31  51  70  96 125 172 193 235 289
#
# _framework density 17.167771999999999
#
# number of rings (size 3 to 8) (size 9 to 14) (size 15 to 20)
#    0.000    2.000    2.500    1.875    7.000    3.000 
#    0.000    0.000    0.000    0.000    0.000    0.000 
#    0.000    0.000    0.000   22.500    0.000    0.000 
#
# Total GULP energy -198274.185196 kJ/mol
# GULP energy per Si atom -12392.136575 kJ/mol
# Density = 1.712870 g / cm^3
# Si number density = 17.167772 Si / 1000 Ang^3
#
#
#
# Elastic Constant Matrix: (Units=GPa)
#
#
# Indices 1 2 3 4 5 6 
#
# 1 77.4918 30.6348 35.2431 11.7814 -15.8374 -2.4145
# 2 30.6348 111.3570 30.6439 17.3491 -7.6018 2.6688
# 3 35.2431 30.6439 52.2003 18.0740 -16.9284 -5.5798
# 4 11.7814 17.3491 18.0740 34.4329 -2.5410 -9.6235
# 5 -15.8374 -7.6018 -16.9284 -2.5410 20.3756 5.4441
# 6 -2.4145 2.6688 -5.5798 -9.6235 5.4441 21.0277
#
#
#
# Elastic Compliance Matrix: (Units=1/GPa)
#
#
# Indices 1 2 3 4 5 6 
#
# 1 0.019614 -0.002082 -0.009844 -0.000587 0.006784 -0.002121
# 2 -0.002082 0.011528 -0.004598 -0.004013 -0.000393 -0.004657
# 3 -0.009844 -0.004598 0.040980 -0.014799 0.023511 -0.002532
# 4 -0.000587 -0.004013 -0.014799 0.043618 -0.014194 0.020152
# 5 0.006784 -0.000393 0.023511 -0.014194 0.077153 -0.019403
# 6 -0.002121 -0.004657 -0.002532 0.020152 -0.019403 0.061478
#
#
# Mechanical properties :
#
#
# Convention : Reuss Voigt Hill
#
# Bulk Modulus (GPa) = 25.59120 48.23251 36.91186
# Shear Modulus (GPa) = 16.64211 24.80238 20.72224
#
# Velocity S-wave (km/s) = 3.11687 3.80505 3.47802
# Velocity P-wave (km/s) = 5.28129 6.88915 6.13809
#
# Compressibility (1/GPa) = 0.03907593
#
# Stress axis : x y z
#
# Youngs Moduli (GPa) = 50.98355 86.74466 24.40203
#
# Poissons Ratio (x) = 0.18057 0.24021
# Poissons Ratio (y) = 0.10613 0.11219
# Poissons Ratio (z) = 0.50188 0.39883
#
# Static dielectric constant tensor:
#      x y z
#    x 2.867840 0.004460 -0.378220 
#    y 0.004460 2.808010 0.500740 
#    z -0.378220 0.500740 3.203000 
# 
# 
# High freq. dielectric constant tensor:
#      x y z
#    x 1.611600 0.010990 -0.046640 
#    y 0.010990 1.693080 0.010450 
#    z -0.046640 0.010450 1.625170 
# 
# From -- ./inp_files/80932.got.cif
#   From: 2010.06.25/outbox.cif.g09.slc.cpg/sg2_41_cif.got.tgz:80932.got - 2010.06.27 13:26:56.
