data_PCOD8038475
_publ_section_title
;
Structure prediction by ZEFSAII (Michael W. Deem and Ramdas Pophale) SiO2 
 PCOD8038475
Probable space group: P -1
;
_chemical_formula_sum "Si O2"
_cell_formula_units_Z 14
_cell_length_a 11.315246
_cell_length_b 14.383698
_cell_length_c 8.443691
_cell_angle_alpha 74.816326
_cell_angle_beta 112.779259
_cell_angle_gamma 48.759964
_cell_volume 634.581996
_symmetry_space_group_name_H-M "P -1"
_symmetry_group_IT_number 2
_symmetry_cell_setting 'triclinic'
loop_
_space_group_symop_operation_xyz
x,y,z
-x,-y,-z
loop_
_atom_site_type_symbol
_atom_site_label
_atom_site_fract_x
_atom_site_fract_y
_atom_site_fract_z
Si Si1 0.836769 0.151374 0.211294
Si Si2 0.493699 0.586578 0.655469
Si Si3 0.117550 0.800175 0.108387
Si Si4 0.771608 0.704849 0.215098
Si Si5 0.630625 0.625667 0.993869
Si Si6 0.137933 0.698533 0.630091
Si Si7 0.748438 0.940333 0.071614
O O1 0.577676 0.263925 0.032599
O O2 0.826242 0.270793 0.198273
O O3 0.938017 0.086758 0.112181
O O4 0.000000 0.000000 0.500000
O O5 0.293631 0.744080 0.347863
O O6 0.741732 0.386491 0.794487
O O7 0.547736 0.647194 0.764293
O O8 0.371029 0.578690 0.696047
O O9 0.856825 0.933049 0.986535
O O10 0.828852 0.776918 0.160194
O O11 0.000000 0.500000 0.500000
O O12 0.696293 0.696039 0.017350
O O13 0.544372 0.855079 0.156421
O O14 0.862431 0.413593 0.272116
O O15 0.881613 0.890114 0.325303
#
# Coordination Sequence:
#
# PCOD8038475 Si02
#       7
#     2   2   2   2   2   2   2
#     4  11  21  35  62  97 130 166 202 254 324 389
#     4   9  18  33  63  93 128 166 199 252 324 377
#     4  10  19  37  62  95 133 167 198 267 320 379
#     4  11  23  41  66  90 123 175 225 267 304 382
#     4  11  19  37  62  91 123 170 220 247 312 384
#     4  10  17  36  61  92 125 166 209 251 310 389
#     4  10  23  41  64  94 126 167 219 264 322 364
#
# _framework density 22.061765999999999
#
# number of rings (size 3 to 8) (size 9 to 14) (size 15 to 20)
#    0.000    1.714    4.286    1.714    0.000    0.000 
#    0.000   15.000    0.000   12.000    0.000    0.000 
#    0.000    0.000    0.000    0.000    0.000    0.000 
#
# Total GULP energy -173465.812986 kJ/mol
# GULP energy per Si atom -12390.415213 kJ/mol
# Density = 2.201155 g / cm^3
# Si number density = 22.061766 Si / 1000 Ang^3
#
#
#
# Elastic Constant Matrix: (Units=GPa)
#
#
# Indices 1 2 3 4 5 6 
#
# 1 62.5558 31.7159 43.0931 10.0867 2.0126 -6.1605
# 2 31.7159 81.6722 38.9088 9.4976 2.2135 5.8708
# 3 43.0931 38.9088 114.2568 7.8152 -8.9947 -14.9345
# 4 10.0867 9.4976 7.8152 47.4011 -6.0136 3.8020
# 5 2.0126 2.2135 -8.9947 -6.0136 30.6967 5.2554
# 6 -6.1605 5.8708 -14.9345 3.8020 5.2554 43.0822
#
#
#
# Elastic Compliance Matrix: (Units=1/GPa)
#
#
# Indices 1 2 3 4 5 6 
#
# 1 0.024912 -0.005930 -0.007111 -0.003734 -0.004497 0.002784
# 2 -0.005930 0.017035 -0.004161 -0.001321 -0.001581 -0.004302
# 3 -0.007111 -0.004161 0.013647 0.000328 0.004189 0.003741
# 4 -0.003734 -0.001321 0.000328 0.023029 0.005451 -0.002937
# 5 -0.004497 -0.001581 0.004189 0.005451 0.035938 -0.003841
# 6 0.002784 -0.004302 0.003741 -0.002937 -0.003841 0.026220
#
#
# Mechanical properties :
#
#
# Convention : Reuss Voigt Hill
#
# Bulk Modulus (GPa) = 47.19228 53.99115 50.59172
# Shear Modulus (GPa) = 27.43489 33.88714 30.66102
#
# Velocity S-wave (km/s) = 3.53022 3.92345 3.73202
# Velocity P-wave (km/s) = 6.16880 6.71197 6.44611
#
# Compressibility (1/GPa) = 0.02118991
#
# Stress axis : x y z
#
# Youngs Moduli (GPa) = 40.14128 58.70299 73.27355
#
# Poissons Ratio (x) = 0.34813 0.52106
# Poissons Ratio (y) = 0.23805 0.30488
# Poissons Ratio (z) = 0.28545 0.24425
#
# Static dielectric constant tensor:
#      x y z
#    x 3.742180 0.235280 0.075500 
#    y 0.235280 4.757710 -0.032340 
#    z 0.075500 -0.032340 4.035570 
# 
# 
# High freq. dielectric constant tensor:
#      x y z
#    x 1.828870 0.016540 0.005200 
#    y 0.016540 1.880290 -0.006210 
#    z 0.005200 -0.006210 1.872270 
# 
# From -- ./inp_files/272585.got.cif
#   From: 2010.06.25/outbox.cif.g09.slc.cpg/sg2_137_cif.got.tgz:272585.got - 2010.06.27 13:26:56.
