data_PCOD8038473
_publ_section_title
;
Structure prediction by ZEFSAII (Michael W. Deem and Ramdas Pophale) SiO2 
 PCOD8038473
Probable space group: P -1
;
_chemical_formula_sum "Si O2"
_cell_formula_units_Z 16
_cell_length_a 12.640432
_cell_length_b 26.724384
_cell_length_c 20.213433
_cell_angle_alpha 16.524614
_cell_angle_beta 155.600320
_cell_angle_gamma 155.343082
_cell_volume 764.259457
_symmetry_space_group_name_H-M "P -1"
_symmetry_group_IT_number 2
_symmetry_cell_setting 'triclinic'
loop_
_space_group_symop_operation_xyz
x,y,z
-x,-y,-z
loop_
_atom_site_type_symbol
_atom_site_label
_atom_site_fract_x
_atom_site_fract_y
_atom_site_fract_z
Si Si1 0.684080 0.872117 0.942414
Si Si2 0.184346 0.452306 0.874615
Si Si3 0.217335 0.601483 0.941955
Si Si4 0.907139 0.606609 0.634048
Si Si5 0.551975 0.750676 0.168517
Si Si6 0.813287 0.238955 0.610063
Si Si7 0.896160 0.118478 0.199910
Si Si8 0.299181 0.246738 0.386176
O O1 0.436028 0.776287 0.876152
O O2 0.741181 0.094665 0.689287
O O3 0.624603 0.847077 0.017925
O O4 0.933548 0.795601 0.163299
O O5 0.105969 0.553841 0.637667
O O6 0.078775 0.514526 0.802847
O O7 0.500000 0.500000 0.000000
O O8 0.044203 0.226458 0.080846
O O9 0.079446 0.683096 0.700838
O O10 0.361698 0.454660 0.184225
O O11 0.000000 0.500000 0.000000
O O12 0.826891 0.764464 0.347569
O O13 0.625402 0.459064 0.682273
O O14 0.393619 0.853189 0.994100
O O15 0.571428 0.214058 0.555680
O O16 0.078941 0.211541 0.248301
O O17 0.834947 0.896368 0.448530
#
# Coordination Sequence:
#
# PCOD8038473 Si02
#       8
#     2   2   2   2   2   2   2   2
#     4  11  23  39  64  95 124 161 215 259 306 372
#     4  11  19  34  59  90 121 157 208 257 300 361
#     4  12  23  38  62  97 130 160 204 269 322 359
#     4  10  20  34  59  89 122 159 200 253 312 364
#     4  10  17  36  61  89 115 159 211 249 293 370
#     4  11  23  40  65  92 122 171 216 250 300 390
#     4  10  20  33  62  90 118 159 214 254 296 371
#     4  11  21  38  61  93 125 163 209 259 313 367
#
# _framework density 20.935296999999998
#
# number of rings (size 3 to 8) (size 9 to 14) (size 15 to 20)
#    0.000    1.250    7.500    0.000    1.750    0.500 
#    0.000    0.625    0.000    4.500    0.000    0.000 
#    0.000    0.000    0.000    0.000    0.000    0.000 
#
# Total GULP energy -198269.186518 kJ/mol
# GULP energy per Si atom -12391.824157 kJ/mol
# Density = 2.088765 g / cm^3
# Si number density = 20.935297 Si / 1000 Ang^3
#
#
#
# Elastic Constant Matrix: (Units=GPa)
#
#
# Indices 1 2 3 4 5 6 
#
# 1 65.5842 19.4256 23.3292 10.3239 0.1730 19.3394
# 2 19.4256 99.7710 32.3957 15.2623 -4.1611 -1.6689
# 3 23.3292 32.3957 98.5775 7.2609 -11.6893 9.5070
# 4 10.3239 15.2623 7.2609 35.8555 11.9702 -2.0534
# 5 0.1730 -4.1611 -11.6893 11.9702 38.3528 2.7396
# 6 19.3394 -1.6689 9.5070 -2.0534 2.7396 29.1236
#
#
#
# Elastic Compliance Matrix: (Units=1/GPa)
#
#
# Indices 1 2 3 4 5 6 
#
# 1 0.022215 -0.002819 -0.002215 -0.006238 0.001924 -0.014811
# 2 -0.002819 0.012360 -0.003237 -0.004081 0.001411 0.003217
# 3 -0.002215 -0.003237 0.012769 -0.002274 0.004508 -0.003467
# 4 -0.006238 -0.004081 -0.002274 0.036773 -0.013191 0.008484
# 5 0.001924 0.001411 0.004508 -0.013191 0.032182 -0.006626
# 6 -0.014811 0.003217 -0.003467 0.008484 -0.006626 0.046709
#
#
# Mechanical properties :
#
#
# Convention : Reuss Voigt Hill
#
# Bulk Modulus (GPa) = 32.46636 46.02595 39.24615
# Shear Modulus (GPa) = 26.34120 33.25186 29.79653
#
# Velocity S-wave (km/s) = 3.55099 3.98969 3.77671
# Velocity P-wave (km/s) = 5.68808 6.57694 6.14859
#
# Compressibility (1/GPa) = 0.03080111
#
# Stress axis : x y z
#
# Youngs Moduli (GPa) = 45.01491 80.90737 78.31720
#
# Poissons Ratio (x) = 0.22811 0.17345
# Poissons Ratio (y) = 0.12691 0.25351
# Poissons Ratio (z) = 0.09970 0.26189
#
# Static dielectric constant tensor:
#      x y z
#    x 3.797060 0.457440 -0.254110 
#    y 0.457440 3.681400 -0.143520 
#    z -0.254110 -0.143520 4.475380 
# 
# 
# High freq. dielectric constant tensor:
#      x y z
#    x 1.803030 0.041900 -0.003150 
#    y 0.041900 1.783070 0.006670 
#    z -0.003150 0.006670 1.841500 
# 
# From -- ./inp_files/571036.got.cif
#   From: 2010.06.25/outbox.cif.g09.slc.cpg/sg2_286_cif.got.tgz:571036.got - 2010.06.27 13:26:56.
