data_PCOD8038740
_publ_section_title
;
Structure prediction by ZEFSAII (Michael W. Deem and Ramdas Pophale) SiO2 
 PCOD8038740
Probable space group: P -1
;
_chemical_formula_sum "Si O2"
_cell_formula_units_Z 14
_cell_length_a 14.761503
_cell_length_b 12.069857
_cell_length_c 14.138878
_cell_angle_alpha 118.675868
_cell_angle_beta 43.178830
_cell_angle_gamma 149.974137
_cell_volume 773.528157
_symmetry_space_group_name_H-M "P -1"
_symmetry_group_IT_number 2
_symmetry_cell_setting 'triclinic'
loop_
_space_group_symop_operation_xyz
x,y,z
-x,-y,-z
loop_
_atom_site_type_symbol
_atom_site_label
_atom_site_fract_x
_atom_site_fract_y
_atom_site_fract_z
Si Si1 0.373907 0.320729 0.828495
Si Si2 0.685232 0.241010 0.898211
Si Si3 0.685804 0.154110 0.651374
Si Si4 0.098834 0.651636 0.895323
Si Si5 0.952341 0.092644 0.952813
Si Si6 0.511880 0.349837 0.994363
Si Si7 0.205163 0.485151 0.342828
O O1 0.418684 0.464406 0.931921
O O2 0.649993 0.475850 0.667491
O O3 0.246969 0.276950 0.811709
O O4 0.182995 0.056129 0.906151
O O5 0.744891 0.231429 0.747267
O O6 0.957425 0.482603 0.841792
O O7 0.546409 0.262425 0.004121
O O8 0.500000 0.000000 0.000000
O O9 0.711336 0.299815 0.627003
O O10 0.895080 0.221507 0.484748
O O11 0.399406 0.865147 0.738988
O O12 0.046394 0.756200 0.994899
O O13 0.000000 0.500000 0.000000
O O14 0.789566 0.899576 0.911216
O O15 0.707105 0.498027 0.818016
#
# Coordination Sequence:
#
# PCOD8038740 Si02
#       7
#     2   2   2   2   2   2   2
#     4  10  18  31  54  79 108 138 176 214 266 314
#     4  11  20  34  54  78 102 139 183 223 258 308
#     4  10  20  36  50  78 114 139 175 212 272 319
#     4  12  20  34  56  78 104 139 185 223 257 310
#     4  10  18  30  49  81 104 131 178 220 259 301
#     4  10  18  33  53  80 107 139 178 212 266 311
#     4   9  18  34  53  75 117 145 158 220 271 321
#
# _framework density 18.098889
#
# number of rings (size 3 to 8) (size 9 to 14) (size 15 to 20)
#    0.000    1.714    7.143    1.714    0.000    0.000 
#    0.000   12.143    0.000    3.429    0.000    7.000 
#    0.000    0.000    0.000    0.000    0.000    0.000 
#
# Total GULP energy -173501.052548 kJ/mol
# GULP energy per Si atom -12392.932325 kJ/mol
# Density = 1.805770 g / cm^3
# Si number density = 18.098889 Si / 1000 Ang^3
#
#
#
# Elastic Constant Matrix: (Units=GPa)
#
#
# Indices 1 2 3 4 5 6 
#
# 1 125.8320 53.7518 58.6614 -14.6515 -31.2151 8.6189
# 2 53.7518 100.7990 39.2542 -14.6884 -11.5337 14.0478
# 3 58.6614 39.2542 87.9752 -17.8702 -33.0656 4.5511
# 4 -14.6515 -14.6884 -17.8702 25.6310 6.1808 -4.8175
# 5 -31.2151 -11.5337 -33.0656 6.1808 30.5827 -5.5133
# 6 8.6189 14.0478 4.5511 -4.8175 -5.5133 45.5661
#
#
#
# Elastic Compliance Matrix: (Units=1/GPa)
#
#
# Indices 1 2 3 4 5 6 
#
# 1 0.013940 -0.004930 -0.004011 0.000477 0.007990 0.000301
# 2 -0.004930 0.014612 -0.004574 0.003091 -0.005719 -0.003481
# 3 -0.004011 -0.004574 0.025279 0.008363 0.020362 0.002992
# 4 0.000477 0.003091 0.008363 0.047085 0.001776 0.003314
# 5 0.007990 -0.005719 0.020362 0.001776 0.061405 0.005835
# 6 0.000301 -0.003481 0.002992 0.003314 0.005835 0.023720
#
#
# Mechanical properties :
#
#
# Convention : Reuss Voigt Hill
#
# Bulk Modulus (GPa) = 37.31120 68.66010 52.98565
# Shear Modulus (GPa) = 22.52208 31.21856 26.87032
#
# Velocity S-wave (km/s) = 3.53142 4.15768 3.85728
# Velocity P-wave (km/s) = 6.10638 7.81453 7.01266
#
# Compressibility (1/GPa) = 0.02680161
#
# Stress axis : x y z
#
# Youngs Moduli (GPa) = 71.73681 68.43676 39.55801
#
# Poissons Ratio (x) = 0.33737 0.15867
# Poissons Ratio (y) = 0.35364 0.18094
# Poissons Ratio (z) = 0.28774 0.31304
#
# Static dielectric constant tensor:
#      x y z
#    x 3.872280 0.128090 -0.457310 
#    y 0.128090 3.361850 -0.187990 
#    z -0.457310 -0.187990 3.203420 
# 
# 
# High freq. dielectric constant tensor:
#      x y z
#    x 1.717490 0.003010 -0.031690 
#    y 0.003010 1.700990 -0.010570 
#    z -0.031690 -0.010570 1.653220 
# 
# From -- ./inp_files/390717.got.cif
#   From: 2010.06.25/outbox.cif.g09.slc.cpg/sg2_196_cif.got.tgz:390717.got - 2010.06.27 13:26:56.
