data_PCOD8038683
_publ_section_title
;
Structure prediction by ZEFSAII (Michael W. Deem and Ramdas Pophale) SiO2 
 PCOD8038683
Probable space group: P -1
;
_chemical_formula_sum "Si O2"
_cell_formula_units_Z 16
_cell_length_a 12.593361
_cell_length_b 9.056912
_cell_length_c 18.220441
_cell_angle_alpha 132.953353
_cell_angle_beta 35.520819
_cell_angle_gamma 132.073456
_cell_volume 850.502454
_symmetry_space_group_name_H-M "P -1"
_symmetry_group_IT_number 2
_symmetry_cell_setting 'triclinic'
loop_
_space_group_symop_operation_xyz
x,y,z
-x,-y,-z
loop_
_atom_site_type_symbol
_atom_site_label
_atom_site_fract_x
_atom_site_fract_y
_atom_site_fract_z
Si Si1 0.676921 0.192251 0.136233
Si Si2 0.833141 0.477141 0.027572
Si Si3 0.651485 0.909605 0.478211
Si Si4 0.035702 0.061362 0.915972
Si Si5 0.072769 0.340053 0.583906
Si Si6 0.761436 0.211073 0.386265
Si Si7 0.713621 0.997295 0.643235
Si Si8 0.868411 0.577680 0.254553
O O1 0.654133 0.316289 0.114392
O O2 0.740532 0.353800 0.222604
O O3 0.479745 0.027685 0.211627
O O4 0.834814 0.065382 0.994314
O O5 0.809244 0.708145 0.100693
O O6 0.000000 0.500000 0.000000
O O7 0.910238 0.379742 0.879996
O O8 0.720029 0.107185 0.453706
O O9 0.680639 0.985148 0.570909
O O10 0.432056 0.792878 0.548747
O O11 0.778981 0.755428 0.333547
O O12 0.112779 0.893301 0.772012
O O13 0.000000 0.000000 0.000000
O O14 0.126289 0.549584 0.575951
O O15 0.135360 0.426517 0.658281
O O16 0.849662 0.225719 0.663424
O O17 0.192845 0.180169 0.438902
#
# Coordination Sequence:
#
# PCOD8038683 Si02
#       8
#     2   2   2   2   2   2   2   2
#     4  10  18  32  54  72  98 131 166 202 240 293
#     4   8  16  29  50  75  97 125 159 201 244 287
#     4  10  20  32  53  76 103 125 163 210 245 295
#     4  10  18  29  49  77 105 125 153 201 250 292
#     4  10  21  34  53  71  99 131 168 207 245 295
#     4  11  20  32  51  80 101 128 162 203 252 294
#     4  10  21  37  50  71  97 135 171 204 246 285
#     4   9  16  33  54  76  96 127 165 203 246 289
#
# _framework density 18.81241
#
# number of rings (size 3 to 8) (size 9 to 14) (size 15 to 20)
#    0.000    2.500    0.000    6.000    0.000    3.500 
#    0.000    1.250    0.000    0.000    0.000    0.000 
#    0.000    0.000    0.000    0.000    0.000    0.000 
#
# Total GULP energy -198314.332785 kJ/mol
# GULP energy per Si atom -12394.645799 kJ/mol
# Density = 1.876959 g / cm^3
# Si number density = 18.812410 Si / 1000 Ang^3
#
#
#
# Elastic Constant Matrix: (Units=GPa)
#
#
# Indices 1 2 3 4 5 6 
#
# 1 38.2840 41.6710 11.4142 -4.6227 -10.4751 -4.5334
# 2 41.6710 146.1280 49.4696 -10.0080 -8.9853 -0.4010
# 3 11.4142 49.4696 79.6944 -6.6006 -7.0979 5.2364
# 4 -4.6227 -10.0080 -6.6006 30.5935 -3.2774 -1.8113
# 5 -10.4751 -8.9853 -7.0979 -3.2774 14.2415 -7.0285
# 6 -4.5334 -0.4010 5.2364 -1.8113 -7.0285 24.7824
#
#
#
# Elastic Compliance Matrix: (Units=1/GPa)
#
#
# Indices 1 2 3 4 5 6 
#
# 1 0.058880 -0.014165 0.004329 0.012237 0.051786 0.025208
# 2 -0.014165 0.012502 -0.006200 -0.000354 -0.007264 -0.003165
# 3 0.004329 -0.006200 0.016785 0.003108 0.008205 -0.000301
# 4 0.012237 -0.000354 0.003108 0.038424 0.024805 0.011419
# 5 0.051786 -0.007264 0.008205 0.024805 0.137412 0.048406
# 6 0.025208 -0.003165 -0.000301 0.011419 0.048406 0.059538
#
#
# Mechanical properties :
#
#
# Convention : Reuss Voigt Hill
#
# Bulk Modulus (GPa) = 17.82692 52.13511 34.98102
# Shear Modulus (GPa) = 13.35792 24.69359 19.02575
#
# Velocity S-wave (km/s) = 2.66758 3.62694 3.18361
# Velocity P-wave (km/s) = 4.35715 6.73149 5.66999
#
# Compressibility (1/GPa) = 0.05609493
#
# Stress axis : x y z
#
# Youngs Moduli (GPa) = 16.98375 79.98729 59.57869
#
# Poissons Ratio (x) = 1.13299 -0.25792
# Poissons Ratio (y) = 0.24057 0.36940
# Poissons Ratio (z) = -0.07352 0.49593
#
# Static dielectric constant tensor:
#      x y z
#    x 3.288800 -0.357620 0.063220 
#    y -0.357620 3.781380 -0.264110 
#    z 0.063220 -0.264110 3.890830 
# 
# 
# High freq. dielectric constant tensor:
#      x y z
#    x 1.699210 -0.029420 0.003690 
#    y -0.029420 1.730850 -0.007190 
#    z 0.003690 -0.007190 1.734400 
# 
# From -- ./inp_files/274492.got.cif
#   From: 2010.06.25/outbox.cif.g09.slc.cpg/sg2_138_cif.got.tgz:274492.got - 2010.06.27 13:26:56.
