data_PCOD8038650
_publ_section_title
;
Structure prediction by ZEFSAII (Michael W. Deem and Ramdas Pophale) SiO2 
 PCOD8038650
Probable space group: P -1
;
_chemical_formula_sum "Si O2"
_cell_formula_units_Z 16
_cell_length_a 17.907545
_cell_length_b 5.354560
_cell_length_c 16.620005
_cell_angle_alpha 58.374365
_cell_angle_beta 146.842232
_cell_angle_gamma 113.919300
_cell_volume 740.265886
_symmetry_space_group_name_H-M "P -1"
_symmetry_group_IT_number 2
_symmetry_cell_setting 'triclinic'
loop_
_space_group_symop_operation_xyz
x,y,z
-x,-y,-z
loop_
_atom_site_type_symbol
_atom_site_label
_atom_site_fract_x
_atom_site_fract_y
_atom_site_fract_z
Si Si1 0.977729 0.059132 0.562484
Si Si2 0.909465 0.605775 0.703357
Si Si3 0.224154 0.414203 0.714656
Si Si4 0.112252 0.997241 0.251051
Si Si5 0.208721 0.971438 0.036272
Si Si6 0.588805 0.748922 0.945759
Si Si7 0.165101 0.341151 0.079693
Si Si8 0.552788 0.790745 0.153000
O O1 0.108879 0.224930 0.681948
O O2 0.837347 0.257874 0.415565
O O3 0.000000 0.000000 0.500000
O O4 0.974126 0.758466 0.659227
O O5 0.820041 0.338487 0.638563
O O6 0.820435 0.840115 0.639820
O O7 0.025611 0.453897 0.891350
O O8 0.284467 0.280493 0.706222
O O9 0.349060 0.421840 0.889857
O O10 0.126477 0.176074 0.152809
O O11 0.953153 0.972634 0.135050
O O12 0.250806 0.620109 0.132734
O O13 0.286218 0.125591 0.009610
O O14 0.249448 0.112547 0.134980
O O15 0.518664 0.519043 0.863847
O O16 0.481523 0.028160 0.826016
O O17 0.500000 0.000000 0.000000
#
# Coordination Sequence:
#
# PCOD8038650 Si02
#       8
#     2   2   2   2   2   2   2   2
#     4  11  26  35  57  80 117 163 195 224 272 338
#     4  10  20  33  48  73 109 143 186 215 262 332
#     4  10  23  39  54  77 113 152 199 238 275 328
#     4  10  19  32  52  76 110 146 175 224 287 346
#     4  10  18  28  49  76 110 134 172 216 276 341
#     4  11  22  36  59  83 109 151 196 237 290 325
#     4  10  18  31  52  77 111 145 172 223 291 346
#     4  10  22  38  58  79 104 149 201 248 285 318
#
# _framework density 21.613855000000001
#
# number of rings (size 3 to 8) (size 9 to 14) (size 15 to 20)
#    0.000    1.750    0.000    7.500   12.250    0.000 
#    0.000    0.000    0.000    0.000    0.000    0.000 
#    0.000   34.000    0.000    0.000    0.000    0.000 
#
# Total GULP energy -198281.073073 kJ/mol
# GULP energy per Si atom -12392.567067 kJ/mol
# Density = 2.156466 g / cm^3
# Si number density = 21.613855 Si / 1000 Ang^3
#
#
#
# Elastic Constant Matrix: (Units=GPa)
#
#
# Indices 1 2 3 4 5 6 
#
# 1 96.7292 38.2646 14.3183 -6.4096 8.2716 -19.4534
# 2 38.2646 162.3400 14.7184 -23.7925 2.6031 -29.7410
# 3 14.3183 14.7184 34.2913 -5.0695 11.8658 -2.3011
# 4 -6.4096 -23.7925 -5.0695 12.8901 -1.0596 0.9649
# 5 8.2716 2.6031 11.8658 -1.0596 30.2222 -4.9979
# 6 -19.4534 -29.7410 -2.3011 0.9649 -4.9979 49.3019
#
#
#
# Elastic Compliance Matrix: (Units=1/GPa)
#
#
# Indices 1 2 3 4 5 6 
#
# 1 0.012466 -0.001778 -0.003618 0.001129 -0.001215 0.003532
# 2 -0.001778 0.010109 -0.001277 0.017016 0.001568 0.005163
# 3 -0.003618 -0.001277 0.037157 0.009500 -0.013489 -0.002017
# 4 0.001129 0.017016 0.009500 0.112609 -0.000078 0.008942
# 5 -0.001215 0.001568 -0.013489 -0.000078 0.039210 0.003813
# 6 0.003532 0.005163 -0.002017 0.008942 0.003813 0.024909
#
#
# Mechanical properties :
#
#
# Convention : Reuss Voigt Hill
#
# Bulk Modulus (GPa) = 21.55786 47.55145 34.55465
# Shear Modulus (GPa) = 18.84885 33.55344 26.20114
#
# Velocity S-wave (km/s) = 2.95629 3.94433 3.48550
# Velocity P-wave (km/s) = 4.65281 6.54155 5.67629
#
# Compressibility (1/GPa) = 0.04638679
#
# Stress axis : x y z
#
# Youngs Moduli (GPa) = 80.21723 98.91750 26.91263
#
# Poissons Ratio (x) = 0.17590 0.09736
# Poissons Ratio (y) = 0.14265 0.03437
# Poissons Ratio (z) = 0.29020 0.12632
#
# Static dielectric constant tensor:
#      x y z
#    x 5.612350 -1.054590 1.467320 
#    y -1.054590 5.414390 -0.506140 
#    z 1.467320 -0.506140 4.688530 
# 
# 
# High freq. dielectric constant tensor:
#      x y z
#    x 1.855540 -0.016810 -0.001920 
#    y -0.016810 1.877060 -0.020490 
#    z -0.001920 -0.020490 1.774520 
# 
# From -- ./inp_files/574885.got.cif
#   From: 2010.06.25/outbox.cif.g09.slc.cpg/sg2_288_cif.got.tgz:574885.got - 2010.06.27 13:26:56.
