data_PCOD8038472
_publ_section_title
;
Structure prediction by ZEFSAII (Michael W. Deem and Ramdas Pophale) SiO2 
 PCOD8038472
Probable space group: P -1
;
_chemical_formula_sum "Si O2"
_cell_formula_units_Z 16
_cell_length_a 15.444711
_cell_length_b 11.575411
_cell_length_c 9.883720
_cell_angle_alpha 81.676103
_cell_angle_beta 140.021576
_cell_angle_gamma 126.388505
_cell_volume 731.798626
_symmetry_space_group_name_H-M "P -1"
_symmetry_group_IT_number 2
_symmetry_cell_setting 'triclinic'
loop_
_space_group_symop_operation_xyz
x,y,z
-x,-y,-z
loop_
_atom_site_type_symbol
_atom_site_label
_atom_site_fract_x
_atom_site_fract_y
_atom_site_fract_z
Si Si1 0.689472 0.356673 0.115366
Si Si2 0.093654 0.041645 0.896344
Si Si3 0.619266 0.990820 0.489925
Si Si4 0.945575 0.301822 0.362556
Si Si5 0.220264 0.001333 0.593315
Si Si6 0.782385 0.719216 0.765770
Si Si7 0.733665 0.073506 0.906239
Si Si8 0.603195 0.390791 0.727284
O O1 0.782735 0.289879 0.221217
O O2 0.815841 0.505156 0.359901
O O3 0.446163 0.187543 0.886376
O O4 0.723807 0.451182 0.002002
O O5 0.924942 0.980152 0.600335
O O6 0.991037 0.884230 0.908616
O O7 0.258117 0.060124 0.022136
O O8 0.209257 0.221430 0.082256
O O9 0.754138 0.111000 0.763110
O O10 0.762443 0.051012 0.523995
O O11 0.481568 0.013026 0.281979
O O12 0.471220 0.783661 0.388965
O O13 0.892737 0.151292 0.407384
O O14 0.919625 0.260378 0.178358
O O15 0.749997 0.557812 0.769740
O O16 0.594441 0.656540 0.471315
#
# Coordination Sequence:
#
# PCOD8038472 Si02
#       8
#     2   2   2   2   2   2   2   2
#     4  10  21  39  61  90 117 156 220 250 288 362
#     4  11  20  36  57  93 123 158 201 252 308 369
#     4  10  20  39  64  91 123 158 205 255 305 359
#     4  11  23  39  66  87 121 167 207 251 302 368
#     4  11  21  41  67  89 114 169 216 244 292 375
#     4  10  19  32  62  89 119 158 205 243 301 368
#     4  11  22  37  60  92 132 156 188 265 322 350
#     4  10  17  36  61  89 113 155 211 254 285 351
#
# _framework density 21.863939999999999
#
# number of rings (size 3 to 8) (size 9 to 14) (size 15 to 20)
#    0.000    1.500    6.250    1.875    0.000    0.500 
#    0.000    2.500    2.750    0.000    0.000    0.000 
#    0.000    0.000    0.000    0.000    0.000    0.000 
#
# Total GULP energy -198299.960114 kJ/mol
# GULP energy per Si atom -12393.747507 kJ/mol
# Density = 2.181418 g / cm^3
# Si number density = 21.863940 Si / 1000 Ang^3
#
#
#
# Elastic Constant Matrix: (Units=GPa)
#
#
# Indices 1 2 3 4 5 6 
#
# 1 52.5779 28.2020 36.6094 -0.6659 -7.5894 -16.7687
# 2 28.2020 102.0598 29.8773 -4.4784 6.5443 -13.2614
# 3 36.6094 29.8773 136.7484 -1.9617 -19.4729 -21.4061
# 4 -0.6659 -4.4784 -1.9617 33.5402 -17.8320 8.3349
# 5 -7.5894 6.5443 -19.4729 -17.8320 44.0373 -6.7457
# 6 -16.7687 -13.2614 -21.4061 8.3349 -6.7457 24.2724
#
#
#
# Elastic Compliance Matrix: (Units=1/GPa)
#
#
# Indices 1 2 3 4 5 6 
#
# 1 0.031088 -0.005826 -0.003283 -0.000986 0.007084 0.017706
# 2 -0.005826 0.012128 -0.001560 -0.000659 -0.003698 0.000424
# 3 -0.003283 -0.001560 0.010588 0.001829 0.006209 0.007315
# 4 -0.000986 -0.000659 0.001829 0.040394 0.015726 -0.008929
# 5 0.007084 -0.003698 0.006209 0.015726 0.035557 0.012832
# 6 0.017706 0.000424 0.007315 -0.008929 0.012832 0.066746
#
#
# Mechanical properties :
#
#
# Convention : Reuss Voigt Hill
#
# Bulk Modulus (GPa) = 30.80226 53.41818 42.11022
# Shear Modulus (GPa) = 21.86642 33.48312 27.67477
#
# Velocity S-wave (km/s) = 3.16589 3.91760 3.56163
# Velocity P-wave (km/s) = 5.24238 6.70437 6.01793
#
# Compressibility (1/GPa) = 0.03246515
#
# Stress axis : x y z
#
# Youngs Moduli (GPa) = 32.16712 82.45371 94.44783
#
# Poissons Ratio (x) = 0.48038 0.31011
# Poissons Ratio (y) = 0.18741 0.14731
# Poissons Ratio (z) = 0.10562 0.12860
#
# Static dielectric constant tensor:
#      x y z
#    x 3.583290 -0.308010 -0.029990 
#    y -0.308010 3.915170 -0.154920 
#    z -0.029990 -0.154920 4.274460 
# 
# 
# High freq. dielectric constant tensor:
#      x y z
#    x 1.813840 -0.024630 0.002070 
#    y -0.024630 1.846220 -0.020120 
#    z 0.002070 -0.020120 1.884970 
# 
# From -- ./inp_files/395440.got.cif
#   From: 2010.06.25/outbox.cif.g09.slc.cpg/sg2_198_cif.got.tgz:395440.got - 2010.06.27 13:26:56.
