data_PCOD8038516
_publ_section_title
;
Structure prediction by ZEFSAII (Michael W. Deem and Ramdas Pophale) SiO2 
 PCOD8038516
Probable space group: P -1
;
_chemical_formula_sum "Si O2"
_cell_formula_units_Z 14
_cell_length_a 9.271786
_cell_length_b 13.752640
_cell_length_c 8.842951
_cell_angle_alpha 83.253466
_cell_angle_beta 120.116020
_cell_angle_gamma 128.189335
_cell_volume 735.161764
_symmetry_space_group_name_H-M "P -1"
_symmetry_group_IT_number 2
_symmetry_cell_setting 'triclinic'
loop_
_space_group_symop_operation_xyz
x,y,z
-x,-y,-z
loop_
_atom_site_type_symbol
_atom_site_label
_atom_site_fract_x
_atom_site_fract_y
_atom_site_fract_z
Si Si1 0.946091 0.734930 0.815335
Si Si2 0.138673 0.776126 0.292695
Si Si3 0.564901 0.105032 0.826970
Si Si4 0.114722 0.144615 0.998734
Si Si5 0.856397 0.527942 0.995852
Si Si6 0.791721 0.197293 0.323017
Si Si7 0.462096 0.741016 0.991378
O O1 0.978445 0.749088 0.647878
O O2 0.197058 0.825763 0.990457
O O3 0.834196 0.787530 0.821656
O O4 0.806437 0.587945 0.826395
O O5 0.382249 0.856651 0.330459
O O6 0.161377 0.776398 0.482269
O O7 0.038642 0.843826 0.185118
O O8 0.981728 0.628763 0.181105
O O9 0.402965 0.952518 0.790829
O O10 0.463125 0.161159 0.846702
O O11 0.336097 0.210092 0.014654
O O12 0.000000 0.000000 0.000000
O O13 0.633740 0.396579 0.967210
O O14 0.000000 0.500000 0.000000
O O15 0.720578 0.275394 0.205492
#
# Coordination Sequence:
#
# PCOD8038516 Si02
#       7
#     2   2   2   2   2   2   2
#     4   9  19  33  54  75 110 146 174 222 260 317
#     4  10  22  34  53  81 114 138 168 235 272 302
#     4   9  17  32  52  77 103 142 182 215 257 319
#     4  10  20  37  55  79 108 143 183 212 264 329
#     4  10  17  37  56  78 105 141 191 214 252 322
#     4  11  19  33  54  83 108 137 180 226 273 302
#     4  11  19  33  62  78 100 149 186 214 254 324
#
# _framework density 19.043427000000001
#
# number of rings (size 3 to 8) (size 9 to 14) (size 15 to 20)
#    0.000    2.286    4.286    4.714    0.000    2.857 
#    0.000    4.286    0.000    1.714    0.000    0.000 
#    0.000    0.000    0.000    0.000    0.000    0.000 
#
# Total GULP energy -173483.018254 kJ/mol
# GULP energy per Si atom -12391.644161 kJ/mol
# Density = 1.900008 g / cm^3
# Si number density = 19.043427 Si / 1000 Ang^3
#
#
#
# Elastic Constant Matrix: (Units=GPa)
#
#
# Indices 1 2 3 4 5 6 
#
# 1 168.5740 50.9819 31.5621 -10.7808 -36.6556 4.4577
# 2 50.9819 144.9191 18.9931 -10.2222 -12.1525 4.3362
# 3 31.5621 18.9931 68.9883 -13.0984 -28.7510 -4.0982
# 4 -10.7808 -10.2222 -13.0984 15.9134 9.2470 -5.9755
# 5 -36.6556 -12.1525 -28.7510 9.2470 29.6123 -3.6573
# 6 4.4577 4.3362 -4.0982 -5.9755 -3.6573 38.8207
#
#
#
# Elastic Compliance Matrix: (Units=1/GPa)
#
#
# Indices 1 2 3 4 5 6 
#
# 1 0.008863 -0.002398 0.001230 -0.001137 0.011573 0.000295
# 2 -0.002398 0.008001 -0.001368 0.003478 -0.002152 -0.000430
# 3 0.001230 -0.001368 0.027006 0.010324 0.024797 0.006788
# 4 -0.001137 0.003478 0.010324 0.086522 -0.015407 0.012699
# 5 0.011573 -0.002152 0.024797 -0.015407 0.076889 0.006401
# 6 0.000295 -0.000430 0.006788 0.012699 0.006401 0.029048
#
#
# Mechanical properties :
#
#
# Convention : Reuss Voigt Hill
#
# Bulk Modulus (GPa) = 25.77370 65.06170 45.41770
# Shear Modulus (GPa) = 19.65923 35.59890 27.62906
#
# Velocity S-wave (km/s) = 3.21649 4.32829 3.81313
# Velocity P-wave (km/s) = 5.23048 7.69532 6.57936
#
# Compressibility (1/GPa) = 0.03879924
#
# Stress axis : x y z
#
# Youngs Moduli (GPa) = 112.83056 124.98552 37.02819
#
# Poissons Ratio (x) = 0.29968 -0.04554
# Poissons Ratio (y) = 0.27053 0.05064
# Poissons Ratio (z) = -0.13876 0.17093
#
# Static dielectric constant tensor:
#      x y z
#    x 4.102660 0.133570 -0.641190 
#    y 0.133570 3.646740 -0.293590 
#    z -0.641190 -0.293590 3.221350 
# 
# 
# High freq. dielectric constant tensor:
#      x y z
#    x 1.754400 0.001980 -0.042620 
#    y 0.001980 1.754900 -0.012420 
#    z -0.042620 -0.012420 1.689880 
# 
# From -- ./inp_files/178274.got.cif
#   From: 2010.06.25/outbox.cif.g09.slc.cpg/sg2_90_cif.got.tgz:178274.got - 2010.06.27 13:26:56.
