data_PCOD8038640
_publ_section_title
;
Structure prediction by ZEFSAII (Michael W. Deem and Ramdas Pophale) SiO2 
 PCOD8038640
Probable space group: P -1
;
_chemical_formula_sum "Si O2"
_cell_formula_units_Z 16
_cell_length_a 8.788262
_cell_length_b 11.698342
_cell_length_c 14.476341
_cell_angle_alpha 132.700429
_cell_angle_beta 94.122041
_cell_angle_gamma 56.995527
_cell_volume 803.298775
_symmetry_space_group_name_H-M "P -1"
_symmetry_group_IT_number 2
_symmetry_cell_setting 'triclinic'
loop_
_space_group_symop_operation_xyz
x,y,z
-x,-y,-z
loop_
_atom_site_type_symbol
_atom_site_label
_atom_site_fract_x
_atom_site_fract_y
_atom_site_fract_z
Si Si1 0.605792 0.018666 0.317002
Si Si2 0.011171 0.628184 0.206501
Si Si3 0.738861 0.839740 0.036122
Si Si4 0.799931 0.906677 0.683455
Si Si5 0.282919 0.108124 0.134467
Si Si6 0.170389 0.835647 0.297679
Si Si7 0.702071 0.244384 0.545757
Si Si8 0.153995 0.545754 0.372980
O O1 0.701911 0.981157 0.197689
O O2 0.769721 0.809113 0.270250
O O3 0.396258 0.067335 0.330228
O O4 0.560930 0.218440 0.469871
O O5 0.149137 0.666160 0.181380
O O6 0.024612 0.640723 0.324203
O O7 0.094121 0.402626 0.055998
O O8 0.525972 0.895497 0.031591
O O9 0.810073 0.873475 0.960981
O O10 0.835614 0.898690 0.791517
O O11 0.999075 0.687192 0.528006
O O12 0.753347 0.112659 0.756596
O O13 0.263535 0.306237 0.261624
O O14 0.332299 0.749544 0.342164
O O15 0.943169 0.049630 0.431183
O O16 0.663929 0.447873 0.620659
#
# Coordination Sequence:
#
# PCOD8038640 Si02
#       8
#     2   2   2   2   2   2   2   2
#     4  10  18  28  46  75  99 116 144 190 241 274
#     4   9  17  31  51  70  91 122 154 186 227 275
#     4   9  18  32  48  66  90 124 164 192 214 261
#     4  10  18  28  46  75  99 116 144 190 241 274
#     4   9  18  32  48  66  90 124 164 192 214 261
#     4   8  15  28  46  68  93 121 150 182 227 279
#     4   8  15  28  46  68  93 121 150 182 227 279
#     4   9  17  31  51  70  91 122 154 186 227 275
#
# _framework density 19.917867000000001
#
# number of rings (size 3 to 8) (size 9 to 14) (size 15 to 20)
#    0.000    3.000    0.000    3.000    0.000    2.000 
#    0.000    5.000    0.000    6.750    0.000   21.000 
#    0.000    0.000    0.000    0.000    0.000    0.000 
#
# Total GULP energy -198240.692714 kJ/mol
# GULP energy per Si atom -12390.043295 kJ/mol
# Density = 1.987253 g / cm^3
# Si number density = 19.917867 Si / 1000 Ang^3
#
#
#
# Elastic Constant Matrix: (Units=GPa)
#
#
# Indices 1 2 3 4 5 6 
#
# 1 51.7724 24.0331 2.9520 -8.9756 -1.0362 16.0249
# 2 24.0331 83.6505 18.9488 -13.2933 -6.4836 25.0695
# 3 2.9520 18.9488 34.2527 -10.0266 -8.6911 11.7400
# 4 -8.9756 -13.2933 -10.0266 28.8644 2.1606 -9.2443
# 5 -1.0362 -6.4836 -8.6911 2.1606 19.4266 -5.1916
# 6 16.0249 25.0695 11.7400 -9.2443 -5.1916 29.5975
#
#
#
# Elastic Compliance Matrix: (Units=1/GPa)
#
#
# Indices 1 2 3 4 5 6 
#
# 1 0.025137 -0.004602 0.004881 0.004096 -0.001299 -0.010597
# 2 -0.004602 0.017743 -0.005470 0.001680 0.000432 -0.009767
# 3 0.004881 -0.005470 0.041013 0.009360 0.013333 -0.009015
# 4 0.004096 0.001680 0.009360 0.041726 0.001934 0.006018
# 5 -0.001299 0.000432 0.013333 0.001934 0.058900 0.005984
# 6 -0.010597 -0.009767 -0.009015 0.006018 0.005984 0.054302
#
#
# Mechanical properties :
#
#
# Convention : Reuss Voigt Hill
#
# Bulk Modulus (GPa) = 13.60325 29.06040 21.33182
# Shear Modulus (GPa) = 18.26766 23.82714 21.04740
#
# Velocity S-wave (km/s) = 3.03173 3.46247 3.25423
# Velocity P-wave (km/s) = 4.37032 5.53233 4.98530
#
# Compressibility (1/GPa) = 0.07351186
#
# Stress axis : x y z
#
# Youngs Moduli (GPa) = 39.78161 56.35946 24.38241
#
# Poissons Ratio (x) = 0.25934 -0.11900
# Poissons Ratio (y) = 0.18306 0.13337
# Poissons Ratio (z) = -0.19416 0.30829
#
# Static dielectric constant tensor:
#      x y z
#    x 3.373020 0.340420 0.193960 
#    y 0.340420 4.006990 -0.138270 
#    z 0.193960 -0.138270 3.715270 
# 
# 
# High freq. dielectric constant tensor:
#      x y z
#    x 1.727710 0.012550 0.008790 
#    y 0.012550 1.787260 -0.011950 
#    z 0.008790 -0.011950 1.764720 
# 
# From -- ./inp_files/270292.got.cif
#   From: 2010.06.25/outbox.cif.g09.slc.cpg/sg2_136_cif.got.tgz:270292.got - 2010.06.27 13:26:56.
