data_PCOD8038461
_publ_section_title
;
Structure prediction by ZEFSAII (Michael W. Deem and Ramdas Pophale) SiO2 
 PCOD8038461
Probable space group: P -1
;
_chemical_formula_sum "Si O2"
_cell_formula_units_Z 14
_cell_length_a 12.768621
_cell_length_b 23.302118
_cell_length_c 16.273205
_cell_angle_alpha 20.740832
_cell_angle_beta 25.241244
_cell_angle_gamma 29.184919
_cell_volume 719.288030
_symmetry_space_group_name_H-M "P -1"
_symmetry_group_IT_number 2
_symmetry_cell_setting 'triclinic'
loop_
_space_group_symop_operation_xyz
x,y,z
-x,-y,-z
loop_
_atom_site_type_symbol
_atom_site_label
_atom_site_fract_x
_atom_site_fract_y
_atom_site_fract_z
Si Si1 0.526094 0.233547 0.620527
Si Si2 0.225006 0.840686 0.770494
Si Si3 0.480823 0.892306 0.030442
Si Si4 0.997446 0.024869 0.834529
Si Si5 0.945195 0.543971 0.386134
Si Si6 0.937605 0.898676 0.602952
Si Si7 0.198297 0.209443 0.584501
O O1 0.450922 0.215843 0.792252
O O2 0.820710 0.244869 0.391453
O O3 0.354404 0.399603 0.486404
O O4 0.466409 0.084092 0.807014
O O5 0.512886 0.777960 0.629184
O O6 0.101048 0.986488 0.603200
O O7 0.081591 0.689365 0.063495
O O8 0.199088 0.907867 0.792071
O O9 0.215402 0.869221 0.213058
O O10 0.689011 0.828995 0.897142
O O11 0.140034 0.147734 0.618174
O O12 0.862103 0.915736 0.136753
O O13 0.032170 0.387808 0.476019
O O14 0.000000 0.500000 0.500000
O O15 0.000000 0.000000 0.500000
#
# Coordination Sequence:
#
# PCOD8038461 Si02
#       7
#     2   2   2   2   2   2   2
#     4  10  19  35  58  85 118 148 197 242 295 341
#     4  12  21  40  64  88 117 157 203 245 292 344
#     4  10  17  36  59  89 113 148 199 247 285 341
#     4  11  21  41  63  86 119 157 203 244 291 351
#     4  12  23  40  59  87 127 156 190 245 301 354
#     4  10  20  31  61  93 112 144 198 255 286 337
#     4  11  25  39  59  90 121 162 194 240 301 356
#
# _framework density 19.463692000000002
#
# number of rings (size 3 to 8) (size 9 to 14) (size 15 to 20)
#    0.000    1.143    5.714    2.571    2.000    0.000 
#    2.571    0.714    0.000    0.857    0.000    0.000 
#    0.000    0.000    0.000    0.000    0.000    0.000 
#
# Total GULP energy -173609.065458 kJ/mol
# GULP energy per Si atom -12400.647533 kJ/mol
# Density = 1.941939 g / cm^3
# Si number density = 19.463692 Si / 1000 Ang^3
#
#
#
# Elastic Constant Matrix: (Units=GPa)
#
#
# Indices 1 2 3 4 5 6 
#
# 1 84.5532 33.4166 17.0438 -7.2529 6.2169 -9.8265
# 2 33.4166 126.6517 35.4758 0.5424 0.8863 -23.8130
# 3 17.0438 35.4758 43.0311 7.3743 2.1177 -2.8600
# 4 -7.2529 0.5424 7.3743 28.1933 2.9793 0.0767
# 5 6.2169 0.8863 2.1177 2.9793 23.2367 -2.3676
# 6 -9.8265 -23.8130 -2.8600 0.0767 -2.3676 42.3535
#
#
#
# Elastic Compliance Matrix: (Units=1/GPa)
#
#
# Indices 1 2 3 4 5 6 
#
# 1 0.014571 -0.002281 -0.004516 0.005385 -0.003931 0.001564
# 2 -0.002281 0.012071 -0.008969 0.001366 0.001376 0.005726
# 3 -0.004516 -0.008969 0.033875 -0.009768 -0.000674 -0.003823
# 4 0.005385 0.001366 -0.009768 0.039976 -0.005629 0.000971
# 5 -0.003931 0.001376 -0.000674 -0.005629 0.045057 0.002345
# 6 0.001564 0.005726 -0.003823 0.000971 0.002345 0.027064
#
#
# Mechanical properties :
#
#
# Convention : Reuss Voigt Hill
#
# Bulk Modulus (GPa) = 34.50130 47.34535 40.92333
# Shear Modulus (GPa) = 23.38528 29.97669 26.68098
#
# Velocity S-wave (km/s) = 3.47000 3.92871 3.70646
# Velocity P-wave (km/s) = 5.81541 6.70503 6.27600
#
# Compressibility (1/GPa) = 0.02898441
#
# Stress axis : x y z
#
# Youngs Moduli (GPa) = 68.62727 82.84250 29.51992
#
# Poissons Ratio (x) = 0.18897 0.13332
# Poissons Ratio (y) = 0.15655 0.26478
# Poissons Ratio (z) = 0.30994 0.74305
#
# Static dielectric constant tensor:
#      x y z
#    x 3.653850 -0.112760 0.055750 
#    y -0.112760 3.778330 0.305760 
#    z 0.055750 0.305760 3.337240 
# 
# 
# High freq. dielectric constant tensor:
#      x y z
#    x 1.767240 -0.008530 0.017170 
#    y -0.008530 1.768240 0.029900 
#    z 0.017170 0.029900 1.717250 
# 
# From -- ./inp_files/281550.got.cif
#   From: 2010.06.25/outbox.cif.g09.slc.cpg/sg2_141_cif.got.tgz:281550.got - 2010.06.27 13:26:56.
