data_PCOD8038487
_publ_section_title
;
Structure prediction by ZEFSAII (Michael W. Deem and Ramdas Pophale) SiO2 
 PCOD8038487
Probable space group: P -1
;
_chemical_formula_sum "Si O2"
_cell_formula_units_Z 16
_cell_length_a 14.347213
_cell_length_b 9.391778
_cell_length_c 8.447007
_cell_angle_alpha 105.957209
_cell_angle_beta 41.602984
_cell_angle_gamma 96.955748
_cell_volume 720.215185
_symmetry_space_group_name_H-M "P -1"
_symmetry_group_IT_number 2
_symmetry_cell_setting 'triclinic'
loop_
_space_group_symop_operation_xyz
x,y,z
-x,-y,-z
loop_
_atom_site_type_symbol
_atom_site_label
_atom_site_fract_x
_atom_site_fract_y
_atom_site_fract_z
Si Si1 0.499434 0.175107 0.545425
Si Si2 0.888716 0.146562 0.366839
Si Si3 0.016374 0.193921 0.882503
Si Si4 0.738327 0.309641 0.124296
Si Si5 0.372468 0.337432 0.062306
Si Si6 0.245283 0.356643 0.781101
Si Si7 0.909000 0.656702 0.695891
Si Si8 0.365115 0.678825 0.093290
O O1 0.655783 0.211192 0.316021
O O2 0.389264 0.241229 0.569258
O O3 0.500000 0.000000 0.500000
O O4 0.459177 0.247237 0.786439
O O5 0.728212 0.209776 0.633640
O O6 0.993396 0.212606 0.378438
O O7 0.926143 0.196349 0.159117
O O8 0.906769 0.969225 0.306413
O O9 0.136752 0.303704 0.774659
O O10 0.906425 0.252118 0.901275
O O11 0.713003 0.481464 0.266827
O O12 0.681781 0.284790 0.013853
O O13 0.212402 0.294158 0.269107
O O14 0.344893 0.511981 0.111648
O O15 0.467737 0.303122 0.088864
O O16 0.174700 0.363582 0.043893
O O17 0.000000 0.500000 0.500000
#
# Coordination Sequence:
#
# PCOD8038487 Si02
#       8
#     2   2   2   2   2   2   2   2
#     4  11  25  42  71  93 129 172 220 268 325 389
#     4  10  21  40  64  95 130 173 213 266 323 389
#     4  10  24  38  68  95 129 170 221 265 327 384
#     4  12  23  43  65  97 129 172 213 278 326 375
#     4  10  22  39  65  93 128 174 216 255 316 396
#     4  10  22  41  63  97 129 161 220 269 318 389
#     4  10  17  36  63  94 124 168 214 256 311 391
#     4  11  22  40  63  94 134 170 216 263 322 385
#
# _framework density 22.215582000000001
#
# number of rings (size 3 to 8) (size 9 to 14) (size 15 to 20)
#    0.000    1.500    3.750    1.500    8.750    0.500 
#    0.000    3.125    0.000    0.000    0.000    0.000 
#    0.000    0.000    0.000    0.000    0.000    0.000 
#
# Total GULP energy -198398.078337 kJ/mol
# GULP energy per Si atom -12399.879896 kJ/mol
# Density = 2.216502 g / cm^3
# Si number density = 22.215582 Si / 1000 Ang^3
#
#
#
# Elastic Constant Matrix: (Units=GPa)
#
#
# Indices 1 2 3 4 5 6 
#
# 1 158.2456 27.8949 21.2843 8.7258 -24.4175 15.7630
# 2 27.8949 125.0980 32.3262 18.2903 -3.4538 10.6894
# 3 21.2843 32.3262 64.0341 27.7845 -12.4206 12.6576
# 4 8.7258 18.2903 27.7845 32.6588 5.4503 -6.1718
# 5 -24.4175 -3.4538 -12.4206 5.4503 32.5178 -2.8274
# 6 15.7630 10.6894 12.6576 -6.1718 -2.8274 29.9843
#
#
#
# Elastic Compliance Matrix: (Units=1/GPa)
#
#
# Indices 1 2 3 4 5 6 
#
# 1 0.008321 -0.000971 0.003965 -0.007678 0.008382 -0.006492
# 2 -0.000971 0.009577 -0.002752 -0.003147 -0.000447 -0.002432
# 3 0.003965 -0.002752 0.049613 -0.052053 0.027739 -0.030146
# 4 -0.007678 -0.003147 -0.052053 0.093113 -0.037874 0.042727
# 5 0.008382 -0.000447 0.027739 -0.037874 0.052306 -0.018820
# 6 -0.006492 -0.002432 -0.030146 0.042727 -0.018820 0.057376
#
#
# Mechanical properties :
#
#
# Convention : Reuss Voigt Hill
#
# Bulk Modulus (GPa) = 14.70703 56.70982 35.70843
# Shear Modulus (GPa) = 17.09475 36.75702 26.92588
#
# Velocity S-wave (km/s) = 2.77698 4.07204 3.48519
# Velocity P-wave (km/s) = 4.11299 6.90588 5.68365
#
# Compressibility (1/GPa) = 0.06799468
#
# Stress axis : x y z
#
# Youngs Moduli (GPa) = 120.18456 104.41501 20.15582
#
# Poissons Ratio (x) = 0.10141 -0.07993
# Poissons Ratio (y) = 0.11673 0.05548
# Poissons Ratio (z) = -0.47658 0.28739
#
# Static dielectric constant tensor:
#      x y z
#    x 4.567280 0.413230 -0.313730 
#    y 0.413230 3.735120 -0.034570 
#    z -0.313730 -0.034570 3.858000 
# 
# 
# High freq. dielectric constant tensor:
#      x y z
#    x 1.891190 0.018240 -0.021040 
#    y 0.018240 1.856700 0.018400 
#    z -0.021040 0.018400 1.868490 
# 
# From -- ./inp_files/299043.got.cif
#   From: 2010.06.25/outbox.cif.g09.slc.cpg/sg2_150_cif.got.tgz:299043.got - 2010.06.27 13:26:56.
