data_PCOD8038943
_publ_section_title
;
Structure prediction by ZEFSAII (Michael W. Deem and Ramdas Pophale) SiO2 
 PCOD8038943
Probable space group: P -1
;
_chemical_formula_sum "Si O2"
_cell_formula_units_Z 12
_cell_length_a 13.036801
_cell_length_b 9.887721
_cell_length_c 7.970649
_cell_angle_alpha 64.271746
_cell_angle_beta 34.360407
_cell_angle_gamma 68.291512
_cell_volume 522.266849
_symmetry_space_group_name_H-M "P -1"
_symmetry_group_IT_number 2
_symmetry_cell_setting 'triclinic'
loop_
_space_group_symop_operation_xyz
x,y,z
-x,-y,-z
loop_
_atom_site_type_symbol
_atom_site_label
_atom_site_fract_x
_atom_site_fract_y
_atom_site_fract_z
Si Si1 0.720938 0.638825 0.522894
Si Si2 0.560366 0.555290 0.142575
Si Si3 0.884855 0.862834 0.670361
Si Si4 0.505107 0.133129 0.788033
Si Si5 0.945358 0.533019 0.744636
Si Si6 0.191005 0.053330 0.649772
O O1 0.586141 0.577806 0.593219
O O2 0.729488 0.818954 0.404342
O O3 0.927445 0.572355 0.251667
O O4 0.644238 0.583502 0.832652
O O5 0.456727 0.706546 0.264568
O O6 0.726808 0.506937 0.069929
O O7 0.990811 0.705156 0.640629
O O8 0.835657 0.872127 0.535982
O O9 0.694810 0.862214 0.031268
O O10 0.000000 0.000000 0.500000
O O11 0.667624 0.089192 0.463399
O O12 0.500000 0.000000 0.000000
O O13 0.000000 0.500000 0.500000
O O14 0.000000 0.000000 0.000000
#
# Coordination Sequence:
#
# PCOD8038943 Si02
#       6
#     2   2   2   2   2   2
#     4  10  18  31  56  85 106 146 181 240 282 319
#     4   9  17  30  55  82 105 138 194 237 272 316
#     4  10  20  34  60  85 105 146 190 237 275 319
#     4   9  17  34  53  79 110 142 191 228 267 331
#     4   9  16  31  51  85 108 126 192 241 263 316
#     4  11  22  38  54  82 120 149 181 226 290 348
#
# _framework density 22.976759999999999
#
# number of rings (size 3 to 8) (size 9 to 14) (size 15 to 20)
#    0.000    2.333    6.667    0.000    4.667    1.333 
#    0.000    1.667    0.000    2.000    0.000    0.000 
#    0.000    0.000    0.000    0.000    0.000    0.000 
#
# Total GULP energy -148697.591253 kJ/mol
# GULP energy per Si atom -12391.465938 kJ/mol
# Density = 2.292446 g / cm^3
# Si number density = 22.976760 Si / 1000 Ang^3
#
#
#
# Elastic Constant Matrix: (Units=GPa)
#
#
# Indices 1 2 3 4 5 6 
#
# 1 52.5093 48.1476 29.6590 -0.8781 -37.6697 22.4779
# 2 48.1476 181.6527 63.6943 21.3668 -42.9490 37.0169
# 3 29.6590 63.6943 106.5360 16.1240 -37.9999 10.7430
# 4 -0.8781 21.3668 16.1240 40.6916 0.4305 -20.8944
# 5 -37.6697 -42.9490 -37.9999 0.4305 36.5044 -13.2139
# 6 22.4779 37.0169 10.7430 -20.8944 -13.2139 36.9113
#
#
#
# Elastic Compliance Matrix: (Units=1/GPa)
#
#
# Indices 1 2 3 4 5 6 
#
# 1 0.145868 0.017977 0.028060 -0.066744 0.168149 -0.092611
# 2 0.017977 0.016512 0.003008 -0.026697 0.029504 -0.032933
# 3 0.028060 0.003008 0.022402 -0.021361 0.048312 -0.021421
# 4 -0.066744 -0.026697 -0.021361 0.095913 -0.088860 0.096118
# 5 0.168149 0.029504 0.048312 -0.088860 0.248030 -0.107556
# 6 -0.092611 -0.032933 -0.021421 0.096118 -0.107556 0.138657
#
#
# Mechanical properties :
#
#
# Convention : Reuss Voigt Hill
#
# Bulk Modulus (GPa) = 3.53515 69.29997 36.41756
# Shear Modulus (GPa) = 7.53487 36.10128 21.81808
#
# Velocity S-wave (km/s) = 1.81286 3.96815 3.08485
# Velocity P-wave (km/s) = 2.43390 7.15691 5.34533
#
# Compressibility (1/GPa) = 0.28287308
#
# Stress axis : x y z
#
# Youngs Moduli (GPa) = 6.85552 60.56088 44.63947
#
# Poissons Ratio (x) = -1.08873 -1.25258
# Poissons Ratio (y) = -0.12324 -0.13428
# Poissons Ratio (z) = -0.19237 -0.18218
#
# Static dielectric constant tensor:
#      x y z
#    x 3.924410 0.127030 -0.344100 
#    y 0.127030 4.521490 0.339970 
#    z -0.344100 0.339970 3.953810 
# 
# 
# High freq. dielectric constant tensor:
#      x y z
#    x 1.872230 0.011410 -0.032780 
#    y 0.011410 1.922840 0.016870 
#    z -0.032780 0.016870 1.896810 
# 
# From -- ./inp_files/145280.got.cif
#   From: 2010.06.25/outbox.cif.g09.slc.cpg/sg2_73_cif.got.tgz:145280.got - 2010.06.27 13:26:56.
