data_PCOD8038319
_publ_section_title
;
Structure prediction by ZEFSAII (Michael W. Deem and Ramdas Pophale) SiO2 
 PCOD8038319
Probable space group: P -1
;
_chemical_formula_sum "Si O2"
_cell_formula_units_Z 16
_cell_length_a 12.000000
_cell_length_b 18.000000
_cell_length_c 15.000000
_cell_angle_alpha 150.000000
_cell_angle_beta 50.000000
_cell_angle_gamma 150.000000
_cell_volume 731.734496
_symmetry_space_group_name_H-M "P -1"
_symmetry_group_IT_number 2
_symmetry_cell_setting 'triclinic'
loop_
_space_group_symop_operation_xyz
x,y,z
-x,-y,-z
loop_
_atom_site_type_symbol
_atom_site_label
_atom_site_fract_x
_atom_site_fract_y
_atom_site_fract_z
Si Si1 0.520962 0.113204 0.836271
Si Si2 0.019038 0.855616 0.795792
Si Si3 0.321697 0.667125 0.817174
Si Si4 0.409561 0.677811 0.461473
Si Si5 0.288854 0.064382 0.250563
Si Si6 0.075887 0.178728 0.394863
Si Si7 0.128188 0.511821 0.116564
Si Si8 0.473053 0.311445 0.782040
O O1 0.748131 0.330450 0.876451
O O2 0.427648 0.866677 0.624785
O O3 0.591255 0.202735 0.995963
O O4 0.303918 0.042584 0.842917
O O5 0.867354 0.603953 0.665680
O O6 0.911622 0.783644 0.677607
O O7 0.000000 0.000000 0.000000
O O8 0.520806 0.866294 0.842017
O O9 0.272570 0.450729 0.622804
O O10 0.050043 0.510089 0.771018
O O11 0.578275 0.771539 0.556823
O O12 0.486414 0.650504 0.305420
O O13 0.171185 0.095391 0.283825
O O14 0.060493 0.778393 0.106502
O O15 0.799224 0.976628 0.361258
O O16 0.334024 0.638061 0.214839
O O17 0.500000 0.500000 0.000000
#
# Coordination Sequence:
#
# PCOD8038319 Si02
#       8
#     2   2   2   2   2   2   2   2
#     4  12  28  49  74 112 150 197 249 308 369 445
#     4  12  27  48  76 109 152 196 248 308 368 443
#     4  12  27  46  76 109 150 196 247 306 375 437
#     4  12  29  47  76 110 150 196 250 305 374 440
#     4  12  27  48  74 111 150 197 249 308 368 444
#     4  12  26  48  74 108 147 198 250 301 376 441
#     4  12  27  48  77 104 154 195 249 307 370 442
#     4  12  27  49  75 109 148 199 249 310 375 441
#
# _framework density 21.865853999999999
#
# number of rings (size 3 to 8) (size 9 to 14) (size 15 to 20)
#    0.000    0.000    5.000    3.750    7.000    1.500 
#    0.000    0.000    0.000    0.000    0.000    0.000 
#    0.000    0.000    0.000    0.000    0.000    0.000 
#
# Total GULP energy -198429.343039 kJ/mol
# GULP energy per Si atom -12401.833940 kJ/mol
# Density = 2.181609 g / cm^3
# Si number density = 21.865854 Si / 1000 Ang^3
#
#
#
# Elastic Constant Matrix: (Units=GPa)
#
#
# Indices 1 2 3 4 5 6 
#
# 1 130.5417 57.4918 31.5237 -12.8803 2.3605 -0.3784
# 2 57.4918 177.7565 54.1073 1.0551 4.6304 -14.3051
# 3 31.5237 54.1073 118.2166 -1.2876 -4.3182 -10.4681
# 4 -12.8803 1.0551 -1.2876 46.5388 -10.7763 4.0067
# 5 2.3605 4.6304 -4.3182 -10.7763 44.4083 -2.6862
# 6 -0.3784 -14.3051 -10.4681 4.0067 -2.6862 49.3349
#
#
#
# Elastic Compliance Matrix: (Units=1/GPa)
#
#
# Indices 1 2 3 4 5 6 
#
# 1 0.009475 -0.002785 -0.001320 0.002817 0.000268 -0.001229
# 2 -0.002785 0.007487 -0.002594 -0.001416 -0.001129 0.001653
# 3 -0.001320 -0.002594 0.010184 0.000188 0.001465 0.001463
# 4 0.002817 -0.001416 0.000188 0.023787 0.005669 -0.001972
# 5 0.000268 -0.001129 0.001465 0.005669 0.024191 0.000842
# 6 -0.001229 0.001653 0.001463 -0.001972 0.000842 0.021256
#
#
# Mechanical properties :
#
#
# Convention : Reuss Voigt Hill
#
# Bulk Modulus (GPa) = 72.74768 79.19561 75.97164
# Shear Modulus (GPa) = 43.72084 46.94917 45.33501
#
# Velocity S-wave (km/s) = 4.47643 4.63876 4.55832
# Velocity P-wave (km/s) = 7.74985 8.06153 7.90722
#
# Compressibility (1/GPa) = 0.01374614
#
# Stress axis : x y z
#
# Youngs Moduli (GPa) = 105.53575 133.56394 98.19665
#
# Poissons Ratio (x) = 0.37203 0.12965
# Poissons Ratio (y) = 0.29396 0.25476
# Poissons Ratio (z) = 0.13934 0.34651
#
# Static dielectric constant tensor:
#      x y z
#    x 4.157400 -0.008370 -0.027630 
#    y -0.008370 4.441300 0.122300 
#    z -0.027630 0.122300 4.148320 
# 
# 
# High freq. dielectric constant tensor:
#      x y z
#    x 1.880600 -0.006400 0.000660 
#    y -0.006400 1.893030 0.010860 
#    z 0.000660 0.010860 1.877540 
# 
# From -- ./inp_files/332860.got.cif
#   From: 2010.06.25/outbox.ucp.g09.slc.cvg/sg2_167_cif.got.tgz:332860.got - 2010.06.28 11:54:26.
