data_PCOD8038532
_publ_section_title
;
Structure prediction by ZEFSAII (Michael W. Deem and Ramdas Pophale) SiO2 
 PCOD8038532
Probable space group: P -1
;
_chemical_formula_sum "Si O2"
_cell_formula_units_Z 12
_cell_length_a 9.180811
_cell_length_b 9.676224
_cell_length_c 11.903633
_cell_angle_alpha 87.263738
_cell_angle_beta 46.076007
_cell_angle_gamma 112.857085
_cell_volume 616.502333
_symmetry_space_group_name_H-M "P -1"
_symmetry_group_IT_number 2
_symmetry_cell_setting 'triclinic'
loop_
_space_group_symop_operation_xyz
x,y,z
-x,-y,-z
loop_
_atom_site_type_symbol
_atom_site_label
_atom_site_fract_x
_atom_site_fract_y
_atom_site_fract_z
Si Si1 0.596426 0.188538 0.796391
Si Si2 0.250500 0.780407 0.540787
Si Si3 0.181970 0.952782 0.180434
Si Si4 0.298309 0.468751 0.198348
Si Si5 0.658474 0.874076 0.479445
Si Si6 0.729077 0.831130 0.677640
O O1 0.652445 0.170286 0.639929
O O2 0.792215 0.190284 0.774958
O O3 0.612709 0.360141 0.790917
O O4 0.318273 0.023191 0.984354
O O5 0.434473 0.757132 0.516545
O O6 0.972059 0.607750 0.708445
O O7 0.243877 0.930395 0.591570
O O8 0.890583 0.867900 0.325198
O O9 0.342323 0.123703 0.168740
O O10 0.263724 0.331440 0.311517
O O11 0.500000 0.500000 0.000000
O O12 0.558211 0.802066 0.662653
O O13 0.000000 0.000000 0.500000
#
# Coordination Sequence:
#
# PCOD8038532 Si02
#       6
#     2   2   2   2   2   2
#     4  11  22  35  61  89 115 147 201 241 278 342
#     4  11  21  35  58  89 115 151 194 235 291 338
#     4  10  19  38  60  87 112 155 198 233 285 340
#     4  12  22  39  61  87 117 150 198 240 284 341
#     4  10  20  37  59  83 119 155 188 234 289 349
#     4  10  17  37  61  80 110 154 194 223 282 343
#
# _framework density 19.464645000000001
#
# number of rings (size 3 to 8) (size 9 to 14) (size 15 to 20)
#    0.000    1.333    6.667    1.500    0.000    0.667 
#    0.000    4.167    0.000    0.000    0.000    0.000 
#    0.000    0.000    0.000    0.000    0.000    0.000 
#
# Total GULP energy -148746.253599 kJ/mol
# GULP energy per Si atom -12395.521133 kJ/mol
# Density = 1.942034 g / cm^3
# Si number density = 19.464645 Si / 1000 Ang^3
#
#
#
# Elastic Constant Matrix: (Units=GPa)
#
#
# Indices 1 2 3 4 5 6 
#
# 1 120.9618 12.8940 52.0509 -4.4988 -4.2851 -4.0857
# 2 12.8940 67.9657 13.9707 -5.4790 4.7543 -20.4454
# 3 52.0509 13.9707 105.7772 12.1766 -2.6740 6.9324
# 4 -4.4988 -5.4790 12.1766 25.3876 -9.8321 3.2250
# 5 -4.2851 4.7543 -2.6740 -9.8321 24.3006 0.7832
# 6 -4.0857 -20.4454 6.9324 3.2250 0.7832 30.4334
#
#
#
# Elastic Compliance Matrix: (Units=1/GPa)
#
#
# Indices 1 2 3 4 5 6 
#
# 1 0.011475 0.000082 -0.006439 0.006311 0.003778 0.002296
# 2 0.000082 0.020390 -0.004134 0.003168 -0.003612 0.014408
# 3 -0.006439 -0.004134 0.014551 -0.009120 -0.002224 -0.005932
# 4 0.006311 0.003168 -0.009120 0.054000 0.021377 -0.001219
# 5 0.003778 -0.003612 -0.002224 0.021377 0.051090 -0.004993
# 6 0.002296 0.014408 -0.005932 -0.001219 -0.004993 0.044455
#
#
# Mechanical properties :
#
#
# Convention : Reuss Voigt Hill
#
# Bulk Modulus (GPa) = 39.31735 50.28177 44.79956
# Shear Modulus (GPa) = 22.18088 30.41026 26.29557
#
# Velocity S-wave (km/s) = 3.37938 3.95692 3.67950
# Velocity P-wave (km/s) = 5.95568 6.83848 6.41229
#
# Compressibility (1/GPa) = 0.02543406
#
# Stress axis : x y z
#
# Youngs Moduli (GPa) = 87.14409 49.04443 68.72530
#
# Poissons Ratio (x) = -0.00401 0.44252
# Poissons Ratio (y) = -0.00713 0.28408
# Poissons Ratio (z) = 0.56112 0.20273
#
# Static dielectric constant tensor:
#      x y z
#    x 3.912670 -0.108380 0.273520 
#    y -0.108380 3.631410 0.228240 
#    z 0.273520 0.228240 3.795930 
# 
# 
# High freq. dielectric constant tensor:
#      x y z
#    x 1.745110 -0.026360 0.006900 
#    y -0.026360 1.743920 0.013260 
#    z 0.006900 0.013260 1.758420 
# 
# From -- ./inp_files/146273.got.cif
#   From: 2010.06.25/outbox.cif.g09.slc.cpg/sg2_74_cif.got.tgz:146273.got - 2010.06.27 13:26:56.
