data_PCOD8038357
_publ_section_title
;
Structure prediction by ZEFSAII (Michael W. Deem and Ramdas Pophale) SiO2 
 PCOD8038357
Probable space group: P -1
;
_chemical_formula_sum "Si O2"
_cell_formula_units_Z 16
_cell_length_a 11.469995
_cell_length_b 16.348270
_cell_length_c 14.321928
_cell_angle_alpha 64.597863
_cell_angle_beta 147.715733
_cell_angle_gamma 138.419254
_cell_volume 779.648829
_symmetry_space_group_name_H-M "P -1"
_symmetry_group_IT_number 2
_symmetry_cell_setting 'triclinic'
loop_
_space_group_symop_operation_xyz
x,y,z
-x,-y,-z
loop_
_atom_site_type_symbol
_atom_site_label
_atom_site_fract_x
_atom_site_fract_y
_atom_site_fract_z
Si Si1 0.539306 0.737272 0.100906
Si Si2 0.717999 0.608068 0.770488
Si Si3 0.921804 0.336862 0.701099
Si Si4 0.157791 0.615918 0.180100
Si Si5 0.225374 0.282898 0.555395
Si Si6 0.402763 0.656776 0.666039
Si Si7 0.737850 0.157545 0.126066
Si Si8 0.653160 0.695160 0.005275
O O1 0.813357 0.781760 0.339756
O O2 0.504745 0.832543 0.046314
O O3 0.696808 0.772904 0.086751
O O4 0.144537 0.561857 0.929824
O O5 0.372112 0.433226 0.594645
O O6 0.581381 0.635280 0.739012
O O7 0.887409 0.709796 0.743423
O O8 0.030506 0.650372 0.005816
O O9 0.745171 0.305329 0.695128
O O10 0.626498 0.263222 0.457050
O O11 0.290833 0.515435 0.852091
O O12 0.000624 0.256469 0.788429
O O13 0.517440 0.691247 0.348072
O O14 0.842354 0.166759 0.299395
O O15 0.640616 0.751575 0.874433
O O16 0.000000 0.500000 0.500000
O O17 0.500000 0.000000 0.000000
#
# Coordination Sequence:
#
# PCOD8038357 Si02
#       8
#     2   2   2   2   2   2   2   2
#     4  10  21  36  56  86 121 152 194 243 293 349
#     4  11  20  38  60  90 122 150 197 245 295 347
#     4   9  17  27  46  78 116 152 176 225 296 345
#     4  10  17  35  58  87 119 150 189 247 297 339
#     4  11  22  36  63  86 114 154 193 250 301 343
#     4  10  20  29  52  89 122 148 183 238 296 344
#     4  12  26  40  59  87 119 160 199 239 295 356
#     4   9  18  30  47  78 121 147 182 234 284 346
#
# _framework density 20.52206
#
# number of rings (size 3 to 8) (size 9 to 14) (size 15 to 20)
#    0.000    1.750    3.750    1.875   10.500    0.500 
#    0.000    0.000    0.000    0.750    0.000    2.625 
#    0.000    0.000    0.000    0.000    0.000    0.000 
#
# Total GULP energy -198374.522330 kJ/mol
# GULP energy per Si atom -12398.407646 kJ/mol
# Density = 2.047535 g / cm^3
# Si number density = 20.522060 Si / 1000 Ang^3
#
#
#
# Elastic Constant Matrix: (Units=GPa)
#
#
# Indices 1 2 3 4 5 6 
#
# 1 129.9548 36.8295 36.9847 -14.0065 -26.6495 -11.5885
# 2 36.8295 66.4034 52.6436 -20.5168 -16.7530 -17.3124
# 3 36.9847 52.6436 99.1986 -25.7903 -38.0988 -1.0983
# 4 -14.0065 -20.5168 -25.7903 18.9390 6.1029 -1.0209
# 5 -26.6495 -16.7530 -38.0988 6.1029 37.4000 -8.6309
# 6 -11.5885 -17.3124 -1.0983 -1.0209 -8.6309 17.1142
#
#
#
# Elastic Compliance Matrix: (Units=1/GPa)
#
#
# Indices 1 2 3 4 5 6 
#
# 1 0.013066 0.008122 0.003836 0.018646 0.020444 0.028732
# 2 0.008122 0.085927 -0.005317 0.081048 0.054323 0.124312
# 3 0.003836 -0.005317 0.032066 0.031403 0.031867 0.017221
# 4 0.018646 0.081048 0.031403 0.177080 0.087619 0.151379
# 5 0.020444 0.054323 0.031867 0.087619 0.114708 0.133916
# 6 0.028732 0.124312 0.017221 0.151379 0.133916 0.281309
#
#
# Mechanical properties :
#
#
# Convention : Reuss Voigt Hill
#
# Bulk Modulus (GPa) = 6.92807 60.94138 33.93473
# Shear Modulus (GPa) = 6.76601 25.96391 16.36496
#
# Velocity S-wave (km/s) = 1.81772 3.56078 2.82695
# Velocity P-wave (km/s) = 2.79083 6.83122 5.21796
#
# Compressibility (1/GPa) = 0.14434029
#
# Stress axis : x y z
#
# Youngs Moduli (GPa) = 76.53690 11.63779 31.18545
#
# Poissons Ratio (x) = -0.09452 -0.11963
# Poissons Ratio (y) = -0.62163 0.16582
# Poissons Ratio (z) = -0.29360 0.06188
#
# Static dielectric constant tensor:
#      x y z
#    x 4.015270 0.046410 -0.293160 
#    y 0.046410 3.416230 -0.606660 
#    z -0.293160 -0.606660 3.511700 
# 
# 
# High freq. dielectric constant tensor:
#      x y z
#    x 1.820390 -0.008180 -0.014110 
#    y -0.008180 1.754540 -0.052120 
#    z -0.014110 -0.052120 1.789850 
# 
# From -- ./inp_files/270102.got.cif
#   From: 2010.06.25/outbox.cif.g09.slc.cpg/sg2_136_cif.got.tgz:270102.got - 2010.06.27 13:26:56.
