data_PCOD8038203
_publ_section_title
;
Structure prediction by ZEFSAII (Michael W. Deem and Ramdas Pophale) SiO2 
 PCOD8038203
Probable space group: P -1
;
_chemical_formula_sum "Si O2"
_cell_formula_units_Z 16
_cell_length_a 8.663779
_cell_length_b 13.494386
_cell_length_c 8.760955
_cell_angle_alpha 68.988562
_cell_angle_beta 116.185617
_cell_angle_gamma 119.189184
_cell_volume 788.878266
_symmetry_space_group_name_H-M "P -1"
_symmetry_group_IT_number 2
_symmetry_cell_setting 'triclinic'
loop_
_space_group_symop_operation_xyz
x,y,z
-x,-y,-z
loop_
_atom_site_type_symbol
_atom_site_label
_atom_site_fract_x
_atom_site_fract_y
_atom_site_fract_z
Si Si1 0.006794 0.724659 0.200497
Si Si2 0.346947 0.241012 0.665177
Si Si3 0.254326 0.982093 0.252547
Si Si4 0.346890 0.716949 0.651435
Si Si5 0.686982 0.780033 0.976992
Si Si6 0.058615 0.343173 0.458477
Si Si7 0.735506 0.397568 0.627852
Si Si8 0.414276 0.071970 0.570297
O O1 0.099825 0.859828 0.208174
O O2 0.150259 0.676993 0.211109
O O3 0.826567 0.716188 0.026282
O O4 0.935231 0.645457 0.362162
O O5 0.338524 0.223933 0.850972
O O6 0.173004 0.265162 0.505877
O O7 0.535366 0.350248 0.648009
O O8 0.337605 0.123418 0.646769
O O9 0.463016 0.997311 0.276830
O O10 0.248055 0.993990 0.428752
O O11 0.215852 0.086066 0.101753
O O12 0.289327 0.611946 0.562473
O O13 0.435438 0.829747 0.523849
O O14 0.159644 0.714350 0.657060
O O15 0.491816 0.710352 0.844632
O O16 0.156391 0.469023 0.355474
#
# Coordination Sequence:
#
# PCOD8038203 Si02
#       8
#     2   2   2   2   2   2   2   2
#     4  10  18  35  55  81 107 137 181 218 255 316
#     4  10  20  37  51  83 113 133 171 223 274 312
#     4  10  17  34  59  78 105 141 183 208 259 313
#     4   9  17  36  55  79 104 139 184 216 250 313
#     4  10  22  32  54  81 116 139 165 220 274 314
#     4  10  19  34  60  79 101 141 183 223 260 308
#     4  10  19  37  60  77 100 143 187 218 257 310
#     4   9  18  33  59  78 104 141 181 218 248 317
#
# _framework density 20.281963999999999
#
# number of rings (size 3 to 8) (size 9 to 14) (size 15 to 20)
#    0.000    2.250    3.750    2.250    0.000    0.500 
#    0.000   12.500    0.000    0.000    0.000    0.000 
#    0.000    0.000    0.000    0.000    0.000    0.000 
#
# Total GULP energy -198260.210993 kJ/mol
# GULP energy per Si atom -12391.263187 kJ/mol
# Density = 2.023580 g / cm^3
# Si number density = 20.281964 Si / 1000 Ang^3
#
#
#
# Elastic Constant Matrix: (Units=GPa)
#
#
# Indices 1 2 3 4 5 6 
#
# 1 88.4654 6.8734 41.4754 10.3811 22.0526 4.5393
# 2 6.8734 37.9480 24.4874 -2.9888 9.6852 -2.6448
# 3 41.4754 24.4874 96.9395 6.9338 30.8964 0.1689
# 4 10.3811 -2.9888 6.9338 22.5765 4.5858 -1.8735
# 5 22.0526 9.6852 30.8964 4.5858 35.2444 3.5942
# 6 4.5393 -2.6448 0.1689 -1.8735 3.5942 26.3993
#
#
#
# Elastic Compliance Matrix: (Units=1/GPa)
#
#
# Indices 1 2 3 4 5 6 
#
# 1 0.015408 0.001154 -0.005050 -0.004606 -0.004709 -0.002187
# 2 0.001154 0.033360 -0.008138 0.007592 -0.004182 0.004304
# 3 -0.005050 -0.008138 0.017917 -0.002098 -0.010157 0.001172
# 4 -0.004606 0.007592 -0.002098 0.049420 -0.004373 0.005669
# 5 -0.004709 -0.004182 -0.010157 -0.004373 0.042518 -0.005643
# 6 -0.002187 0.004304 0.001172 0.005669 -0.005643 0.039850
#
#
# Mechanical properties :
#
#
# Convention : Reuss Voigt Hill
#
# Bulk Modulus (GPa) = 23.46447 41.00281 32.23364
# Shear Modulus (GPa) = 21.11958 26.87847 23.99903
#
# Velocity S-wave (km/s) = 3.23042 3.64433 3.44360
# Velocity P-wave (km/s) = 5.05058 6.16186 5.63369
#
# Compressibility (1/GPa) = 0.04261762
#
# Stress axis : x y z
#
# Youngs Moduli (GPa) = 64.89995 29.97641 55.81143
#
# Poissons Ratio (x) = -0.03460 0.28184
# Poissons Ratio (y) = -0.07492 0.45421
# Poissons Ratio (z) = 0.32774 0.24396
#
# Static dielectric constant tensor:
#      x y z
#    x 3.835380 0.041460 0.404900 
#    y 0.041460 3.671470 0.036500 
#    z 0.404900 0.036500 3.593770 
# 
# 
# High freq. dielectric constant tensor:
#      x y z
#    x 1.790710 0.006060 0.033410 
#    y 0.006060 1.782960 -0.010800 
#    z 0.033410 -0.010800 1.765670 
# 
# From -- ./inp_files/200399.got.cif
#   From: 2010.06.25/outbox.cif.g09.slc.cpg/sg2_101_cif.got.tgz:200399.got - 2010.06.27 13:26:56.
