data_PCOD8038706
_publ_section_title
;
Structure prediction by ZEFSAII (Michael W. Deem and Ramdas Pophale) SiO2 
 PCOD8038706
Probable space group: P -1
;
_chemical_formula_sum "Si O2"
_cell_formula_units_Z 16
_cell_length_a 24.966686
_cell_length_b 19.409413
_cell_length_c 11.911296
_cell_angle_alpha 30.697190
_cell_angle_beta 29.279100
_cell_angle_gamma 19.070327
_cell_volume 899.277873
_symmetry_space_group_name_H-M "P -1"
_symmetry_group_IT_number 2
_symmetry_cell_setting 'triclinic'
loop_
_space_group_symop_operation_xyz
x,y,z
-x,-y,-z
loop_
_atom_site_type_symbol
_atom_site_label
_atom_site_fract_x
_atom_site_fract_y
_atom_site_fract_z
Si Si1 0.358248 0.685085 0.154460
Si Si2 0.003270 0.673149 0.636312
Si Si3 0.047327 0.579165 0.941836
Si Si4 0.390770 0.541939 0.540106
Si Si5 0.630561 0.571964 0.672221
Si Si6 0.425555 0.160335 0.769785
Si Si7 0.996830 0.124918 0.244289
Si Si8 0.628039 0.062432 0.732290
O O1 0.385369 0.641276 0.299861
O O2 0.372545 0.528601 0.285174
O O3 0.169213 0.934404 0.119325
O O4 0.509187 0.640607 0.899130
O O5 0.975542 0.689526 0.797110
O O6 0.173284 0.597948 0.399375
O O7 0.830151 0.917482 0.565517
O O8 0.019218 0.507773 0.784620
O O9 0.257870 0.383397 0.829285
O O10 0.978870 0.752681 0.913997
O O11 0.500000 0.500000 0.500000
O O12 0.490276 0.311181 0.651479
O O13 0.190018 0.702924 0.720941
O O14 0.561069 0.783198 0.456147
O O15 0.597734 0.024037 0.719577
O O16 0.399160 0.024163 0.998409
O O17 0.000000 0.000000 0.500000
#
# Coordination Sequence:
#
# PCOD8038706 Si02
#       8
#     2   2   2   2   2   2   2   2
#     4  10  22  37  56  73 101 149 176 208 258 311
#     4   9  18  28  53  80 102 134 170 220 256 294
#     4   9  16  31  50  77 104 132 178 215 252 301
#     4  11  22  34  53  81 110 130 169 221 260 309
#     4  10  19  39  55  74 105 136 186 211 245 317
#     4   9  16  32  55  77 103 134 170 218 258 300
#     4  10  19  34  52  72 103 139 177 211 255 306
#     4  10  18  29  52  85 104 129 167 214 273 294
#
# _framework density 17.792052999999999
#
# number of rings (size 3 to 8) (size 9 to 14) (size 15 to 20)
#    0.000    2.250    2.500    3.000    5.250    0.000 
#    0.000    2.500    0.000    0.750    0.000    0.000 
#    0.000    0.000    0.000    0.000    0.000    0.000 
#
# Total GULP energy -198284.154421 kJ/mol
# GULP energy per Si atom -12392.759651 kJ/mol
# Density = 1.775156 g / cm^3
# Si number density = 17.792053 Si / 1000 Ang^3
#
#
#
# Elastic Constant Matrix: (Units=GPa)
#
#
# Indices 1 2 3 4 5 6 
#
# 1 78.7725 31.9983 25.8072 12.3146 -9.6468 -19.9480
# 2 31.9983 101.2345 43.5459 12.7218 0.4608 -27.1633
# 3 25.8072 43.5459 91.2050 13.7654 -4.6704 -10.6079
# 4 12.3146 12.7218 13.7654 29.0633 -3.8620 -7.5603
# 5 -9.6468 0.4608 -4.6704 -3.8620 20.8241 2.9882
# 6 -19.9480 -27.1633 -10.6079 -7.5603 2.9882 34.2817
#
#
#
# Elastic Compliance Matrix: (Units=1/GPa)
#
#
# Indices 1 2 3 4 5 6 
#
# 1 0.017182 -0.002498 -0.002226 -0.002706 0.006124 0.006199
# 2 -0.002498 0.015878 -0.005811 -0.001271 -0.004401 0.009433
# 3 -0.002226 -0.005811 0.014781 -0.003856 0.002035 -0.002353
# 4 -0.002706 -0.001271 -0.003856 0.039744 0.004622 0.004588
# 5 0.006124 -0.004401 0.002035 0.004622 0.052681 -0.002866
# 6 0.006199 0.009433 -0.002353 0.004588 -0.002866 0.040785
#
#
# Mechanical properties :
#
#
# Convention : Reuss Voigt Hill
#
# Bulk Modulus (GPa) = 37.35314 52.65722 45.00518
# Shear Modulus (GPa) = 23.69194 28.15785 25.92489
#
# Velocity S-wave (km/s) = 3.65307 3.98252 3.82135
# Velocity P-wave (km/s) = 6.23162 7.12793 6.69479
#
# Compressibility (1/GPa) = 0.02677151
#
# Stress axis : x y z
#
# Youngs Moduli (GPa) = 58.20204 62.98168 67.65492
#
# Poissons Ratio (x) = 0.15730 0.15061
# Poissons Ratio (y) = 0.14537 0.39311
# Poissons Ratio (z) = 0.12957 0.36596
#
# Static dielectric constant tensor:
#      x y z
#    x 3.496050 -0.361270 -0.302090 
#    y -0.361270 3.653830 -0.043720 
#    z -0.302090 -0.043720 3.284710 
# 
# 
# High freq. dielectric constant tensor:
#      x y z
#    x 1.669220 -0.029210 -0.028960 
#    y -0.029210 1.687800 -0.013630 
#    z -0.028960 -0.013630 1.670570 
# 
# From -- ./inp_files/252688.got.cif
#   From: 2010.06.25/outbox.cif.g09.slc.cpg/sg2_127_cif.got.tgz:252688.got - 2010.06.27 13:26:56.
