data_PCOD8038860
_publ_section_title
;
Structure prediction by ZEFSAII (Michael W. Deem and Ramdas Pophale) SiO2 
 PCOD8038860
Probable space group: P -1
;
_chemical_formula_sum "Si O2"
_cell_formula_units_Z 16
_cell_length_a 26.035389
_cell_length_b 25.651101
_cell_length_c 11.030462
_cell_angle_alpha 31.701507
_cell_angle_beta 31.170500
_cell_angle_gamma 11.021896
_cell_volume 724.475272
_symmetry_space_group_name_H-M "P -1"
_symmetry_group_IT_number 2
_symmetry_cell_setting 'triclinic'
loop_
_space_group_symop_operation_xyz
x,y,z
-x,-y,-z
loop_
_atom_site_type_symbol
_atom_site_label
_atom_site_fract_x
_atom_site_fract_y
_atom_site_fract_z
Si Si1 0.820059 0.062287 0.369031
Si Si2 0.631993 0.633577 0.969285
Si Si3 0.933392 0.183017 0.902381
Si Si4 0.453841 0.758838 0.822647
Si Si5 0.802092 0.801230 0.293169
Si Si6 0.422475 0.020536 0.356904
Si Si7 0.979270 0.576698 0.130778
Si Si8 0.244400 0.541736 0.674345
O O1 0.928159 0.926525 0.289536
O O2 0.023676 0.832248 0.516356
O O3 0.516414 0.301633 0.521132
O O4 0.800596 0.198566 0.148984
O O5 0.681861 0.517502 0.215064
O O6 0.515088 0.683752 0.989737
O O7 0.927484 0.401556 0.790243
O O8 0.400489 0.928781 0.893744
O O9 0.690496 0.488520 0.800110
O O10 0.160871 0.982927 0.943267
O O11 0.439030 0.888590 0.560325
O O12 0.916964 0.620988 0.313684
O O13 0.621654 0.916741 0.533498
O O14 0.691818 0.827194 0.147876
O O15 0.172083 0.307666 0.226439
O O16 0.111358 0.559928 0.872305
#
# Coordination Sequence:
#
# PCOD8038860 Si02
#       8
#     2   2   2   2   2   2   2   2
#     4  11  24  44  69  90 109 148 210 265 303 346
#     4  10  20  35  57  90 129 164 191 232 303 373
#     4  11  24  44  69  90 109 148 210 265 303 346
#     4  11  22  40  62  91 128 158 193 248 304 354
#     4  10  18  31  50  82 124 168 210 240 272 327
#     4  11  20  32  54  86 124 164 202 236 282 350
#     4  11  20  32  54  86 124 164 202 236 282 350
#     4  11  22  40  62  91 128 158 193 248 304 354
#
# _framework density 22.084951
#
# number of rings (size 3 to 8) (size 9 to 14) (size 15 to 20)
#    0.000    1.250    0.000    9.750    0.000    3.000 
#    0.000    3.750    0.000   15.000    0.000    0.000 
#    0.000    0.000    0.000    0.000    0.000    0.000 
#
# Total GULP energy -198394.599177 kJ/mol
# GULP energy per Si atom -12399.662449 kJ/mol
# Density = 2.203468 g / cm^3
# Si number density = 22.084951 Si / 1000 Ang^3
#
#
#
# Elastic Constant Matrix: (Units=GPa)
#
#
# Indices 1 2 3 4 5 6 
#
# 1 57.6086 28.6351 36.6126 -11.0384 -11.2076 9.1153
# 2 28.6351 169.7882 52.5397 3.1674 -17.6333 5.4307
# 3 36.6126 52.5397 93.9836 17.3851 -9.2547 10.6084
# 4 -11.0384 3.1674 17.3851 25.2583 3.2674 1.2611
# 5 -11.2076 -17.6333 -9.2547 3.2674 15.4590 -12.0261
# 6 9.1153 5.4307 10.6084 1.2611 -12.0261 32.6651
#
#
#
# Elastic Compliance Matrix: (Units=1/GPa)
#
#
# Indices 1 2 3 4 5 6 
#
# 1 0.035850 -0.000169 -0.017886 0.027164 0.007416 -0.002486
# 2 -0.000169 0.007971 -0.003914 0.000264 0.009189 0.003366
# 3 -0.017886 -0.003914 0.024588 -0.024463 0.001921 -0.000692
# 4 0.027164 0.000264 -0.024463 0.070765 -0.016092 -0.008336
# 5 0.007416 0.009189 0.001921 -0.016092 0.115326 0.038859
# 6 -0.002486 0.003366 -0.000692 -0.008336 0.038859 0.045601
#
#
# Mechanical properties :
#
#
# Convention : Reuss Voigt Hill
#
# Bulk Modulus (GPa) = 40.86172 61.88391 51.37281
# Shear Modulus (GPa) = 14.19663 28.24936 21.22300
#
# Velocity S-wave (km/s) = 2.53814 3.58036 3.10332
# Velocity P-wave (km/s) = 5.20882 6.72114 6.01271
#
# Compressibility (1/GPa) = 0.02447278
#
# Stress axis : x y z
#
# Youngs Moduli (GPa) = 27.89373 125.45231 40.66948
#
# Poissons Ratio (x) = 0.02117 0.72740
# Poissons Ratio (y) = 0.00471 0.15919
# Poissons Ratio (z) = 0.49890 0.49106
#
# Static dielectric constant tensor:
#      x y z
#    x 3.695210 -0.065630 -0.042450 
#    y -0.065630 4.482670 -0.003780 
#    z -0.042450 -0.003780 3.751310 
# 
# 
# High freq. dielectric constant tensor:
#      x y z
#    x 1.837920 -0.005120 -0.007730 
#    y -0.005120 1.907890 -0.000260 
#    z -0.007730 -0.000260 1.847840 
# 
# From -- ./inp_files/477196.got.cif
#   From: 2010.06.25/outbox.cif.g09.slc.cpg/sg2_239_cif.got.tgz:477196.got - 2010.06.27 13:26:56.
