data_PCOD8038717
_publ_section_title
;
Structure prediction by ZEFSAII (Michael W. Deem and Ramdas Pophale) SiO2 
 PCOD8038717
Probable space group: P -1
;
_chemical_formula_sum "Si O2"
_cell_formula_units_Z 16
_cell_length_a 15.046762
_cell_length_b 14.769865
_cell_length_c 15.316897
_cell_angle_alpha 79.783646
_cell_angle_beta 19.075593
_cell_angle_gamma 69.808248
_cell_volume 912.939517
_symmetry_space_group_name_H-M "P -1"
_symmetry_group_IT_number 2
_symmetry_cell_setting 'triclinic'
loop_
_space_group_symop_operation_xyz
x,y,z
-x,-y,-z
loop_
_atom_site_type_symbol
_atom_site_label
_atom_site_fract_x
_atom_site_fract_y
_atom_site_fract_z
Si Si1 0.430447 0.702925 0.516636
Si Si2 0.412327 0.620424 0.381568
Si Si3 0.842166 0.400523 0.104679
Si Si4 0.841021 0.395388 0.810767
Si Si5 0.020910 0.235915 0.818382
Si Si6 0.757387 0.128389 0.189885
Si Si7 0.105699 0.574269 0.429717
Si Si8 0.896354 0.578051 0.797833
O O1 0.280122 0.724788 0.553047
O O2 0.402991 0.606969 0.602132
O O3 0.231273 0.812832 0.741940
O O4 0.804897 0.662114 0.168428
O O5 0.714799 0.524659 0.174522
O O6 0.156146 0.585590 0.613192
O O7 0.550790 0.638005 0.159769
O O8 0.859332 0.344868 0.006890
O O9 0.920705 0.353784 0.642206
O O10 0.027152 0.450043 0.672122
O O11 0.932263 0.283951 0.794100
O O12 0.467056 0.498278 0.147127
O O13 0.404231 0.154391 0.492645
O O14 0.863675 0.167362 0.999876
O O15 0.000000 0.000000 0.000000
O O16 0.000000 0.500000 0.500000
O O17 0.864487 0.641190 0.724398
#
# Coordination Sequence:
#
# PCOD8038717 Si02
#       8
#     2   2   2   2   2   2   2   2
#     4  10  21  32  46  68  91 131 165 207 251 291
#     4  12  20  29  46  66 101 131 171 196 232 299
#     4  10  18  30  44  66  98 125 163 201 242 285
#     4  10  19  33  48  75 102 140 171 196 238 299
#     4  10  20  31  56  73  96 132 171 201 249 304
#     4  10  22  38  53  71  98 129 170 224 261 282
#     4   9  19  31  49  69 107 142 162 198 238 286
#     4  11  20  30  45  67 103 138 162 193 235 276
#
# _framework density 17.525804000000001
#
# number of rings (size 3 to 8) (size 9 to 14) (size 15 to 20)
#    0.000    1.750    2.500    2.625    7.000    0.000 
#    0.000    0.000    0.000    0.000    0.000    0.000 
#    0.000    6.000    0.000    0.000    0.000    0.000 
#
# Total GULP energy -198214.446613 kJ/mol
# GULP energy per Si atom -12388.402913 kJ/mol
# Density = 1.748591 g / cm^3
# Si number density = 17.525804 Si / 1000 Ang^3
#
#
#
# Elastic Constant Matrix: (Units=GPa)
#
#
# Indices 1 2 3 4 5 6 
#
# 1 88.5869 27.1964 24.5861 -1.0701 12.5002 -3.8931
# 2 27.1964 49.1804 17.8406 -1.8350 6.5622 -1.5949
# 3 24.5861 17.8406 64.7187 -18.3955 9.1021 -3.2393
# 4 -1.0701 -1.8350 -18.3955 21.7219 -1.0350 -1.2570
# 5 12.5002 6.5622 9.1021 -1.0350 25.1383 -10.0704
# 6 -3.8931 -1.5949 -3.2393 -1.2570 -10.0704 21.5280
#
#
#
# Elastic Compliance Matrix: (Units=1/GPa)
#
#
# Indices 1 2 3 4 5 6 
#
# 1 0.015021 -0.006230 -0.004457 -0.003835 -0.004729 -0.000852
# 2 -0.006230 0.025866 -0.005287 -0.002785 -0.002366 -0.001275
# 3 -0.004457 -0.005287 0.025066 0.020492 -0.003846 0.001971
# 4 -0.003835 -0.002785 0.020492 0.063323 0.000218 0.005983
# 5 -0.004729 -0.002366 -0.003846 0.000218 0.053545 0.023451
# 6 -0.000852 -0.001275 0.001971 0.005983 0.023451 0.057819
#
#
# Mechanical properties :
#
#
# Convention : Reuss Voigt Hill
#
# Bulk Modulus (GPa) = 29.40515 37.97027 33.68771
# Shear Modulus (GPa) = 17.61041 22.53516 20.07279
#
# Velocity S-wave (km/s) = 3.17334 3.58973 3.38794
# Velocity P-wave (km/s) = 5.49922 6.23650 5.87943
#
# Compressibility (1/GPa) = 0.03400765
#
# Stress axis : x y z
#
# Youngs Moduli (GPa) = 66.57210 38.66018 39.89423
#
# Poissons Ratio (x) = 0.24084 0.17780
# Poissons Ratio (y) = 0.41472 0.21091
# Poissons Ratio (z) = 0.29670 0.20438
#
# Static dielectric constant tensor:
#      x y z
#    x 4.243610 -0.254850 0.595160 
#    y -0.254850 3.039180 -0.522170 
#    z 0.595160 -0.522170 3.464720 
# 
# 
# High freq. dielectric constant tensor:
#      x y z
#    x 1.688020 0.008530 0.012720 
#    y 0.008530 1.619080 -0.052370 
#    z 0.012720 -0.052370 1.677230 
# 
# From -- ./inp_files/96121.got.cif
#   From: 2010.06.25/outbox.cif.g09.slc.cpg/sg2_49_cif.got.tgz:96121.got - 2010.06.27 13:26:56.
