data_PCOD8038476
_publ_section_title
;
Structure prediction by ZEFSAII (Michael W. Deem and Ramdas Pophale) SiO2 
 PCOD8038476
Probable space group: P -1
;
_chemical_formula_sum "Si O2"
_cell_formula_units_Z 16
_cell_length_a 13.915736
_cell_length_b 13.586524
_cell_length_c 10.539105
_cell_angle_alpha 147.001289
_cell_angle_beta 53.084273
_cell_angle_gamma 136.735680
_cell_volume 743.490160
_symmetry_space_group_name_H-M "P -1"
_symmetry_group_IT_number 2
_symmetry_cell_setting 'triclinic'
loop_
_space_group_symop_operation_xyz
x,y,z
-x,-y,-z
loop_
_atom_site_type_symbol
_atom_site_label
_atom_site_fract_x
_atom_site_fract_y
_atom_site_fract_z
Si Si1 0.140144 0.341816 0.500203
Si Si2 0.836701 0.406139 0.022576
Si Si3 0.171989 0.948910 0.495202
Si Si4 0.380090 0.344035 0.182045
Si Si5 0.267392 0.920997 0.671687
Si Si6 0.974049 0.766018 0.787500
Si Si7 0.682693 0.579367 0.176845
Si Si8 0.693611 0.456791 0.768746
O O1 0.208730 0.557903 0.762507
O O2 0.260414 0.280747 0.317157
O O3 0.093539 0.378826 0.440494
O O4 0.998124 0.157351 0.481873
O O5 0.793002 0.522411 0.081230
O O6 0.772581 0.168496 0.767725
O O7 0.000000 0.500000 0.000000
O O8 0.232433 0.965490 0.606447
O O9 0.238147 0.171102 0.615547
O O10 0.536488 0.472884 0.257958
O O11 0.370246 0.500352 0.258109
O O12 0.362346 0.138237 0.904164
O O13 0.341057 0.783599 0.466457
O O14 0.121629 0.785891 0.719840
O O15 0.860811 0.635826 0.845729
O O16 0.000000 0.000000 0.000000
O O17 0.626306 0.483357 0.977895
#
# Coordination Sequence:
#
# PCOD8038476 Si02
#       8
#     2   2   2   2   2   2   2   2
#     4   9  20  40  64  84 126 162 198 256 301 361
#     4  10  23  44  64  90 119 161 216 256 298 362
#     4  10  21  40  65  90 121 159 212 259 299 360
#     4  11  24  40  58  95 132 160 198 253 316 378
#     4  11  20  35  61  92 126 163 199 252 311 368
#     4  10  17  36  61  92 128 156 197 259 312 360
#     4  12  24  39  64  92 124 166 203 255 316 360
#     4  11  21  35  59  93 126 162 202 249 310 370
#
# _framework density 21.520123000000002
#
# number of rings (size 3 to 8) (size 9 to 14) (size 15 to 20)
#    0.000    1.500    5.000    1.500    0.000    4.000 
#    0.000    3.125    0.000    0.000    0.000    0.000 
#    0.000    0.000    0.000    0.000    0.000    0.000 
#
# Total GULP energy -198261.237949 kJ/mol
# GULP energy per Si atom -12391.327372 kJ/mol
# Density = 2.147114 g / cm^3
# Si number density = 21.520123 Si / 1000 Ang^3
#
#
#
# Elastic Constant Matrix: (Units=GPa)
#
#
# Indices 1 2 3 4 5 6 
#
# 1 70.9173 24.6435 35.0632 12.9884 -8.2882 7.7689
# 2 24.6435 82.3645 49.2432 12.4016 -0.5452 18.7973
# 3 35.0632 49.2432 170.5612 4.6026 -11.3066 -3.6322
# 4 12.9884 12.4016 4.6026 25.2472 -13.9317 1.9911
# 5 -8.2882 -0.5452 -11.3066 -13.9317 27.1027 0.8203
# 6 7.7689 18.7973 -3.6322 1.9911 0.8203 22.2803
#
#
#
# Elastic Compliance Matrix: (Units=1/GPa)
#
#
# Indices 1 2 3 4 5 6 
#
# 1 0.018116 -0.001132 -0.003276 -0.007503 0.000452 -0.005242
# 2 -0.001132 0.022688 -0.006948 -0.012666 -0.008741 -0.018425
# 3 -0.003276 -0.006948 0.008903 0.005800 0.005320 0.007741
# 4 -0.007503 -0.012666 0.005800 0.066853 0.034023 0.007021
# 5 0.000452 -0.008741 0.005320 0.034023 0.056478 0.002965
# 6 -0.005242 -0.018425 0.007741 0.007021 0.002965 0.062781
#
#
# Mechanical properties :
#
#
# Convention : Reuss Voigt Hill
#
# Bulk Modulus (GPa) = 37.04480 60.19365 48.61923
# Shear Modulus (GPa) = 18.68953 29.25224 23.97089
#
# Velocity S-wave (km/s) = 2.95017 3.69086 3.34111
# Velocity P-wave (km/s) = 5.37179 6.79668 6.12581
#
# Compressibility (1/GPa) = 0.02699434
#
# Stress axis : x y z
#
# Youngs Moduli (GPa) = 55.20108 44.07617 112.31679
#
# Poissons Ratio (x) = 0.04991 0.36799
# Poissons Ratio (y) = 0.06251 0.78033
# Poissons Ratio (z) = 0.18086 0.30622
#
# Static dielectric constant tensor:
#      x y z
#    x 3.687420 0.232980 0.048870 
#    y 0.232980 3.927820 -0.316100 
#    z 0.048870 -0.316100 4.430160 
# 
# 
# High freq. dielectric constant tensor:
#      x y z
#    x 1.818620 0.022510 -0.006240 
#    y 0.022510 1.827220 -0.008190 
#    z -0.006240 -0.008190 1.858150 
# 
# From -- ./inp_files/455992.got.cif
#   From: 2010.06.25/outbox.cif.g09.slc.cpg/sg2_228_cif.got.tgz:455992.got - 2010.06.27 13:26:56.
