data_PCOD8038548
_publ_section_title
;
Structure prediction by ZEFSAII (Michael W. Deem and Ramdas Pophale) SiO2 
 PCOD8038548
Probable space group: P -1
;
_chemical_formula_sum "Si O2"
_cell_formula_units_Z 16
_cell_length_a 6.562961
_cell_length_b 16.835545
_cell_length_c 25.154632
_cell_angle_alpha 26.236877
_cell_angle_beta 130.152801
_cell_angle_gamma 114.345324
_cell_volume 817.742402
_symmetry_space_group_name_H-M "P -1"
_symmetry_group_IT_number 2
_symmetry_cell_setting 'triclinic'
loop_
_space_group_symop_operation_xyz
x,y,z
-x,-y,-z
loop_
_atom_site_type_symbol
_atom_site_label
_atom_site_fract_x
_atom_site_fract_y
_atom_site_fract_z
Si Si1 0.279731 0.260232 0.572378
Si Si2 0.254571 0.042018 0.247491
Si Si3 0.667447 0.122525 0.936638
Si Si4 0.568905 0.285592 0.116394
Si Si5 0.630292 0.115909 0.815374
Si Si6 0.133395 0.916696 0.407105
Si Si7 0.452670 0.767233 0.978141
Si Si8 0.320816 0.492527 0.729213
O O1 0.406607 0.296053 0.628183
O O2 0.143636 0.105064 0.655702
O O3 0.006656 0.466757 0.375576
O O4 0.562792 0.150270 0.645581
O O5 0.357113 0.213305 0.154969
O O6 0.896164 0.142113 0.115920
O O7 0.331506 0.954702 0.373417
O O8 0.564668 0.209022 0.807565
O O9 0.589148 0.315542 0.845621
O O10 0.500000 0.000000 0.000000
O O11 0.023578 0.959994 0.097384
O O12 0.490342 0.315385 0.022674
O O13 0.500000 0.500000 0.000000
O O14 0.933425 0.121615 0.286196
O O15 0.576920 0.922402 0.918289
O O16 0.339661 0.705918 0.601236
O O17 0.656167 0.568784 0.168876
#
# Coordination Sequence:
#
# PCOD8038548 Si02
#       8
#     2   2   2   2   2   2   2   2
#     4   9  19  36  55  83 114 149 198 237 286 347
#     4  10  17  37  64  83 110 162 188 240 283 353
#     4  11  24  37  59  85 121 155 198 254 286 344
#     4  10  21  38  62  92 117 151 199 239 284 357
#     4  11  21  39  58  84 116 156 206 239 288 351
#     4   8  19  36  56  85 113 150 194 235 288 348
#     4  11  20  36  64  88 115 155 202 234 293 358
#     4  10  21  39  57  88 121 152 196 248 295 343
#
# _framework density 19.566063
#
# number of rings (size 3 to 8) (size 9 to 14) (size 15 to 20)
#    0.750    1.250    5.000    0.750    0.000    3.500 
#    0.000    1.250    0.000    1.500    0.000    0.000 
#    0.000    0.000    0.000    0.000    0.000    0.000 
#
# Total GULP energy -198271.227717 kJ/mol
# GULP energy per Si atom -12391.951732 kJ/mol
# Density = 1.952153 g / cm^3
# Si number density = 19.566063 Si / 1000 Ang^3
#
#
#
# Elastic Constant Matrix: (Units=GPa)
#
#
# Indices 1 2 3 4 5 6 
#
# 1 123.7679 24.4276 34.9700 -0.4672 -10.7949 2.8477
# 2 24.4276 46.9890 19.6699 -5.4009 -7.3200 -10.8933
# 3 34.9700 19.6699 92.9024 5.1483 -18.2130 -10.0254
# 4 -0.4672 -5.4009 5.1483 31.6486 -3.6212 4.0500
# 5 -10.7949 -7.3200 -18.2130 -3.6212 24.0563 0.3648
# 6 2.8477 -10.8933 -10.0254 4.0500 0.3648 24.5412
#
#
#
# Elastic Compliance Matrix: (Units=1/GPa)
#
#
# Indices 1 2 3 4 5 6 
#
# 1 0.010108 -0.004835 -0.003157 0.000535 0.000827 -0.004709
# 2 -0.004835 0.028746 -0.002194 0.004319 0.005390 0.011632
# 3 -0.003157 -0.002194 0.014891 -0.002585 0.008713 0.005773
# 4 0.000535 0.004319 -0.002585 0.033933 0.004779 -0.004872
# 5 0.000827 0.005390 0.008713 0.004779 0.050831 0.004312
# 6 -0.004709 0.011632 0.005773 -0.004872 0.004312 0.049555
#
#
# Mechanical properties :
#
#
# Convention : Reuss Voigt Hill
#
# Bulk Modulus (GPa) = 29.96328 46.86603 38.41466
# Shear Modulus (GPa) = 22.77271 28.35533 25.56402
#
# Velocity S-wave (km/s) = 3.41528 3.81098 3.61854
# Velocity P-wave (km/s) = 5.55872 6.58555 6.09380
#
# Compressibility (1/GPa) = 0.03337418
#
# Stress axis : x y z
#
# Youngs Moduli (GPa) = 98.92817 34.78746 67.15340
#
# Poissons Ratio (x) = 0.16819 0.21201
# Poissons Ratio (y) = 0.47830 0.14732
# Poissons Ratio (z) = 0.31232 0.07632
#
# Static dielectric constant tensor:
#      x y z
#    x 3.707180 -0.086660 -0.040920 
#    y -0.086660 3.232140 0.131070 
#    z -0.040920 0.131070 3.659180 
# 
# 
# High freq. dielectric constant tensor:
#      x y z
#    x 1.774020 -0.005540 -0.005270 
#    y -0.005540 1.722120 0.007710 
#    z -0.005270 0.007710 1.760870 
# 
# From -- ./inp_files/604629.got.cif
#   From: 2010.06.25/outbox.cif.g09.slc.cpg/sg2_303_cif.got.tgz:604629.got - 2010.06.27 13:26:56.
