data_PCOD8038790
_publ_section_title
;
Structure prediction by ZEFSAII (Michael W. Deem and Ramdas Pophale) SiO2 
 PCOD8038790
Probable space group: P -1
;
_chemical_formula_sum "Si O2"
_cell_formula_units_Z 14
_cell_length_a 9.286624
_cell_length_b 10.114102
_cell_length_c 12.329655
_cell_angle_alpha 52.430236
_cell_angle_beta 116.927681
_cell_angle_gamma 106.038258
_cell_volume 818.382320
_symmetry_space_group_name_H-M "P -1"
_symmetry_group_IT_number 2
_symmetry_cell_setting 'triclinic'
loop_
_space_group_symop_operation_xyz
x,y,z
-x,-y,-z
loop_
_atom_site_type_symbol
_atom_site_label
_atom_site_fract_x
_atom_site_fract_y
_atom_site_fract_z
Si Si1 0.355045 0.734843 0.012689
Si Si2 0.224245 0.999158 0.168155
Si Si3 0.472813 0.816176 0.779002
Si Si4 0.472240 0.184122 0.594962
Si Si5 0.643952 0.735070 0.251223
Si Si6 0.125175 0.999793 0.885955
Si Si7 0.499125 0.418178 0.290671
O O1 0.389749 0.741271 0.893971
O O2 0.190487 0.832725 0.933231
O O3 0.499391 0.822690 0.088102
O O4 0.349660 0.538290 0.142396
O O5 0.333471 0.834710 0.311934
O O6 0.068500 0.999526 0.192857
O O7 0.333176 0.164186 0.146155
O O8 0.172715 0.997798 0.027622
O O9 0.435309 0.695125 0.727326
O O10 0.398324 0.000040 0.636821
O O11 0.389924 0.257632 0.636590
O O12 0.433361 0.305896 0.421943
O O13 0.808680 0.832235 0.232496
O O14 0.648788 0.538372 0.318402
#
# Coordination Sequence:
#
# PCOD8038790 Si02
#       7
#     2   2   2   2   2   2   2
#     4  10  18  30  54  75  99 121 173 207 244 280
#     4   9  19  27  56  67 108 128 171 194 247 303
#     4  10  18  35  51  77  98 133 168 200 248 295
#     4  10  18  35  51  77  98 133 168 200 248 295
#     4  10  18  30  54  75  99 121 173 207 244 280
#     4  11  16  33  47  83  93 139 160 211 240 296
#     4  10  21  29  54  78 102 126 164 215 245 284
#
# _framework density 17.106919000000001
#
# number of rings (size 3 to 8) (size 9 to 14) (size 15 to 20)
#    1.714    0.286    4.286    1.714    0.000    0.000 
#    0.000    1.429    0.000    6.857    0.000    0.000 
#    0.000    0.000    0.000    0.000    0.000    0.000 
#
# Total GULP energy -173442.760370 kJ/mol
# GULP energy per Si atom -12388.768598 kJ/mol
# Density = 1.706798 g / cm^3
# Si number density = 17.106919 Si / 1000 Ang^3
#
#
#
# Elastic Constant Matrix: (Units=GPa)
#
#
# Indices 1 2 3 4 5 6 
#
# 1 106.6022 40.8677 41.8539 4.7968 -16.8224 -11.6398
# 2 40.8677 117.1197 50.1325 -6.3644 -15.9798 -22.2463
# 3 41.8539 50.1325 92.2545 -12.7747 -29.0390 -10.1572
# 4 4.7968 -6.3644 -12.7747 21.4964 -3.7687 -6.8955
# 5 -16.8224 -15.9798 -29.0390 -3.7687 20.9502 10.4189
# 6 -11.6398 -22.2463 -10.1572 -6.8955 10.4189 12.7345
#
#
#
# Elastic Compliance Matrix: (Units=1/GPa)
#
#
# Indices 1 2 3 4 5 6 
#
# 1 0.012771 -0.002853 -0.005470 -0.007504 0.000019 -0.001752
# 2 -0.002853 0.021938 -0.010379 0.014463 -0.025092 0.055799
# 3 -0.005470 -0.010379 0.036101 0.020032 0.055848 -0.029182
# 4 -0.007504 0.014463 0.020032 0.089905 0.012873 0.072535
# 5 0.000019 -0.025092 0.055848 0.012873 0.176200 -0.136464
# 6 -0.001752 0.055799 -0.029182 0.072535 -0.136464 0.302054
#
#
# Mechanical properties :
#
#
# Convention : Reuss Voigt Hill
#
# Bulk Modulus (GPa) = 29.93411 64.63160 47.28286
# Shear Modulus (GPa) = 7.27264 23.24436 15.25850
#
# Velocity S-wave (km/s) = 2.06410 3.69015 2.98979
# Velocity P-wave (km/s) = 4.81839 7.48460 6.29429
#
# Compressibility (1/GPa) = 0.03340670
#
# Stress axis : x y z
#
# Youngs Moduli (GPa) = 78.30081 45.58394 27.69970
#
# Poissons Ratio (x) = 0.13005 0.15151
# Poissons Ratio (y) = 0.22340 0.28749
# Poissons Ratio (z) = 0.42829 0.47311
#
# Static dielectric constant tensor:
#      x y z
#    x 3.080470 -0.099570 -0.153470 
#    y -0.099570 3.077110 -0.085770 
#    z -0.153470 -0.085770 3.006880 
# 
# 
# High freq. dielectric constant tensor:
#      x y z
#    x 1.630570 -0.018370 -0.027790 
#    y -0.018370 1.654220 -0.006380 
#    z -0.027790 -0.006380 1.648890 
# 
# From -- ./inp_files/260707.got.cif
#   From: 2010.06.25/outbox.cif.g09.slc.cpg/sg2_131_cif.got.tgz:260707.got - 2010.06.27 13:26:56.
