data_PCOD8038492
_publ_section_title
;
Structure prediction by ZEFSAII (Michael W. Deem and Ramdas Pophale) SiO2 
 PCOD8038492
Probable space group: P -1
;
_chemical_formula_sum "Si O2"
_cell_formula_units_Z 16
_cell_length_a 14.005625
_cell_length_b 21.037713
_cell_length_c 8.007694
_cell_angle_alpha 139.968477
_cell_angle_beta 137.321017
_cell_angle_gamma 29.581312
_cell_volume 731.133499
_symmetry_space_group_name_H-M "P -1"
_symmetry_group_IT_number 2
_symmetry_cell_setting 'triclinic'
loop_
_space_group_symop_operation_xyz
x,y,z
-x,-y,-z
loop_
_atom_site_type_symbol
_atom_site_label
_atom_site_fract_x
_atom_site_fract_y
_atom_site_fract_z
Si Si1 0.936465 0.315895 0.007015
Si Si2 0.567808 0.315917 0.225470
Si Si3 0.845957 0.991239 0.330361
Si Si4 0.822732 0.462580 0.473989
Si Si5 0.927991 0.724154 0.274464
Si Si6 0.491779 0.514415 0.774964
Si Si7 0.989262 0.910008 0.692687
Si Si8 0.424409 0.237443 0.120926
O O1 0.710739 0.391342 0.873310
O O2 0.987600 0.331832 0.918855
O O3 0.956046 0.389575 0.328184
O O4 0.075065 0.155935 0.915917
O O5 0.445293 0.459797 0.455604
O O6 0.547280 0.353736 0.077709
O O7 0.797446 0.206884 0.356778
O O8 0.472046 0.258464 0.039397
O O9 0.631456 0.112068 0.221348
O O10 0.000000 0.000000 0.500000
O O11 0.822908 0.006431 0.531915
O O12 0.674249 0.440294 0.216395
O O13 0.697576 0.625792 0.644185
O O14 0.953106 0.397539 0.680099
O O15 0.937569 0.833725 0.568789
O O16 0.700465 0.800727 0.137950
O O17 0.000000 0.000000 0.000000
#
# Coordination Sequence:
#
# PCOD8038492 Si02
#       8
#     2   2   2   2   2   2   2   2
#     4  11  23  39  65  96 133 174 217 279 330 384
#     4  10  18  37  62  93 121 170 214 266 326 376
#     4  11  22  41  65  92 132 173 217 275 330 390
#     4  11  23  39  68 102 127 174 227 269 333 394
#     4  11  24  46  64  97 139 172 219 279 332 392
#     4  10  17  36  64  94 128 162 224 275 319 382
#     4  11  23  40  65  94 128 174 219 267 330 392
#     4  11  24  41  68  97 133 179 218 267 342 398
#
# _framework density 21.883827
#
# number of rings (size 3 to 8) (size 9 to 14) (size 15 to 20)
#    0.000    1.250    5.000    3.000    1.750    3.500 
#    0.000    3.750    0.000    0.000    0.000    0.000 
#    0.000    0.000    0.000    0.000    0.000    0.000 
#
# Total GULP energy -198236.278197 kJ/mol
# GULP energy per Si atom -12389.767387 kJ/mol
# Density = 2.183402 g / cm^3
# Si number density = 21.883827 Si / 1000 Ang^3
#
#
#
# Elastic Constant Matrix: (Units=GPa)
#
#
# Indices 1 2 3 4 5 6 
#
# 1 81.8890 31.9176 48.3580 -2.2251 11.4390 -3.1630
# 2 31.9176 135.6059 50.4481 -7.2093 -4.6108 -3.8589
# 3 48.3580 50.4481 92.6575 3.1165 7.7647 -7.5920
# 4 -2.2251 -7.2093 3.1165 20.3845 -9.9386 13.2903
# 5 11.4390 -4.6108 7.7647 -9.9386 34.6997 -7.7271
# 6 -3.1630 -3.8589 -7.5920 13.2903 -7.7271 17.8291
#
#
#
# Elastic Compliance Matrix: (Units=1/GPa)
#
#
# Indices 1 2 3 4 5 6 
#
# 1 0.018763 -0.000772 -0.009844 0.006108 -0.003961 -0.007300
# 2 -0.000772 0.010722 -0.006896 0.012217 0.005009 -0.007689
# 3 -0.009844 -0.006896 0.022661 -0.023539 -0.004592 0.021967
# 4 0.006108 0.012217 -0.023539 0.128497 0.020973 -0.092991
# 5 -0.003961 0.005009 -0.004592 0.020973 0.037624 -0.000902
# 6 -0.007300 -0.007689 0.021967 -0.092991 -0.000902 0.131410
#
#
# Mechanical properties :
#
#
# Convention : Reuss Voigt Hill
#
# Bulk Modulus (GPa) = 58.40001 63.51108 60.95555
# Shear Modulus (GPa) = 12.80713 26.54458 19.67586
#
# Velocity S-wave (km/s) = 2.42178 3.48656 3.00176
# Velocity P-wave (km/s) = 5.87915 6.73001 6.31892
#
# Compressibility (1/GPa) = 0.01712329
#
# Stress axis : x y z
#
# Youngs Moduli (GPa) = 53.29656 93.26285 44.12915
#
# Poissons Ratio (x) = 0.07198 0.43440
# Poissons Ratio (y) = 0.04114 0.30430
# Poissons Ratio (z) = 0.52464 0.64312
#
# Static dielectric constant tensor:
#      x y z
#    x 4.360230 0.019060 -0.106010 
#    y 0.019060 4.067420 0.080910 
#    z -0.106010 0.080910 3.758450 
# 
# 
# High freq. dielectric constant tensor:
#      x y z
#    x 1.859060 0.010260 -0.000010 
#    y 0.010260 1.865060 -0.005170 
#    z -0.000010 -0.005170 1.831060 
# 
# From -- ./inp_files/319114.got.cif
#   From: 2010.06.25/outbox.cif.g09.slc.cpg/sg2_160_cif.got.tgz:319114.got - 2010.06.27 13:26:56.
