data_PCOD8038874
_publ_section_title
;
Structure prediction by ZEFSAII (Michael W. Deem and Ramdas Pophale) SiO2 
 PCOD8038874
Probable space group: P -1
;
_chemical_formula_sum "Si O2"
_cell_formula_units_Z 16
_cell_length_a 8.786526
_cell_length_b 10.967220
_cell_length_c 10.736835
_cell_angle_alpha 128.122590
_cell_angle_beta 104.323835
_cell_angle_gamma 65.418285
_cell_volume 740.111472
_symmetry_space_group_name_H-M "P -1"
_symmetry_group_IT_number 2
_symmetry_cell_setting 'triclinic'
loop_
_space_group_symop_operation_xyz
x,y,z
-x,-y,-z
loop_
_atom_site_type_symbol
_atom_site_label
_atom_site_fract_x
_atom_site_fract_y
_atom_site_fract_z
Si Si1 0.415559 0.291601 0.430818
Si Si2 0.631979 0.987625 0.622462
Si Si3 0.462961 0.193302 0.116295
Si Si4 0.191072 0.828449 0.560530
Si Si5 0.753088 0.396358 0.057805
Si Si6 0.433007 0.303189 0.926230
Si Si7 0.258093 0.658421 0.710835
Si Si8 0.100212 0.856131 0.289169
O O1 0.313274 0.197447 0.427941
O O2 0.358556 0.286582 0.273454
O O3 0.613991 0.195379 0.419734
O O4 0.380507 0.474739 0.587853
O O5 0.500000 0.000000 0.500000
O O6 0.534782 0.119935 0.787984
O O7 0.792087 0.023180 0.626094
O O8 0.642230 0.218013 0.164881
O O9 0.354106 0.282163 0.030239
O O10 0.500000 0.000000 0.000000
O O11 0.147319 0.730167 0.608670
O O12 0.139615 0.768935 0.378846
O O13 0.092361 0.024714 0.681506
O O14 0.716854 0.586740 0.125994
O O15 0.839903 0.353341 0.186590
O O16 0.566985 0.393263 0.032685
O O17 0.863143 0.275714 0.897885
#
# Coordination Sequence:
#
# PCOD8038874 Si02
#       8
#     2   2   2   2   2   2   2   2
#     4  11  21  35  60  88 114 148 192 241 284 332
#     4  11  19  33  56  84 113 147 194 237 277 331
#     4  10  18  31  51  84 115 144 180 235 294 324
#     4  10  21  38  55  83 120 148 190 233 290 346
#     4   9  19  33  55  80 110 147 191 232 284 330
#     4   9  18  30  51  82 114 139 186 243 276 333
#     4  10  22  36  57  87 114 150 193 240 283 335
#     4  10  22  36  58  86 111 157 190 231 286 348
#
# _framework density 21.618366000000002
#
# number of rings (size 3 to 8) (size 9 to 14) (size 15 to 20)
#    0.000    2.000    2.500    2.250    7.000    0.500 
#    0.000    0.625    0.000    0.750    6.500    0.000 
#    0.000    0.000    0.000    0.000    0.000    0.000 
#
# Total GULP energy -198214.237264 kJ/mol
# GULP energy per Si atom -12388.389829 kJ/mol
# Density = 2.156916 g / cm^3
# Si number density = 21.618366 Si / 1000 Ang^3
#
#
#
# Elastic Constant Matrix: (Units=GPa)
#
#
# Indices 1 2 3 4 5 6 
#
# 1 26.5644 28.5623 26.9498 -0.6945 -10.3947 -0.9332
# 2 28.5623 151.3639 65.2640 -22.3338 -18.3303 22.9833
# 3 26.9498 65.2640 118.8192 -11.6455 -25.9068 17.9733
# 4 -0.6945 -22.3338 -11.6455 48.3142 15.8083 -9.6399
# 5 -10.3947 -18.3303 -25.9068 15.8083 30.5619 -3.0275
# 6 -0.9332 22.9833 17.9733 -9.6399 -3.0275 23.3587
#
#
#
# Elastic Compliance Matrix: (Units=1/GPa)
#
#
# Indices 1 2 3 4 5 6 
#
# 1 0.063810 -0.010195 -0.009612 -0.006477 0.012668 0.018945
# 2 -0.010195 0.011207 -0.002582 0.003221 -0.001423 -0.008303
# 3 -0.009612 -0.002582 0.014956 -0.002213 0.008092 -0.009216
# 4 -0.006477 0.003221 -0.002213 0.028390 -0.016048 0.007911
# 5 0.012668 -0.001423 0.008092 -0.016048 0.050906 -0.004345
# 6 0.018945 -0.008303 -0.009216 0.007911 -0.004345 0.061530
#
#
# Mechanical properties :
#
#
# Convention : Reuss Voigt Hill
#
# Bulk Modulus (GPa) = 22.12586 59.81109 40.96848
# Shear Modulus (GPa) = 17.20329 32.17841 24.69085
#
# Velocity S-wave (km/s) = 2.82400 3.86226 3.38320
# Velocity P-wave (km/s) = 4.57059 6.90046 5.85263
#
# Compressibility (1/GPa) = 0.04519598
#
# Stress axis : x y z
#
# Youngs Moduli (GPa) = 15.67143 89.22705 66.86278
#
# Poissons Ratio (x) = 0.90966 0.64267
# Poissons Ratio (y) = 0.15977 0.17265
# Poissons Ratio (z) = 0.15063 0.23040
#
# Static dielectric constant tensor:
#      x y z
#    x 3.050330 -0.042170 -0.281050 
#    y -0.042170 3.743410 -0.471220 
#    z -0.281050 -0.471220 3.975210 
# 
# 
# High freq. dielectric constant tensor:
#      x y z
#    x 1.790890 0.031720 -0.024030 
#    y 0.031720 1.861560 -0.012880 
#    z -0.024030 -0.012880 1.857240 
# 
# From -- ./inp_files/393141.got.cif
#   From: 2010.06.25/outbox.cif.g09.slc.cpg/sg2_197_cif.got.tgz:393141.got - 2010.06.27 13:26:56.
