data_PCOD8038040
_publ_section_title
;
Structure prediction by ZEFSAII (Michael W. Deem and Ramdas Pophale) SiO2 
 PCOD8038040
Probable space group: P -1
;
_chemical_formula_sum "Si O2"
_cell_formula_units_Z 14
_cell_length_a 7.494987
_cell_length_b 8.698440
_cell_length_c 16.750083
_cell_angle_alpha 146.162914
_cell_angle_beta 112.294230
_cell_angle_gamma 84.640510
_cell_volume 507.861324
_symmetry_space_group_name_H-M "P -1"
_symmetry_group_IT_number 2
_symmetry_cell_setting 'triclinic'
loop_
_space_group_symop_operation_xyz
x,y,z
-x,-y,-z
loop_
_atom_site_type_symbol
_atom_site_label
_atom_site_fract_x
_atom_site_fract_y
_atom_site_fract_z
Si Si1 0.500396 0.608385 0.190187
Si Si2 0.307178 0.878040 0.992098
Si Si3 0.361958 0.460918 0.357148
Si Si4 0.228853 0.681612 0.728916
Si Si5 0.266673 0.113663 0.493410
Si Si6 0.117062 0.430407 0.147955
Si Si7 0.361345 0.835725 0.654127
O O1 0.589332 0.359454 0.084276
O O2 0.601182 0.832861 0.379255
O O3 0.244375 0.436348 0.090892
O O4 0.552501 0.816697 0.210091
O O5 0.178971 0.831421 0.864215
O O6 0.131805 0.809299 0.002959
O O7 0.507288 0.215368 0.174904
O O8 0.572317 0.771778 0.505019
O O9 0.216359 0.322284 0.193833
O O10 0.238843 0.574954 0.452814
O O11 0.432671 0.213838 0.302545
O O12 0.124844 0.310129 0.556119
O O13 0.198757 0.794700 0.684222
O O14 0.114844 0.757632 0.306617
#
# Coordination Sequence:
#
# PCOD8038040 Si02
#       7
#     2   2   2   2   2   2   2
#     4  10  19  35  61  88 114 153 189 240 295 336
#     4  10  23  41  58  83 120 154 200 235 277 352
#     4   9  17  31  58  89 117 149 188 238 297 340
#     4   9  21  39  56  80 120 162 186 234 292 342
#     4   9  16  34  60  86 109 148 197 231 285 337
#     4  11  19  37  65  91 109 148 200 244 283 339
#     4  10  17  33  59  84 119 155 184 236 298 349
#
# _framework density 27.566583000000001
#
# number of rings (size 3 to 8) (size 9 to 14) (size 15 to 20)
#    0.000    2.286    2.857    1.714    0.000    2.857 
#    0.000   20.714    0.000    0.000    0.000    0.000 
#    0.000    0.000    0.000    0.000    0.000    0.000 
#
# Total GULP energy -173455.330188 kJ/mol
# GULP energy per Si atom -12389.666442 kJ/mol
# Density = 2.750384 g / cm^3
# Si number density = 27.566583 Si / 1000 Ang^3
#
#
#
# Elastic Constant Matrix: (Units=GPa)
#
#
# Indices 1 2 3 4 5 6 
#
# 1 64.1642 9.9896 -13.1686 12.4445 -6.8235 15.9360
# 2 9.9896 149.3061 18.2911 20.8463 -13.9072 7.0623
# 3 -13.1686 18.2911 58.9993 13.4197 -9.5257 -4.8343
# 4 12.4445 20.8463 13.4197 51.8291 6.9136 -13.2705
# 5 -6.8235 -13.9072 -9.5257 6.9136 31.8036 -0.1866
# 6 15.9360 7.0623 -4.8343 -13.2705 -0.1866 30.3134
#
#
#
# Elastic Compliance Matrix: (Units=1/GPa)
#
#
# Indices 1 2 3 4 5 6 
#
# 1 0.026823 0.001427 0.009674 -0.016325 0.012708 -0.019959
# 2 0.001427 0.008118 -0.000610 -0.005390 0.004815 -0.005069
# 3 0.009674 -0.000610 0.023119 -0.011093 0.011109 -0.006044
# 4 -0.016325 -0.005390 -0.011093 0.036673 -0.017013 0.024019
# 5 0.012708 0.004815 0.011109 -0.017013 0.043223 -0.013213
# 6 -0.019959 -0.005069 -0.006044 0.024019 -0.013213 0.054132
#
#
# Mechanical properties :
#
#
# Convention : Reuss Voigt Hill
#
# Bulk Modulus (GPa) = 12.65146 33.63263 23.14205
# Shear Modulus (GPa) = 25.32245 39.94639 32.63442
#
# Velocity S-wave (km/s) = 3.03412 3.81082 3.44443
# Velocity P-wave (km/s) = 4.10778 5.62051 4.92260
#
# Compressibility (1/GPa) = 0.07904227
#
# Stress axis : x y z
#
# Youngs Moduli (GPa) = 37.28157 123.18736 43.25401
#
# Poissons Ratio (x) = -0.17583 -0.41843
# Poissons Ratio (y) = -0.05321 0.02639
# Poissons Ratio (z) = -0.36066 0.07515
#
# Static dielectric constant tensor:
#      x y z
#    x 4.906760 0.421310 -0.494110 
#    y 0.421310 5.432490 -0.153550 
#    z -0.494110 -0.153550 5.091450 
# 
# 
# High freq. dielectric constant tensor:
#      x y z
#    x 2.102250 0.012560 -0.031720 
#    y 0.012560 2.115860 0.023910 
#    z -0.031720 0.023910 2.101300 
# 
# From -- ./inp_files/326198.got.cif
#   From: 2010.06.25/outbox.cif.g09.slc.cpg/sg2_164_cif.got.tgz:326198.got - 2010.06.27 13:26:56.
