data_PCOD8038389
_publ_section_title
;
Structure prediction by ZEFSAII (Michael W. Deem and Ramdas Pophale) SiO2 
 PCOD8038389
Probable space group: P -1
;
_chemical_formula_sum "Si O2"
_cell_formula_units_Z 16
_cell_length_a 11.249657
_cell_length_b 10.577052
_cell_length_c 16.622125
_cell_angle_alpha 33.718003
_cell_angle_beta 137.404239
_cell_angle_gamma 123.645211
_cell_volume 734.098621
_symmetry_space_group_name_H-M "P -1"
_symmetry_group_IT_number 2
_symmetry_cell_setting 'triclinic'
loop_
_space_group_symop_operation_xyz
x,y,z
-x,-y,-z
loop_
_atom_site_type_symbol
_atom_site_label
_atom_site_fract_x
_atom_site_fract_y
_atom_site_fract_z
Si Si1 0.441481 0.767012 0.855755
Si Si2 0.833469 0.656874 0.936307
Si Si3 0.710205 0.073191 0.857217
Si Si4 0.514123 0.495373 0.180451
Si Si5 0.004521 0.315994 0.825468
Si Si6 0.856411 0.254952 0.394947
Si Si7 0.968530 0.165703 0.194881
Si Si8 0.606637 0.185568 0.919916
O O1 0.246621 0.841614 0.680910
O O2 0.568862 0.954371 0.796189
O O3 0.500000 0.500000 0.000000
O O4 0.452475 0.741645 0.971842
O O5 0.923328 0.394063 0.104661
O O6 0.913928 0.731888 0.019321
O O7 0.618803 0.679395 0.822182
O O8 0.870682 0.816790 0.795702
O O9 0.800084 0.265548 0.750390
O O10 0.608989 0.196035 0.819005
O O11 0.871154 0.869106 0.070770
O O12 0.715092 0.381716 0.322167
O O13 0.485014 0.563078 0.224143
O O14 0.013510 0.571629 0.663100
O O15 0.980377 0.045106 0.607902
O O16 0.807192 0.121050 0.083087
O O17 0.500000 0.000000 0.000000
#
# Coordination Sequence:
#
# PCOD8038389 Si02
#       8
#     2   2   2   2   2   2   2   2
#     4  10  17  35  61  92 119 161 212 254 303 375
#     4  10  20  41  63  92 124 172 210 256 312 392
#     4  11  21  35  64  94 118 175 214 250 311 387
#     4  10  19  35  65  91 122 169 214 251 310 380
#     4  11  20  36  64  92 128 161 216 260 311 372
#     4  11  21  40  66 100 125 161 215 273 304 365
#     4  10  24  39  64  96 130 161 214 261 321 366
#     4  11  20  38  63  89 122 171 212 249 312 390
#
# _framework density 21.795435999999999
#
# number of rings (size 3 to 8) (size 9 to 14) (size 15 to 20)
#    0.000    1.500    6.250    0.750    0.000    1.000 
#    0.000    2.500    8.250    1.500    0.000    0.000 
#    0.000    0.000    0.000    0.000    0.000    0.000 
#
# Total GULP energy -198278.557492 kJ/mol
# GULP energy per Si atom -12392.409843 kJ/mol
# Density = 2.174583 g / cm^3
# Si number density = 21.795436 Si / 1000 Ang^3
#
#
#
# Elastic Constant Matrix: (Units=GPa)
#
#
# Indices 1 2 3 4 5 6 
#
# 1 92.3390 43.7311 6.1510 -11.1354 -7.1395 9.4028
# 2 43.7311 135.3052 16.8181 -9.4697 -5.9535 25.4943
# 3 6.1510 16.8181 56.8955 -13.9452 -13.4819 3.9624
# 4 -11.1354 -9.4697 -13.9452 15.6185 8.3671 -5.9313
# 5 -7.1395 -5.9535 -13.4819 8.3671 17.2053 -5.9421
# 6 9.4028 25.4943 3.9624 -5.9313 -5.9421 56.8262
#
#
#
# Elastic Compliance Matrix: (Units=1/GPa)
#
#
# Indices 1 2 3 4 5 6 
#
# 1 0.013766 -0.004149 0.002264 0.008359 0.002167 0.000525
# 2 -0.004149 0.009667 -0.002510 0.000187 -0.001689 -0.003632
# 3 0.002264 -0.002510 0.024880 0.016522 0.012229 0.002020
# 4 0.008359 0.000187 0.016522 0.104085 -0.032463 0.004850
# 5 0.002167 -0.001689 0.012229 -0.032463 0.085570 0.005106
# 6 0.000525 -0.003632 0.002020 0.004850 0.005106 0.020040
#
#
# Mechanical properties :
#
#
# Convention : Reuss Voigt Hill
#
# Bulk Modulus (GPa) = 25.30250 46.43780 35.87015
# Shear Modulus (GPa) = 17.85890 32.45262 25.15576
#
# Velocity S-wave (km/s) = 2.86560 3.86290 3.40100
# Velocity P-wave (km/s) = 4.75217 6.42249 5.64941
#
# Compressibility (1/GPa) = 0.03952178
#
# Stress axis : x y z
#
# Youngs Moduli (GPa) = 72.64298 103.44523 40.19258
#
# Poissons Ratio (x) = 0.42921 -0.09099
# Poissons Ratio (y) = 0.30141 0.10090
# Poissons Ratio (z) = -0.16445 0.25969
#
# Static dielectric constant tensor:
#      x y z
#    x 4.043560 -0.009870 -0.052910 
#    y -0.009870 4.274120 0.040170 
#    z -0.052910 0.040170 3.279180 
# 
# 
# High freq. dielectric constant tensor:
#      x y z
#    x 1.878680 0.008350 -0.003530 
#    y 0.008350 1.874890 -0.005200 
#    z -0.003530 -0.005200 1.782430 
# 
# From -- ./inp_files/568522.got.cif
#   From: 2010.06.25/outbox.cif.g09.slc.cpg/sg2_285_cif.got.tgz:568522.got - 2010.06.27 13:26:56.
