data_PCOD8038375
_publ_section_title
;
Structure prediction by ZEFSAII (Michael W. Deem and Ramdas Pophale) SiO2 
 PCOD8038375
Probable space group: P -1
;
_chemical_formula_sum "Si O2"
_cell_formula_units_Z 12
_cell_length_a 11.410023
_cell_length_b 9.707717
_cell_length_c 8.696934
_cell_angle_alpha 78.111774
_cell_angle_beta 42.051600
_cell_angle_gamma 66.506647
_cell_volume 585.358154
_symmetry_space_group_name_H-M "P -1"
_symmetry_group_IT_number 2
_symmetry_cell_setting 'triclinic'
loop_
_space_group_symop_operation_xyz
x,y,z
-x,-y,-z
loop_
_atom_site_type_symbol
_atom_site_label
_atom_site_fract_x
_atom_site_fract_y
_atom_site_fract_z
Si Si1 0.207185 0.098008 0.531394
Si Si2 0.640619 0.413771 0.750918
Si Si3 0.708191 0.906573 0.879197
Si Si4 0.414588 0.297788 0.414568
Si Si5 0.800041 0.165693 0.882591
Si Si6 0.507763 0.761654 0.302947
O O1 0.177715 0.164815 0.370286
O O2 0.311065 0.181473 0.515057
O O3 0.995685 0.131338 0.792705
O O4 0.328825 0.918898 0.459114
O O5 0.711380 0.537111 0.572571
O O6 0.799580 0.273224 0.712609
O O7 0.539472 0.354317 0.732078
O O8 0.500000 0.500000 0.000000
O O9 0.802956 0.008170 0.849059
O O10 0.690502 0.783824 0.044829
O O11 0.500000 0.000000 0.000000
O O12 0.431533 0.317146 0.574381
O O13 0.623650 0.236912 0.151469
#
# Coordination Sequence:
#
# PCOD8038375 Si02
#       6
#     2   2   2   2   2   2
#     4  11  22  37  64  90 117 152 199 247 288 342
#     4  10  21  39  63  84 116 159 200 237 287 352
#     4  10  17  35  60  87 114 150 197 242 282 337
#     4  11  23  40  58  87 127 156 188 238 298 358
#     4  11  21  38  62  91 115 154 201 241 291 340
#     4  11  21  39  63  88 119 157 191 242 302 343
#
# _framework density 20.50027
#
# number of rings (size 3 to 8) (size 9 to 14) (size 15 to 20)
#    0.000    1.333    6.667    2.500    0.000    1.333 
#    0.000    0.000    0.000    6.000    0.000    0.000 
#    0.000    0.000    0.000    0.000    0.000    0.000 
#
# Total GULP energy -148724.350762 kJ/mol
# GULP energy per Si atom -12393.695897 kJ/mol
# Density = 2.045361 g / cm^3
# Si number density = 20.500270 Si / 1000 Ang^3
#
#
#
# Elastic Constant Matrix: (Units=GPa)
#
#
# Indices 1 2 3 4 5 6 
#
# 1 90.9481 36.3110 43.3297 -2.3540 7.8798 16.5974
# 2 36.3110 70.3424 8.2755 -5.5516 4.2481 22.0582
# 3 43.3297 8.2755 47.7994 -8.3839 -4.3384 5.2632
# 4 -2.3540 -5.5516 -8.3839 18.3431 0.0766 10.9301
# 5 7.8798 4.2481 -4.3384 0.0766 45.1346 -4.5177
# 6 16.5974 22.0582 5.2632 10.9301 -4.5177 29.9651
#
#
#
# Elastic Compliance Matrix: (Units=1/GPa)
#
#
# Indices 1 2 3 4 5 6 
#
# 1 0.029102 -0.013604 -0.027545 -0.014878 -0.006098 0.003241
# 2 -0.013604 0.032196 0.016078 0.034350 -0.002359 -0.031874
# 3 -0.027545 0.016078 0.051875 0.035553 0.006451 -0.017686
# 4 -0.014878 0.034350 0.035553 0.119496 -0.004178 -0.067507
# 5 -0.006098 -0.002359 0.006451 -0.004178 0.024998 0.009274
# 6 0.003241 -0.031874 -0.017686 -0.067507 0.009274 0.084169
#
#
# Mechanical properties :
#
#
# Convention : Reuss Voigt Hill
#
# Bulk Modulus (GPa) = 15.86516 42.76915 29.31715
# Shear Modulus (GPa) = 12.10691 26.76680 19.43686
#
# Velocity S-wave (km/s) = 2.43281 3.61734 3.08251
# Velocity P-wave (km/s) = 3.95565 6.19313 5.19625
#
# Compressibility (1/GPa) = 0.06303121
#
# Stress axis : x y z
#
# Youngs Moduli (GPa) = 34.36248 31.06007 19.27705
#
# Poissons Ratio (x) = 0.42254 0.53098
# Poissons Ratio (y) = 0.46747 -0.30994
# Poissons Ratio (z) = 0.94651 -0.49939
#
# Static dielectric constant tensor:
#      x y z
#    x 3.704560 -0.034500 0.154710 
#    y -0.034500 4.005270 -0.352610 
#    z 0.154710 -0.352610 4.079080 
# 
# 
# High freq. dielectric constant tensor:
#      x y z
#    x 1.793750 0.013170 0.013880 
#    y 0.013170 1.799060 -0.014630 
#    z 0.013880 -0.014630 1.790720 
# 
# From -- ./inp_files/146485.got.cif
#   From: 2010.06.25/outbox.cif.g09.slc.cpg/sg2_74_cif.got.tgz:146485.got - 2010.06.27 13:26:56.
