data_PCOD8038151
_publ_section_title
;
Structure prediction by ZEFSAII (Michael W. Deem and Ramdas Pophale) SiO2 
 PCOD8038151
Probable space group: P -1
;
_chemical_formula_sum "Si O2"
_cell_formula_units_Z 16
_cell_length_a 9.552919
_cell_length_b 9.677509
_cell_length_c 13.189718
_cell_angle_alpha 73.580372
_cell_angle_beta 63.385218
_cell_angle_gamma 119.965071
_cell_volume 714.586719
_symmetry_space_group_name_H-M "P -1"
_symmetry_group_IT_number 2
_symmetry_cell_setting 'triclinic'
loop_
_space_group_symop_operation_xyz
x,y,z
-x,-y,-z
loop_
_atom_site_type_symbol
_atom_site_label
_atom_site_fract_x
_atom_site_fract_y
_atom_site_fract_z
Si Si1 0.078493 0.035998 0.850132
Si Si2 0.829763 0.464388 0.776101
Si Si3 0.591212 0.529485 0.269687
Si Si4 0.286285 0.691668 0.669824
Si Si5 0.085044 0.211163 0.469956
Si Si6 0.400647 0.327387 0.983933
Si Si7 0.442438 0.062339 0.661059
Si Si8 0.176088 0.734445 0.353484
O O1 0.277284 0.289953 0.723640
O O2 0.199849 0.968544 0.791068
O O3 0.000000 0.000000 0.000000
O O4 0.861981 0.906913 0.869252
O O5 0.889556 0.649699 0.654087
O O6 0.576772 0.312643 0.936106
O O7 0.812424 0.297259 0.761612
O O8 0.028808 0.580672 0.769568
O O9 0.711992 0.456714 0.241004
O O10 0.322889 0.343125 0.424389
O O11 0.606229 0.601060 0.137149
O O12 0.408105 0.747684 0.509261
O O13 0.423263 0.892711 0.653819
O O14 0.904365 0.155375 0.621496
O O15 0.000000 0.000000 0.500000
O O16 0.500000 0.500000 0.000000
O O17 0.578409 0.135074 0.705776
O O18 0.000000 0.500000 0.500000
#
# Coordination Sequence:
#
# PCOD8038151 Si02
#       8
#     2   2   2   2   2   2   2   2
#     4  10  21  42  64  88 121 169 215 255 308 364
#     4  10  21  39  62  87 121 162 207 252 312 366
#     4  10  23  39  62  95 125 158 209 263 310 373
#     4  11  23  38  59  98 130 156 201 259 331 373
#     4  10  19  34  58  89 125 159 198 246 304 376
#     4  10  21  43  69  87 118 169 217 257 305 372
#     4  11  21  36  63  90 128 169 198 252 323 373
#     4  10  17  34  56  82 118 160 199 234 307 364
#
# _framework density 22.390563
#
# number of rings (size 3 to 8) (size 9 to 14) (size 15 to 20)
#    0.000    1.750    2.500    4.500    1.750    0.500 
#    0.000    7.500    0.000    1.500    0.000    0.000 
#    0.000    0.000    0.000    0.000    0.000    0.000 
#
# Total GULP energy -198227.814842 kJ/mol
# GULP energy per Si atom -12389.238428 kJ/mol
# Density = 2.233960 g / cm^3
# Si number density = 22.390563 Si / 1000 Ang^3
#
#
#
# Elastic Constant Matrix: (Units=GPa)
#
#
# Indices 1 2 3 4 5 6 
#
# 1 107.3768 28.9833 28.1686 -12.1354 -38.2967 -1.8533
# 2 28.9833 142.3766 30.6810 -3.1479 -24.5042 0.3400
# 3 28.1686 30.6810 58.7674 -0.7335 -42.3081 0.5766
# 4 -12.1354 -3.1479 -0.7335 32.6846 4.3696 -16.0416
# 5 -38.2967 -24.5042 -42.3081 4.3696 40.5986 -2.3745
# 6 -1.8533 0.3400 0.5766 -16.0416 -2.3745 47.3563
#
#
#
# Elastic Compliance Matrix: (Units=1/GPa)
#
#
# Indices 1 2 3 4 5 6 
#
# 1 0.017027 -0.001277 0.013390 0.004306 0.028982 0.003424
# 2 -0.001277 0.008056 -0.003916 0.000281 -0.000453 0.000012
# 3 0.013390 -0.003916 0.081895 -0.005149 0.096319 0.002640
# 4 0.004306 0.000281 -0.005149 0.039242 -0.004581 0.013292
# 5 0.028982 -0.000453 0.096319 -0.004581 0.152920 0.006080
# 6 0.003424 0.000012 0.002640 0.013292 0.006080 0.026026
#
#
# Mechanical properties :
#
#
# Convention : Reuss Voigt Hill
#
# Bulk Modulus (GPa) = 8.10560 53.79851 30.95206
# Shear Modulus (GPa) = 14.28999 38.84044 26.56522
#
# Velocity S-wave (km/s) = 2.52903 4.16947 3.44822
# Velocity P-wave (km/s) = 3.48654 6.87450 5.45045
#
# Compressibility (1/GPa) = 0.12337145
#
# Stress axis : x y z
#
# Youngs Moduli (GPa) = 58.72956 124.13596 12.21078
#
# Poissons Ratio (x) = 0.15847 -0.16350
# Poissons Ratio (y) = 0.07497 0.04782
# Poissons Ratio (z) = -0.78637 0.48615
#
# Static dielectric constant tensor:
#      x y z
#    x 3.575200 0.814570 0.197800 
#    y 0.814570 3.692160 -1.133150 
#    z 0.197800 -1.133150 2.884790 
# 
# 
# High freq. dielectric constant tensor:
#      x y z
#    x 1.874090 0.007080 -0.040460 
#    y 0.007080 1.900560 -0.000030 
#    z -0.040460 -0.000030 1.855430 
# 
# From -- ./inp_files/180082.got.cif
#   From: 2010.06.25/outbox.cif.g09.slc.cpg/sg2_91_cif.got.tgz:180082.got - 2010.06.27 13:26:56.
