data_PCOD8038589
_publ_section_title
;
Structure prediction by ZEFSAII (Michael W. Deem and Ramdas Pophale) SiO2 
 PCOD8038589
Probable space group: P -1
;
_chemical_formula_sum "Si O2"
_cell_formula_units_Z 16
_cell_length_a 7.772903
_cell_length_b 8.489488
_cell_length_c 14.165874
_cell_angle_alpha 64.255394
_cell_angle_beta 105.067873
_cell_angle_gamma 128.367075
_cell_volume 660.101275
_symmetry_space_group_name_H-M "P -1"
_symmetry_group_IT_number 2
_symmetry_cell_setting 'triclinic'
loop_
_space_group_symop_operation_xyz
x,y,z
-x,-y,-z
loop_
_atom_site_type_symbol
_atom_site_label
_atom_site_fract_x
_atom_site_fract_y
_atom_site_fract_z
Si Si1 0.428962 0.369346 0.152898
Si Si2 0.233261 0.260484 0.622795
Si Si3 0.398607 0.685916 0.447247
Si Si4 0.198620 0.690946 0.241525
Si Si5 0.744340 0.818199 0.021128
Si Si6 0.037181 0.406417 0.121065
Si Si7 0.766671 0.045465 0.665083
Si Si8 0.648243 0.931804 0.160086
O O1 0.674284 0.589798 0.117818
O O2 0.268354 0.440055 0.134527
O O3 0.404059 0.210885 0.273350
O O4 0.366475 0.234278 0.082693
O O5 0.303931 0.505079 0.561434
O O6 0.346972 0.215171 0.565348
O O7 0.315308 0.237299 0.741895
O O8 0.968828 0.094532 0.617320
O O9 0.261871 0.578087 0.357561
O O10 0.369961 0.873849 0.424783
O O11 0.119794 0.817693 0.255890
O O12 0.416418 0.880282 0.168183
O O13 0.029477 0.521568 0.184332
O O14 0.657211 0.921039 0.050848
O O15 0.000000 0.000000 0.000000
O O16 0.840231 0.160245 0.170019
O O17 0.000000 0.500000 0.000000
#
# Coordination Sequence:
#
# PCOD8038589 Si02
#       8
#     2   2   2   2   2   2   2   2
#     4  11  24  40  64  94 129 171 227 266 325 398
#     4  10  17  38  66 101 126 175 216 264 338 386
#     4   8  20  36  68  98 134 168 214 273 328 392
#     4   9  23  42  59  95 131 172 216 271 325 387
#     4  11  22  40  63  92 122 174 218 268 326 382
#     4  12  25  40  62  94 127 177 220 268 327 391
#     4  10  20  39  69  93 132 172 214 273 325 392
#     4  11  22  39  65  88 132 172 217 272 325 384
#
# _framework density 24.238703999999998
#
# number of rings (size 3 to 8) (size 9 to 14) (size 15 to 20)
#    0.750    1.000    3.750    0.375    1.750    3.500 
#    0.000    0.625    0.000    0.750    0.000    0.000 
#    0.000    0.000    0.000    0.000    0.000    0.000 
#
# Total GULP energy -198229.834254 kJ/mol
# GULP energy per Si atom -12389.364641 kJ/mol
# Density = 2.418354 g / cm^3
# Si number density = 24.238704 Si / 1000 Ang^3
#
#
#
# Elastic Constant Matrix: (Units=GPa)
#
#
# Indices 1 2 3 4 5 6 
#
# 1 80.9722 10.2547 20.0940 -25.0793 -4.6088 6.9203
# 2 10.2547 109.1880 32.1876 -16.1097 -10.3287 15.4072
# 3 20.0940 32.1876 102.4187 -40.2243 2.7118 4.8184
# 4 -25.0793 -16.1097 -40.2243 50.1073 -3.6269 -9.5623
# 5 -4.6088 -10.3287 2.7118 -3.6269 38.7116 -12.5051
# 6 6.9203 15.4072 4.8184 -9.5623 -12.5051 22.3104
#
#
#
# Elastic Compliance Matrix: (Units=1/GPa)
#
#
# Indices 1 2 3 4 5 6 
#
# 1 0.014849 -0.000055 0.000035 0.007642 0.002499 0.000101
# 2 -0.000055 0.011113 -0.003311 -0.000265 0.001082 -0.006449
# 3 0.000035 -0.003311 0.015356 0.012198 0.000660 0.004557
# 4 0.007642 -0.000265 0.012198 0.037152 0.008611 0.015928
# 5 0.002499 0.001082 0.000660 0.008611 0.033987 0.021075
# 6 0.000101 -0.006449 0.004557 0.015928 0.021075 0.066900
#
#
# Mechanical properties :
#
#
# Convention : Reuss Voigt Hill
#
# Bulk Modulus (GPa) = 28.85563 46.40571 37.63067
# Shear Modulus (GPa) = 25.30719 37.56201 31.43460
#
# Velocity S-wave (km/s) = 3.23473 3.94086 3.60512
# Velocity P-wave (km/s) = 5.08743 6.31617 5.73480
#
# Compressibility (1/GPa) = 0.03465528
#
# Stress axis : x y z
#
# Youngs Moduli (GPa) = 67.34468 89.98393 65.11944
#
# Poissons Ratio (x) = 0.00495 -0.00225
# Poissons Ratio (y) = 0.00371 0.21562
# Poissons Ratio (z) = -0.00233 0.29795
#
# Static dielectric constant tensor:
#      x y z
#    x 4.265660 -0.118590 -0.207840 
#    y -0.118590 4.219540 -0.206130 
#    z -0.207840 -0.206130 4.396000 
# 
# 
# High freq. dielectric constant tensor:
#      x y z
#    x 1.957820 -0.006860 -0.012520 
#    y -0.006860 1.931280 -0.021720 
#    z -0.012520 -0.021720 1.966380 
# 
# From -- ./inp_files/555119.got.cif
#   From: 2010.06.25/outbox.cif.g09.slc.cpg/sg2_278_cif.got.tgz:555119.got - 2010.06.27 13:26:56.
