data_PCOD8038974
_publ_section_title
;
Structure prediction by ZEFSAII (Michael W. Deem and Ramdas Pophale) SiO2 
 PCOD8038974
Probable space group: P -1
;
_chemical_formula_sum "Si O2"
_cell_formula_units_Z 12
_cell_length_a 14.732377
_cell_length_b 5.150334
_cell_length_c 13.382106
_cell_angle_alpha 83.724173
_cell_angle_beta 49.861344
_cell_angle_gamma 65.312292
_cell_volume 686.350539
_symmetry_space_group_name_H-M "P -1"
_symmetry_group_IT_number 2
_symmetry_cell_setting 'triclinic'
loop_
_space_group_symop_operation_xyz
x,y,z
-x,-y,-z
loop_
_atom_site_type_symbol
_atom_site_label
_atom_site_fract_x
_atom_site_fract_y
_atom_site_fract_z
Si Si1 0.244038 0.505024 0.959876
Si Si2 0.820229 0.893050 0.098754
Si Si3 0.144480 0.649101 0.332847
Si Si4 0.010382 0.688442 0.622142
Si Si5 0.410817 0.343632 0.045643
Si Si6 0.977639 0.520252 0.168764
O O1 0.279073 0.224121 0.874794
O O2 0.247001 0.758237 0.877759
O O3 0.350116 0.433244 0.974929
O O4 0.097107 0.604104 0.108886
O O5 0.851550 0.796064 0.196757
O O6 0.962501 0.746065 0.943890
O O7 0.048685 0.527405 0.360763
O O8 0.296753 0.437312 0.206551
O O9 0.127767 0.662660 0.464905
O O10 0.104679 0.975088 0.305812
O O11 0.071200 0.585263 0.693880
O O12 0.500000 0.500000 0.000000
O O13 0.500000 0.000000 0.000000
#
# Coordination Sequence:
#
# PCOD8038974 Si02
#       6
#     2   2   2   2   2   2
#     4  10  18  32  44  70 102 124 160 209 241 290
#     4   9  18  27  48  71 106 121 156 199 255 316
#     4  10  20  35  47  76 100 136 168 201 256 296
#     4  10  19  31  55  71 107 131 156 209 260 310
#     4  12  23  34  53  72 100 141 177 205 238 291
#     4   9  18  27  50  74 100 128 154 195 265 305
#
# _framework density 17.483775000000001
#
# number of rings (size 3 to 8) (size 9 to 14) (size 15 to 20)
#    1.000    1.000    1.667    3.500    0.000    0.000 
#    0.000    0.000    0.000    0.000    0.000    7.000 
#    0.000    0.000    0.000    0.000    0.000    0.000 
#
# Total GULP energy -148727.113425 kJ/mol
# GULP energy per Si atom -12393.926119 kJ/mol
# Density = 1.744398 g / cm^3
# Si number density = 17.483775 Si / 1000 Ang^3
#
#
#
# Elastic Constant Matrix: (Units=GPa)
#
#
# Indices 1 2 3 4 5 6 
#
# 1 84.7193 42.9837 20.6986 -12.8035 -1.6970 -17.0172
# 2 42.9837 126.1632 34.4445 -13.9143 14.0341 -9.9735
# 3 20.6986 34.4445 73.3399 -2.8423 12.8169 -17.2328
# 4 -12.8035 -13.9143 -2.8423 26.8133 -4.8058 6.8814
# 5 -1.6970 14.0341 12.8169 -4.8058 21.9290 -5.6521
# 6 -17.0172 -9.9735 -17.2328 6.8814 -5.6521 37.3399
#
#
#
# Elastic Compliance Matrix: (Units=1/GPa)
#
#
# Indices 1 2 3 4 5 6 
#
# 1 0.017086 -0.005085 -0.002407 0.005362 0.008611 0.005633
# 2 -0.005085 0.011308 -0.003287 0.002626 -0.005690 -0.002159
# 3 -0.002407 -0.003287 0.018572 -0.003920 -0.008231 0.006072
# 4 0.005362 0.002626 -0.003920 0.043832 0.009255 -0.005341
# 5 0.008611 -0.005690 -0.008231 0.009255 0.058222 0.005713
# 6 0.005633 -0.002159 0.006072 -0.005341 0.005713 0.033423
#
#
# Mechanical properties :
#
#
# Convention : Reuss Voigt Hill
#
# Bulk Modulus (GPa) = 39.35901 53.38623 46.37262
# Shear Modulus (GPa) = 23.53274 29.62284 26.57779
#
# Velocity S-wave (km/s) = 3.67273 4.12066 3.90313
# Velocity P-wave (km/s) = 6.36757 7.29663 6.84787
#
# Compressibility (1/GPa) = 0.02540715
#
# Stress axis : x y z
#
# Youngs Moduli (GPa) = 58.52680 88.43318 53.84533
#
# Poissons Ratio (x) = 0.44969 0.12963
# Poissons Ratio (y) = 0.29762 0.17698
# Poissons Ratio (z) = 0.14090 0.29066
#
# Static dielectric constant tensor:
#      x y z
#    x 3.239790 0.011870 0.144690 
#    y 0.011870 3.315000 -0.147810 
#    z 0.144690 -0.147810 3.025530 
# 
# 
# High freq. dielectric constant tensor:
#      x y z
#    x 1.675660 0.008100 0.017260 
#    y 0.008100 1.688780 -0.021400 
#    z 0.017260 -0.021400 1.618710 
# 
# From -- ./inp_files/92346.got.cif
#   From: 2010.06.25/outbox.cif.g09.slc.cpg/sg2_47_cif.got.tgz:92346.got - 2010.06.27 13:26:56.
