data_PCOD8038772
_publ_section_title
;
Structure prediction by ZEFSAII (Michael W. Deem and Ramdas Pophale) SiO2 
 PCOD8038772
Probable space group: P -1
;
_chemical_formula_sum "Si O2"
_cell_formula_units_Z 14
_cell_length_a 12.698530
_cell_length_b 23.673359
_cell_length_c 5.565366
_cell_angle_alpha 114.698902
_cell_angle_beta 103.997822
_cell_angle_gamma 29.381620
_cell_volume 717.162215
_symmetry_space_group_name_H-M "P -1"
_symmetry_group_IT_number 2
_symmetry_cell_setting 'triclinic'
loop_
_space_group_symop_operation_xyz
x,y,z
-x,-y,-z
loop_
_atom_site_type_symbol
_atom_site_label
_atom_site_fract_x
_atom_site_fract_y
_atom_site_fract_z
Si Si1 0.135597 0.024215 0.210129
Si Si2 0.860067 0.659302 0.617990
Si Si3 0.711200 0.616183 0.727552
Si Si4 0.752254 0.834845 0.095705
Si Si5 0.267154 0.845965 0.651930
Si Si6 0.526747 0.788453 0.316174
Si Si7 0.225783 0.112867 0.299777
O O1 0.367381 0.910552 0.282092
O O2 0.098604 0.110551 0.230373
O O3 0.155596 0.964193 0.904204
O O4 0.922203 0.111987 0.412847
O O5 0.789992 0.624468 0.581956
O O6 0.668661 0.769351 0.507890
O O7 0.115575 0.528589 0.427513
O O8 0.834844 0.721684 0.928554
O O9 0.459400 0.720867 0.709157
O O10 0.709173 0.654993 0.043132
O O11 0.846584 0.814997 0.364636
O O12 0.488465 0.971217 0.190741
O O13 0.848631 0.817251 0.868468
O O14 0.370488 0.815427 0.404516
#
# Coordination Sequence:
#
# PCOD8038772 Si02
#       7
#     2   2   2   2   2   2   2
#     4  10  20  33  53  77 109 140 175 223 271 327
#     4  10  20  33  53  77 109 140 175 223 271 327
#     4   9  19  34  52  79 106 137 177 220 276 321
#     4  10  22  36  54  80 112 145 183 223 272 326
#     4   9  19  34  52  79 106 137 177 220 276 321
#     4  10  18  30  52  82 104 136 172 224 274 332
#     4  10  22  36  54  80 112 145 183 223 272 326
#
# _framework density 19.521384999999999
#
# number of rings (size 3 to 8) (size 9 to 14) (size 15 to 20)
#    0.000    2.286    0.000    3.429   10.000    0.000 
#    0.000    0.000    0.000    1.714    0.000    0.000 
#    0.000    0.000    0.000    0.000    0.000    0.000 
#
# Total GULP energy -173476.514095 kJ/mol
# GULP energy per Si atom -12391.179578 kJ/mol
# Density = 1.947695 g / cm^3
# Si number density = 19.521385 Si / 1000 Ang^3
#
#
#
# Elastic Constant Matrix: (Units=GPa)
#
#
# Indices 1 2 3 4 5 6 
#
# 1 51.5120 20.9258 21.2776 -2.8662 8.1380 -0.6737
# 2 20.9258 54.3648 33.7289 10.5086 7.5447 -3.5826
# 3 21.2776 33.7289 106.8692 0.4300 0.3064 -2.7222
# 4 -2.8662 10.5086 0.4300 25.5518 4.3079 -5.6376
# 5 8.1380 7.5447 0.3064 4.3079 24.0846 -2.7437
# 6 -0.6737 -3.5826 -2.7222 -5.6376 -2.7437 16.7585
#
#
#
# Elastic Compliance Matrix: (Units=1/GPa)
#
#
# Indices 1 2 3 4 5 6 
#
# 1 0.025553 -0.008927 -0.002276 0.007833 -0.007186 0.000208
# 2 -0.008927 0.029353 -0.007428 -0.012307 -0.003891 -0.000068
# 3 -0.002276 -0.007428 0.012177 0.002491 0.002675 0.001575
# 4 0.007833 -0.012307 0.002491 0.049055 -0.006048 0.013601
# 5 -0.007186 -0.003891 0.002675 -0.006048 0.046778 0.004938
# 6 0.000208 -0.000068 0.001575 0.013601 0.004938 0.065305
#
#
# Mechanical properties :
#
#
# Convention : Reuss Voigt Hill
#
# Bulk Modulus (GPa) = 33.53208 40.51231 37.02219
# Shear Modulus (GPa) = 18.15391 22.39989 20.27690
#
# Velocity S-wave (km/s) = 3.05282 3.39108 3.22639
# Velocity P-wave (km/s) = 5.44432 6.01086 5.73459
#
# Compressibility (1/GPa) = 0.02982219
#
# Stress axis : x y z
#
# Youngs Moduli (GPa) = 39.13384 34.06787 82.12162
#
# Poissons Ratio (x) = 0.30413 0.18689
# Poissons Ratio (y) = 0.34935 0.60998
# Poissons Ratio (z) = 0.08906 0.25305
#
# Static dielectric constant tensor:
#      x y z
#    x 3.515910 -0.077430 -0.214220 
#    y -0.077430 3.639470 0.009860 
#    z -0.214220 0.009860 3.664190 
# 
# 
# High freq. dielectric constant tensor:
#      x y z
#    x 1.736060 0.000600 -0.014710 
#    y 0.000600 1.733720 -0.003920 
#    z -0.014710 -0.003920 1.764380 
# 
# From -- ./inp_files/63350.got.cif
#   From: 2010.06.25/outbox.cif.g09.slc.cpg/sg2_32_cif.got.tgz:63350.got - 2010.06.27 13:26:56.
