data_PCOD8038208
_publ_section_title
;
Structure prediction by ZEFSAII (Michael W. Deem and Ramdas Pophale) SiO2 
 PCOD8038208
Probable space group: P -1
;
_chemical_formula_sum "Si O2"
_cell_formula_units_Z 16
_cell_length_a 26.236370
_cell_length_b 20.970446
_cell_length_c 8.807465
_cell_angle_alpha 150.211571
_cell_angle_beta 31.334639
_cell_angle_gamma 159.585814
_cell_volume 816.111699
_symmetry_space_group_name_H-M "P -1"
_symmetry_group_IT_number 2
_symmetry_cell_setting 'triclinic'
loop_
_space_group_symop_operation_xyz
x,y,z
-x,-y,-z
loop_
_atom_site_type_symbol
_atom_site_label
_atom_site_fract_x
_atom_site_fract_y
_atom_site_fract_z
Si Si1 0.834569 0.186488 0.351089
Si Si2 0.175518 0.179902 0.080029
Si Si3 0.066698 0.437699 0.039699
Si Si4 0.495037 0.130243 0.367881
Si Si5 0.463126 0.337490 0.661657
Si Si6 0.193776 0.468284 0.485596
Si Si7 0.761546 0.613471 0.351115
Si Si8 0.955305 0.777603 0.917467
O O1 0.901374 0.241794 0.124230
O O2 0.900314 0.138084 0.188994
O O3 0.653663 0.005288 0.428715
O O4 0.894792 0.375960 0.663000
O O5 0.206875 0.330794 0.204630
O O6 0.192667 0.236158 0.329439
O O7 0.290409 0.182929 0.734240
O O8 0.011911 0.949228 0.016395
O O9 0.072859 0.408097 0.785554
O O10 0.190638 0.480875 0.908629
O O11 0.490190 0.236321 0.477168
O O12 0.645572 0.299299 0.435079
O O13 0.500000 0.000000 0.000000
O O14 0.579877 0.441138 0.437845
O O15 0.500000 0.500000 0.000000
O O16 0.128721 0.413251 0.366449
O O17 0.837288 0.720039 0.217980
#
# Coordination Sequence:
#
# PCOD8038208 Si02
#       8
#     2   2   2   2   2   2   2   2
#     4  10  20  34  61  81 105 144 197 223 263 342
#     4  10  19  36  57  79 107 155 189 225 275 343
#     4   9  18  37  54  81 108 145 184 229 273 328
#     4  12  20  36  61  85 107 152 194 224 271 348
#     4  10  17  34  59  81 107 145 197 231 264 324
#     4  11  22  37  54  82 120 144 176 243 293 318
#     4   9  18  34  57  81 109 146 188 230 275 332
#     4  11  22  34  55  87 114 142 184 236 287 328
#
# _framework density 19.605159
#
# number of rings (size 3 to 8) (size 9 to 14) (size 15 to 20)
#    0.000    1.750    6.250    0.750    0.000    0.500 
#    0.000    1.875    0.000    7.500    0.000    0.000 
#    0.000    0.000    0.000    0.000    0.000    0.000 
#
# Total GULP energy -198265.092194 kJ/mol
# GULP energy per Si atom -12391.568262 kJ/mol
# Density = 1.956054 g / cm^3
# Si number density = 19.605159 Si / 1000 Ang^3
#
#
#
# Elastic Constant Matrix: (Units=GPa)
#
#
# Indices 1 2 3 4 5 6 
#
# 1 24.0641 23.6191 17.4142 -3.9825 8.9242 4.3345
# 2 23.6191 140.3444 49.4074 -26.2950 8.3673 -1.2997
# 3 17.4142 49.4074 88.2925 -18.9286 -6.4341 3.6963
# 4 -3.9825 -26.2950 -18.9286 46.7844 -7.8574 -1.6450
# 5 8.9242 8.3673 -6.4341 -7.8574 26.2726 9.9322
# 6 4.3345 -1.2997 3.6963 -1.6450 9.9322 18.8484
#
#
#
# Elastic Compliance Matrix: (Units=1/GPa)
#
#
# Indices 1 2 3 4 5 6 
#
# 1 0.065270 -0.006383 -0.012744 -0.007463 -0.025410 -0.000212
# 2 -0.006383 0.010608 -0.004424 0.003264 -0.003227 0.005052
# 3 -0.012744 -0.004424 0.019240 0.006549 0.015767 -0.008884
# 4 -0.007463 0.003264 0.006549 0.027213 0.012602 -0.003608
# 5 -0.025410 -0.003227 0.015767 0.012602 0.067408 -0.031892
# 6 -0.000212 0.005052 -0.008884 -0.003608 -0.031892 0.071685
#
#
# Mechanical properties :
#
#
# Convention : Reuss Voigt Hill
#
# Bulk Modulus (GPa) = 20.82683 48.17583 34.50133
# Shear Modulus (GPa) = 15.40686 29.19845 22.30266
#
# Velocity S-wave (km/s) = 2.80636 3.86336 3.37648
# Velocity P-wave (km/s) = 4.59859 6.67287 5.73037
#
# Compressibility (1/GPa) = 0.04801498
#
# Stress axis : x y z
#
# Youngs Moduli (GPa) = 15.32105 94.27010 51.97529
#
# Poissons Ratio (x) = 0.60175 0.66238
# Poissons Ratio (y) = 0.09780 0.22993
# Poissons Ratio (z) = 0.19525 0.41704
#
# Static dielectric constant tensor:
#      x y z
#    x 3.221570 0.029100 -0.140090 
#    y 0.029100 4.065180 -0.359310 
#    z -0.140090 -0.359310 3.794810 
# 
# 
# High freq. dielectric constant tensor:
#      x y z
#    x 1.715570 -0.013600 -0.016490 
#    y -0.013600 1.778220 -0.012360 
#    z -0.016490 -0.012360 1.771670 
# 
# From -- ./inp_files/311269.got.cif
#   From: 2010.06.25/outbox.cif.g09.slc.cpg/sg2_156_cif.got.tgz:311269.got - 2010.06.27 13:26:56.
