data_PCOD8038153
_publ_section_title
;
Structure prediction by ZEFSAII (Michael W. Deem and Ramdas Pophale) SiO2 
 PCOD8038153
Probable space group: P -1
;
_chemical_formula_sum "Si O2"
_cell_formula_units_Z 16
_cell_length_a 11.792223
_cell_length_b 11.344277
_cell_length_c 9.226734
_cell_angle_alpha 114.712559
_cell_angle_beta 122.599050
_cell_angle_gamma 88.443702
_cell_volume 912.429100
_symmetry_space_group_name_H-M "P -1"
_symmetry_group_IT_number 2
_symmetry_cell_setting 'triclinic'
loop_
_space_group_symop_operation_xyz
x,y,z
-x,-y,-z
loop_
_atom_site_type_symbol
_atom_site_label
_atom_site_fract_x
_atom_site_fract_y
_atom_site_fract_z
Si Si1 0.120730 0.481004 0.467496
Si Si2 0.219682 0.984469 0.667500
Si Si3 0.272690 0.683969 0.031017
Si Si4 0.295223 0.755889 0.778110
Si Si5 0.055180 0.182926 0.739906
Si Si6 0.990128 0.368720 0.019421
Si Si7 0.452519 0.217203 0.850188
Si Si8 0.762098 0.615122 0.238591
O O1 0.223052 0.625357 0.564778
O O2 0.207897 0.396079 0.575284
O O3 0.000000 0.500000 0.500000
O O4 0.063798 0.404240 0.242611
O O5 0.283409 0.892076 0.767099
O O6 0.103484 0.898613 0.437020
O O7 0.154688 0.082443 0.773256
O O8 0.342895 0.071883 0.696145
O O9 0.174439 0.705421 0.105972
O O10 0.436942 0.765551 0.200225
O O11 0.214871 0.733711 0.866983
O O12 0.262366 0.525997 0.931486
O O13 0.458596 0.764752 0.928230
O O14 0.104420 0.281562 0.688435
O O15 0.062714 0.266993 0.935991
O O16 0.000000 0.500000 0.000000
O O17 0.376389 0.335585 0.850661
#
# Coordination Sequence:
#
# PCOD8038153 Si02
#       8
#     2   2   2   2   2   2   2   2
#     4  11  18  31  56  84 108 137 174 227 276 322
#     4  10  19  37  55  78 112 144 192 212 262 322
#     4   9  19  30  55  80 106 139 172 222 271 314
#     4   9  18  31  55  84 101 143 182 220 259 321
#     4  10  22  33  58  82 109 146 175 231 270 316
#     4  12  20  35  54  85 114 136 176 226 286 319
#     4   9  19  32  57  80 103 149 184 221 255 322
#     4  10  17  34  56  83 109 134 184 223 272 320
#
# _framework density 17.535608
#
# number of rings (size 3 to 8) (size 9 to 14) (size 15 to 20)
#    0.750    1.250    3.750    2.250    0.000    0.000 
#    0.000    1.250    0.000    9.750    0.000    0.000 
#    0.000    0.000    0.000    0.000    0.000    0.000 
#
# Total GULP energy -198245.738247 kJ/mol
# GULP energy per Si atom -12390.358640 kJ/mol
# Density = 1.749570 g / cm^3
# Si number density = 17.535608 Si / 1000 Ang^3
#
#
#
# Elastic Constant Matrix: (Units=GPa)
#
#
# Indices 1 2 3 4 5 6 
#
# 1 96.6393 38.6411 44.2089 3.1652 13.1931 8.3169
# 2 38.6411 120.0515 38.9249 -8.1437 5.2168 -3.1512
# 3 44.2089 38.9249 81.3377 1.7354 1.3611 -5.8783
# 4 3.1652 -8.1437 1.7354 23.3710 0.0971 9.5274
# 5 13.1931 5.2168 1.3611 0.0971 32.7766 5.9224
# 6 8.3169 -3.1512 -5.8783 9.5274 5.9224 28.3340
#
#
#
# Elastic Compliance Matrix: (Units=1/GPa)
#
#
# Indices 1 2 3 4 5 6 
#
# 1 0.016101 -0.002600 -0.007826 -0.000212 -0.004733 -0.005578
# 2 -0.002600 0.010724 -0.003824 0.004474 -0.000471 -0.000244
# 3 -0.007826 -0.003824 0.018949 -0.004526 0.001727 0.006964
# 4 -0.000212 0.004474 -0.004526 0.052252 0.002754 -0.018525
# 5 -0.004733 -0.000471 0.001727 0.002754 0.033538 -0.006241
# 6 -0.005578 -0.000244 0.006964 -0.018525 -0.006241 0.045882
#
#
# Mechanical properties :
#
#
# Convention : Reuss Voigt Hill
#
# Bulk Modulus (GPa) = 57.89291 60.17536 59.03414
# Shear Modulus (GPa) = 23.61781 28.64655 26.13218
#
# Velocity S-wave (km/s) = 3.67393 4.04619 3.86454
# Velocity P-wave (km/s) = 7.14725 7.49797 7.32471
#
# Compressibility (1/GPa) = 0.01727327
#
# Stress axis : x y z
#
# Youngs Moduli (GPa) = 62.10857 93.24797 52.77233
#
# Poissons Ratio (x) = 0.24243 0.41302
# Poissons Ratio (y) = 0.16148 0.20181
# Poissons Ratio (z) = 0.48609 0.35660
#
# Static dielectric constant tensor:
#      x y z
#    x 3.344250 0.138440 0.242180 
#    y 0.138440 3.376000 -0.002240 
#    z 0.242180 -0.002240 3.092780 
# 
# 
# High freq. dielectric constant tensor:
#      x y z
#    x 1.671540 0.011380 0.029380 
#    y 0.011380 1.687100 0.000230 
#    z 0.029380 0.000230 1.646120 
# 
# From -- ./inp_files/260332.got.cif
#   From: 2010.06.25/outbox.cif.g09.slc.cpg/sg2_131_cif.got.tgz:260332.got - 2010.06.27 13:26:56.
