data_PCOD8038975
_publ_section_title
;
Structure prediction by ZEFSAII (Michael W. Deem and Ramdas Pophale) SiO2 
 PCOD8038975
Probable space group: P -1
;
_chemical_formula_sum "Si O2"
_cell_formula_units_Z 16
_cell_length_a 14.735730
_cell_length_b 6.343477
_cell_length_c 12.498462
_cell_angle_alpha 70.572531
_cell_angle_beta 70.967403
_cell_angle_gamma 56.577512
_cell_volume 904.301974
_symmetry_space_group_name_H-M "P -1"
_symmetry_group_IT_number 2
_symmetry_cell_setting 'triclinic'
loop_
_space_group_symop_operation_xyz
x,y,z
-x,-y,-z
loop_
_atom_site_type_symbol
_atom_site_label
_atom_site_fract_x
_atom_site_fract_y
_atom_site_fract_z
Si Si1 0.895586 0.273911 0.487380
Si Si2 0.711009 0.140706 0.550236
Si Si3 0.931350 0.247855 0.867074
Si Si4 0.591778 0.636637 0.619978
Si Si5 0.871364 0.636028 0.255383
Si Si6 0.352810 0.025977 0.607809
Si Si7 0.217038 0.413978 0.317529
Si Si8 0.946999 0.327990 0.078320
O O1 0.797105 0.240074 0.484210
O O2 0.919635 0.451697 0.370127
O O3 0.869954 0.406010 0.590585
O O4 0.000000 0.000000 0.500000
O O5 0.610374 0.357950 0.623592
O O6 0.665769 0.127196 0.454485
O O7 0.767992 0.870380 0.636878
O O8 0.831114 0.459156 0.799689
O O9 0.045143 0.256170 0.813610
O O10 0.887708 0.302597 0.997970
O O11 0.960127 0.959783 0.871314
O O12 0.635092 0.743355 0.487753
O O13 0.663577 0.608197 0.703376
O O14 0.463509 0.829103 0.662278
O O15 0.747923 0.867084 0.287854
O O16 0.864417 0.474129 0.184054
O O17 0.000000 0.500000 0.000000
#
# Coordination Sequence:
#
# PCOD8038975 Si02
#       8
#     2   2   2   2   2   2   2   2
#     4  11  21  29  45  77 112 137 162 206 253 309
#     4  10  18  32  46  74 104 143 175 197 252 299
#     4  10  21  36  55  74 104 135 170 213 255 314
#     4   9  19  34  47  72 107 141 176 209 246 297
#     4  11  20  32  51  79 104 135 171 212 254 297
#     4  10  19  32  50  72 105 141 178 211 245 301
#     4  10  20  33  50  76 105 139 170 204 257 312
#     4   9  21  38  53  76  99 134 174 211 260 302
#
# _framework density 17.693203
#
# number of rings (size 3 to 8) (size 9 to 14) (size 15 to 20)
#    0.000    2.000    3.750    1.875    3.500    4.000 
#    0.000    0.000    0.000    0.750    0.000    8.750 
#    0.000    0.000    0.000    0.000    0.000    0.000 
#
# Total GULP energy -198340.769047 kJ/mol
# GULP energy per Si atom -12396.298065 kJ/mol
# Density = 1.765293 g / cm^3
# Si number density = 17.693203 Si / 1000 Ang^3
#
#
#
# Elastic Constant Matrix: (Units=GPa)
#
#
# Indices 1 2 3 4 5 6 
#
# 1 66.8992 49.0045 27.5107 4.3310 12.4467 -19.7708
# 2 49.0045 117.8145 19.3282 -1.8552 7.0158 -5.8729
# 3 27.5107 19.3282 53.0326 0.0216 17.2989 -9.3565
# 4 4.3310 -1.8552 0.0216 25.9569 2.3260 -0.6631
# 5 12.4467 7.0158 17.2989 2.3260 19.7417 -2.9781
# 6 -19.7708 -5.8729 -9.3565 -0.6631 -2.9781 33.6479
#
#
#
# Elastic Compliance Matrix: (Units=1/GPa)
#
#
# Indices 1 2 3 4 5 6 
#
# 1 0.031939 -0.010973 -0.007973 -0.005165 -0.006538 0.013954
# 2 -0.010973 0.012830 -0.000248 0.002494 0.001667 -0.004081
# 3 -0.007973 -0.000248 0.030497 0.003281 -0.021709 0.001896
# 4 -0.005165 0.002494 0.003281 0.040014 -0.005428 -0.001379
# 5 -0.006538 0.001667 -0.021709 -0.005428 0.073363 -0.003201
# 6 0.013954 -0.004081 0.001896 -0.001379 -0.003201 0.037423
#
#
# Mechanical properties :
#
#
# Convention : Reuss Voigt Hill
#
# Bulk Modulus (GPa) = 27.11677 47.71479 37.41578
# Shear Modulus (GPa) = 18.06708 25.32949 21.69828
#
# Velocity S-wave (km/s) = 3.19898 3.78775 3.50575
# Velocity P-wave (km/s) = 5.38554 6.79380 6.13024
#
# Compressibility (1/GPa) = 0.03687755
#
# Stress axis : x y z
#
# Youngs Moduli (GPa) = 31.30969 77.94506 32.79002
#
# Poissons Ratio (x) = 0.85532 0.26142
# Poissons Ratio (y) = 0.34357 0.00814
# Poissons Ratio (z) = 0.24962 0.01934
#
# Static dielectric constant tensor:
#      x y z
#    x 3.333870 -0.107640 0.089530 
#    y -0.107640 3.982030 0.125760 
#    z 0.089530 0.125760 3.216180 
# 
# 
# High freq. dielectric constant tensor:
#      x y z
#    x 1.668570 0.009200 0.011690 
#    y 0.009200 1.709600 -0.003570 
#    z 0.011690 -0.003570 1.651230 
# 
# From -- ./inp_files/70470.got.cif
#   From: 2010.06.25/outbox.cif.g09.slc.cpg/sg2_36_cif.got.tgz:70470.got - 2010.06.27 13:26:56.
