data_PCOD8038505
_publ_section_title
;
Structure prediction by ZEFSAII (Michael W. Deem and Ramdas Pophale) SiO2 
 PCOD8038505
Probable space group: P -1
;
_chemical_formula_sum "Si O2"
_cell_formula_units_Z 14
_cell_length_a 14.605199
_cell_length_b 7.173318
_cell_length_c 8.963780
_cell_angle_alpha 108.081830
_cell_angle_beta 57.738925
_cell_angle_gamma 126.402648
_cell_volume 639.147330
_symmetry_space_group_name_H-M "P -1"
_symmetry_group_IT_number 2
_symmetry_cell_setting 'triclinic'
loop_
_space_group_symop_operation_xyz
x,y,z
-x,-y,-z
loop_
_atom_site_type_symbol
_atom_site_label
_atom_site_fract_x
_atom_site_fract_y
_atom_site_fract_z
Si Si1 0.746793 0.090350 0.456551
Si Si2 0.006466 0.744207 0.563754
Si Si3 0.145841 0.528300 0.971628
Si Si4 0.317005 0.040698 0.845081
Si Si5 0.557415 0.122101 0.822949
Si Si6 0.932480 0.567653 0.292615
Si Si7 0.749123 0.604306 0.902497
O O1 0.636108 0.017365 0.657124
O O2 0.801680 0.355394 0.424250
O O3 0.857460 0.064889 0.433989
O O4 0.689208 0.926840 0.319862
O O5 0.993366 0.788132 0.408062
O O6 0.892217 0.738672 0.748355
O O7 0.000000 0.500000 0.500000
O O8 0.248436 0.497010 0.961963
O O9 0.026988 0.469459 0.167239
O O10 0.095395 0.362259 0.827471
O O11 0.203982 0.788471 0.929633
O O12 0.451919 0.079310 0.783233
O O13 0.298807 0.222302 0.996609
O O14 0.650549 0.396682 0.831380
O O15 0.500000 0.000000 0.000000
#
# Coordination Sequence:
#
# PCOD8038505 Si02
#       7
#     2   2   2   2   2   2   2
#     4  10  20  40  65  90 126 167 205 250 319 364
#     4  10  17  36  67  90 118 168 197 249 323 362
#     4  10  19  38  62  92 126 161 205 244 315 368
#     4  11  26  39  63  97 123 167 207 250 310 374
#     4  12  23  42  69  86 123 172 210 255 304 371
#     4   9  17  34  63  89 122 161 200 247 303 377
#     4  12  22  42  66  90 129 160 205 265 308 358
#
# _framework density 21.904181000000001
#
# number of rings (size 3 to 8) (size 9 to 14) (size 15 to 20)
#    0.000    1.429    7.143    0.857    0.000    0.571 
#    0.000    2.857    0.000    0.000    0.000    0.000 
#    0.000    0.000    0.000    0.000    0.000    0.000 
#
# Total GULP energy -173555.442954 kJ/mol
# GULP energy per Si atom -12396.817354 kJ/mol
# Density = 2.185433 g / cm^3
# Si number density = 21.904181 Si / 1000 Ang^3
#
#
#
# Elastic Constant Matrix: (Units=GPa)
#
#
# Indices 1 2 3 4 5 6 
#
# 1 81.4248 26.7821 33.7517 7.3693 13.9284 43.1327
# 2 26.7821 44.0848 31.1293 6.0617 -4.2975 16.9556
# 3 33.7517 31.1293 137.5325 -1.2762 2.5337 18.0948
# 4 7.3693 6.0617 -1.2762 28.5201 10.8349 3.9199
# 5 13.9284 -4.2975 2.5337 10.8349 43.1420 5.0859
# 6 43.1327 16.9556 18.0948 3.9199 5.0859 36.2526
#
#
#
# Elastic Compliance Matrix: (Units=1/GPa)
#
#
# Indices 1 2 3 4 5 6 
#
# 1 0.037823 -0.006944 -0.002370 0.000111 -0.008142 -0.039439
# 2 -0.006944 0.035181 -0.005760 -0.008545 0.008896 -0.005642
# 3 -0.002370 -0.005760 0.009087 0.002536 -0.001080 0.000856
# 4 0.000111 -0.008545 0.002536 0.041326 -0.011382 -0.000272
# 5 -0.008142 0.008896 -0.001080 -0.011382 0.029239 0.003194
# 6 -0.039439 -0.005642 0.000856 -0.000272 0.003194 0.076302
#
#
# Mechanical properties :
#
#
# Convention : Reuss Voigt Hill
#
# Bulk Modulus (GPa) = 19.25187 49.59649 34.42418
# Shear Modulus (GPa) = 18.08841 33.00820 25.54831
#
# Velocity S-wave (km/s) = 2.87679 3.88614 3.41892
# Velocity P-wave (km/s) = 4.45452 6.54429 5.59779
#
# Compressibility (1/GPa) = 0.05194301
#
# Stress axis : x y z
#
# Youngs Moduli (GPa) = 26.43927 28.42426 110.04444
#
# Poissons Ratio (x) = 0.19737 0.26084
# Poissons Ratio (y) = 0.18359 0.63383
# Poissons Ratio (z) = 0.06267 0.16372
#
# Static dielectric constant tensor:
#      x y z
#    x 4.231390 0.430630 0.495100 
#    y 0.430630 3.555900 0.078240 
#    z 0.495100 0.078240 4.198480 
# 
# 
# High freq. dielectric constant tensor:
#      x y z
#    x 1.866060 0.030310 0.020390 
#    y 0.030310 1.819400 0.001780 
#    z 0.020390 0.001780 1.873530 
# 
# From -- ./inp_files/175571.got.cif
#   From: 2010.06.25/outbox.cif.g09.slc.cpg/sg2_88_cif.got.tgz:175571.got - 2010.06.27 13:26:56.
