data_PCOD8038730
_publ_section_title
;
Structure prediction by ZEFSAII (Michael W. Deem and Ramdas Pophale) SiO2 
 PCOD8038730
Probable space group: P -1
;
_chemical_formula_sum "Si O2"
_cell_formula_units_Z 14
_cell_length_a 12.126173
_cell_length_b 14.320546
_cell_length_c 13.611225
_cell_angle_alpha 159.218539
_cell_angle_beta 58.184603
_cell_angle_gamma 121.271069
_cell_volume 709.929263
_symmetry_space_group_name_H-M "P -1"
_symmetry_group_IT_number 2
_symmetry_cell_setting 'triclinic'
loop_
_space_group_symop_operation_xyz
x,y,z
-x,-y,-z
loop_
_atom_site_type_symbol
_atom_site_label
_atom_site_fract_x
_atom_site_fract_y
_atom_site_fract_z
Si Si1 0.665110 0.985166 0.208220
Si Si2 0.327954 0.648111 0.898496
Si Si3 0.084917 0.762034 0.745330
Si Si4 0.385039 0.283449 0.228457
Si Si5 0.624606 0.866672 0.519006
Si Si6 0.747049 0.240624 0.155735
Si Si7 0.591087 0.769253 0.228282
O O1 0.680836 0.821287 0.140849
O O2 0.786141 0.203304 0.350050
O O3 0.532537 0.134926 0.411566
O O4 0.668953 0.768278 0.907279
O O5 0.460383 0.727430 0.854764
O O6 0.326947 0.352086 0.646582
O O7 0.219359 0.671688 0.887028
O O8 0.311133 0.848776 0.194457
O O9 0.121697 0.749882 0.831808
O O10 0.000000 0.500000 0.500000
O O11 0.000000 0.000000 0.000000
O O12 0.350095 0.568157 0.559825
O O13 0.321798 0.056389 0.106639
O O14 0.674416 0.794027 0.314767
O O15 0.500000 0.000000 0.500000
O O16 0.500000 0.500000 0.000000
#
# Coordination Sequence:
#
# PCOD8038730 Si02
#       7
#     2   2   2   2   2   2   2
#     4   9  20  35  53  75 109 140 165 215 260 294
#     4  11  19  31  48  73 105 134 161 201 252 313
#     4  11  23  37  52  74 100 135 183 219 248 296
#     4  10  18  30  48  74 101 131 166 197 249 322
#     4  10  20  32  51  80 106 132 166 200 250 321
#     4  11  21  33  49  70  99 136 168 208 254 298
#     4  10  19  32  52  78 107 138 168 202 256 316
#
# _framework density 19.720272999999999
#
# number of rings (size 3 to 8) (size 9 to 14) (size 15 to 20)
#    0.000    1.714    0.000    8.571    0.000    5.714 
#    0.000    0.000    0.000    0.000    0.000    6.000 
#    0.000    0.000    0.000    0.000    0.000    0.000 
#
# Total GULP energy -173532.042550 kJ/mol
# GULP energy per Si atom -12395.145896 kJ/mol
# Density = 1.967539 g / cm^3
# Si number density = 19.720273 Si / 1000 Ang^3
#
#
#
# Elastic Constant Matrix: (Units=GPa)
#
#
# Indices 1 2 3 4 5 6 
#
# 1 90.0216 40.9723 25.5609 6.2513 2.9678 -29.4489
# 2 40.9723 92.8103 19.3247 4.7371 4.2203 -28.1530
# 3 25.5609 19.3247 100.4189 11.9010 3.9189 -9.3102
# 4 6.2513 4.7371 11.9010 29.1898 -7.7208 6.5677
# 5 2.9678 4.2203 3.9189 -7.7208 24.6506 5.0956
# 6 -29.4489 -28.1530 -9.3102 6.5677 5.0956 37.7814
#
#
#
# Elastic Compliance Matrix: (Units=1/GPa)
#
#
# Indices 1 2 3 4 5 6 
#
# 1 0.018134 -0.002738 -0.001620 -0.007702 -0.006752 0.013945
# 2 -0.002738 0.016342 -0.000292 -0.006491 -0.006943 0.012036
# 3 -0.001620 -0.000292 0.011587 -0.006094 -0.004124 0.002991
# 4 -0.007702 -0.006491 -0.006094 0.051356 0.024163 -0.024529
# 5 -0.006752 -0.006943 -0.004124 0.024163 0.055577 -0.023149
# 6 0.013945 0.012036 0.002991 -0.024529 -0.023149 0.054429
#
#
# Mechanical properties :
#
#
# Convention : Reuss Voigt Hill
#
# Bulk Modulus (GPa) = 27.20045 50.55184 38.87614
# Shear Modulus (GPa) = 21.83600 31.48388 26.65994
#
# Velocity S-wave (km/s) = 3.33120 3.99999 3.68082
# Velocity P-wave (km/s) = 5.34967 6.85735 6.14989
#
# Compressibility (1/GPa) = 0.03676409
#
# Stress axis : x y z
#
# Youngs Moduli (GPa) = 55.14607 61.19093 86.30238
#
# Poissons Ratio (x) = 0.16754 0.13979
# Poissons Ratio (y) = 0.15099 0.02518
# Poissons Ratio (z) = 0.08932 0.01785
#
# Static dielectric constant tensor:
#      x y z
#    x 3.836500 -0.907100 0.217350 
#    y -0.907100 5.030480 -0.170260 
#    z 0.217350 -0.170260 3.613610 
# 
# 
# High freq. dielectric constant tensor:
#      x y z
#    x 1.742150 -0.050330 0.013090 
#    y -0.050330 1.740170 0.015820 
#    z 0.013090 0.015820 1.783740 
# 
# From -- ./inp_files/82248.got.cif
#   From: 2010.06.25/outbox.cif.g09.slc.cpg/sg2_42_cif.got.tgz:82248.got - 2010.06.27 13:26:56.
