data_PCOD8038479
_publ_section_title
;
Structure prediction by ZEFSAII (Michael W. Deem and Ramdas Pophale) SiO2 
 PCOD8038479
Probable space group: P -1
;
_chemical_formula_sum "Si O2"
_cell_formula_units_Z 12
_cell_length_a 9.700910
_cell_length_b 9.030778
_cell_length_c 14.698062
_cell_angle_alpha 137.728996
_cell_angle_beta 46.820666
_cell_angle_gamma 109.885073
_cell_volume 594.220082
_symmetry_space_group_name_H-M "P -1"
_symmetry_group_IT_number 2
_symmetry_cell_setting 'triclinic'
loop_
_space_group_symop_operation_xyz
x,y,z
-x,-y,-z
loop_
_atom_site_type_symbol
_atom_site_label
_atom_site_fract_x
_atom_site_fract_y
_atom_site_fract_z
Si Si1 0.077884 0.166928 0.979447
Si Si2 0.482255 0.248895 0.873772
Si Si3 0.537920 0.353134 0.703688
Si Si4 0.632260 0.102841 0.925793
Si Si5 0.916156 0.036936 0.311386
Si Si6 0.848917 0.614986 0.201720
O O1 0.259686 0.231960 0.971730
O O2 0.140473 0.038676 0.796071
O O3 0.896678 0.417974 0.168915
O O4 0.000000 0.000000 0.000000
O O5 0.565298 0.189309 0.706799
O O6 0.608059 0.069041 0.812886
O O7 0.500000 0.500000 0.000000
O O8 0.754440 0.288840 0.526816
O O9 0.384718 0.297230 0.678778
O O10 0.438149 0.623773 0.896255
O O11 0.859501 0.958504 0.786424
O O12 0.500000 0.000000 0.000000
O O13 0.898346 0.849199 0.310263
O O14 0.000000 0.500000 0.000000
#
# Coordination Sequence:
#
# PCOD8038479 Si02
#       6
#     2   2   2   2   2   2
#     4  11  21  38  64  91 121 163 206 251 311 365
#     4  10  21  37  60  89 121 160 205 251 299 364
#     4  11  21  39  64  92 117 156 214 251 297 360
#     4  11  23  41  61  86 129 166 194 249 315 365
#     4  11  22  39  67  88 117 163 208 253 298 359
#     4  10  17  36  62  87 115 155 200 251 298 349
#
# _framework density 20.19454
#
# number of rings (size 3 to 8) (size 9 to 14) (size 15 to 20)
#    0.000    1.333    6.667    2.500    0.000    1.333 
#    0.000    2.500    0.000    0.000    0.000    0.000 
#    0.000    0.000    0.000    0.000    0.000    0.000 
#
# Total GULP energy -148666.831591 kJ/mol
# GULP energy per Si atom -12388.902633 kJ/mol
# Density = 2.014858 g / cm^3
# Si number density = 20.194540 Si / 1000 Ang^3
#
#
#
# Elastic Constant Matrix: (Units=GPa)
#
#
# Indices 1 2 3 4 5 6 
#
# 1 119.8178 37.4611 29.7392 -13.0068 -19.0284 18.7248
# 2 37.4611 117.1672 9.5449 -12.0783 -10.1177 10.5549
# 3 29.7392 9.5449 83.6578 -19.2770 -28.5742 8.5391
# 4 -13.0068 -12.0783 -19.2770 15.0772 6.3790 -6.4231
# 5 -19.0284 -10.1177 -28.5742 6.3790 25.2614 -6.3617
# 6 18.7248 10.5549 8.5391 -6.4231 -6.3617 32.9427
#
#
#
# Elastic Compliance Matrix: (Units=1/GPa)
#
#
# Indices 1 2 3 4 5 6 
#
# 1 0.010958 -0.002423 -0.001138 0.002580 0.004386 -0.003807
# 2 -0.002423 0.010226 0.002652 0.007981 0.003149 -0.000423
# 3 -0.001138 0.002652 0.025567 0.025003 0.023459 0.002575
# 4 0.002580 0.007981 0.025003 0.108299 0.009193 0.012387
# 5 0.004386 0.003149 0.023459 0.009193 0.069798 0.005688
# 6 -0.003807 -0.000423 0.002575 0.012387 0.005688 0.035501
#
#
# Mechanical properties :
#
#
# Convention : Reuss Voigt Hill
#
# Bulk Modulus (GPa) = 22.25511 52.68147 37.46829
# Shear Modulus (GPa) = 18.04120 30.91612 24.47866
#
# Velocity S-wave (km/s) = 2.99217 3.91694 3.48536
# Velocity P-wave (km/s) = 4.79393 6.82643 5.89838
#
# Compressibility (1/GPa) = 0.04493351
#
# Stress axis : x y z
#
# Youngs Moduli (GPa) = 91.26156 97.78872 39.11356
#
# Poissons Ratio (x) = 0.23695 0.04449
# Poissons Ratio (y) = 0.22113 -0.10374
# Poissons Ratio (z) = 0.10381 -0.25936
#
# Static dielectric constant tensor:
#      x y z
#    x 5.249470 0.638180 -0.483360 
#    y 0.638180 4.653080 -0.055590 
#    z -0.483360 -0.055590 3.671710 
# 
# 
# High freq. dielectric constant tensor:
#      x y z
#    x 1.795500 0.004200 -0.010660 
#    y 0.004200 1.788820 0.001990 
#    z -0.010660 0.001990 1.759050 
# 
# From -- ./inp_files/149101.got.cif
#   From: 2010.06.25/outbox.cif.g09.slc.cpg/sg2_75_cif.got.tgz:149101.got - 2010.06.27 13:26:56.
