data_PCOD8038890
_publ_section_title
;
Structure prediction by ZEFSAII (Michael W. Deem and Ramdas Pophale) SiO2 
 PCOD8038890
Probable space group: P -1
;
_chemical_formula_sum "Si O2"
_cell_formula_units_Z 12
_cell_length_a 10.071148
_cell_length_b 11.795928
_cell_length_c 13.112085
_cell_angle_alpha 45.521767
_cell_angle_beta 93.814300
_cell_angle_gamma 57.817299
_cell_volume 644.793316
_symmetry_space_group_name_H-M "P -1"
_symmetry_group_IT_number 2
_symmetry_cell_setting 'triclinic'
loop_
_space_group_symop_operation_xyz
x,y,z
-x,-y,-z
loop_
_atom_site_type_symbol
_atom_site_label
_atom_site_fract_x
_atom_site_fract_y
_atom_site_fract_z
Si Si1 0.302179 0.853800 0.992145
Si Si2 0.372317 0.648421 0.793905
Si Si3 0.381528 0.174612 0.986152
Si Si4 0.634328 0.152445 0.764780
Si Si5 0.160181 0.764858 0.378847
Si Si6 0.041134 0.764191 0.591374
O O1 0.437578 0.558976 0.154810
O O2 0.447265 0.855594 0.943824
O O3 0.286113 0.886613 0.091444
O O4 0.052083 0.100077 0.778201
O O5 0.165181 0.721862 0.722950
O O6 0.500000 0.500000 0.000000
O O7 0.237149 0.950602 0.593167
O O8 0.128475 0.497496 0.751736
O O9 0.500000 0.000000 0.000000
O O10 0.347310 0.053173 0.132074
O O11 0.373462 0.456443 0.543535
O O12 0.800236 0.087518 0.738156
O O13 0.126725 0.780335 0.487303
#
# Coordination Sequence:
#
# PCOD8038890 Si02
#       6
#     2   2   2   2   2   2
#     4  10  19  33  54  79  99 134 176 209 246 302
#     4  10  18  31  53  77  99 130 177 217 237 290
#     4   9  17  35  50  73 111 130 164 213 254 299
#     4  10  21  35  49  79 111 133 159 211 264 308
#     4  11  19  32  55  78 103 135 169 205 260 304
#     4  10  19  32  53  79  98 134 173 209 250 298
#
# _framework density 18.610614000000002
#
# number of rings (size 3 to 8) (size 9 to 14) (size 15 to 20)
#    0.000    2.000    6.667    0.500    0.000    0.667 
#    0.000    0.000    0.000   10.000    0.000    0.000 
#    0.000    0.000    0.000    0.000    0.000    0.000 
#
# Total GULP energy -148658.514849 kJ/mol
# GULP energy per Si atom -12388.209571 kJ/mol
# Density = 1.856826 g / cm^3
# Si number density = 18.610614 Si / 1000 Ang^3
#
#
#
# Elastic Constant Matrix: (Units=GPa)
#
#
# Indices 1 2 3 4 5 6 
#
# 1 96.4683 23.1640 59.1409 -2.0066 -16.9681 -1.1058
# 2 23.1640 53.7695 34.1191 -13.4551 -3.2134 3.6623
# 3 59.1409 34.1191 135.3021 -14.4532 4.7003 15.2797
# 4 -2.0066 -13.4551 -14.4532 30.5129 6.3951 -6.4652
# 5 -16.9681 -3.2134 4.7003 6.3951 40.3563 4.2642
# 6 -1.1058 3.6623 15.2797 -6.4652 4.2642 10.8251
#
#
#
# Elastic Compliance Matrix: (Units=1/GPa)
#
#
# Indices 1 2 3 4 5 6 
#
# 1 0.018036 -0.003360 -0.008869 -0.004052 0.007940 0.009949
# 2 -0.003360 0.024773 -0.004072 0.009595 -0.000811 0.003074
# 3 -0.008869 -0.004072 0.014594 0.001710 -0.004179 -0.017460
# 4 -0.004052 0.009595 0.001710 0.045194 -0.010967 0.025238
# 5 0.007940 -0.000811 -0.004179 -0.010967 0.031545 -0.011992
# 6 0.009949 0.003074 -0.017460 0.025238 -0.011992 0.136795
#
#
# Mechanical properties :
#
#
# Convention : Reuss Voigt Hill
#
# Bulk Modulus (GPa) = 40.32059 57.59866 48.95963
# Shear Modulus (GPa) = 16.03563 27.61325 21.82444
#
# Velocity S-wave (km/s) = 2.93855 3.85611 3.42817
# Velocity P-wave (km/s) = 5.76419 7.13040 6.48338
#
# Compressibility (1/GPa) = 0.02480122
#
# Stress axis : x y z
#
# Youngs Moduli (GPa) = 55.44410 40.36715 68.52143
#
# Poissons Ratio (x) = 0.13562 0.60770
# Poissons Ratio (y) = 0.18627 0.27905
# Poissons Ratio (z) = 0.49172 0.16439
#
# Static dielectric constant tensor:
#      x y z
#    x 3.511820 0.133210 -0.126250 
#    y 0.133210 3.503560 -0.329450 
#    z -0.126250 -0.329450 3.848450 
# 
# 
# High freq. dielectric constant tensor:
#      x y z
#    x 1.680330 0.008730 0.012920 
#    y 0.008730 1.710870 -0.015380 
#    z 0.012920 -0.015380 1.738390 
# 
# From -- ./inp_files/163765.got.cif
#   From: 2010.06.25/outbox.cif.g09.slc.cpg/sg2_82_cif.got.tgz:163765.got - 2010.06.27 13:26:56.
