data_PCOD8038468
_publ_section_title
;
Structure prediction by ZEFSAII (Michael W. Deem and Ramdas Pophale) SiO2 
 PCOD8038468
Probable space group: P -1
;
_chemical_formula_sum "Si O2"
_cell_formula_units_Z 14
_cell_length_a 9.668375
_cell_length_b 13.126791
_cell_length_c 14.971230
_cell_angle_alpha 48.715076
_cell_angle_beta 93.912832
_cell_angle_gamma 52.945880
_cell_volume 717.643743
_symmetry_space_group_name_H-M "P -1"
_symmetry_group_IT_number 2
_symmetry_cell_setting 'triclinic'
loop_
_space_group_symop_operation_xyz
x,y,z
-x,-y,-z
loop_
_atom_site_type_symbol
_atom_site_label
_atom_site_fract_x
_atom_site_fract_y
_atom_site_fract_z
Si Si1 0.969590 0.222102 0.602497
Si Si2 0.916601 0.779096 0.892754
Si Si3 0.260498 0.163090 0.513844
Si Si4 0.599339 0.401268 0.715614
Si Si5 0.680068 0.618550 0.512069
Si Si6 0.111399 0.339360 0.213961
Si Si7 0.894767 0.124457 0.066377
O O1 0.709361 0.375070 0.453589
O O2 0.878457 0.414111 0.557218
O O3 0.168914 0.118273 0.598571
O O4 0.145182 0.959193 0.813690
O O5 0.995268 0.683162 0.848043
O O6 0.126302 0.712229 0.980665
O O7 0.611002 0.093912 0.707718
O O8 0.927224 0.630061 0.034765
O O9 0.186135 0.371138 0.433175
O O10 0.096397 0.288670 0.340867
O O11 0.582428 0.875227 0.677101
O O12 0.646936 0.520883 0.634750
O O13 0.655201 0.316905 0.870239
O O14 0.805150 0.143516 0.810676
#
# Coordination Sequence:
#
# PCOD8038468 Si02
#       7
#     2   2   2   2   2   2   2
#     4  11  20  37  56  92 117 139 175 243 285 329
#     4  10  17  36  61  78 106 148 198 227 262 336
#     4  10  21  38  57  78 116 146 192 231 275 325
#     4  10  19  34  59  88 115 146 183 214 290 349
#     4  10  18  35  62  83 113 148 177 230 286 337
#     4   9  21  37  57  77 104 161 197 220 268 333
#     4  10  19  34  60  84 116 148 180 225 281 343
#
# _framework density 19.508286999999999
#
# number of rings (size 3 to 8) (size 9 to 14) (size 15 to 20)
#    0.000    2.000    2.857    2.143    0.000    0.000 
#    7.714    2.143    0.000    0.000    0.000    0.000 
#    0.000    0.000    0.000    0.000    0.000    0.000 
#
# Total GULP energy -173620.924257 kJ/mol
# GULP energy per Si atom -12401.494590 kJ/mol
# Density = 1.946389 g / cm^3
# Si number density = 19.508287 Si / 1000 Ang^3
#
#
#
# Elastic Constant Matrix: (Units=GPa)
#
#
# Indices 1 2 3 4 5 6 
#
# 1 82.4447 50.3028 27.8180 23.3331 -16.6218 -1.5088
# 2 50.3028 87.4582 39.2752 25.6706 -16.0479 5.2623
# 3 27.8180 39.2752 102.3354 24.7666 -22.2018 -3.6838
# 4 23.3331 25.6706 24.7666 36.1265 1.4058 -4.7202
# 5 -16.6218 -16.0479 -22.2018 1.4058 25.0442 2.8495
# 6 -1.5088 5.2623 -3.6838 -4.7202 2.8495 34.4250
#
#
#
# Elastic Compliance Matrix: (Units=1/GPa)
#
#
# Indices 1 2 3 4 5 6 
#
# 1 0.021668 -0.008451 0.002273 -0.009975 0.011522 0.000163
# 2 -0.008451 0.021896 -0.002381 -0.009532 0.007518 -0.005902
# 3 0.002273 -0.002381 0.016053 -0.011444 0.014928 -0.000623
# 4 -0.009975 -0.009532 -0.011444 0.050959 -0.026758 0.008997
# 5 0.011522 0.007518 0.014928 -0.026758 0.068079 -0.008351
# 6 0.000163 -0.005902 -0.000623 0.008997 -0.008351 0.031816
#
#
# Mechanical properties :
#
#
# Convention : Reuss Voigt Hill
#
# Bulk Modulus (GPa) = 23.52962 56.33670 39.93316
# Shear Modulus (GPa) = 20.68201 29.44195 25.06198
#
# Velocity S-wave (km/s) = 3.25955 3.88906 3.58814
# Velocity P-wave (km/s) = 5.12384 7.00767 6.13845
#
# Compressibility (1/GPa) = 0.04249962
#
# Stress axis : x y z
#
# Youngs Moduli (GPa) = 46.15170 45.66972 62.29185
#
# Poissons Ratio (x) = 0.38596 -0.14159
# Poissons Ratio (y) = 0.39003 0.14831
# Poissons Ratio (z) = -0.10491 0.10873
#
# Static dielectric constant tensor:
#      x y z
#    x 3.282950 0.273480 -0.155370 
#    y 0.273480 3.602480 0.173840 
#    z -0.155370 0.173840 3.667570 
# 
# 
# High freq. dielectric constant tensor:
#      x y z
#    x 1.735410 0.025870 -0.015100 
#    y 0.025870 1.755870 0.014280 
#    z -0.015100 0.014280 1.768530 
# 
# From -- ./inp_files/168771.got.cif
#   From: 2010.06.25/outbox.cif.g09.slc.cpg/sg2_85_cif.got.tgz:168771.got - 2010.06.27 13:26:56.
