data_PCOD8038463
_publ_section_title
;
Structure prediction by ZEFSAII (Michael W. Deem and Ramdas Pophale) SiO2 
 PCOD8038463
Probable space group: P -1
;
_chemical_formula_sum "Si O2"
_cell_formula_units_Z 16
_cell_length_a 15.859894
_cell_length_b 9.655247
_cell_length_c 16.352815
_cell_angle_alpha 107.913504
_cell_angle_beta 25.544739
_cell_angle_gamma 91.125095
_cell_volume 799.179806
_symmetry_space_group_name_H-M "P -1"
_symmetry_group_IT_number 2
_symmetry_cell_setting 'triclinic'
loop_
_space_group_symop_operation_xyz
x,y,z
-x,-y,-z
loop_
_atom_site_type_symbol
_atom_site_label
_atom_site_fract_x
_atom_site_fract_y
_atom_site_fract_z
Si Si1 0.242742 0.308780 0.791245
Si Si2 0.359453 0.223863 0.289325
Si Si3 0.601156 0.614071 0.860421
Si Si4 0.193509 0.582600 0.198266
Si Si5 0.807550 0.395248 0.486778
Si Si6 0.758219 0.010618 0.201087
Si Si7 0.554711 0.679389 0.219281
Si Si8 0.333731 0.085045 0.905195
O O1 0.187600 0.163937 0.828715
O O2 0.280099 0.375198 0.855165
O O3 0.498437 0.205797 0.495437
O O4 0.000000 0.500000 0.000000
O O5 0.438981 0.215048 0.122687
O O6 0.330320 0.395624 0.390458
O O7 0.102365 0.252944 0.518020
O O8 0.562920 0.041368 0.128292
O O9 0.737885 0.572222 0.820742
O O10 0.779966 0.421261 0.614624
O O11 0.327299 0.669917 0.123889
O O12 0.284469 0.494112 0.013698
O O13 0.695924 0.294028 0.534385
O O14 0.085585 0.280965 0.189009
O O15 0.721861 0.001339 0.134572
O O16 0.000000 0.000000 0.000000
O O17 0.482601 0.871469 0.279561
#
# Coordination Sequence:
#
# PCOD8038463 Si02
#       8
#     2   2   2   2   2   2   2   2
#     4  10  23  39  60  86 114 149 195 241 284 344
#     4  10  21  33  58  85 109 148 186 232 273 331
#     4   8  19  35  57  82 112 150 185 227 279 328
#     4  10  17  36  60  80 112 150 186 228 280 332
#     4   9  20  37  54  82 114 147 187 226 276 332
#     4  10  23  41  57  85 119 153 187 240 294 340
#     4  10  20  38  58  81 114 150 183 235 287 327
#     4  11  22  36  59  85 114 146 191 230 281 339
#
# _framework density 20.020526
#
# number of rings (size 3 to 8) (size 9 to 14) (size 15 to 20)
#    0.750    1.500    1.250    1.125    1.750    2.500 
#    0.000    2.500    0.000    4.500    0.000    0.000 
#    0.000    0.000    0.000    0.000    0.000    0.000 
#
# Total GULP energy -198250.612874 kJ/mol
# GULP energy per Si atom -12390.663305 kJ/mol
# Density = 1.997496 g / cm^3
# Si number density = 20.020526 Si / 1000 Ang^3
#
#
#
# Elastic Constant Matrix: (Units=GPa)
#
#
# Indices 1 2 3 4 5 6 
#
# 1 61.3238 10.1020 15.9559 -1.9273 0.2889 -7.9252
# 2 10.1020 59.6871 27.7782 -4.3395 -14.9696 -4.6021
# 3 15.9559 27.7782 69.3475 -7.9918 -8.6132 -4.1643
# 4 -1.9273 -4.3395 -7.9918 28.7316 -0.5464 -8.5304
# 5 0.2889 -14.9696 -8.6132 -0.5464 22.5635 -2.7064
# 6 -7.9252 -4.6021 -4.1643 -8.5304 -2.7064 39.0581
#
#
#
# Elastic Compliance Matrix: (Units=1/GPa)
#
#
# Indices 1 2 3 4 5 6 
#
# 1 0.017921 -0.001702 -0.003438 0.000866 -0.002279 0.003100
# 2 -0.001702 0.024290 -0.007083 0.002842 0.013903 0.003346
# 3 -0.003438 -0.007083 0.019038 0.004554 0.002926 0.001695
# 4 0.000866 0.002842 0.004554 0.039655 0.005779 0.010057
# 5 -0.002279 0.013903 0.002926 0.005779 0.055621 0.006604
# 6 0.003100 0.003346 0.001695 0.010057 0.006604 0.029461
#
#
# Mechanical properties :
#
#
# Convention : Reuss Voigt Hill
#
# Bulk Modulus (GPa) = 27.17258 33.11450 30.14354
# Shear Modulus (GPa) = 22.45168 27.17215 24.81192
#
# Velocity S-wave (km/s) = 3.35241 3.68804 3.52422
# Velocity P-wave (km/s) = 5.34666 5.89166 5.62576
#
# Compressibility (1/GPa) = 0.03680181
#
# Stress axis : x y z
#
# Youngs Moduli (GPa) = 55.80179 41.16931 52.52533
#
# Poissons Ratio (x) = 0.07008 0.18061
# Poissons Ratio (y) = 0.09499 0.37203
# Poissons Ratio (z) = 0.19187 0.29159
#
# Static dielectric constant tensor:
#      x y z
#    x 3.607760 0.077190 0.081590 
#    y 0.077190 3.648100 -0.368620 
#    z 0.081590 -0.368620 3.497870 
# 
# 
# High freq. dielectric constant tensor:
#      x y z
#    x 1.779490 0.006460 0.006980 
#    y 0.006460 1.775170 -0.028250 
#    z 0.006980 -0.028250 1.767970 
# 
# From -- ./inp_files/529956.got.cif
#   From: 2010.06.25/outbox.cif.g09.slc.cpg/sg2_265_cif.got.tgz:529956.got - 2010.06.27 13:26:56.
