data_PCOD8038558
_publ_section_title
;
Structure prediction by ZEFSAII (Michael W. Deem and Ramdas Pophale) SiO2 
 PCOD8038558
Probable space group: P -1
;
_chemical_formula_sum "Si O2"
_cell_formula_units_Z 16
_cell_length_a 10.067125
_cell_length_b 12.778469
_cell_length_c 15.281160
_cell_angle_alpha 132.550181
_cell_angle_beta 145.544942
_cell_angle_gamma 50.227835
_cell_volume 803.256010
_symmetry_space_group_name_H-M "P -1"
_symmetry_group_IT_number 2
_symmetry_cell_setting 'triclinic'
loop_
_space_group_symop_operation_xyz
x,y,z
-x,-y,-z
loop_
_atom_site_type_symbol
_atom_site_label
_atom_site_fract_x
_atom_site_fract_y
_atom_site_fract_z
Si Si1 0.023589 0.165854 0.484756
Si Si2 0.768321 0.928935 0.127674
Si Si3 0.036447 0.273628 0.735593
Si Si4 0.221084 0.531586 0.889868
Si Si5 0.150580 0.796914 0.127307
Si Si6 0.091737 0.516522 0.463248
Si Si7 0.569844 0.294060 0.599291
Si Si8 0.523266 0.008753 0.619852
O O1 0.910864 0.316394 0.462861
O O2 0.972983 0.173391 0.565305
O O3 0.917404 0.043365 0.309276
O O4 0.309474 0.129758 0.610268
O O5 0.770739 0.812890 0.140606
O O6 0.894463 0.854159 0.066391
O O7 0.500000 0.000000 0.000000
O O8 0.155103 0.401523 0.836456
O O9 0.787649 0.330702 0.682039
O O10 0.075581 0.550615 0.731526
O O11 0.500000 0.500000 0.000000
O O12 0.131325 0.676562 0.977683
O O13 0.349293 0.729559 0.269306
O O14 0.232891 0.931228 0.196619
O O15 0.363055 0.433035 0.555029
O O16 0.000000 0.500000 0.500000
O O17 0.480343 0.150642 0.432810
O O18 0.500000 0.000000 0.500000
#
# Coordination Sequence:
#
# PCOD8038558 Si02
#       8
#     2   2   2   2   2   2   2   2
#     4  11  21  40  65  88 125 167 211 259 305 381
#     4  11  24  38  61  96 127 168 204 263 316 376
#     4  10  23  42  64  89 124 172 216 249 320 376
#     4  11  24  43  63  92 133 165 202 266 328 379
#     4  10  21  40  62  91 128 166 207 254 327 375
#     4  11  24  39  67  96 121 165 219 261 308 369
#     4  10  21  38  65  93 120 168 216 260 304 373
#     4  10  17  37  65  84 121 167 212 247 306 374
#
# _framework density 19.918928999999999
#
# number of rings (size 3 to 8) (size 9 to 14) (size 15 to 20)
#    0.000    1.500    3.750    4.125    0.000    8.000 
#    0.000    0.625    0.000    0.000    0.000    0.000 
#    0.000    0.000    0.000    0.000    0.000    0.000 
#
# Total GULP energy -198385.466405 kJ/mol
# GULP energy per Si atom -12399.091650 kJ/mol
# Density = 1.987359 g / cm^3
# Si number density = 19.918929 Si / 1000 Ang^3
#
#
#
# Elastic Constant Matrix: (Units=GPa)
#
#
# Indices 1 2 3 4 5 6 
#
# 1 133.3462 61.0642 59.2261 -1.4857 3.1351 -2.7634
# 2 61.0642 115.9521 32.2483 -3.1778 4.7651 -10.7760
# 3 59.2261 32.2483 88.0727 8.6167 -7.3894 -2.2562
# 4 -1.4857 -3.1778 8.6167 42.7318 -4.0674 3.0874
# 5 3.1351 4.7651 -7.3894 -4.0674 30.6832 6.7045
# 6 -2.7634 -10.7760 -2.2562 3.0874 6.7045 31.7272
#
#
#
# Elastic Compliance Matrix: (Units=1/GPa)
#
#
# Indices 1 2 3 4 5 6 
#
# 1 0.012964 -0.004740 -0.007309 0.001433 -0.002002 -0.000717
# 2 -0.004740 0.011991 -0.001357 0.000467 -0.002528 0.004052
# 3 -0.007309 -0.001357 0.017489 -0.003381 0.004841 -0.000548
# 4 0.001433 0.000467 -0.003381 0.024657 0.002883 -0.002966
# 5 -0.002002 -0.002528 0.004841 0.002883 0.036640 -0.008712
# 6 -0.000717 0.004052 -0.000548 -0.002966 -0.008712 0.034923
#
#
# Mechanical properties :
#
#
# Convention : Reuss Voigt Hill
#
# Bulk Modulus (GPa) = 63.96983 71.38314 67.67649
# Shear Modulus (GPa) = 29.29312 33.35060 31.32186
#
# Velocity S-wave (km/s) = 3.83902 4.09628 3.96974
# Velocity P-wave (km/s) = 7.19970 7.63461 7.42034
#
# Compressibility (1/GPa) = 0.01563237
#
# Stress axis : x y z
#
# Youngs Moduli (GPa) = 77.13439 83.39495 57.17722
#
# Poissons Ratio (x) = 0.39527 0.41792
# Poissons Ratio (y) = 0.36559 0.07761
# Poissons Ratio (z) = 0.56380 0.11320
#
# Static dielectric constant tensor:
#      x y z
#    x 6.581680 5.098910 0.500820 
#    y 5.098910 13.378570 1.053440 
#    z 0.500820 1.053440 3.832180 
# 
# 
# High freq. dielectric constant tensor:
#      x y z
#    x 1.794190 -0.007070 0.002400 
#    y -0.007070 1.778640 0.014420 
#    z 0.002400 0.014420 1.764830 
# 
# From -- ./inp_files/278568.got.cif
#   From: 2010.06.25/outbox.cif.g09.slc.cpg/sg2_140_cif.got.tgz:278568.got - 2010.06.27 13:26:56.
