data_PCOD8038018
_publ_section_title
;
Structure prediction by ZEFSAII (Michael W. Deem and Ramdas Pophale) SiO2 
 PCOD8038018
Probable space group: P -1
;
_chemical_formula_sum "Si O2"
_cell_formula_units_Z 16
_cell_length_a 14.429884
_cell_length_b 9.174420
_cell_length_c 14.765987
_cell_angle_alpha 114.862004
_cell_angle_beta 139.693508
_cell_angle_gamma 95.471504
_cell_volume 809.415928
_symmetry_space_group_name_H-M "P -1"
_symmetry_group_IT_number 2
_symmetry_cell_setting 'triclinic'
loop_
_space_group_symop_operation_xyz
x,y,z
-x,-y,-z
loop_
_atom_site_type_symbol
_atom_site_label
_atom_site_fract_x
_atom_site_fract_y
_atom_site_fract_z
Si Si1 0.945332 0.596309 0.304628
Si Si2 0.711886 0.363048 0.384011
Si Si3 0.313216 0.880967 0.971004
Si Si4 0.829617 0.000886 0.947583
Si Si5 0.990377 0.767342 0.571940
Si Si6 0.549160 0.563916 0.719354
Si Si7 0.185396 0.072002 0.278685
Si Si8 0.930604 0.822728 0.189728
O O1 0.103784 0.574303 0.408321
O O2 0.727599 0.339459 0.096395
O O3 0.004062 0.764388 0.473044
O O4 0.937324 0.683073 0.227902
O O5 0.792777 0.510726 0.390870
O O6 0.611438 0.421778 0.383297
O O7 0.546287 0.092201 0.171444
O O8 0.186500 0.840513 0.780151
O O9 0.254055 0.929069 0.031099
O O10 0.691903 0.728823 0.784551
O O11 0.820357 0.043954 0.846193
O O12 0.058723 0.136235 0.183001
O O13 0.979976 0.944995 0.637973
O O14 0.420537 0.300505 0.536091
O O15 0.697391 0.661020 0.942247
O O16 0.079927 0.893686 0.236543
#
# Coordination Sequence:
#
# PCOD8038018 Si02
#       8
#     2   2   2   2   2   2   2   2
#     4  11  25  35  57  82 116 152 185 229 284 331
#     4  10  19  37  61  79 104 153 184 235 272 326
#     4  10  19  39  56  86 114 137 190 236 278 327
#     4   9  18  31  59  88 108 141 187 236 267 334
#     4  11  20  39  58  80 111 151 194 230 272 328
#     4  10  18  35  59  81 116 143 183 234 276 322
#     4  10  17  33  58  84 112 145 188 221 284 328
#     4  11  22  39  53  85 120 146 182 236 277 328
#
# _framework density 19.767339
#
# number of rings (size 3 to 8) (size 9 to 14) (size 15 to 20)
#    0.000    1.750    5.000    3.000    0.000    3.000 
#    0.000    1.250    0.000    3.750    0.000    0.000 
#    0.000    0.000    0.000    0.000    0.000    0.000 
#
# Total GULP energy -198316.825743 kJ/mol
# GULP energy per Si atom -12394.801609 kJ/mol
# Density = 1.972235 g / cm^3
# Si number density = 19.767339 Si / 1000 Ang^3
#
#
#
# Elastic Constant Matrix: (Units=GPa)
#
#
# Indices 1 2 3 4 5 6 
#
# 1 53.1286 11.1610 22.2664 -13.5821 -6.5200 11.9528
# 2 11.1610 98.1529 34.2444 -2.2364 -4.1302 17.5393
# 3 22.2664 34.2444 103.5280 17.0392 0.9837 12.0891
# 4 -13.5821 -2.2364 17.0392 23.0109 5.0417 -1.1914
# 5 -6.5200 -4.1302 0.9837 5.0417 26.6156 -2.7141
# 6 11.9528 17.5393 12.0891 -1.1914 -2.7141 22.7092
#
#
#
# Elastic Compliance Matrix: (Units=1/GPa)
#
#
# Indices 1 2 3 4 5 6 
#
# 1 0.032548 0.002961 -0.010968 0.026431 0.002620 -0.011880
# 2 0.002961 0.013356 -0.005050 0.006128 0.000931 -0.008753
# 3 -0.010968 -0.005050 0.016939 -0.019429 -0.000459 -0.000419
# 4 0.026431 0.006128 -0.019429 0.075228 -0.006631 -0.005148
# 5 0.002620 0.000931 -0.000459 -0.006631 0.039893 0.002566
# 6 -0.011880 -0.008753 -0.000419 -0.005148 0.002566 0.057308
#
#
# Mechanical properties :
#
#
# Convention : Reuss Voigt Hill
#
# Bulk Modulus (GPa) = 27.22553 43.35035 35.28794
# Shear Modulus (GPa) = 18.27288 26.94297 22.60793
#
# Velocity S-wave (km/s) = 3.04369 3.69589 3.38553
# Velocity P-wave (km/s) = 5.11419 6.33962 5.75959
#
# Compressibility (1/GPa) = 0.03673023
#
# Stress axis : x y z
#
# Youngs Moduli (GPa) = 30.72368 74.87095 59.03366
#
# Poissons Ratio (x) = -0.22167 0.64746
# Poissons Ratio (y) = -0.09096 0.29812
# Poissons Ratio (z) = 0.33696 0.37810
#
# Static dielectric constant tensor:
#      x y z
#    x 3.491070 0.219950 0.109240 
#    y 0.219950 3.368430 0.299230 
#    z 0.109240 0.299230 3.905010 
# 
# 
# High freq. dielectric constant tensor:
#      x y z
#    x 1.763530 0.020780 -0.000150 
#    y 0.020780 1.735680 0.020680 
#    z -0.000150 0.020680 1.779090 
# 
# From -- ./inp_files/217179.got.cif
#   From: 2010.06.25/outbox.cif.g09.slc.cpg/sg2_109_cif.got.tgz:217179.got - 2010.06.27 13:26:56.
