data_PCOD8038248
_publ_section_title
;
Structure prediction by ZEFSAII (Michael W. Deem and Ramdas Pophale) SiO2 
 PCOD8038248
Probable space group: P -1
;
_chemical_formula_sum "Si O2"
_cell_formula_units_Z 16
_cell_length_a 9.884754
_cell_length_b 26.084945
_cell_length_c 15.771349
_cell_angle_alpha 18.141237
_cell_angle_beta 138.662475
_cell_angle_gamma 137.564832
_cell_volume 830.318060
_symmetry_space_group_name_H-M "P -1"
_symmetry_group_IT_number 2
_symmetry_cell_setting 'triclinic'
loop_
_space_group_symop_operation_xyz
x,y,z
-x,-y,-z
loop_
_atom_site_type_symbol
_atom_site_label
_atom_site_fract_x
_atom_site_fract_y
_atom_site_fract_z
Si Si1 0.131727 0.870230 0.805942
Si Si2 0.512101 0.762264 0.071065
Si Si3 0.439105 0.413792 0.288281
Si Si4 0.571651 0.864915 0.402698
Si Si5 0.378479 0.460705 0.375871
Si Si6 0.900646 0.430542 0.208288
Si Si7 0.792388 0.063444 0.772420
Si Si8 0.230031 0.380611 0.992235
O O1 0.970713 0.712124 0.005610
O O2 0.267979 0.965336 0.795982
O O3 0.282406 0.810220 0.899807
O O4 0.000000 0.000000 0.500000
O O5 0.509415 0.633063 0.195795
O O6 0.590568 0.684502 0.316323
O O7 0.669541 0.926937 0.866289
O O8 0.442073 0.226125 0.551025
O O9 0.469590 0.411778 0.406116
O O10 0.220563 0.475410 0.066303
O O11 0.623246 0.534646 0.143720
O O12 0.349223 0.912916 0.249330
O O13 0.646568 0.744245 0.700023
O O14 0.139958 0.485661 0.218075
O O15 0.845029 0.233895 0.478210
O O16 0.839036 0.479764 0.197007
O O17 0.000000 0.000000 0.000000
#
# Coordination Sequence:
#
# PCOD8038248 Si02
#       8
#     2   2   2   2   2   2   2   2
#     4   9  18  33  60  83 108 148 195 230 270 338
#     4  10  22  39  59  81 111 155 195 224 283 342
#     4  11  21  36  59  89 116 144 187 244 282 322
#     4   9  18  34  57  87 109 144 190 234 280 333
#     4  11  23  39  58  82 119 152 187 233 284 341
#     4  11  19  37  60  87 111 152 194 226 280 341
#     4  11  19  34  62  84 109 149 193 231 274 343
#     4  10  17  34  61  84 109 146 194 233 273 330
#
# _framework density 19.269725999999999
#
# number of rings (size 3 to 8) (size 9 to 14) (size 15 to 20)
#    0.000    1.750    5.000    1.125    0.000    0.000 
#    0.000    5.000    0.000    0.000    0.000    0.000 
#    0.000    0.000    0.000    0.000    0.000    0.000 
#
# Total GULP energy -198366.389059 kJ/mol
# GULP energy per Si atom -12397.899316 kJ/mol
# Density = 1.922587 g / cm^3
# Si number density = 19.269726 Si / 1000 Ang^3
#
#
#
# Elastic Constant Matrix: (Units=GPa)
#
#
# Indices 1 2 3 4 5 6 
#
# 1 82.6680 57.4541 16.1759 -4.7772 9.0157 -2.6345
# 2 57.4541 121.1666 40.1606 -31.4825 -0.5912 -1.2255
# 3 16.1759 40.1606 61.2108 -23.7661 14.4072 -1.6976
# 4 -4.7772 -31.4825 -23.7661 33.6931 5.7887 4.0908
# 5 9.0157 -0.5912 14.4072 5.7887 27.9999 1.7069
# 6 -2.6345 -1.2255 -1.6976 4.0908 1.7069 39.5713
#
#
#
# Elastic Compliance Matrix: (Units=1/GPa)
#
#
# Indices 1 2 3 4 5 6 
#
# 1 0.020409 -0.011801 0.001512 -0.006201 -0.006437 0.001977
# 2 -0.011801 0.018727 -0.006351 0.010641 0.005374 -0.001810
# 3 0.001512 -0.006351 0.034099 0.022237 -0.022766 0.000050
# 4 -0.006201 0.010641 0.022237 0.058568 -0.021068 -0.004275
# 5 -0.006437 0.005374 -0.022766 -0.021068 0.054056 -0.001392
# 6 0.001977 -0.001810 0.000050 -0.004275 -0.001392 0.025851
#
#
# Mechanical properties :
#
#
# Convention : Reuss Voigt Hill
#
# Bulk Modulus (GPa) = 25.02956 54.73628 39.88292
# Shear Modulus (GPa) = 19.35670 30.33649 24.84659
#
# Velocity S-wave (km/s) = 3.17284 3.97206 3.59473
# Velocity P-wave (km/s) = 5.14197 7.03586 6.16211
#
# Compressibility (1/GPa) = 0.03995275
#
# Stress axis : x y z
#
# Youngs Moduli (GPa) = 48.99737 53.39895 29.32672
#
# Poissons Ratio (x) = 0.63017 -0.04433
# Poissons Ratio (y) = 0.57823 0.18627
# Poissons Ratio (z) = -0.07407 0.33916
#
# Static dielectric constant tensor:
#      x y z
#    x 3.348160 0.326350 0.269280 
#    y 0.326350 3.886800 -0.432820 
#    z 0.269280 -0.432820 3.650430 
# 
# 
# High freq. dielectric constant tensor:
#      x y z
#    x 1.726200 0.030200 0.030080 
#    y 0.030200 1.751710 -0.027010 
#    z 0.030080 -0.027010 1.750170 
# 
# From -- ./inp_files/303125.got.cif
#   From: 2010.06.25/outbox.cif.g09.slc.cpg/sg2_152_cif.got.tgz:303125.got - 2010.06.27 13:26:56.
