data_PCOD8038345
_publ_section_title
;
Structure prediction by ZEFSAII (Michael W. Deem and Ramdas Pophale) SiO2 
 PCOD8038345
Probable space group: P -1
;
_chemical_formula_sum "Si O2"
_cell_formula_units_Z 16
_cell_length_a 11.834830
_cell_length_b 12.030271
_cell_length_c 11.730580
_cell_angle_alpha 125.279982
_cell_angle_beta 38.077972
_cell_angle_gamma 112.219741
_cell_volume 831.101853
_symmetry_space_group_name_H-M "P -1"
_symmetry_group_IT_number 2
_symmetry_cell_setting 'triclinic'
loop_
_space_group_symop_operation_xyz
x,y,z
-x,-y,-z
loop_
_atom_site_type_symbol
_atom_site_label
_atom_site_fract_x
_atom_site_fract_y
_atom_site_fract_z
Si Si1 0.623850 0.262552 0.517125
Si Si2 0.875083 0.904090 0.794694
Si Si3 0.978083 0.374656 0.359267
Si Si4 0.461412 0.881939 0.713526
Si Si5 0.562804 0.307463 0.938597
Si Si6 0.309600 0.415879 0.998965
Si Si7 0.266438 0.937695 0.495419
Si Si8 0.594482 0.844439 0.823681
O O1 0.620989 0.228444 0.365127
O O2 0.419160 0.327866 0.759541
O O3 0.685179 0.119194 0.449931
O O4 0.762997 0.373750 0.496283
O O5 0.946704 0.773145 0.736407
O O6 0.807609 0.847695 0.693745
O O7 0.044634 0.990848 0.693442
O O8 0.701787 0.996057 0.049001
O O9 0.000000 0.500000 0.500000
O O10 0.095731 0.391622 0.160589
O O11 0.564252 0.799710 0.691020
O O12 0.618189 0.940840 0.550556
O O13 0.391908 0.369792 0.031092
O O14 0.690643 0.183490 0.702102
O O15 0.690072 0.423506 0.929515
O O16 0.492579 0.257906 0.084726
O O17 0.500000 0.000000 0.000000
#
# Coordination Sequence:
#
# PCOD8038345 Si02
#       8
#     2   2   2   2   2   2   2   2
#     4  10  23  34  54  85 113 145 185 224 279 338
#     4  10  20  34  58  84 108 145 187 232 277 315
#     4  11  20  35  60  88 108 135 186 243 282 316
#     4  11  22  38  51  78 121 154 179 219 274 341
#     4  10  17  35  57  85 106 139 185 234 278 316
#     4  10  19  34  59  79 113 139 180 242 276 311
#     4  10  19  33  57  83 106 140 186 232 279 319
#     4  10  19  36  57  78 116 149 182 228 268 330
#
# _framework density 19.251550999999999
#
# number of rings (size 3 to 8) (size 9 to 14) (size 15 to 20)
#    0.000    1.750    3.750    4.125    0.000    3.500 
#    0.000    0.625    0.000    0.750    0.000    0.000 
#    0.000    0.000    0.000    0.000    0.000    0.000 
#
# Total GULP energy -198327.643830 kJ/mol
# GULP energy per Si atom -12395.477739 kJ/mol
# Density = 1.920773 g / cm^3
# Si number density = 19.251551 Si / 1000 Ang^3
#
#
#
# Elastic Constant Matrix: (Units=GPa)
#
#
# Indices 1 2 3 4 5 6 
#
# 1 84.7927 28.6473 35.2652 -6.8386 25.5099 17.3449
# 2 28.6473 89.1730 23.6706 -14.5665 3.1454 9.8708
# 3 35.2652 23.6706 77.2767 -14.8418 1.5637 18.5758
# 4 -6.8386 -14.5665 -14.8418 29.4321 8.1178 -3.9078
# 5 25.5099 3.1454 1.5637 8.1178 30.7801 -4.7240
# 6 17.3449 9.8708 18.5758 -3.9078 -4.7240 23.1441
#
#
#
# Elastic Compliance Matrix: (Units=1/GPa)
#
#
# Indices 1 2 3 4 5 6 
#
# 1 0.027921 -0.003277 -0.004994 0.007298 -0.027532 -0.019906
# 2 -0.003277 0.013634 -0.001333 0.005176 -0.000198 -0.001455
# 3 -0.004994 -0.001333 0.019313 0.006578 0.000013 -0.010077
# 4 0.007298 0.005176 0.006578 0.045952 -0.020469 -0.009375
# 5 -0.027532 -0.000198 0.000013 -0.020469 0.065421 0.030604
# 6 -0.019906 -0.001455 -0.010077 -0.009375 0.030604 0.071498
#
#
# Mechanical properties :
#
#
# Convention : Reuss Voigt Hill
#
# Bulk Modulus (GPa) = 24.00390 47.37875 35.69132
# Shear Modulus (GPa) = 18.06130 27.58187 22.82159
#
# Velocity S-wave (km/s) = 3.06629 3.78922 3.44676
# Velocity P-wave (km/s) = 5.00318 6.61876 5.86685
#
# Compressibility (1/GPa) = 0.04165990
#
# Stress axis : x y z
#
# Youngs Moduli (GPa) = 35.81505 73.34416 51.77834
#
# Poissons Ratio (x) = 0.24038 0.25859
# Poissons Ratio (y) = 0.11738 0.06901
# Poissons Ratio (z) = 0.17887 0.09775
#
# Static dielectric constant tensor:
#      x y z
#    x 3.708650 0.051090 -0.120910 
#    y 0.051090 3.619540 -0.288020 
#    z -0.120910 -0.288020 3.493040 
# 
# 
# High freq. dielectric constant tensor:
#      x y z
#    x 1.723050 0.010800 -0.006790 
#    y 0.010800 1.746950 -0.016210 
#    z -0.006790 -0.016210 1.740160 
# 
# From -- ./inp_files/263420.got.cif
#   From: 2010.06.25/outbox.cif.g09.slc.cpg/sg2_132_cif.got.tgz:263420.got - 2010.06.27 13:26:56.
