data_PCOD8038911
_publ_section_title
;
Structure prediction by ZEFSAII (Michael W. Deem and Ramdas Pophale) SiO2 
 PCOD8038911
Probable space group: P -1
;
_chemical_formula_sum "Si O2"
_cell_formula_units_Z 16
_cell_length_a 15.151395
_cell_length_b 10.106546
_cell_length_c 17.772467
_cell_angle_alpha 42.194440
_cell_angle_beta 139.306497
_cell_angle_gamma 105.694414
_cell_volume 890.063919
_symmetry_space_group_name_H-M "P -1"
_symmetry_group_IT_number 2
_symmetry_cell_setting 'triclinic'
loop_
_space_group_symop_operation_xyz
x,y,z
-x,-y,-z
loop_
_atom_site_type_symbol
_atom_site_label
_atom_site_fract_x
_atom_site_fract_y
_atom_site_fract_z
Si Si1 0.489027 0.523656 0.594894
Si Si2 0.387965 0.346686 0.036599
Si Si3 0.134989 0.750608 0.989263
Si Si4 0.469623 0.201829 0.612371
Si Si5 0.742531 0.173513 0.539300
Si Si6 0.724051 0.283011 0.319798
Si Si7 0.093000 0.719802 0.811437
Si Si8 0.159057 0.326221 0.261513
O O1 0.422100 0.379275 0.580445
O O2 0.431247 0.754071 0.403508
O O3 0.409427 0.647668 0.572472
O O4 0.708109 0.303147 0.837012
O O5 0.585609 0.247152 0.218978
O O6 0.395715 0.102936 0.147604
O O7 0.312394 0.481976 0.848945
O O8 0.250953 0.558070 0.921631
O O9 0.177283 0.737311 0.933661
O O10 0.111148 0.540406 0.079951
O O11 0.939056 0.038328 0.758850
O O12 0.287944 0.290098 0.423792
O O13 0.700271 0.352203 0.364309
O O14 0.742447 0.949380 0.602116
O O15 0.927298 0.010003 0.549613
O O16 0.017378 0.578658 0.847299
#
# Coordination Sequence:
#
# PCOD8038911 Si02
#       8
#     2   2   2   2   2   2   2   2
#     4  10  22  36  52  75 113 142 170 208 261 311
#     4  11  19  33  56  74 110 139 167 216 271 297
#     4   9  19  31  51  80 106 133 176 213 251 321
#     4  10  21  37  50  80 111 137 175 213 249 322
#     4  10  18  35  56  74 104 138 170 220 265 294
#     4   9  20  35  51  84 103 129 178 224 252 310
#     4  10  18  31  54  82 105 131 170 221 266 300
#     4   9  18  33  51  81 108 128 179 217 250 314
#
# _framework density 17.976237000000001
#
# number of rings (size 3 to 8) (size 9 to 14) (size 15 to 20)
#    0.000    2.500    2.500    2.625    3.500    1.000 
#    2.250    2.500    0.000    3.000    0.000    0.000 
#    0.000    0.000    0.000    0.000    0.000    0.000 
#
# Total GULP energy -198315.076972 kJ/mol
# GULP energy per Si atom -12394.692311 kJ/mol
# Density = 1.793532 g / cm^3
# Si number density = 17.976237 Si / 1000 Ang^3
#
#
#
# Elastic Constant Matrix: (Units=GPa)
#
#
# Indices 1 2 3 4 5 6 
#
# 1 56.3088 21.9666 35.1165 -1.7996 -14.1023 -6.7513
# 2 21.9666 69.9640 27.8572 6.5476 -0.6712 2.4596
# 3 35.1165 27.8572 104.5730 5.9815 -23.6049 1.4604
# 4 -1.7996 6.5476 5.9815 16.6885 0.3535 -1.7002
# 5 -14.1023 -0.6712 -23.6049 0.3535 29.2780 3.5160
# 6 -6.7513 2.4596 1.4604 -1.7002 3.5160 16.4522
#
#
#
# Elastic Compliance Matrix: (Units=1/GPa)
#
#
# Indices 1 2 3 4 5 6 
#
# 1 0.028407 -0.007490 -0.006856 0.009654 0.006302 0.013036
# 2 -0.007490 0.018711 -0.003081 -0.007482 -0.004934 -0.005316
# 3 -0.006856 -0.003081 0.015331 -0.005888 0.009830 -0.006423
# 4 0.009654 -0.007482 -0.005888 0.067403 -0.002660 0.013137
# 5 0.006302 -0.004934 0.009830 -0.002660 0.045953 -0.007644
# 6 0.013036 -0.005316 -0.006423 0.013137 -0.007644 0.070488
#
#
# Mechanical properties :
#
#
# Convention : Reuss Voigt Hill
#
# Bulk Modulus (GPa) = 36.23807 44.52514 40.38161
# Shear Modulus (GPa) = 17.22095 22.21077 19.71586
#
# Velocity S-wave (km/s) = 3.09849 3.51887 3.31535
# Velocity P-wave (km/s) = 5.74487 6.42904 6.09656
#
# Compressibility (1/GPa) = 0.02759529
#
# Stress axis : x y z
#
# Youngs Moduli (GPa) = 35.20320 53.44390 65.22776
#
# Poissons Ratio (x) = 0.40032 0.44717
# Poissons Ratio (y) = 0.26369 0.20094
# Poissons Ratio (z) = 0.24134 0.16464
#
# Static dielectric constant tensor:
#      x y z
#    x 3.267490 -0.008000 -0.212180 
#    y -0.008000 3.027500 0.184520 
#    z -0.212180 0.184520 3.530590 
# 
# 
# High freq. dielectric constant tensor:
#      x y z
#    x 1.686830 -0.007030 -0.007190 
#    y -0.007030 1.663260 0.022950 
#    z -0.007190 0.022950 1.708500 
# 
# From -- ./inp_files/284843.got.cif
#   From: 2010.06.25/outbox.cif.g09.slc.cpg/sg2_143_cif.got.tgz:284843.got - 2010.06.27 13:26:56.
