data_PCOD8038384
_publ_section_title
;
Structure prediction by ZEFSAII (Michael W. Deem and Ramdas Pophale) SiO2 
 PCOD8038384
Probable space group: P -1
;
_chemical_formula_sum "Si O2"
_cell_formula_units_Z 12
_cell_length_a 12.361433
_cell_length_b 7.627282
_cell_length_c 15.094271
_cell_angle_alpha 138.003094
_cell_angle_beta 147.904939
_cell_angle_gamma 56.650499
_cell_volume 493.008134
_symmetry_space_group_name_H-M "P -1"
_symmetry_group_IT_number 2
_symmetry_cell_setting 'triclinic'
loop_
_space_group_symop_operation_xyz
x,y,z
-x,-y,-z
loop_
_atom_site_type_symbol
_atom_site_label
_atom_site_fract_x
_atom_site_fract_y
_atom_site_fract_z
Si Si1 0.457815 0.678803 0.909521
Si Si2 0.904934 0.710211 0.786560
Si Si3 0.724600 0.765669 0.503031
Si Si4 0.173879 0.375390 0.751833
Si Si5 0.887412 0.328822 0.776929
Si Si6 0.909423 0.088463 0.310358
O O1 0.463175 0.457998 0.752661
O O2 0.338245 0.524869 0.851555
O O3 0.334514 0.904135 0.873556
O O4 0.697876 0.789972 0.153132
O O5 0.732127 0.720625 0.596229
O O6 0.093986 0.599903 0.835410
O O7 0.791985 0.517378 0.715100
O O8 0.000000 0.000000 0.000000
O O9 0.939317 0.720528 0.586264
O O10 0.704783 0.074535 0.587303
O O11 0.986044 0.171147 0.494885
O O12 0.061898 0.213946 0.800458
O O13 0.000000 0.500000 0.000000
#
# Coordination Sequence:
#
# PCOD8038384 Si02
#       6
#     2   2   2   2   2   2
#     4  10  17  35  61  85 119 145 184 244 282 338
#     4  12  20  35  61  82 113 157 191 229 288 341
#     4   9  18  36  57  82 114 149 186 232 289 327
#     4  10  19  32  60  91 108 153 193 223 294 340
#     4  10  21  34  58  86 111 152 196 233 281 343
#     4   9  17  36  57  83 117 147 186 236 281 333
#
# _framework density 24.340368000000002
#
# number of rings (size 3 to 8) (size 9 to 14) (size 15 to 20)
#    1.000    1.000    5.000    1.000    0.000    0.667 
#    0.000    1.667    0.000    2.000    0.000    0.000 
#    0.000    0.000    0.000    0.000    0.000    0.000 
#
# Total GULP energy -148722.089114 kJ/mol
# GULP energy per Si atom -12393.507426 kJ/mol
# Density = 2.428497 g / cm^3
# Si number density = 24.340368 Si / 1000 Ang^3
#
#
#
# Elastic Constant Matrix: (Units=GPa)
#
#
# Indices 1 2 3 4 5 6 
#
# 1 39.2383 27.6864 49.6183 -10.8998 -18.8623 13.2436
# 2 27.6864 146.6286 74.0401 -9.3664 -25.7377 21.1662
# 3 49.6183 74.0401 167.7146 -1.7500 -15.1357 -9.2231
# 4 -10.8998 -9.3664 -1.7500 46.4871 -5.8042 -18.1302
# 5 -18.8623 -25.7377 -15.1357 -5.8042 42.5347 -5.1773
# 6 13.2436 21.1662 -9.2231 -18.1302 -5.1773 40.1643
#
#
#
# Elastic Compliance Matrix: (Units=1/GPa)
#
#
# Indices 1 2 3 4 5 6 
#
# 1 0.077986 0.007582 -0.025148 0.012198 0.028688 -0.026281
# 2 0.007582 0.011593 -0.007207 0.001274 0.006915 -0.008798
# 3 -0.025148 -0.007207 0.016569 -0.002396 -0.008271 0.013748
# 4 0.012198 0.001274 -0.002396 0.029532 0.010507 0.009441
# 5 0.028688 0.006915 -0.008271 0.010507 0.038259 -0.005329
# 6 -0.026281 -0.008798 0.013748 0.009441 -0.005329 0.044932
#
#
# Mechanical properties :
#
#
# Convention : Reuss Voigt Hill
#
# Bulk Modulus (GPa) = 17.66777 72.91901 45.29339
# Shear Modulus (GPa) = 17.40438 39.31966 28.36202
#
# Velocity S-wave (km/s) = 2.67693 4.02358 3.41724
# Velocity P-wave (km/s) = 4.10231 7.18392 5.84968
#
# Compressibility (1/GPa) = 0.05660025
#
# Stress axis : x y z
#
# Youngs Moduli (GPa) = 12.82287 86.25911 60.35382
#
# Poissons Ratio (x) = -0.65400 1.51778
# Poissons Ratio (y) = -0.09722 0.43499
# Poissons Ratio (z) = 0.32247 0.62170
#
# Static dielectric constant tensor:
#      x y z
#    x 4.350780 0.345010 -0.340120 
#    y 0.345010 4.584300 -0.197850 
#    z -0.340120 -0.197850 4.536440 
# 
# 
# High freq. dielectric constant tensor:
#      x y z
#    x 1.963010 0.035700 -0.022040 
#    y 0.035700 1.978420 0.002860 
#    z -0.022040 0.002860 1.965550 
# 
# From -- ./inp_files/257223.got.cif
#   From: 2010.06.25/outbox.cif.g09.slc.cpg/sg2_129_cif.got.tgz:257223.got - 2010.06.27 13:26:56.
