data_PCOD8038940
_publ_section_title
;
Structure prediction by ZEFSAII (Michael W. Deem and Ramdas Pophale) SiO2 
 PCOD8038940
Probable space group: P -1
;
_chemical_formula_sum "Si O2"
_cell_formula_units_Z 14
_cell_length_a 12.032007
_cell_length_b 8.519212
_cell_length_c 15.262456
_cell_angle_alpha 101.355582
_cell_angle_beta 152.429258
_cell_angle_gamma 86.570378
_cell_volume 686.862179
_symmetry_space_group_name_H-M "P -1"
_symmetry_group_IT_number 2
_symmetry_cell_setting 'triclinic'
loop_
_space_group_symop_operation_xyz
x,y,z
-x,-y,-z
loop_
_atom_site_type_symbol
_atom_site_label
_atom_site_fract_x
_atom_site_fract_y
_atom_site_fract_z
Si Si1 0.041737 0.100814 0.951062
Si Si2 0.224806 0.444431 0.764187
Si Si3 0.372874 0.439472 0.190565
Si Si4 0.649721 0.298826 0.654434
Si Si5 0.125380 0.350147 0.501805
Si Si6 0.996104 0.533477 0.215737
Si Si7 0.094363 0.190928 0.293076
O O1 0.802563 0.170770 0.777171
O O2 0.074656 0.980801 0.880474
O O3 0.293580 0.248232 0.145163
O O4 0.000000 0.000000 0.000000
O O5 0.198978 0.315314 0.649891
O O6 0.046713 0.373917 0.714044
O O7 0.137531 0.599975 0.677983
O O8 0.500000 0.500000 0.000000
O O9 0.294819 0.548068 0.223736
O O10 0.665151 0.499520 0.380638
O O11 0.225269 0.461018 0.003006
O O12 0.362328 0.207022 0.438462
O O13 0.737953 0.371403 0.627505
O O14 0.107448 0.189527 0.409174
O O15 0.981809 0.342152 0.203007
#
# Coordination Sequence:
#
# PCOD8038940 Si02
#       7
#     2   2   2   2   2   2   2
#     4  11  21  33  52  80 118 153 180 220 281 335
#     4  10  18  33  58  86 105 138 193 239 269 317
#     4  10  19  35  55  82 113 145 185 228 269 337
#     4  10  20  34  53  80 114 145 187 225 270 335
#     4   9  20  35  56  85 109 142 188 234 272 324
#     4  10  18  31  56  82 105 146 183 226 278 319
#     4  10  20  34  53  82 117 144 181 230 279 330
#
# _framework density 20.382546999999999
#
# number of rings (size 3 to 8) (size 9 to 14) (size 15 to 20)
#    0.000    2.000    1.429    4.286    0.000    2.286 
#    0.000    0.000    0.000   11.143    0.000    0.000 
#    0.000    0.000    0.000    0.000    0.000    0.000 
#
# Total GULP energy -173511.671061 kJ/mol
# GULP energy per Si atom -12393.690790 kJ/mol
# Density = 2.033616 g / cm^3
# Si number density = 20.382547 Si / 1000 Ang^3
#
#
#
# Elastic Constant Matrix: (Units=GPa)
#
#
# Indices 1 2 3 4 5 6 
#
# 1 154.1983 39.3851 31.4807 6.0118 -35.2253 -7.2249
# 2 39.3851 89.8980 23.0982 12.3709 -13.5549 -5.0980
# 3 31.4807 23.0982 69.0185 -1.1888 -15.3365 -8.9345
# 4 6.0118 12.3709 -1.1888 26.3575 -9.1942 -6.9281
# 5 -35.2253 -13.5549 -15.3365 -9.1942 38.8736 -1.9970
# 6 -7.2249 -5.0980 -8.9345 -6.9281 -1.9970 20.9314
#
#
#
# Elastic Compliance Matrix: (Units=1/GPa)
#
#
# Indices 1 2 3 4 5 6 
#
# 1 0.009279 -0.002802 -0.000987 0.002925 0.007930 0.003824
# 2 -0.002802 0.014091 -0.003962 -0.006885 -0.000898 -0.001591
# 3 -0.000987 -0.003962 0.019573 0.008563 0.008018 0.010648
# 4 0.002925 -0.006885 0.008563 0.052702 0.017228 0.022076
# 5 0.007930 -0.000898 0.008018 0.017228 0.040632 0.015520
# 6 0.003824 -0.001591 0.010648 0.022076 0.015520 0.062040
#
#
# Mechanical properties :
#
#
# Convention : Reuss Voigt Hill
#
# Bulk Modulus (GPa) = 36.44186 55.67143 46.05664
# Shear Modulus (GPa) = 22.42494 31.84256 27.13375
#
# Velocity S-wave (km/s) = 3.32053 3.95681 3.65255
# Velocity P-wave (km/s) = 5.71130 6.94606 6.35872
#
# Compressibility (1/GPa) = 0.02744097
#
# Stress axis : x y z
#
# Youngs Moduli (GPa) = 107.77077 70.96811 51.09143
#
# Poissons Ratio (x) = 0.19882 0.05044
# Poissons Ratio (y) = 0.30192 0.20243
# Poissons Ratio (z) = 0.10639 0.28118
#
# Static dielectric constant tensor:
#      x y z
#    x 4.203560 -0.106930 -0.176770 
#    y -0.106930 3.401520 -0.046740 
#    z -0.176770 -0.046740 3.832710 
# 
# 
# High freq. dielectric constant tensor:
#      x y z
#    x 1.812290 -0.012260 -0.016470 
#    y -0.012260 1.751310 -0.017010 
#    z -0.016470 -0.017010 1.803200 
# 
# From -- ./inp_files/273374.got.cif
#   From: 2010.06.25/outbox.cif.g09.slc.cpg/sg2_137_cif.got.tgz:273374.got - 2010.06.27 13:26:56.
