data_PCOD8038052
_publ_section_title
;
Structure prediction by ZEFSAII (Michael W. Deem and Ramdas Pophale) SiO2 
 PCOD8038052
Probable space group: P -1
;
_chemical_formula_sum "Si O2"
_cell_formula_units_Z 16
_cell_length_a 15.000000
_cell_length_b 9.000000
_cell_length_c 12.000000
_cell_angle_alpha 130.000000
_cell_angle_beta 70.000000
_cell_angle_gamma 70.000000
_cell_volume 728.972637
_symmetry_space_group_name_H-M "P -1"
_symmetry_group_IT_number 2
_symmetry_cell_setting 'triclinic'
loop_
_space_group_symop_operation_xyz
x,y,z
-x,-y,-z
loop_
_atom_site_type_symbol
_atom_site_label
_atom_site_fract_x
_atom_site_fract_y
_atom_site_fract_z
Si Si1 0.735228 0.775099 0.288792
Si Si2 0.485982 0.714879 0.037741
Si Si3 0.152655 0.158959 0.399849
Si Si4 0.771898 0.130843 0.534059
Si Si5 0.496326 0.027821 0.346495
Si Si6 0.948131 0.957263 0.180725
Si Si7 0.911424 0.870793 0.824687
Si Si8 0.333607 0.667852 0.673771
O O1 0.600507 0.944678 0.513528
O O2 0.768264 0.947414 0.370038
O O3 0.657021 0.854271 0.240870
O O4 0.896123 0.415015 0.067220
O O5 0.307911 0.025076 0.234117
O O6 0.546062 0.809369 0.119900
O O7 0.500000 0.500000 0.000000
O O8 0.604174 0.498275 0.780465
O O9 0.115013 0.082646 0.274443
O O10 0.014280 0.527871 0.656668
O O11 0.172771 0.999857 0.426390
O O12 0.892718 0.073634 0.389284
O O13 0.376939 0.375581 0.523291
O O14 0.803454 0.092017 0.242337
O O15 0.992728 0.089542 0.168420
O O16 0.745668 0.130226 0.080353
O O17 0.500000 0.500000 0.500000
#
# Coordination Sequence:
#
# PCOD8038052 Si02
#       8
#     2   2   2   2   2   2   2   2
#     4  11  23  40  70 102 137 181 235 286 344 414
#     4  10  21  39  67  95 137 183 227 281 341 411
#     4  10  23  43  70  95 141 186 233 276 354 413
#     4  11  24  42  68 101 140 182 228 290 343 414
#     4  11  23  41  68 103 137 183 237 284 346 412
#     4  12  26  43  73 104 140 179 239 290 350 406
#     4  11  25  45  71  99 136 189 229 288 347 425
#     4  12  27  46  72 102 142 183 237 292 353 415
#
# _framework density 21.948698
#
# number of rings (size 3 to 8) (size 9 to 14) (size 15 to 20)
#    0.000    1.000    3.750    3.000    7.000    1.500 
#    4.500    1.250    0.000    0.000    0.000    0.000 
#    0.000    0.000    0.000    0.000    0.000    0.000 
#
# Total GULP energy -198256.400959 kJ/mol
# GULP energy per Si atom -12391.025060 kJ/mol
# Density = 2.189874 g / cm^3
# Si number density = 21.948698 Si / 1000 Ang^3
#
#
#
# Elastic Constant Matrix: (Units=GPa)
#
#
# Indices 1 2 3 4 5 6 
#
# 1 91.5116 21.9555 48.6892 4.5785 -12.2301 -20.5272
# 2 21.9555 63.6060 28.3940 6.6048 -4.2192 -13.8543
# 3 48.6892 28.3940 155.8853 12.9147 -11.1527 4.6433
# 4 4.5785 6.6048 12.9147 38.8415 1.2071 -12.2096
# 5 -12.2301 -4.2192 -11.1527 1.2071 45.3456 3.6831
# 6 -20.5272 -13.8543 4.6433 -12.2096 3.6831 33.4927
#
#
#
# Elastic Compliance Matrix: (Units=1/GPa)
#
#
# Indices 1 2 3 4 5 6 
#
# 1 0.016894 -0.000997 -0.005610 0.003705 0.002023 0.011848
# 2 -0.000997 0.019326 -0.003492 0.000526 0.000002 0.008059
# 3 -0.005610 -0.003492 0.009499 -0.004444 0.001263 -0.007959
# 4 0.003705 0.000526 -0.004444 0.031409 -0.002082 0.014783
# 5 0.002023 0.000002 0.001263 -0.002082 0.023147 -0.002239
# 6 0.011848 0.008059 -0.007959 0.014783 -0.002239 0.047191
#
#
# Mechanical properties :
#
#
# Convention : Reuss Voigt Hill
#
# Bulk Modulus (GPa) = 39.18476 56.56448 47.87462
# Shear Modulus (GPa) = 28.38148 37.66689 33.02418
#
# Velocity S-wave (km/s) = 3.59985 4.14712 3.88314
# Velocity P-wave (km/s) = 5.93044 6.98274 6.47799
#
# Compressibility (1/GPa) = 0.02552013
#
# Stress axis : x y z
#
# Youngs Moduli (GPa) = 59.19117 51.74467 105.27400
#
# Poissons Ratio (x) = 0.05159 0.59062
# Poissons Ratio (y) = 0.05901 0.36763
# Poissons Ratio (z) = 0.33208 0.18070
#
# Static dielectric constant tensor:
#      x y z
#    x 4.240850 -0.144900 -0.387640 
#    y -0.144900 3.902470 0.028470 
#    z -0.387640 0.028470 4.579460 
# 
# 
# High freq. dielectric constant tensor:
#      x y z
#    x 1.864490 -0.011570 -0.014560 
#    y -0.011570 1.852240 0.008820 
#    z -0.014560 0.008820 1.893800 
# 
# From -- ./inp_files/286116.got.cif
#   From: 2010.06.25/outbox.ucp.g09.slc.cvg/sg2_144_cif.got.tgz:286116.got - 2010.06.28 11:54:26.
