data_PCOD8038358
_publ_section_title
;
Structure prediction by ZEFSAII (Michael W. Deem and Ramdas Pophale) SiO2 
 PCOD8038358
Probable space group: P -1
;
_chemical_formula_sum "Si O2"
_cell_formula_units_Z 14
_cell_length_a 12.819867
_cell_length_b 17.052768
_cell_length_c 7.978364
_cell_angle_alpha 49.108608
_cell_angle_beta 140.427707
_cell_angle_gamma 137.615428
_cell_volume 734.105511
_symmetry_space_group_name_H-M "P -1"
_symmetry_group_IT_number 2
_symmetry_cell_setting 'triclinic'
loop_
_space_group_symop_operation_xyz
x,y,z
-x,-y,-z
loop_
_atom_site_type_symbol
_atom_site_label
_atom_site_fract_x
_atom_site_fract_y
_atom_site_fract_z
Si Si1 0.813405 0.744574 0.247614
Si Si2 0.335797 0.238651 0.291304
Si Si3 0.514053 0.125047 0.867329
Si Si4 0.178037 0.125536 0.581746
Si Si5 0.222786 0.500233 0.130264
Si Si6 0.500975 0.518992 0.717239
Si Si7 0.099099 0.682653 0.786431
O O1 0.841356 0.817881 0.349482
O O2 0.634286 0.614963 0.210714
O O3 0.000507 0.733195 0.466642
O O4 0.785579 0.811293 0.959395
O O5 0.464547 0.175206 0.565463
O O6 0.202507 0.209228 0.333039
O O7 0.459177 0.382949 0.226758
O O8 0.365437 0.112110 0.845951
O O9 0.723825 0.211343 0.058955
O O10 0.500000 0.000000 0.000000
O O11 0.000000 0.000000 0.500000
O O12 0.404958 0.557607 0.396742
O O13 0.296763 0.468096 0.098841
O O14 0.050167 0.384743 0.156570
O O15 0.156288 0.597036 0.875956
#
# Coordination Sequence:
#
# PCOD8038358 Si02
#       7
#     2   2   2   2   2   2   2
#     4  11  22  36  65  90 117 156 196 239 289 359
#     4  10  22  38  62  87 119 155 197 240 292 349
#     4  10  21  39  61  81 116 153 195 249 292 337
#     4  10  22  41  64  83 116 156 202 236 290 351
#     4   9  17  30  59  84 116 161 189 234 289 350
#     4  10  17  35  58  87 121 156 195 231 292 358
#     4  10  18  32  56  88 117 150 196 238 294 336
#
# _framework density 19.070829
#
# number of rings (size 3 to 8) (size 9 to 14) (size 15 to 20)
#    0.857    1.143    1.429    4.714    0.000    0.571 
#    0.000    1.429   12.571    0.000    0.000    0.000 
#    0.000    0.000    0.000    0.000    0.000    0.000 
#
# Total GULP energy -173458.153716 kJ/mol
# GULP energy per Si atom -12389.868123 kJ/mol
# Density = 1.902742 g / cm^3
# Si number density = 19.070829 Si / 1000 Ang^3
#
#
#
# Elastic Constant Matrix: (Units=GPa)
#
#
# Indices 1 2 3 4 5 6 
#
# 1 69.9996 35.3206 57.0542 2.2970 8.4598 -10.9310
# 2 35.3206 122.4070 63.1563 3.1112 4.2214 -6.4587
# 3 57.0542 63.1563 121.0884 -1.0296 12.6570 -6.0669
# 4 2.2970 3.1112 -1.0296 26.5169 -3.7798 11.4772
# 5 8.4598 4.2214 12.6570 -3.7798 40.8843 4.5024
# 6 -10.9310 -6.4587 -6.0669 11.4772 4.5024 23.4584
#
#
#
# Elastic Compliance Matrix: (Units=1/GPa)
#
#
# Indices 1 2 3 4 5 6 
#
# 1 0.027071 -0.000839 -0.011150 -0.009950 -0.004664 0.015263
# 2 -0.000839 0.011433 -0.005479 -0.002566 0.000170 0.002563
# 3 -0.011150 -0.005479 0.016343 0.003809 -0.001386 -0.004075
# 4 -0.009950 -0.002566 0.003809 0.054715 0.009839 -0.033016
# 5 -0.004664 0.000170 -0.001386 0.009839 0.028144 -0.012700
# 6 0.015263 0.002563 -0.004075 -0.033016 -0.012700 0.067983
#
#
# Mechanical properties :
#
#
# Convention : Reuss Voigt Hill
#
# Bulk Modulus (GPa) = 50.22502 69.39525 59.81013
# Shear Modulus (GPa) = 20.22150 28.70284 24.46217
#
# Velocity S-wave (km/s) = 3.25981 3.88373 3.58537
# Velocity P-wave (km/s) = 6.36881 7.52185 6.96922
#
# Compressibility (1/GPa) = 0.01991039
#
# Stress axis : x y z
#
# Youngs Moduli (GPa) = 36.94041 87.46529 61.18997
#
# Poissons Ratio (x) = 0.07343 0.68225
# Poissons Ratio (y) = 0.03101 0.33525
# Poissons Ratio (z) = 0.41187 0.47921
#
# Static dielectric constant tensor:
#      x y z
#    x 3.313920 -0.014240 0.230410 
#    y -0.014240 3.687640 -0.011190 
#    z 0.230410 -0.011190 3.674000 
# 
# 
# High freq. dielectric constant tensor:
#      x y z
#    x 1.712200 0.000000 0.021860 
#    y 0.000000 1.747980 -0.001310 
#    z 0.021860 -0.001310 1.735420 
# 
# From -- ./inp_files/203805.got.cif
#   From: 2010.06.25/outbox.cif.g09.slc.cpg/sg2_102_cif.got.tgz:203805.got - 2010.06.27 13:26:56.
