data_PCOD8038535
_publ_section_title
;
Structure prediction by ZEFSAII (Michael W. Deem and Ramdas Pophale) SiO2 
 PCOD8038535
Probable space group: P -1
;
_chemical_formula_sum "Si O2"
_cell_formula_units_Z 14
_cell_length_a 17.871206
_cell_length_b 14.797200
_cell_length_c 8.683597
_cell_angle_alpha 40.293311
_cell_angle_beta 38.777534
_cell_angle_gamma 30.002334
_cell_volume 690.421785
_symmetry_space_group_name_H-M "P -1"
_symmetry_group_IT_number 2
_symmetry_cell_setting 'triclinic'
loop_
_space_group_symop_operation_xyz
x,y,z
-x,-y,-z
loop_
_atom_site_type_symbol
_atom_site_label
_atom_site_fract_x
_atom_site_fract_y
_atom_site_fract_z
Si Si1 0.459608 0.129841 0.537722
Si Si2 0.269501 0.047834 0.422438
Si Si3 0.850358 0.718928 0.987860
Si Si4 0.098511 0.050152 0.210906
Si Si5 0.400128 0.714242 0.021090
Si Si6 0.987973 0.156308 0.906384
Si Si7 0.670817 0.306050 0.165277
O O1 0.277910 0.251264 0.730462
O O2 0.500000 0.000000 0.500000
O O3 0.591191 0.998974 0.630905
O O4 0.469642 0.279037 0.263186
O O5 0.094700 0.187085 0.605924
O O6 0.314719 0.851464 0.558876
O O7 0.250270 0.161611 0.158166
O O8 0.926867 0.797253 0.838056
O O9 0.000000 0.500000 0.000000
O O10 0.288708 0.863427 0.140841
O O11 0.000000 0.000000 0.500000
O O12 0.040394 0.127030 0.034743
O O13 0.491648 0.507461 0.210454
O O14 0.289274 0.758394 0.995349
O O15 0.794682 0.330104 0.991333
O O16 0.000000 0.000000 0.000000
#
# Coordination Sequence:
#
# PCOD8038535 Si02
#       7
#     2   2   2   2   2   2   2
#     4  11  21  45  68  89 133 176 222 269 335 404
#     4  10  21  41  64  90 132 174 220 272 333 392
#     4  12  28  44  65  98 137 184 225 277 333 397
#     4  12  23  41  66  98 134 172 224 281 329 394
#     4  10  20  37  64  98 124 170 214 267 330 404
#     4  10  17  37  61  95 129 168 213 272 339 384
#     4   9  19  35  66  95 125 161 214 269 335 391
#
# _framework density 20.277460999999999
#
# number of rings (size 3 to 8) (size 9 to 14) (size 15 to 20)
#    0.000    1.429    5.714    2.143    2.000    2.286 
#    2.571    4.286    0.000    0.000    0.000    0.000 
#    0.000    0.000    0.000    0.000    0.000    0.000 
#
# Total GULP energy -173516.893646 kJ/mol
# GULP energy per Si atom -12394.063832 kJ/mol
# Density = 2.023131 g / cm^3
# Si number density = 20.277461 Si / 1000 Ang^3
#
#
#
# Elastic Constant Matrix: (Units=GPa)
#
#
# Indices 1 2 3 4 5 6 
#
# 1 105.9763 45.9183 25.2646 0.8213 -9.8270 4.9325
# 2 45.9183 129.0083 54.1060 0.3423 -0.8329 6.0599
# 3 25.2646 54.1060 110.6054 13.0815 -5.7471 -2.5290
# 4 0.8213 0.3423 13.0815 34.7545 -7.7519 0.4112
# 5 -9.8270 -0.8329 -5.7471 -7.7519 31.9738 3.5431
# 6 4.9325 6.0599 -2.5290 0.4112 3.5431 26.2425
#
#
#
# Elastic Compliance Matrix: (Units=1/GPa)
#
#
# Indices 1 2 3 4 5 6 
#
# 1 0.011667 -0.003698 -0.000814 0.000934 0.003785 -0.001943
# 2 -0.003698 0.011240 -0.004954 0.001625 -0.001090 -0.002256
# 3 -0.000814 -0.004954 0.012261 -0.004473 0.000465 0.002486
# 4 0.000934 0.001625 -0.004473 0.032143 0.007597 -0.002511
# 5 0.003785 -0.001090 0.000465 0.007597 0.034917 -0.005248
# 6 -0.001943 -0.002256 0.002486 -0.002511 -0.005248 0.039980
#
#
# Mechanical properties :
#
#
# Convention : Reuss Voigt Hill
#
# Bulk Modulus (GPa) = 61.59643 66.24088 63.91865
# Shear Modulus (GPa) = 30.02080 33.28088 31.65084
#
# Velocity S-wave (km/s) = 3.85190 4.05566 3.95509
# Velocity P-wave (km/s) = 7.08700 7.39387 7.24206
#
# Compressibility (1/GPa) = 0.01623471
#
# Stress axis : x y z
#
# Youngs Moduli (GPa) = 85.71506 88.96798 81.56208
#
# Poissons Ratio (x) = 0.32898 0.06642
# Poissons Ratio (y) = 0.31695 0.40407
# Poissons Ratio (z) = 0.06980 0.44076
#
# Static dielectric constant tensor:
#      x y z
#    x 3.994790 -0.278870 -0.213330 
#    y -0.278870 3.727240 0.096390 
#    z -0.213330 0.096390 3.542000 
# 
# 
# High freq. dielectric constant tensor:
#      x y z
#    x 1.798190 -0.014530 -0.006730 
#    y -0.014530 1.783140 0.011730 
#    z -0.006730 0.011730 1.781720 
# 
# From -- ./inp_files/174817.got.cif
#   From: 2010.06.25/outbox.cif.g09.slc.cpg/sg2_88_cif.got.tgz:174817.got - 2010.06.27 13:26:56.
