data_PCOD8038951
_publ_section_title
;
Structure prediction by ZEFSAII (Michael W. Deem and Ramdas Pophale) SiO2 
 PCOD8038951
Probable space group: P -1
;
_chemical_formula_sum "Si O2"
_cell_formula_units_Z 14
_cell_length_a 12.046067
_cell_length_b 9.347191
_cell_length_c 11.961828
_cell_angle_alpha 116.201189
_cell_angle_beta 96.469762
_cell_angle_gamma 38.063102
_cell_volume 674.519531
_symmetry_space_group_name_H-M "P -1"
_symmetry_group_IT_number 2
_symmetry_cell_setting 'triclinic'
loop_
_space_group_symop_operation_xyz
x,y,z
-x,-y,-z
loop_
_atom_site_type_symbol
_atom_site_label
_atom_site_fract_x
_atom_site_fract_y
_atom_site_fract_z
Si Si1 0.327116 0.507483 0.049838
Si Si2 0.904950 0.684480 0.906229
Si Si3 0.693615 0.278918 0.325570
Si Si4 0.328265 0.166704 0.865707
Si Si5 0.941159 0.288022 0.717520
Si Si6 0.364181 0.437584 0.396197
Si Si7 0.288694 0.776090 0.944456
O O1 0.149509 0.694257 0.179992
O O2 0.478904 0.453992 0.102118
O O3 0.425136 0.215495 0.942216
O O4 0.241399 0.679998 0.983582
O O5 0.885861 0.540200 0.790290
O O6 0.136450 0.446592 0.870852
O O7 0.761862 0.848088 0.056824
O O8 0.829760 0.930339 0.918235
O O9 0.477213 0.453547 0.358711
O O10 0.676347 0.476373 0.447459
O O11 0.775088 0.194520 0.179325
O O12 0.825715 0.015840 0.337625
O O13 0.500256 0.879684 0.714095
O O14 0.851119 0.322900 0.605457
#
# Coordination Sequence:
#
# PCOD8038951 Si02
#       7
#     2   2   2   2   2   2   2
#     4  10  22  33  60  80 115 142 180 227 287 315
#     4  10  18  31  57  80 112 134 185 229 271 321
#     4  11  22  35  56  82 113 146 185 222 267 326
#     4  10  18  35  53  83 106 145 180 228 271 320
#     4  11  20  37  58  87 106 146 180 231 272 325
#     4  11  21  36  56  82 113 146 182 228 263 323
#     4  11  20  38  52  87 112 145 179 229 272 336
#
# _framework density 20.755516
#
# number of rings (size 3 to 8) (size 9 to 14) (size 15 to 20)
#    0.000    1.429    4.286    3.000    0.000    4.571 
#    0.000    0.714    0.000    0.000    0.000    7.000 
#    0.000    0.000    0.000    0.000    0.000    0.000 
#
# Total GULP energy -173497.304745 kJ/mol
# GULP energy per Si atom -12392.664625 kJ/mol
# Density = 2.070828 g / cm^3
# Si number density = 20.755516 Si / 1000 Ang^3
#
#
#
# Elastic Constant Matrix: (Units=GPa)
#
#
# Indices 1 2 3 4 5 6 
#
# 1 60.2296 13.9727 23.1747 -9.0127 7.9818 1.5075
# 2 13.9727 82.3967 27.6564 -0.5058 6.1701 4.1867
# 3 23.1747 27.6564 74.8281 -1.1147 18.9697 7.3725
# 4 -9.0127 -0.5058 -1.1147 29.4089 -3.6969 6.7897
# 5 7.9818 6.1701 18.9697 -3.6969 18.3292 -1.0156
# 6 1.5075 4.1867 7.3725 6.7897 -1.0156 29.8295
#
#
#
# Elastic Compliance Matrix: (Units=1/GPa)
#
#
# Indices 1 2 3 4 5 6 
#
# 1 0.020029 -0.001496 -0.004976 0.005908 -0.001932 -0.000983
# 2 -0.001496 0.013990 -0.004886 -0.000143 0.000936 -0.000616
# 3 -0.004976 -0.004886 0.022173 -0.002171 -0.019835 -0.004724
# 4 0.005908 -0.000143 -0.002171 0.038523 0.007034 -0.008271
# 5 -0.001932 0.000936 -0.019835 0.007034 0.077358 0.005901
# 6 -0.000983 -0.000616 -0.004724 -0.008271 0.005901 0.036911
#
#
# Mechanical properties :
#
#
# Convention : Reuss Voigt Hill
#
# Bulk Modulus (GPa) = 29.87140 38.56247 34.21694
# Shear Modulus (GPa) = 20.58807 25.69023 23.13915
#
# Velocity S-wave (km/s) = 3.15291 3.52199 3.34255
# Velocity P-wave (km/s) = 5.26096 5.92950 5.60521
#
# Compressibility (1/GPa) = 0.03347684
#
# Stress axis : x y z
#
# Youngs Moduli (GPa) = 49.92678 71.47722 45.10069
#
# Poissons Ratio (x) = 0.10690 0.22441
# Poissons Ratio (y) = 0.07467 0.22038
# Poissons Ratio (z) = 0.24843 0.34927
#
# Static dielectric constant tensor:
#      x y z
#    x 3.734300 -0.176890 0.279780 
#    y -0.176890 3.694250 0.057670 
#    z 0.279780 0.057670 3.627010 
# 
# 
# High freq. dielectric constant tensor:
#      x y z
#    x 1.807770 -0.024370 0.029360 
#    y -0.024370 1.809200 0.017910 
#    z 0.029360 0.017910 1.782070 
# 
# From -- ./inp_files/255777.got.cif
#   From: 2010.06.25/outbox.cif.g09.slc.cpg/sg2_128_cif.got.tgz:255777.got - 2010.06.27 13:26:56.
