data_PCOD8038809
_publ_section_title
;
Structure prediction by ZEFSAII (Michael W. Deem and Ramdas Pophale) SiO2 
 PCOD8038809
Probable space group: P -1
;
_chemical_formula_sum "Si O2"
_cell_formula_units_Z 16
_cell_length_a 22.123659
_cell_length_b 17.235012
_cell_length_c 8.672085
_cell_angle_alpha 32.915064
_cell_angle_beta 148.034056
_cell_angle_gamma 150.084186
_cell_volume 802.279508
_symmetry_space_group_name_H-M "P -1"
_symmetry_group_IT_number 2
_symmetry_cell_setting 'triclinic'
loop_
_space_group_symop_operation_xyz
x,y,z
-x,-y,-z
loop_
_atom_site_type_symbol
_atom_site_label
_atom_site_fract_x
_atom_site_fract_y
_atom_site_fract_z
Si Si1 0.412948 0.240148 0.560166
Si Si2 0.861941 0.035388 0.550257
Si Si3 0.103344 0.947535 0.753131
Si Si4 0.054308 0.389433 0.866207
Si Si5 0.643281 0.500324 0.144521
Si Si6 0.678226 0.461944 0.642398
Si Si7 0.102627 0.275885 0.849294
Si Si8 0.617655 0.723839 0.209754
O O1 0.297486 0.038155 0.639139
O O2 0.559956 0.278122 0.762615
O O3 0.412233 0.297728 0.637121
O O4 0.387989 0.353810 0.196226
O O5 0.917896 0.098106 0.396483
O O6 0.866013 0.868822 0.868104
O O7 0.950815 0.194868 0.588877
O O8 0.260316 0.089268 0.887808
O O9 0.000000 0.000000 0.500000
O O10 0.070721 0.776650 0.049814
O O11 0.110875 0.325624 0.960773
O O12 0.000000 0.500000 0.500000
O O13 0.173661 0.501816 0.060129
O O14 0.658201 0.475154 0.397199
O O15 0.786116 0.555316 0.282170
O O16 0.519429 0.324408 0.097931
O O17 0.666952 0.600701 0.479417
#
# Coordination Sequence:
#
# PCOD8038809 Si02
#       8
#     2   2   2   2   2   2   2   2
#     4   9  17  30  52  85 118 141 179 231 295 332
#     4   9  18  32  57  90 109 142 181 241 289 323
#     4  11  19  35  58  82 112 143 190 239 276 326
#     4  12  25  39  56  80 114 159 191 227 287 343
#     4  10  19  29  51  87 113 146 179 236 292 328
#     4  11  19  33  52  78 116 149 188 233 279 341
#     4  10  19  34  55  81 118 144 187 233 283 336
#     4  10  18  30  56  85 114 141 184 238 285 330
#
# _framework density 19.943173000000002
#
# number of rings (size 3 to 8) (size 9 to 14) (size 15 to 20)
#    0.000    1.750    2.500    6.000    0.000    2.000 
#    0.000    2.500    0.000    9.750    0.000    0.000 
#    0.000    0.000    0.000    0.000    0.000    0.000 
#
# Total GULP energy -198267.203646 kJ/mol
# GULP energy per Si atom -12391.700228 kJ/mol
# Density = 1.989778 g / cm^3
# Si number density = 19.943173 Si / 1000 Ang^3
#
#
#
# Elastic Constant Matrix: (Units=GPa)
#
#
# Indices 1 2 3 4 5 6 
#
# 1 91.1032 54.3690 31.4160 11.2802 -33.6802 27.1326
# 2 54.3690 143.1226 54.7066 30.9257 -14.2083 33.8497
# 3 31.4160 54.7066 79.2089 15.5086 -21.5310 9.3179
# 4 11.2802 30.9257 15.5086 30.2553 -3.2235 -7.5533
# 5 -33.6802 -14.2083 -21.5310 -3.2235 24.8731 -0.1587
# 6 27.1326 33.8497 9.3179 -7.5533 -0.1587 37.6060
#
#
#
# Elastic Compliance Matrix: (Units=1/GPa)
#
#
# Indices 1 2 3 4 5 6 
#
# 1 0.053807 0.001364 0.010859 -0.030763 0.078742 -0.048587
# 2 0.001364 0.018427 -0.005406 -0.021168 0.004820 -0.020463
# 3 0.010859 -0.005406 0.023618 -0.010032 0.030693 -0.010707
# 4 -0.030763 -0.021168 -0.010032 0.080716 -0.051590 0.059729
# 5 0.078742 0.004820 0.030693 -0.051590 0.168963 -0.078405
# 6 -0.048587 -0.020463 -0.010707 0.059729 -0.078405 0.094385
#
#
# Mechanical properties :
#
#
# Convention : Reuss Voigt Hill
#
# Bulk Modulus (GPa) = 9.13341 66.04642 37.58992
# Shear Modulus (GPa) = 10.80434 30.07642 20.44038
#
# Velocity S-wave (km/s) = 2.33009 3.88765 3.20493
# Velocity P-wave (km/s) = 3.43930 7.30349 5.70831
#
# Compressibility (1/GPa) = 0.10948808
#
# Stress axis : x y z
#
# Youngs Moduli (GPa) = 18.58494 54.26745 42.33989
#
# Poissons Ratio (x) = -0.07404 -0.45979
# Poissons Ratio (y) = -0.02536 0.22889
# Poissons Ratio (z) = -0.20182 0.29338
#
# Static dielectric constant tensor:
#      x y z
#    x 3.762960 0.508220 -0.193120 
#    y 0.508220 4.421260 0.508350 
#    z -0.193120 0.508350 3.191940 
# 
# 
# High freq. dielectric constant tensor:
#      x y z
#    x 1.778310 0.029150 -0.035540 
#    y 0.029150 1.794870 0.035650 
#    z -0.035540 0.035650 1.720680 
# 
# From -- ./inp_files/257657.got.cif
#   From: 2010.06.25/outbox.cif.g09.slc.cpg/sg2_129_cif.got.tgz:257657.got - 2010.06.27 13:26:56.
