data_PCOD8038787
_publ_section_title
;
Structure prediction by ZEFSAII (Michael W. Deem and Ramdas Pophale) SiO2 
 PCOD8038787
Probable space group: P -1
;
_chemical_formula_sum "Si O2"
_cell_formula_units_Z 16
_cell_length_a 13.945240
_cell_length_b 8.541127
_cell_length_c 8.183467
_cell_angle_alpha 113.446457
_cell_angle_beta 52.303151
_cell_angle_gamma 103.761736
_cell_volume 707.551552
_symmetry_space_group_name_H-M "P -1"
_symmetry_group_IT_number 2
_symmetry_cell_setting 'triclinic'
loop_
_space_group_symop_operation_xyz
x,y,z
-x,-y,-z
loop_
_atom_site_type_symbol
_atom_site_label
_atom_site_fract_x
_atom_site_fract_y
_atom_site_fract_z
Si Si1 0.166901 0.520360 0.165786
Si Si2 0.018150 0.917727 0.123074
Si Si3 0.186381 0.332363 0.731967
Si Si4 0.465201 0.301289 0.447310
Si Si5 0.425490 0.690549 0.337318
Si Si6 0.438398 0.659432 0.960709
Si Si7 0.842681 0.343605 0.303867
Si Si8 0.981833 0.728985 0.611120
O O1 0.067715 0.675920 0.346349
O O2 0.139162 0.386970 0.289664
O O3 0.146939 0.426675 0.977245
O O4 0.303313 0.584121 0.066878
O O5 0.893783 0.834477 0.281321
O O6 0.124011 0.774161 0.938855
O O7 0.051874 0.069977 0.277794
O O8 0.000000 0.000000 0.000000
O O9 0.323865 0.268243 0.567408
O O10 0.165046 0.459300 0.656876
O O11 0.500000 0.500000 0.500000
O O12 0.508485 0.216577 0.539346
O O13 0.535128 0.226109 0.181996
O O14 0.461664 0.491345 0.210815
O O15 0.283742 0.717846 0.519439
O O16 0.456911 0.766760 0.155132
O O17 0.944008 0.318398 0.322513
#
# Coordination Sequence:
#
# PCOD8038787 Si02
#       8
#     2   2   2   2   2   2   2   2
#     4  11  19  35  62  84 112 151 200 239 292 355
#     4  10  22  38  57  83 122 156 191 242 307 348
#     4  12  20  35  62  87 114 154 197 247 289 354
#     4  10  18  32  52  90 119 145 200 248 292 344
#     4  10  18  30  53  89 117 148 191 247 296 342
#     4  10  18  31  53  88 120 147 191 255 293 344
#     4  11  19  34  58  88 110 152 200 235 284 365
#     4  10  23  38  57  88 116 155 194 246 296 356
#
# _framework density 22.613192999999999
#
# number of rings (size 3 to 8) (size 9 to 14) (size 15 to 20)
#    0.000    1.500    8.750    0.375    0.000    0.000 
#    0.000    0.625    0.000    7.500    0.000    0.000 
#    0.000    0.000    0.000    0.000    0.000    0.000 
#
# Total GULP energy -198246.837573 kJ/mol
# GULP energy per Si atom -12390.427348 kJ/mol
# Density = 2.256172 g / cm^3
# Si number density = 22.613193 Si / 1000 Ang^3
#
#
#
# Elastic Constant Matrix: (Units=GPa)
#
#
# Indices 1 2 3 4 5 6 
#
# 1 56.7720 -0.1252 47.3352 -8.1597 5.1021 -1.2074
# 2 -0.1252 62.2598 26.8215 1.3979 -3.8318 8.7490
# 3 47.3352 26.8215 169.2905 -8.7832 -0.7437 15.3480
# 4 -8.1597 1.3979 -8.7832 14.0388 0.6592 3.6873
# 5 5.1021 -3.8318 -0.7437 0.6592 45.4900 -4.8410
# 6 -1.2074 8.7490 15.3480 3.6873 -4.8410 12.2114
#
#
#
# Elastic Compliance Matrix: (Units=1/GPa)
#
#
# Indices 1 2 3 4 5 6 
#
# 1 0.025580 0.002017 -0.007760 0.007915 -0.002132 0.007602
# 2 0.002017 0.018576 -0.002602 0.000262 0.000247 -0.009820
# 3 -0.007760 -0.002602 0.009990 0.005554 -0.000693 -0.013411
# 4 0.007915 0.000262 0.005554 0.088890 -0.005845 -0.035543
# 5 -0.002132 0.000247 -0.000693 -0.005845 0.023549 0.011584
# 6 0.007602 -0.009820 -0.013411 -0.035543 0.011584 0.121858
#
#
# Mechanical properties :
#
#
# Convention : Reuss Voigt Hill
#
# Bulk Modulus (GPa) = 26.69786 48.48726 37.59256
# Shear Modulus (GPa) = 15.74224 28.63411 22.18817
#
# Velocity S-wave (km/s) = 2.64133 3.56231 3.13582
# Velocity P-wave (km/s) = 4.59719 6.19747 5.45632
#
# Compressibility (1/GPa) = 0.03745618
#
# Stress axis : x y z
#
# Youngs Moduli (GPa) = 39.09373 53.83262 100.10139
#
# Poissons Ratio (x) = -0.10859 0.77676
# Poissons Ratio (y) = -0.07886 0.26047
# Poissons Ratio (z) = 0.30336 0.14008
#
# Static dielectric constant tensor:
#      x y z
#    x 4.184840 0.053240 0.384540 
#    y 0.053240 3.996870 0.210990 
#    z 0.384540 0.210990 5.042110 
# 
# 
# High freq. dielectric constant tensor:
#      x y z
#    x 1.877630 0.007180 0.003510 
#    y 0.007180 1.834360 -0.003030 
#    z 0.003510 -0.003030 1.923550 
# 
# From -- ./inp_files/298720.got.cif
#   From: 2010.06.25/outbox.cif.g09.slc.cpg/sg2_150_cif.got.tgz:298720.got - 2010.06.27 13:26:56.
