data_PCOD8038984
_publ_section_title
;
Structure prediction by ZEFSAII (Michael W. Deem and Ramdas Pophale) SiO2 
 PCOD8038984
Probable space group: P -1
;
_chemical_formula_sum "Si O2"
_cell_formula_units_Z 14
_cell_length_a 9.695417
_cell_length_b 9.493909
_cell_length_c 8.201623
_cell_angle_alpha 89.181087
_cell_angle_beta 98.395217
_cell_angle_gamma 121.578737
_cell_volume 634.523145
_symmetry_space_group_name_H-M "P -1"
_symmetry_group_IT_number 2
_symmetry_cell_setting 'triclinic'
loop_
_space_group_symop_operation_xyz
x,y,z
-x,-y,-z
loop_
_atom_site_type_symbol
_atom_site_label
_atom_site_fract_x
_atom_site_fract_y
_atom_site_fract_z
Si Si1 0.314328 0.284504 0.797892
Si Si2 0.541260 0.642927 0.853660
Si Si3 0.273129 0.656087 0.014905
Si Si4 0.028987 0.444603 0.240485
Si Si5 0.110264 0.397701 0.586488
Si Si6 0.462664 0.087588 0.727912
Si Si7 0.588067 0.231548 0.398840
O O1 0.489148 0.457998 0.787112
O O2 0.161838 0.279170 0.683762
O O3 0.323345 0.131228 0.732990
O O4 0.304377 0.273204 0.996272
O O5 0.567865 0.763212 0.704304
O O6 0.370482 0.600941 0.915551
O O7 0.185203 0.519802 0.146518
O O8 0.401631 0.837220 0.107188
O O9 0.136262 0.669392 0.889932
O O10 0.042671 0.335528 0.391216
O O11 0.024538 0.598552 0.322036
O O12 0.257147 0.585913 0.586823
O O13 0.555312 0.169352 0.575705
O O14 0.381837 0.890128 0.707724
#
# Coordination Sequence:
#
# PCOD8038984 Si02
#       7
#     2   2   2   2   2   2   2
#     4   9  18  33  49  81 104 129 170 220 263 297
#     4   9  18  33  52  78 108 128 170 216 266 301
#     4  10  18  32  50  84  99 136 172 216 249 305
#     4  10  19  32  53  76 107 135 179 210 244 306
#     4  10  19  35  55  80 100 141 171 216 254 304
#     4  10  21  33  55  79 107 132 172 217 263 304
#     4  10  19  36  50  82 104 138 170 209 264 313
#
# _framework density 22.063811000000001
#
# number of rings (size 3 to 8) (size 9 to 14) (size 15 to 20)
#    0.000    2.286    4.286    0.000    0.000    4.571 
#    2.571    0.000    0.000    3.429    0.000    5.000 
#    0.000    0.000    0.000    0.000    0.000    0.000 
#
# Total GULP energy -173437.869539 kJ/mol
# GULP energy per Si atom -12388.419253 kJ/mol
# Density = 2.201359 g / cm^3
# Si number density = 22.063811 Si / 1000 Ang^3
#
#
#
# Elastic Constant Matrix: (Units=GPa)
#
#
# Indices 1 2 3 4 5 6 
#
# 1 45.1355 -7.8094 17.0141 -4.4521 26.7010 -0.1617
# 2 -7.8094 47.9436 -0.5439 2.4857 10.4063 -17.3487
# 3 17.0141 -0.5439 100.7590 0.1426 33.2185 -2.7387
# 4 -4.4521 2.4857 0.1426 17.8762 -8.7152 -1.9466
# 5 26.7010 10.4063 33.2185 -8.7152 39.0666 -13.1299
# 6 -0.1617 -17.3487 -2.7387 -1.9466 -13.1299 25.4529
#
#
#
# Elastic Compliance Matrix: (Units=1/GPa)
#
#
# Indices 1 2 3 4 5 6 
#
# 1 0.058116 0.017010 0.011914 -0.023412 -0.067449 -0.023339
# 2 0.017010 0.033144 0.005664 -0.011290 -0.024492 0.009811
# 3 0.011914 0.005664 0.018475 -0.015330 -0.032886 -0.012213
# 4 -0.023412 -0.011290 -0.015330 0.084232 0.060257 0.028032
# 5 -0.067449 -0.024492 -0.032886 0.060257 0.138190 0.055234
# 6 -0.023339 0.009811 -0.012213 0.028032 0.055234 0.075149
#
#
# Mechanical properties :
#
#
# Convention : Reuss Voigt Hill
#
# Bulk Modulus (GPa) = 5.58939 23.46219 14.52579
# Shear Modulus (GPa) = 12.57015 28.82428 20.69721
#
# Velocity S-wave (km/s) = 2.38947 3.61834 3.06610
# Velocity P-wave (km/s) = 3.18614 5.30221 4.37407
#
# Compressibility (1/GPa) = 0.17891056
#
# Stress axis : x y z
#
# Youngs Moduli (GPa) = 17.20698 30.17111 54.12720
#
# Poissons Ratio (x) = -0.51321 -0.64487
# Poissons Ratio (y) = -0.29269 -0.30656
# Poissons Ratio (z) = -0.20500 -0.17088
#
# Static dielectric constant tensor:
#      x y z
#    x 3.882590 -0.353730 0.361310 
#    y -0.353730 3.634130 -0.140180 
#    z 0.361310 -0.140180 4.850920 
# 
# 
# High freq. dielectric constant tensor:
#      x y z
#    x 1.836730 -0.025140 0.019620 
#    y -0.025140 1.814080 -0.004830 
#    z 0.019620 -0.004830 1.903620 
# 
# From -- ./inp_files/234821.got.cif
#   From: 2010.06.25/outbox.cif.g09.slc.cpg/sg2_118_cif.got.tgz:234821.got - 2010.06.27 13:26:56.
