data_PCOD8038035
_publ_section_title
;
Structure prediction by ZEFSAII (Michael W. Deem and Ramdas Pophale) SiO2 
 PCOD8038035
Probable space group: P -1
;
_chemical_formula_sum "Si O2"
_cell_formula_units_Z 16
_cell_length_a 9.460352
_cell_length_b 9.503649
_cell_length_c 12.073898
_cell_angle_alpha 73.960828
_cell_angle_beta 62.044762
_cell_angle_gamma 95.621073
_cell_volume 887.847053
_symmetry_space_group_name_H-M "P -1"
_symmetry_group_IT_number 2
_symmetry_cell_setting 'triclinic'
loop_
_space_group_symop_operation_xyz
x,y,z
-x,-y,-z
loop_
_atom_site_type_symbol
_atom_site_label
_atom_site_fract_x
_atom_site_fract_y
_atom_site_fract_z
Si Si1 0.339873 0.668380 0.331511
Si Si2 0.857232 0.266620 0.803862
Si Si3 0.645481 0.545101 0.297568
Si Si4 0.478268 0.054100 0.669044
Si Si5 0.839615 0.061394 0.047169
Si Si6 0.005078 0.377270 0.937676
Si Si7 0.551536 0.787924 0.579715
Si Si8 0.803789 0.633985 0.452070
O O1 0.296421 0.707214 0.214096
O O2 0.504446 0.611121 0.282188
O O3 0.191052 0.528235 0.461856
O O4 0.365082 0.820213 0.363923
O O5 0.924344 0.400783 0.841975
O O6 0.011104 0.268512 0.665019
O O7 0.801557 0.104802 0.924601
O O8 0.806193 0.624243 0.150344
O O9 0.603474 0.362125 0.339806
O O10 0.675569 0.594176 0.403975
O O11 0.323838 0.042522 0.812515
O O12 0.525148 0.893571 0.669935
O O13 0.426663 0.109631 0.559817
O O14 0.900125 0.217253 0.061974
O O15 0.000000 0.000000 0.000000
O O16 0.000000 0.500000 0.000000
O O17 0.721172 0.734119 0.543297
#
# Coordination Sequence:
#
# PCOD8038035 Si02
#       8
#     2   2   2   2   2   2   2   2
#     4  11  19  34  54  81 104 135 173 219 263 305
#     4   9  22  34  57  77 104 136 177 214 262 307
#     4  10  17  33  59  79  99 137 180 215 253 310
#     4  11  20  30  52  79 110 133 170 217 259 301
#     4  10  20  35  55  75 103 141 176 209 253 316
#     4   9  19  36  56  76 100 136 179 217 253 305
#     4  10  19  31  52  83 101 133 175 219 254 299
#     4  10  17  36  57  78 100 138 179 214 253 311
#
# _framework density 18.021121999999998
#
# number of rings (size 3 to 8) (size 9 to 14) (size 15 to 20)
#    0.750    1.250    2.500    3.375    0.000    0.500 
#    0.000    1.250    5.500    0.000    0.000    0.000 
#    0.000    0.000    0.000    0.000    0.000    0.000 
#
# Total GULP energy -198233.326586 kJ/mol
# GULP energy per Si atom -12389.582912 kJ/mol
# Density = 1.798010 g / cm^3
# Si number density = 18.021122 Si / 1000 Ang^3
#
#
#
# Elastic Constant Matrix: (Units=GPa)
#
#
# Indices 1 2 3 4 5 6 
#
# 1 76.0447 26.2810 33.3036 0.7206 16.6585 -9.6984
# 2 26.2810 102.3772 13.7742 7.2594 1.2866 -4.2861
# 3 33.3036 13.7742 71.8680 -5.6636 1.1014 -5.6011
# 4 0.7206 7.2594 -5.6636 28.6001 -0.1151 -1.6516
# 5 16.6585 1.2866 1.1014 -0.1151 25.6906 -6.3248
# 6 -9.6984 -4.2861 -5.6011 -1.6516 -6.3248 16.5055
#
#
#
# Elastic Compliance Matrix: (Units=1/GPa)
#
#
# Indices 1 2 3 4 5 6 
#
# 1 0.021643 -0.003967 -0.008873 -0.001129 -0.012534 0.003760
# 2 -0.003967 0.011053 -0.000454 -0.002730 0.002268 0.000981
# 3 -0.008873 -0.000454 0.018646 0.004268 0.005903 0.003685
# 4 -0.001129 -0.002730 0.004268 0.036800 0.001961 0.004510
# 5 -0.012534 0.002268 0.005903 0.001961 0.050314 0.014703
# 6 0.003760 0.000981 0.003685 0.004510 0.014703 0.070386
#
#
# Mechanical properties :
#
#
# Convention : Reuss Voigt Hill
#
# Bulk Modulus (GPa) = 40.39517 44.11193 42.25355
# Shear Modulus (GPa) = 20.51860 25.95465 23.23662
#
# Velocity S-wave (km/s) = 3.37795 3.79916 3.59473
# Velocity P-wave (km/s) = 6.13826 6.61633 6.38177
#
# Compressibility (1/GPa) = 0.02475544
#
# Stress axis : x y z
#
# Youngs Moduli (GPa) = 46.20418 90.47029 53.63062
#
# Poissons Ratio (x) = 0.35891 0.47586
# Poissons Ratio (y) = 0.18330 0.02432
# Poissons Ratio (z) = 0.40996 0.04103
#
# Static dielectric constant tensor:
#      x y z
#    x 3.562600 -1.966540 0.196760 
#    y -1.966540 11.354640 -1.074000 
#    z 0.196760 -1.074000 3.159510 
# 
# 
# High freq. dielectric constant tensor:
#      x y z
#    x 1.675740 -0.002210 -0.015830 
#    y -0.002210 1.692960 -0.014340 
#    z -0.015830 -0.014340 1.692400 
# 
# From -- ./inp_files/254096.got.cif
#   From: 2010.06.25/outbox.cif.g09.slc.cpg/sg2_128_cif.got.tgz:254096.got - 2010.06.27 13:26:56.
