data_PCOD8038332
_publ_section_title
;
Structure prediction by ZEFSAII (Michael W. Deem and Ramdas Pophale) SiO2 
 PCOD8038332
Probable space group: P -1
;
_chemical_formula_sum "Si O2"
_cell_formula_units_Z 16
_cell_length_a 12.315248
_cell_length_b 22.113022
_cell_length_c 9.060434
_cell_angle_alpha 122.359278
_cell_angle_beta 46.236539
_cell_angle_gamma 150.140949
_cell_volume 872.729437
_symmetry_space_group_name_H-M "P -1"
_symmetry_group_IT_number 2
_symmetry_cell_setting 'triclinic'
loop_
_space_group_symop_operation_xyz
x,y,z
-x,-y,-z
loop_
_atom_site_type_symbol
_atom_site_label
_atom_site_fract_x
_atom_site_fract_y
_atom_site_fract_z
Si Si1 0.231941 0.045397 0.900210
Si Si2 0.534413 0.758868 0.841822
Si Si3 0.199793 0.878603 0.665530
Si Si4 0.026697 0.573693 0.256987
Si Si5 0.717107 0.237718 0.490425
Si Si6 0.213235 0.665130 0.755944
Si Si7 0.761852 0.695305 0.591883
Si Si8 0.212061 0.430359 0.780661
O O1 0.435470 0.122986 0.677150
O O2 0.130882 0.925728 0.875576
O O3 0.334134 0.121422 0.051228
O O4 0.000000 0.000000 0.000000
O O5 0.467675 0.761440 0.745123
O O6 0.716616 0.759745 0.666514
O O7 0.271855 0.637898 0.019824
O O8 0.171518 0.798849 0.695326
O O9 0.010256 0.792394 0.591744
O O10 0.500000 0.000000 0.500000
O O11 0.092671 0.653952 0.428208
O O12 0.894491 0.456598 0.310419
O O13 0.832950 0.537423 0.279009
O O14 0.698210 0.276286 0.411356
O O15 0.997225 0.635971 0.982485
O O16 0.501279 0.561689 0.739676
O O17 0.818513 0.665261 0.359705
#
# Coordination Sequence:
#
# PCOD8038332 Si02
#       8
#     2   2   2   2   2   2   2   2
#     4  10  20  37  63  80  97 143 201 236 265 317
#     4  10  19  33  60  84 106 142 192 227 267 329
#     4  10  21  37  58  78 107 147 193 230 270 324
#     4  10  17  35  55  83 109 153 183 211 268 353
#     4  10  22  36  55  82 116 145 178 228 286 331
#     4  11  20  36  53  84 119 148 172 223 289 336
#     4  11  18  34  59  85 107 140 198 231 261 323
#     4  10  20  32  59  84 112 150 187 218 274 337
#
# _framework density 18.333288
#
# number of rings (size 3 to 8) (size 9 to 14) (size 15 to 20)
#    0.000    1.750    5.000    1.125    1.750    0.000 
#    0.000    3.125    0.000    0.000    0.000    0.000 
#    0.000    0.000    0.000    0.000    0.000    0.000 
#
# Total GULP energy -198318.365129 kJ/mol
# GULP energy per Si atom -12394.897821 kJ/mol
# Density = 1.829156 g / cm^3
# Si number density = 18.333288 Si / 1000 Ang^3
#
#
#
# Elastic Constant Matrix: (Units=GPa)
#
#
# Indices 1 2 3 4 5 6 
#
# 1 99.4137 56.6627 34.2079 6.4178 -4.2971 0.0790
# 2 56.6627 100.7691 36.4398 18.7220 -4.1881 6.1566
# 3 34.2079 36.4398 58.5966 17.1978 -12.0262 -11.4789
# 4 6.4178 18.7220 17.1978 18.6730 -6.9468 -11.2509
# 5 -4.2971 -4.1881 -12.0262 -6.9468 34.1710 1.6613
# 6 0.0790 6.1566 -11.4789 -11.2509 1.6613 39.8822
#
#
#
# Elastic Compliance Matrix: (Units=1/GPa)
#
#
# Indices 1 2 3 4 5 6 
#
# 1 0.017090 -0.009485 -0.006865 0.011964 0.000867 0.002794
# 2 -0.009485 0.021351 -0.004115 -0.022220 -0.004028 -0.010562
# 3 -0.006865 -0.004115 0.030654 -0.016915 0.005765 0.004460
# 4 0.011964 -0.022220 -0.016915 0.109863 0.013755 0.028958
# 5 0.000867 -0.004028 0.005765 0.013755 0.033474 0.004765
# 6 0.002794 -0.010562 0.004460 0.028958 0.004765 0.035953
#
#
# Mechanical properties :
#
#
# Convention : Reuss Voigt Hill
#
# Bulk Modulus (GPa) = 35.50417 57.04447 46.27432
# Shear Modulus (GPa) = 16.73909 27.30984 22.02446
#
# Velocity S-wave (km/s) = 3.02494 3.86376 3.46979
# Velocity P-wave (km/s) = 5.62213 7.14756 6.43024
#
# Compressibility (1/GPa) = 0.02816571
#
# Stress axis : x y z
#
# Youngs Moduli (GPa) = 58.51340 46.83557 32.62252
#
# Poissons Ratio (x) = 0.44423 0.22395
# Poissons Ratio (y) = 0.55499 0.13424
# Poissons Ratio (z) = 0.40168 0.19273
#
# Static dielectric constant tensor:
#      x y z
#    x 3.444510 -0.007890 -0.395100 
#    y -0.007890 3.526030 0.226720 
#    z -0.395100 0.226720 3.275450 
# 
# 
# High freq. dielectric constant tensor:
#      x y z
#    x 1.708570 0.011000 -0.033220 
#    y 0.011000 1.722450 0.029690 
#    z -0.033220 0.029690 1.685120 
# 
# From -- ./inp_files/177795.got.cif
#   From: 2010.06.25/outbox.cif.g09.slc.cpg/sg2_89_cif.got.tgz:177795.got - 2010.06.27 13:26:56.
