data_PCOD8038915
_publ_section_title
;
Structure prediction by ZEFSAII (Michael W. Deem and Ramdas Pophale) SiO2 
 PCOD8038915
Probable space group: P -1
;
_chemical_formula_sum "Si O2"
_cell_formula_units_Z 14
_cell_length_a 13.126743
_cell_length_b 9.325163
_cell_length_c 13.799970
_cell_angle_alpha 54.618457
_cell_angle_beta 42.096826
_cell_angle_gamma 86.704260
_cell_volume 676.221715
_symmetry_space_group_name_H-M "P -1"
_symmetry_group_IT_number 2
_symmetry_cell_setting 'triclinic'
loop_
_space_group_symop_operation_xyz
x,y,z
-x,-y,-z
loop_
_atom_site_type_symbol
_atom_site_label
_atom_site_fract_x
_atom_site_fract_y
_atom_site_fract_z
Si Si1 0.913734 0.736820 0.687713
Si Si2 0.980798 0.910944 0.841116
Si Si3 0.257001 0.909989 0.506474
Si Si4 0.366010 0.296541 0.963593
Si Si5 0.323686 0.574996 0.641948
Si Si6 0.313674 0.339171 0.560183
Si Si7 0.446639 0.657048 0.001499
O O1 0.094494 0.755589 0.593557
O O2 0.735603 0.616470 0.943265
O O3 0.806940 0.547973 0.746155
O O4 0.000000 0.000000 0.500000
O O5 0.166246 0.984314 0.614569
O O6 0.085017 0.093947 0.786030
O O7 0.822606 0.917493 0.890833
O O8 0.841335 0.641126 0.084390
O O9 0.298361 0.763851 0.591744
O O10 0.469400 0.142816 0.216743
O O11 0.567218 0.509194 0.679224
O O12 0.451773 0.221215 0.011830
O O13 0.285301 0.481449 0.595936
O O14 0.558412 0.713003 0.454438
O O15 0.500000 0.500000 0.000000
#
# Coordination Sequence:
#
# PCOD8038915 Si02
#       7
#     2   2   2   2   2   2   2
#     4  10  18  31  54  83 114 140 177 224 274 325
#     4  10  20  35  60  82 107 147 187 231 272 324
#     4  11  21  34  57  87 116 136 184 237 269 324
#     4   9  19  31  55  85 103 143 190 215 270 329
#     4  10  23  39  53  83 111 148 187 228 276 323
#     4  10  21  39  59  74 113 153 186 221 274 338
#     4  10  18  32  54  83 114 146 173 218 283 326
#
# _framework density 20.70327
#
# number of rings (size 3 to 8) (size 9 to 14) (size 15 to 20)
#    0.000    2.000    2.857    2.571    2.000    1.714 
#    0.000    0.714    0.000    1.714    0.000    0.000 
#    0.000    0.000    0.000    0.000    0.000    0.000 
#
# Total GULP energy -173437.658156 kJ/mol
# GULP energy per Si atom -12388.404154 kJ/mol
# Density = 2.065615 g / cm^3
# Si number density = 20.703270 Si / 1000 Ang^3
#
#
#
# Elastic Constant Matrix: (Units=GPa)
#
#
# Indices 1 2 3 4 5 6 
#
# 1 87.7321 26.1738 38.4216 -13.4116 -9.6299 32.4335
# 2 26.1738 35.0238 17.5707 -6.0163 -4.3730 17.3622
# 3 38.4216 17.5707 85.8013 -15.2853 2.2016 15.4109
# 4 -13.4116 -6.0163 -15.2853 21.4798 12.4606 -10.3675
# 5 -9.6299 -4.3730 2.2016 12.4606 41.5066 -8.3201
# 6 32.4335 17.3622 15.4109 -10.3675 -8.3201 26.5261
#
#
#
# Elastic Compliance Matrix: (Units=1/GPa)
#
#
# Indices 1 2 3 4 5 6 
#
# 1 0.023576 -0.002930 -0.006233 -0.003032 0.001597 -0.023972
# 2 -0.002930 0.044327 -0.004196 -0.004672 0.000683 -0.024605
# 3 -0.006233 -0.004196 0.016971 0.011952 -0.005696 0.003392
# 4 -0.003032 -0.004672 0.011952 0.074136 -0.019542 0.022668
# 5 0.001597 0.000683 -0.005696 -0.019542 0.031325 0.003097
# 6 -0.023972 -0.024605 0.003392 0.022668 0.003097 0.090974
#
#
# Mechanical properties :
#
#
# Convention : Reuss Voigt Hill
#
# Bulk Modulus (GPa) = 17.19491 41.43217 29.31354
# Shear Modulus (GPa) = 15.27132 26.32856 20.79994
#
# Velocity S-wave (km/s) = 2.71888 3.56997 3.17309
# Velocity P-wave (km/s) = 4.26378 6.08677 5.25493
#
# Compressibility (1/GPa) = 0.05815675
#
# Stress axis : x y z
#
# Youngs Moduli (GPa) = 42.41632 22.55979 58.92320
#
# Poissons Ratio (x) = 0.06609 0.36726
# Poissons Ratio (y) = 0.12427 0.24724
# Poissons Ratio (z) = 0.26437 0.09466
#
# Static dielectric constant tensor:
#      x y z
#    x 4.646340 0.701630 -0.520600 
#    y 0.701630 3.346540 -0.152360 
#    z -0.520600 -0.152360 4.076960 
# 
# 
# High freq. dielectric constant tensor:
#      x y z
#    x 1.824630 0.037730 -0.007290 
#    y 0.037730 1.744140 -0.001830 
#    z -0.007290 -0.001830 1.820110 
# 
# From -- ./inp_files/472270.got.cif
#   From: 2010.06.25/outbox.cif.g09.slc.cpg/sg2_237_cif.got.tgz:472270.got - 2010.06.27 13:26:56.
