data_PCOD8038147
_publ_section_title
;
Structure prediction by ZEFSAII (Michael W. Deem and Ramdas Pophale) SiO2 
 PCOD8038147
Probable space group: P -1
;
_chemical_formula_sum "Si O2"
_cell_formula_units_Z 14
_cell_length_a 19.427849
_cell_length_b 7.798829
_cell_length_c 8.939897
_cell_angle_alpha 48.291478
_cell_angle_beta 37.912029
_cell_angle_gamma 61.125778
_cell_volume 618.721438
_symmetry_space_group_name_H-M "P -1"
_symmetry_group_IT_number 2
_symmetry_cell_setting 'triclinic'
loop_
_space_group_symop_operation_xyz
x,y,z
-x,-y,-z
loop_
_atom_site_type_symbol
_atom_site_label
_atom_site_fract_x
_atom_site_fract_y
_atom_site_fract_z
Si Si1 0.815452 0.388887 0.051291
Si Si2 0.224403 0.113577 0.661458
Si Si3 0.989552 0.178733 0.047267
Si Si4 0.540341 0.714089 0.705215
Si Si5 0.195476 0.144168 0.344676
Si Si6 0.424904 0.636581 0.377331
Si Si7 0.419502 0.025931 0.913567
O O1 0.922791 0.390047 0.979648
O O2 0.703676 0.401551 0.331973
O O3 0.802979 0.159541 0.103613
O O4 0.839833 0.603312 0.775380
O O5 0.333142 0.203227 0.512888
O O6 0.243819 0.145255 0.430604
O O7 0.119848 0.250216 0.826898
O O8 0.912942 0.041054 0.385057
O O9 0.000000 0.000000 0.000000
O O10 0.540542 0.615104 0.592380
O O11 0.459257 0.923759 0.744490
O O12 0.500000 0.500000 0.000000
O O13 0.289613 0.075582 0.105935
O O14 0.506964 0.732255 0.315100
O O15 0.441122 0.826298 0.109471
#
# Coordination Sequence:
#
# PCOD8038147 Si02
#       7
#     2   2   2   2   2   2   2
#     4  10  18  33  57  83 111 147 183 226 279 327
#     4  10  19  37  55  82 113 145 185 231 273 323
#     4   8  18  32  54  82 112 141 188 229 270 325
#     4  10  20  33  61  84 108 149 185 224 278 327
#     4  10  18  31  59  84 108 149 184 222 281 328
#     4  10  18  33  57  81 112 148 183 224 277 326
#     4  10  17  34  56  81 114 143 186 226 270 331
#
# _framework density 22.627307999999999
#
# number of rings (size 3 to 8) (size 9 to 14) (size 15 to 20)
#    0.000    2.571    4.286    1.714    0.000    5.714 
#    0.000    1.429    6.286    0.857    0.000    0.000 
#    0.000    0.000    0.000    0.000    0.000    0.000 
#
# Total GULP energy -173487.801914 kJ/mol
# GULP energy per Si atom -12391.985851 kJ/mol
# Density = 2.257581 g / cm^3
# Si number density = 22.627308 Si / 1000 Ang^3
#
#
#
# Elastic Constant Matrix: (Units=GPa)
#
#
# Indices 1 2 3 4 5 6 
#
# 1 44.8486 39.5794 36.9010 3.8603 -5.3404 0.7441
# 2 39.5794 137.1348 52.5021 12.3049 -12.7025 -2.6071
# 3 36.9010 52.5021 81.3119 19.7909 -22.6073 -14.5849
# 4 3.8603 12.3049 19.7909 49.3906 -9.8422 -0.1085
# 5 -5.3404 -12.7025 -22.6073 -9.8422 25.1193 4.3130
# 6 0.7441 -2.6071 -14.5849 -0.1085 4.3130 28.6770
#
#
#
# Elastic Compliance Matrix: (Units=1/GPa)
#
#
# Indices 1 2 3 4 5 6 
#
# 1 0.044507 -0.005824 -0.022443 0.005001 -0.009727 -0.011617
# 2 -0.005824 0.010638 -0.004212 -0.000437 0.000365 -0.001080
# 3 -0.022443 -0.004212 0.035033 -0.007387 0.019139 0.015110
# 4 0.005001 -0.000437 -0.007387 0.023767 0.004275 -0.004480
# 5 -0.009727 0.000365 0.019139 0.004275 0.056564 0.001529
# 6 -0.011617 -0.001080 0.015110 -0.004480 0.001529 0.042513
#
#
# Mechanical properties :
#
#
# Convention : Reuss Voigt Hill
#
# Bulk Modulus (GPa) = 39.65154 57.91778 48.78466
# Shear Modulus (GPa) = 17.45899 29.59157 23.52528
#
# Velocity S-wave (km/s) = 2.78076 3.62025 3.22791
# Velocity P-wave (km/s) = 5.27939 6.56711 5.95814
#
# Compressibility (1/GPa) = 0.02521970
#
# Stress axis : x y z
#
# Youngs Moduli (GPa) = 22.46847 94.00388 28.54475
#
# Poissons Ratio (x) = 0.54744 0.64064
# Poissons Ratio (y) = 0.13085 0.12023
# Poissons Ratio (z) = 0.50427 0.39593
#
# Static dielectric constant tensor:
#      x y z
#    x 7.119420 -1.452340 -1.401960 
#    y -1.452340 5.239770 0.761180 
#    z -1.401960 0.761180 5.044980 
# 
# 
# High freq. dielectric constant tensor:
#      x y z
#    x 1.845130 -0.020610 0.001700 
#    y -0.020610 1.903020 0.007830 
#    z 0.001700 0.007830 1.906390 
# 
# From -- ./inp_files/474076.got.cif
#   From: 2010.06.25/outbox.cif.g09.slc.cpg/sg2_238_cif.got.tgz:474076.got - 2010.06.27 13:26:56.
