data_PCOD8038638
_publ_section_title
;
Structure prediction by ZEFSAII (Michael W. Deem and Ramdas Pophale) SiO2 
 PCOD8038638
Probable space group: P -1
;
_chemical_formula_sum "Si O2"
_cell_formula_units_Z 16
_cell_length_a 5.369039
_cell_length_b 19.878170
_cell_length_c 14.545987
_cell_angle_alpha 147.644966
_cell_angle_beta 79.363288
_cell_angle_gamma 90.002137
_cell_volume 779.849639
_symmetry_space_group_name_H-M "P -1"
_symmetry_group_IT_number 2
_symmetry_cell_setting 'triclinic'
loop_
_space_group_symop_operation_xyz
x,y,z
-x,-y,-z
loop_
_atom_site_type_symbol
_atom_site_label
_atom_site_fract_x
_atom_site_fract_y
_atom_site_fract_z
Si Si1 0.942015 0.639730 0.615979
Si Si2 0.251046 0.085962 0.997943
Si Si3 0.049375 0.712716 0.401324
Si Si4 0.381469 0.339676 0.736979
Si Si5 0.305261 0.583981 0.889452
Si Si6 0.234650 0.407441 0.030727
Si Si7 0.484313 0.440032 0.531364
Si Si8 0.158794 0.054726 0.182392
O O1 0.833680 0.756602 0.832614
O O2 0.716814 0.649494 0.563942
O O3 0.000000 0.500000 0.500000
O O4 0.219264 0.649504 0.563961
O O5 0.202877 0.073176 0.094256
O O6 0.560561 0.022966 0.878721
O O7 0.060770 0.022954 0.878707
O O8 0.308499 0.745595 0.379104
O O9 0.126476 0.559080 0.247150
O O10 0.812536 0.745579 0.379062
O O11 0.949965 0.802131 0.600057
O O12 0.353921 0.451476 0.792019
O O13 0.290966 0.406577 0.918088
O O14 0.496362 0.663394 0.012019
O O15 0.377271 0.555675 0.745477
O O16 0.991592 0.663398 0.012014
O O17 0.500000 0.500000 0.500000
#
# Coordination Sequence:
#
# PCOD8038638 Si02
#       8
#     2   2   2   2   2   2   2   2
#     4  10  21  36  54  71  96 137 175 231 269 296
#     4  10  21  35  49  68 105 132 181 228 246 305
#     4  10  18  29  46  66  97 136 175 202 243 314
#     4  10  19  29  46  71 101 134 171 214 252 305
#     4  10  18  28  46  64  94 138 165 197 259 310
#     4  10  19  31  44  73  98 135 173 211 253 311
#     4  10  21  33  48  75  99 128 179 217 254 312
#     4  10  21  33  47  74  99 142 178 211 255 302
#
# _framework density 20.516774999999999
#
# number of rings (size 3 to 8) (size 9 to 14) (size 15 to 20)
#    0.000    2.000    0.000    6.000    7.000    0.000 
#    0.000    0.000    0.000    0.000    0.000    0.000 
#    0.000    0.000    0.000  522.000    0.000    0.000 
#
# Total GULP energy -198252.480820 kJ/mol
# GULP energy per Si atom -12390.780051 kJ/mol
# Density = 2.047008 g / cm^3
# Si number density = 20.516775 Si / 1000 Ang^3
#
#
#
# Elastic Constant Matrix: (Units=GPa)
#
#
# Indices 1 2 3 4 5 6 
#
# 1 238.8679 10.0678 21.3576 -9.1702 2.8562 18.0607
# 2 10.0678 36.5534 6.4319 -13.0529 -0.3829 -0.5670
# 3 21.3576 6.4319 45.3704 0.2157 0.1621 1.2124
# 4 -9.1702 -13.0529 0.2157 30.5504 0.3651 -0.5125
# 5 2.8562 -0.3829 0.1621 0.3651 35.6746 -8.7041
# 6 18.0607 -0.5670 1.2124 -0.5125 -8.7041 11.2384
#
#
#
# Elastic Compliance Matrix: (Units=1/GPa)
#
#
# Indices 1 2 3 4 5 6 
#
# 1 0.005290 -0.000905 -0.002072 0.001074 -0.003025 -0.010618
# 2 -0.000905 0.033576 -0.004556 0.014180 0.001670 0.005580
# 3 -0.002072 -0.004556 0.023660 -0.002728 0.000174 0.000558
# 4 0.001074 0.014180 -0.002728 0.039151 -0.000075 0.001011
# 5 -0.003025 0.001670 0.000174 -0.000075 0.036364 0.033088
# 6 -0.010618 0.005580 0.000558 0.001011 0.033088 0.131938
#
#
# Mechanical properties :
#
#
# Convention : Reuss Voigt Hill
#
# Bulk Modulus (GPa) = 21.07143 44.05626 32.56385
# Shear Modulus (GPa) = 16.61871 34.35497 25.48684
#
# Velocity S-wave (km/s) = 2.84915 4.09648 3.52837
# Velocity P-wave (km/s) = 4.59523 6.62532 5.70136
#
# Compressibility (1/GPa) = 0.04745761
#
# Stress axis : x y z
#
# Youngs Moduli (GPa) = 189.03320 29.78342 42.26590
#
# Poissons Ratio (x) = 0.02696 0.08759
# Poissons Ratio (y) = 0.17114 0.19257
# Poissons Ratio (z) = 0.39177 0.13570
#
# Static dielectric constant tensor:
#      x y z
#    x 7.119750 0.353520 0.025310 
#    y 0.353520 2.996080 -0.130950 
#    z 0.025310 -0.130950 3.504280 
# 
# 
# High freq. dielectric constant tensor:
#      x y z
#    x 1.856580 0.011380 0.003280 
#    y 0.011380 1.725360 -0.034770 
#    z 0.003280 -0.034770 1.772120 
# 
# From -- ./inp_files/71699.got.cif
#   From: 2010.06.25/outbox.cif.g09.slc.cpg/sg2_36_cif.got.tgz:71699.got - 2010.06.27 13:26:56.
