data_PCOD8038359
_publ_section_title
;
Structure prediction by ZEFSAII (Michael W. Deem and Ramdas Pophale) SiO2 
 PCOD8038359
Probable space group: P -1
;
_chemical_formula_sum "Si O2"
_cell_formula_units_Z 14
_cell_length_a 14.605196
_cell_length_b 12.897437
_cell_length_c 9.254404
_cell_angle_alpha 49.384425
_cell_angle_beta 119.405625
_cell_angle_gamma 154.722155
_cell_volume 538.799909
_symmetry_space_group_name_H-M "P -1"
_symmetry_group_IT_number 2
_symmetry_cell_setting 'triclinic'
loop_
_space_group_symop_operation_xyz
x,y,z
-x,-y,-z
loop_
_atom_site_type_symbol
_atom_site_label
_atom_site_fract_x
_atom_site_fract_y
_atom_site_fract_z
Si Si1 0.742391 0.185490 0.044966
Si Si2 0.398280 0.102511 0.300700
Si Si3 0.681652 0.891147 0.465136
Si Si4 0.203635 0.975484 0.002877
Si Si5 0.182214 0.580315 0.596558
Si Si6 0.777066 0.777654 0.438898
Si Si7 0.797766 0.503323 0.636808
O O1 0.610424 0.960765 0.281700
O O2 0.726146 0.065236 0.008729
O O3 0.657816 0.238913 0.876164
O O4 0.000000 0.500000 0.000000
O O5 0.401884 0.207535 0.346066
O O6 0.591031 0.213556 0.340683
O O7 0.400135 0.204919 0.070003
O O8 0.174989 0.741621 0.455115
O O9 0.607391 0.668556 0.516346
O O10 0.950897 0.193532 0.381170
O O11 0.985246 0.691653 0.182884
O O12 0.167372 0.072961 0.798133
O O13 0.178747 0.523734 0.481570
O O14 0.678931 0.517811 0.540278
O O15 0.000000 0.000000 0.500000
#
# Coordination Sequence:
#
# PCOD8038359 Si02
#       7
#     2   2   2   2   2   2   2
#     4   9  17  30  63  87 111 155 197 237 293 346
#     4  11  22  37  61  92 122 150 200 246 291 350
#     4   9  18  36  59  85 119 155 193 245 291 347
#     4  11  20  39  65  85 118 159 193 242 299 347
#     4  11  22  35  61  95 119 151 199 247 293 346
#     4   9  21  37  64  88 114 160 201 236 296 356
#     4  10  17  35  58  88 118 151 199 242 289 349
#
# _framework density 25.98367
#
# number of rings (size 3 to 8) (size 9 to 14) (size 15 to 20)
#    0.000    2.000    2.857    3.000    0.000    0.571 
#    0.000    2.143   25.143    0.000    0.000    0.000 
#    0.000    0.000    0.000    0.000    0.000    0.000 
#
# Total GULP energy -173562.513369 kJ/mol
# GULP energy per Si atom -12397.322384 kJ/mol
# Density = 2.592453 g / cm^3
# Si number density = 25.983670 Si / 1000 Ang^3
#
#
#
# Elastic Constant Matrix: (Units=GPa)
#
#
# Indices 1 2 3 4 5 6 
#
# 1 148.2059 33.6582 79.9116 12.2549 17.9066 -26.2707
# 2 33.6582 80.4902 61.6947 13.3479 10.1851 -30.5020
# 3 79.9116 61.6947 217.9599 28.1126 20.0279 -15.9085
# 4 12.2549 13.3479 28.1126 43.2668 0.6572 -5.1285
# 5 17.9066 10.1851 20.0279 0.6572 53.7436 7.9031
# 6 -26.2707 -30.5020 -15.9085 -5.1285 7.9031 38.4607
#
#
#
# Elastic Compliance Matrix: (Units=1/GPa)
#
#
# Indices 1 2 3 4 5 6 
#
# 1 0.009838 0.001579 -0.003161 -0.000297 -0.003475 0.007339
# 2 0.001579 0.023988 -0.005170 -0.002160 -0.005897 0.018888
# 3 -0.003161 -0.005170 0.007308 -0.002679 -0.000133 -0.003566
# 4 -0.000297 -0.002160 -0.002679 0.025603 0.001172 0.000149
# 5 -0.003475 -0.005897 -0.000133 0.001172 0.022623 -0.011598
# 6 0.007339 0.018888 -0.003566 0.000149 -0.011598 0.046921
#
#
# Mechanical properties :
#
#
# Convention : Reuss Voigt Hill
#
# Bulk Modulus (GPa) = 36.19127 88.57611 62.38369
# Shear Modulus (GPa) = 31.44747 45.18700 38.31723
#
# Velocity S-wave (km/s) = 3.48268 4.17472 3.84430
# Velocity P-wave (km/s) = 5.48915 7.57634 6.61557
#
# Compressibility (1/GPa) = 0.02763097
#
# Stress axis : x y z
#
# Youngs Moduli (GPa) = 101.64238 41.68705 136.84387
#
# Poissons Ratio (x) = -0.06581 0.43251
# Poissons Ratio (y) = -0.16047 0.70746
# Poissons Ratio (z) = 0.32125 0.21551
#
# Static dielectric constant tensor:
#      x y z
#    x 4.896750 0.239780 0.341640 
#    y 0.239780 5.626970 0.394150 
#    z 0.341640 0.394150 5.351040 
# 
# 
# High freq. dielectric constant tensor:
#      x y z
#    x 2.055950 0.029400 0.016910 
#    y 0.029400 2.098180 0.018920 
#    z 0.016910 0.018920 2.038940 
# 
# From -- ./inp_files/255962.got.cif
#   From: 2010.06.25/outbox.cif.g09.slc.cpg/sg2_128_cif.got.tgz:255962.got - 2010.06.27 13:26:56.
