data_PCOD8038913
_publ_section_title
;
Structure prediction by ZEFSAII (Michael W. Deem and Ramdas Pophale) SiO2 
 PCOD8038913
Probable space group: P -1
;
_chemical_formula_sum "Si O2"
_cell_formula_units_Z 14
_cell_length_a 13.763270
_cell_length_b 10.117589
_cell_length_c 10.972007
_cell_angle_alpha 100.812305
_cell_angle_beta 93.795221
_cell_angle_gamma 150.510133
_cell_volume 650.269086
_symmetry_space_group_name_H-M "P -1"
_symmetry_group_IT_number 2
_symmetry_cell_setting 'triclinic'
loop_
_space_group_symop_operation_xyz
x,y,z
-x,-y,-z
loop_
_atom_site_type_symbol
_atom_site_label
_atom_site_fract_x
_atom_site_fract_y
_atom_site_fract_z
Si Si1 0.904426 0.476527 0.320352
Si Si2 0.368167 0.514596 0.219255
Si Si3 0.840834 0.675507 0.438636
Si Si4 0.656996 0.945513 0.101254
Si Si5 0.462362 0.567190 0.794304
Si Si6 0.660303 0.085917 0.475801
Si Si7 0.966481 0.105248 0.255300
O O1 0.912385 0.648776 0.342697
O O2 0.785468 0.298842 0.406815
O O3 0.155936 0.730698 0.377275
O O4 0.748107 0.213069 0.157262
O O5 0.431304 0.641328 0.109711
O O6 0.401221 0.396643 0.219604
O O7 0.107826 0.222813 0.173871
O O8 0.523737 0.782753 0.376390
O O9 0.592777 0.418234 0.332092
O O10 0.861776 0.650087 0.575563
O O11 0.000000 0.000000 0.500000
O O12 0.612993 0.847893 0.942571
O O13 0.856070 0.107941 0.208395
O O14 0.228569 0.242089 0.786432
O O15 0.500000 0.000000 0.500000
#
# Coordination Sequence:
#
# PCOD8038913 Si02
#       7
#     2   2   2   2   2   2   2
#     4  10  19  33  52  75 108 139 170 217 264 306
#     4  10  19  33  58  81 104 138 177 222 266 303
#     4  10  20  36  55  77 107 141 176 216 263 315
#     4  10  21  35  54  81 107 138 179 217 260 315
#     4  10  22  36  51  79 113 142 177 211 255 323
#     4  10  18  31  54  83 105 130 174 224 267 305
#     4  10  19  35  58  81 105 135 177 225 263 302
#
# _framework density 21.529548999999999
#
# number of rings (size 3 to 8) (size 9 to 14) (size 15 to 20)
#    0.000    2.000    0.000    7.714    0.000    3.429 
#    0.000    2.857    0.000    0.000    0.000   14.000 
#    0.000    0.000    0.000    0.000    0.000    0.000 
#
# Total GULP energy -173520.058150 kJ/mol
# GULP energy per Si atom -12394.289868 kJ/mol
# Density = 2.148055 g / cm^3
# Si number density = 21.529549 Si / 1000 Ang^3
#
#
#
# Elastic Constant Matrix: (Units=GPa)
#
#
# Indices 1 2 3 4 5 6 
#
# 1 120.0676 29.4440 41.4269 9.2893 -32.2694 5.1930
# 2 29.4440 53.4726 2.2059 6.7786 -3.1092 23.8743
# 3 41.4269 2.2059 112.8881 -0.0556 -25.4472 -15.6348
# 4 9.2893 6.7786 -0.0556 15.5685 -7.7530 -6.7348
# 5 -32.2694 -3.1092 -25.4472 -7.7530 35.1494 2.2875
# 6 5.1930 23.8743 -15.6348 -6.7348 2.2875 33.8418
#
#
#
# Elastic Compliance Matrix: (Units=1/GPa)
#
#
# Indices 1 2 3 4 5 6 
#
# 1 0.013622 -0.007848 -0.002241 0.001284 0.010345 0.001967
# 2 -0.007848 0.046439 -0.007159 -0.041016 -0.014591 -0.042041
# 3 -0.002241 -0.007159 0.014076 0.015705 0.010031 0.014345
# 4 0.001284 -0.041016 0.015705 0.122585 0.032171 0.058215
# 5 0.010345 -0.014591 0.010031 0.032171 0.049950 0.016367
# 6 0.001967 -0.042041 0.014345 0.058215 0.016367 0.076012
#
#
# Mechanical properties :
#
#
# Convention : Reuss Voigt Hill
#
# Bulk Modulus (GPa) = 25.22605 48.06464 36.64534
# Shear Modulus (GPa) = 13.49914 31.13539 22.31726
#
# Velocity S-wave (km/s) = 2.50672 3.80698 3.22310
# Velocity P-wave (km/s) = 4.48560 6.45736 5.55959
#
# Compressibility (1/GPa) = 0.03964157
#
# Stress axis : x y z
#
# Youngs Moduli (GPa) = 73.41000 21.53351 71.04206
#
# Poissons Ratio (x) = 0.16900 0.15917
# Poissons Ratio (y) = 0.57612 0.50862
# Poissons Ratio (z) = 0.16448 0.15417
#
# Static dielectric constant tensor:
#      x y z
#    x 4.157820 -0.014440 -0.005090 
#    y -0.014440 3.703270 0.120950 
#    z -0.005090 0.120950 4.090380 
# 
# 
# High freq. dielectric constant tensor:
#      x y z
#    x 1.854530 0.005670 -0.017220 
#    y 0.005670 1.809340 0.024170 
#    z -0.017220 0.024170 1.839480 
# 
# From -- ./inp_files/428931.got.cif
#   From: 2010.06.25/outbox.cif.g09.slc.cpg/sg2_215_cif.got.tgz:428931.got - 2010.06.27 13:26:56.
