data_PCOD8038498
_publ_section_title
;
Structure prediction by ZEFSAII (Michael W. Deem and Ramdas Pophale) SiO2 
 PCOD8038498
Probable space group: P -1
;
_chemical_formula_sum "Si O2"
_cell_formula_units_Z 14
_cell_length_a 12.111174
_cell_length_b 7.974317
_cell_length_c 7.361493
_cell_angle_alpha 121.685510
_cell_angle_beta 87.129293
_cell_angle_gamma 105.721235
_cell_volume 578.651859
_symmetry_space_group_name_H-M "P -1"
_symmetry_group_IT_number 2
_symmetry_cell_setting 'triclinic'
loop_
_space_group_symop_operation_xyz
x,y,z
-x,-y,-z
loop_
_atom_site_type_symbol
_atom_site_label
_atom_site_fract_x
_atom_site_fract_y
_atom_site_fract_z
Si Si1 0.731623 0.555568 0.242263
Si Si2 0.121693 0.814003 0.605870
Si Si3 0.713649 0.848745 0.711774
Si Si4 0.432005 0.872728 0.097772
Si Si5 0.334502 0.152966 0.862786
Si Si6 0.024658 0.923676 0.152381
Si Si7 0.031027 0.523613 0.787982
O O1 0.690044 0.638281 0.479984
O O2 0.660349 0.320703 0.091205
O O3 0.706961 0.677639 0.141737
O O4 0.866948 0.578134 0.246668
O O5 0.071206 0.692540 0.722426
O O6 0.088368 0.650602 0.350659
O O7 0.258632 0.922275 0.678097
O O8 0.062642 0.996430 0.668875
O O9 0.845445 0.973240 0.739334
O O10 0.684707 0.803699 0.899630
O O11 0.636208 0.987299 0.712881
O O12 0.530762 0.819072 0.181600
O O13 0.500000 0.000000 0.000000
O O14 0.002415 0.671795 0.033884
O O15 0.000000 0.000000 0.000000
#
# Coordination Sequence:
#
# PCOD8038498 Si02
#       7
#     2   2   2   2   2   2   2
#     4  12  24  41  68  97 126 167 213 262 324 370
#     4  10  20  37  64  92 126 171 212 252 319 377
#     4  11  22  43  69  90 128 172 212 259 316 377
#     4  10  23  46  68  91 128 170 214 260 315 379
#     4  11  24  42  64  97 132 163 211 271 310 376
#     4  10  17  36  65  90 123 170 210 256 310 370
#     4  10  19  35  65  90 124 171 205 256 315 373
#
# _framework density 24.194168999999999
#
# number of rings (size 3 to 8) (size 9 to 14) (size 15 to 20)
#    0.000    1.429    5.714    1.286    0.000    3.429 
#    0.000    7.857    0.000    0.000    0.000    0.000 
#    0.000    0.000    0.000    0.000    0.000    0.000 
#
# Total GULP energy -173543.035322 kJ/mol
# GULP energy per Si atom -12395.931094 kJ/mol
# Density = 2.413910 g / cm^3
# Si number density = 24.194169 Si / 1000 Ang^3
#
#
#
# Elastic Constant Matrix: (Units=GPa)
#
#
# Indices 1 2 3 4 5 6 
#
# 1 115.6085 15.2597 44.5012 1.4784 2.2099 -25.5017
# 2 15.2597 73.2732 28.4026 9.7649 -4.3451 -23.8850
# 3 44.5012 28.4026 109.2313 14.4693 -0.0273 -8.1149
# 4 1.4784 9.7649 14.4693 34.5296 -3.7471 -0.1888
# 5 2.2099 -4.3451 -0.0273 -3.7471 29.0362 9.9543
# 6 -25.5017 -23.8850 -8.1149 -0.1888 9.9543 45.2845
#
#
#
# Elastic Compliance Matrix: (Units=1/GPa)
#
#
# Indices 1 2 3 4 5 6 
#
# 1 0.011984 0.001482 -0.004827 0.000793 -0.003113 0.007353
# 2 0.001482 0.018721 -0.004226 -0.003671 -0.001293 0.010221
# 3 -0.004827 -0.004226 0.012524 -0.003840 0.000198 -0.002763
# 4 0.000793 -0.003671 -0.003840 0.032053 0.004568 -0.003048
# 5 -0.003113 -0.001293 0.000198 0.004568 0.038814 -0.010913
# 6 0.007353 0.010221 -0.002763 -0.003048 -0.010913 0.033505
#
#
# Mechanical properties :
#
#
# Convention : Reuss Voigt Hill
#
# Bulk Modulus (GPa) = 35.60531 52.71555 44.16043
# Shear Modulus (GPa) = 29.05187 35.76671 32.40929
#
# Velocity S-wave (km/s) = 3.46899 3.84906 3.66396
# Velocity P-wave (km/s) = 5.54920 6.44900 6.01594
#
# Compressibility (1/GPa) = 0.02808570
#
# Stress axis : x y z
#
# Youngs Moduli (GPa) = 83.44690 53.41483 79.84771
#
# Poissons Ratio (x) = -0.07916 0.38543
# Poissons Ratio (y) = -0.12366 0.33747
# Poissons Ratio (z) = 0.40281 0.22576
#
# Static dielectric constant tensor:
#      x y z
#    x 7.069010 -0.703820 0.276400 
#    y -0.703820 4.802980 0.543680 
#    z 0.276400 0.543680 5.020300 
# 
# 
# High freq. dielectric constant tensor:
#      x y z
#    x 1.963210 -0.016410 0.006130 
#    y -0.016410 1.972870 0.010230 
#    z 0.006130 0.010230 1.959710 
# 
# From -- ./inp_files/242015.got.cif
#   From: 2010.06.25/outbox.cif.g09.slc.cpg/sg2_122_cif.got.tgz:242015.got - 2010.06.27 13:26:56.
