data_PCOD8038152
_publ_section_title
;
Structure prediction by ZEFSAII (Michael W. Deem and Ramdas Pophale) SiO2 
 PCOD8038152
Probable space group: P -1
;
_chemical_formula_sum "Si O2"
_cell_formula_units_Z 14
_cell_length_a 14.287611
_cell_length_b 7.322792
_cell_length_c 12.378324
_cell_angle_alpha 98.974524
_cell_angle_beta 128.658208
_cell_angle_gamma 47.980183
_cell_volume 670.232846
_symmetry_space_group_name_H-M "P -1"
_symmetry_group_IT_number 2
_symmetry_cell_setting 'triclinic'
loop_
_space_group_symop_operation_xyz
x,y,z
-x,-y,-z
loop_
_atom_site_type_symbol
_atom_site_label
_atom_site_fract_x
_atom_site_fract_y
_atom_site_fract_z
Si Si1 0.595590 0.778002 0.851697
Si Si2 0.314422 0.810628 0.712509
Si Si3 0.904786 0.403679 0.196270
Si Si4 0.460179 0.241099 0.436973
Si Si5 0.022019 0.596841 0.419380
Si Si6 0.667705 0.607704 0.253347
Si Si7 0.752736 0.187643 0.583374
O O1 0.471571 0.779721 0.830153
O O2 0.602952 0.719274 0.726571
O O3 0.516880 0.071527 0.840764
O O4 0.796371 0.540520 0.019392
O O5 0.386691 0.543649 0.796131
O O6 0.255889 0.847174 0.551542
O O7 0.140653 0.073549 0.678313
O O8 0.767429 0.540220 0.208456
O O9 0.020620 0.460425 0.302852
O O10 0.041641 0.075667 0.256086
O O11 0.301466 0.537331 0.408493
O O12 0.632247 0.178131 0.561480
O O13 0.500000 0.000000 0.500000
O O14 0.210598 0.485966 0.560969
O O15 0.000000 0.500000 0.500000
#
# Coordination Sequence:
#
# PCOD8038152 Si02
#       7
#     2   2   2   2   2   2   2
#     4  11  23  40  57  84 128 154 188 242 293 343
#     4  11  20  36  60  88 115 158 199 234 278 343
#     4  11  22  38  57  90 126 157 181 237 298 344
#     4  10  22  43  65  82 105 151 203 247 292 336
#     4  10  17  34  56  82 120 152 194 230 276 336
#     4  11  21  36  60  87 123 159 198 225 280 353
#     4  10  21  39  62  86 112 146 201 248 280 339
#
# _framework density 20.888262000000001
#
# number of rings (size 3 to 8) (size 9 to 14) (size 15 to 20)
#    0.000    1.429    5.714    2.571    0.000    1.143 
#    0.000    0.714    0.000    0.000    0.000    0.000 
#    0.000    0.000    0.000    0.000    0.000    0.000 
#
# Total GULP energy -173601.861053 kJ/mol
# GULP energy per Si atom -12400.132932 kJ/mol
# Density = 2.084072 g / cm^3
# Si number density = 20.888262 Si / 1000 Ang^3
#
#
#
# Elastic Constant Matrix: (Units=GPa)
#
#
# Indices 1 2 3 4 5 6 
#
# 1 43.9425 16.1250 7.7764 3.2323 -4.6625 27.3178
# 2 16.1250 149.8034 40.4319 -20.2309 -3.4529 22.6417
# 3 7.7764 40.4319 108.2516 -11.7279 -5.1232 5.7132
# 4 3.2323 -20.2309 -11.7279 22.4484 -2.0637 -1.4747
# 5 -4.6625 -3.4529 -5.1232 -2.0637 6.8426 0.5944
# 6 27.3178 22.6417 5.7132 -1.4747 0.5944 38.7875
#
#
#
# Elastic Compliance Matrix: (Units=1/GPa)
#
#
# Indices 1 2 3 4 5 6 
#
# 1 0.048660 0.000179 -0.000820 -0.006474 0.033723 -0.035018
# 2 0.000179 0.009079 -0.002083 0.007274 0.005766 -0.004931
# 3 -0.000820 -0.002083 0.010951 0.004712 0.007990 0.000237
# 4 -0.006474 0.007274 0.004712 0.056401 0.019671 0.001462
# 5 0.033723 0.005766 0.007990 0.019671 0.186588 -0.030405
# 6 -0.035018 -0.004931 0.000237 0.001462 -0.030405 0.053809
#
#
# Mechanical properties :
#
#
# Convention : Reuss Voigt Hill
#
# Bulk Modulus (GPa) = 15.81195 47.85156 31.83175
# Shear Modulus (GPa) = 12.75461 29.45998 21.10730
#
# Velocity S-wave (km/s) = 2.47374 3.75955 3.18226
# Velocity P-wave (km/s) = 3.96804 6.46558 5.36419
#
# Compressibility (1/GPa) = 0.06324330
#
# Stress axis : x y z
#
# Youngs Moduli (GPa) = 20.55072 110.14707 91.31882
#
# Poissons Ratio (x) = -0.01973 0.07485
# Poissons Ratio (y) = -0.00368 0.19018
# Poissons Ratio (z) = 0.01684 0.22939
#
# Static dielectric constant tensor:
#      x y z
#    x 3.752230 0.186880 0.280690 
#    y 0.186880 4.028690 0.022940 
#    z 0.280690 0.022940 3.908090 
# 
# 
# High freq. dielectric constant tensor:
#      x y z
#    x 1.795500 0.017380 0.002240 
#    y 0.017380 1.830240 -0.004640 
#    z 0.002240 -0.004640 1.799790 
# 
# From -- ./inp_files/419458.got.cif
#   From: 2010.06.25/outbox.cif.g09.slc.cpg/sg2_210_cif.got.tgz:419458.got - 2010.06.27 13:26:56.
