data_PCOD8038379
_publ_section_title
;
Structure prediction by ZEFSAII (Michael W. Deem and Ramdas Pophale) SiO2 
 PCOD8038379
Probable space group: P -1
;
_chemical_formula_sum "Si O2"
_cell_formula_units_Z 16
_cell_length_a 9.207130
_cell_length_b 15.943391
_cell_length_c 9.892323
_cell_angle_alpha 81.434629
_cell_angle_beta 74.051591
_cell_angle_gamma 33.514147
_cell_volume 762.081215
_symmetry_space_group_name_H-M "P -1"
_symmetry_group_IT_number 2
_symmetry_cell_setting 'triclinic'
loop_
_space_group_symop_operation_xyz
x,y,z
-x,-y,-z
loop_
_atom_site_type_symbol
_atom_site_label
_atom_site_fract_x
_atom_site_fract_y
_atom_site_fract_z
Si Si1 0.021485 0.209684 0.747560
Si Si2 0.745092 0.099604 0.940638
Si Si3 0.527461 0.618128 0.197083
Si Si4 0.859338 0.691462 0.486595
Si Si5 0.223177 0.635987 0.956861
Si Si6 0.202841 0.813752 0.745745
Si Si7 0.608349 0.640195 0.468453
Si Si8 0.446210 0.869974 0.766355
O O1 0.721794 0.331358 0.733917
O O2 0.163685 0.214067 0.619562
O O3 0.015772 0.243120 0.898613
O O4 0.196366 0.042084 0.730371
O O5 0.571411 0.263124 0.909006
O O6 0.547460 0.128347 0.070432
O O7 0.882056 0.992572 0.797758
O O8 0.000000 0.000000 0.000000
O O9 0.789991 0.444836 0.108777
O O10 0.619194 0.614462 0.314895
O O11 0.680979 0.704908 0.450140
O O12 0.727563 0.769732 0.650247
O O13 0.172863 0.517840 0.466140
O O14 0.233622 0.710808 0.837590
O O15 0.500000 0.500000 0.000000
O O16 0.305986 0.758408 0.577020
O O17 0.404821 0.789709 0.763244
#
# Coordination Sequence:
#
# PCOD8038379 Si02
#       8
#     2   2   2   2   2   2   2   2
#     4  11  19  36  62  92 116 153 204 249 295 352
#     4  10  17  35  60  90 117 151 194 249 300 345
#     4  11  22  36  64  95 117 147 207 258 294 336
#     4  10  23  39  59  83 126 168 193 232 303 369
#     4  10  19  31  57  92 119 146 191 251 297 342
#     4  10  18  34  58  83 122 151 192 247 297 338
#     4  10  23  41  57  86 123 163 199 240 297 361
#     4  10  18  36  61  85 117 161 201 231 298 368
#
# _framework density 20.995135999999999
#
# number of rings (size 3 to 8) (size 9 to 14) (size 15 to 20)
#    0.000    1.750    3.750    4.125    0.000    4.500 
#    0.000    2.500    2.750    1.500    0.000    0.000 
#    0.000    0.000    0.000    0.000    0.000    0.000 
#
# Total GULP energy -198275.431813 kJ/mol
# GULP energy per Si atom -12392.214488 kJ/mol
# Density = 2.094735 g / cm^3
# Si number density = 20.995136 Si / 1000 Ang^3
#
#
#
# Elastic Constant Matrix: (Units=GPa)
#
#
# Indices 1 2 3 4 5 6 
#
# 1 48.8393 31.5954 53.7192 -4.8129 -11.1240 12.8910
# 2 31.5954 98.5273 37.3563 4.0206 -8.6796 31.8060
# 3 53.7192 37.3563 141.9573 11.3783 -18.8777 11.9675
# 4 -4.8129 4.0206 11.3783 39.5185 4.3965 -9.9571
# 5 -11.1240 -8.6796 -18.8777 4.3965 34.9390 -5.1278
# 6 12.8910 31.8060 11.9675 -9.9571 -5.1278 21.4660
#
#
#
# Elastic Compliance Matrix: (Units=1/GPa)
#
#
# Indices 1 2 3 4 5 6 
#
# 1 0.044017 -0.008730 -0.014859 0.010286 0.002547 0.000165
# 2 -0.008730 0.026476 0.000979 -0.014432 0.000096 -0.041205
# 3 -0.014859 0.000979 0.013613 -0.006828 0.003363 -0.002481
# 4 0.010286 -0.014432 -0.006828 0.039595 -0.003623 0.036514
# 5 0.002547 0.000096 0.003363 -0.003623 0.032087 0.002438
# 6 0.000165 -0.041205 -0.002481 0.036514 0.002438 0.126442
#
#
# Mechanical properties :
#
#
# Convention : Reuss Voigt Hill
#
# Bulk Modulus (GPa) = 25.71547 59.40730 42.56139
# Shear Modulus (GPa) = 14.68810 30.29489 22.49149
#
# Velocity S-wave (km/s) = 2.64786 3.80274 3.27658
# Velocity P-wave (km/s) = 4.65006 6.90205 5.88478
#
# Compressibility (1/GPa) = 0.03888709
#
# Stress axis : x y z
#
# Youngs Moduli (GPa) = 22.71848 37.76947 73.45780
#
# Poissons Ratio (x) = 0.32973 1.09152
# Poissons Ratio (y) = 0.19834 -0.07195
# Poissons Ratio (z) = 0.33758 -0.03699
#
# Static dielectric constant tensor:
#      x y z
#    x 3.418530 0.312330 -0.161060 
#    y 0.312330 4.201460 0.664840 
#    z -0.161060 0.664840 4.611670 
# 
# 
# High freq. dielectric constant tensor:
#      x y z
#    x 1.767360 0.030180 -0.022750 
#    y 0.030180 1.829090 0.018410 
#    z -0.022750 0.018410 1.838000 
# 
# From -- ./inp_files/207324.got.cif
#   From: 2010.06.25/outbox.cif.g09.slc.cpg/sg2_104_cif.got.tgz:207324.got - 2010.06.27 13:26:56.
