data_PCOD8038009
_publ_section_title
;
Structure prediction by ZEFSAII (Michael W. Deem and Ramdas Pophale) SiO2 
 PCOD8038009
Probable space group: P -1
;
_chemical_formula_sum "Si O2"
_cell_formula_units_Z 16
_cell_length_a 10.090534
_cell_length_b 15.310565
_cell_length_c 16.048699
_cell_angle_alpha 34.141112
_cell_angle_beta 37.361349
_cell_angle_gamma 53.511426
_cell_volume 829.770780
_symmetry_space_group_name_H-M "P -1"
_symmetry_group_IT_number 2
_symmetry_cell_setting 'triclinic'
loop_
_space_group_symop_operation_xyz
x,y,z
-x,-y,-z
loop_
_atom_site_type_symbol
_atom_site_label
_atom_site_fract_x
_atom_site_fract_y
_atom_site_fract_z
Si Si1 0.811656 0.664247 0.858802
Si Si2 0.917822 0.313870 0.686758
Si Si3 0.076539 0.853686 0.441485
Si Si4 0.320740 0.654868 0.062390
Si Si5 0.744139 0.309383 0.122533
Si Si6 0.742084 0.715554 0.582770
Si Si7 0.138537 0.209478 0.090429
Si Si8 0.570496 0.187310 0.820191
O O1 0.842371 0.666234 0.941457
O O2 0.009862 0.787687 0.618681
O O3 0.577445 0.710150 0.914852
O O4 0.835868 0.492142 0.951122
O O5 0.835543 0.264851 0.860200
O O6 0.709563 0.255364 0.777610
O O7 0.000000 0.500000 0.500000
O O8 0.127204 0.241659 0.604296
O O9 0.275169 0.767517 0.374584
O O10 0.865762 0.821940 0.510374
O O11 0.153931 0.042305 0.257593
O O12 0.262746 0.465079 0.244436
O O13 0.277765 0.718309 0.943138
O O14 0.505271 0.250928 0.331588
O O15 0.911318 0.203386 0.158568
O O16 0.343331 0.258391 0.883582
O O17 0.500000 0.000000 0.000000
#
# Coordination Sequence:
#
# PCOD8038009 Si02
#       8
#     2   2   2   2   2   2   2   2
#     4  11  19  37  55  81 105 146 188 221 260 330
#     4   9  17  30  58  83  99 139 203 228 246 319
#     4  10  19  36  60  76 105 145 193 215 258 333
#     4  10  17  33  58  78 106 142 188 221 264 325
#     4  11  21  35  54  83 117 138 171 234 289 310
#     4   9  17  33  55  81 104 143 184 223 261 323
#     4  11  23  35  54  83 113 145 174 225 284 328
#     4   9  19  36  55  79 111 146 183 221 279 329
#
# _framework density 19.282433999999999
#
# number of rings (size 3 to 8) (size 9 to 14) (size 15 to 20)
#    0.000    2.000    3.750    1.500    0.000    0.500 
#    0.000    1.875    0.000    6.750    0.000    0.000 
#    0.000    0.000    0.000    0.000    0.000    0.000 
#
# Total GULP energy -198290.681732 kJ/mol
# GULP energy per Si atom -12393.167608 kJ/mol
# Density = 1.923855 g / cm^3
# Si number density = 19.282434 Si / 1000 Ang^3
#
#
#
# Elastic Constant Matrix: (Units=GPa)
#
#
# Indices 1 2 3 4 5 6 
#
# 1 77.1046 35.4747 19.0650 21.9305 -8.7421 3.1397
# 2 35.4747 70.7584 33.9840 36.2385 1.3881 2.7123
# 3 19.0650 33.9840 79.4316 31.2742 -8.9210 -3.8192
# 4 21.9305 36.2385 31.2742 43.1719 6.9005 -7.2131
# 5 -8.7421 1.3881 -8.9210 6.9005 28.0561 3.0536
# 6 3.1397 2.7123 -3.8192 -7.2131 3.0536 28.2062
#
#
#
# Elastic Compliance Matrix: (Units=1/GPa)
#
#
# Indices 1 2 3 4 5 6 
#
# 1 0.018899 -0.006483 0.002218 -0.007963 0.009333 -0.004227
# 2 -0.006483 0.030100 -0.003130 -0.021343 0.001641 -0.008232
# 3 0.002218 -0.003130 0.020828 -0.015854 0.011634 -0.002439
# 4 -0.007963 -0.021343 -0.015854 0.063791 -0.024304 0.019736
# 5 0.009333 0.001641 0.011634 -0.024304 0.049364 -0.011181
# 6 -0.004227 -0.008232 -0.002439 0.019736 -0.011181 0.042643
#
#
# Mechanical properties :
#
#
# Convention : Reuss Voigt Hill
#
# Bulk Modulus (GPa) = 18.16979 44.92687 31.54833
# Shear Modulus (GPa) = 19.32288 29.13822 24.23055
#
# Velocity S-wave (km/s) = 3.16903 3.89154 3.54872
# Velocity P-wave (km/s) = 4.77847 6.59864 5.76089
#
# Compressibility (1/GPa) = 0.05503641
#
# Stress axis : x y z
#
# Youngs Moduli (GPa) = 52.91281 33.22218 48.01267
#
# Poissons Ratio (x) = 0.21538 -0.10649
# Poissons Ratio (y) = 0.34303 0.15030
# Poissons Ratio (z) = -0.11736 0.10400
#
# Static dielectric constant tensor:
#      x y z
#    x 3.210660 0.285610 -0.219130 
#    y 0.285610 3.736440 0.520250 
#    z -0.219130 0.520250 3.851000 
# 
# 
# High freq. dielectric constant tensor:
#      x y z
#    x 1.715610 0.034240 -0.028300 
#    y 0.034240 1.749230 0.028470 
#    z -0.028300 0.028470 1.756490 
# 
# From -- ./inp_files/185077.got.cif
#   From: 2010.06.25/outbox.cif.g09.slc.cpg/sg2_93_cif.got.tgz:185077.got - 2010.06.27 13:26:56.
