data_PCOD8038982
_publ_section_title
;
Structure prediction by ZEFSAII (Michael W. Deem and Ramdas Pophale) SiO2 
 PCOD8038982
Probable space group: P -1
;
_chemical_formula_sum "Si O2"
_cell_formula_units_Z 14
_cell_length_a 12.538613
_cell_length_b 14.860136
_cell_length_c 19.713732
_cell_angle_alpha 36.722954
_cell_angle_beta 35.119013
_cell_angle_gamma 19.446923
_cell_volume 694.693222
_symmetry_space_group_name_H-M "P -1"
_symmetry_group_IT_number 2
_symmetry_cell_setting 'triclinic'
loop_
_space_group_symop_operation_xyz
x,y,z
-x,-y,-z
loop_
_atom_site_type_symbol
_atom_site_label
_atom_site_fract_x
_atom_site_fract_y
_atom_site_fract_z
Si Si1 0.480851 0.607905 0.875373
Si Si2 0.330898 0.159890 0.181773
Si Si3 0.842993 0.952877 0.140045
Si Si4 0.918179 0.200582 0.161892
Si Si5 0.509242 0.385747 0.749142
Si Si6 0.789497 0.291182 0.420753
Si Si7 0.754214 0.743639 0.090280
O O1 0.202246 0.734554 0.892013
O O2 0.852194 0.353866 0.802685
O O3 0.396967 0.837791 0.799150
O O4 0.500000 0.500000 0.000000
O O5 0.059818 0.242305 0.313320
O O6 0.138834 0.448616 0.093984
O O7 0.653713 0.980446 0.166932
O O8 0.474191 0.969737 0.157088
O O9 0.000000 0.000000 0.000000
O O10 0.608327 0.457970 0.214483
O O11 0.093368 0.926742 0.262601
O O12 0.207967 0.135289 0.051081
O O13 0.415130 0.567543 0.629277
O O14 0.321253 0.356505 0.851129
O O15 0.500000 0.500000 0.500000
O O16 0.000000 0.000000 0.500000
#
# Coordination Sequence:
#
# PCOD8038982 Si02
#       7
#     2   2   2   2   2   2   2
#     4  10  20  32  50  76 112 155 192 219 257 322
#     4  11  21  35  59  87 116 155 192 234 290 340
#     4  10  18  32  50  80 115 147 185 228 269 331
#     4  12  21  35  54  83 123 162 185 225 282 350
#     4  11  23  36  55  84 113 152 197 233 291 354
#     4  11  23  42  62  84 111 146 198 256 292 334
#     4  11  20  34  52  82 123 157 183 219 276 365
#
# _framework density 20.15278
#
# number of rings (size 3 to 8) (size 9 to 14) (size 15 to 20)
#    0.000    1.143    0.000   11.143    0.000    0.000 
#    0.000    0.000    0.000    0.000    0.000   20.000 
#    0.000    0.000    0.000    0.000    0.000    0.000 
#
# Total GULP energy -173477.841152 kJ/mol
# GULP energy per Si atom -12391.274368 kJ/mol
# Density = 2.010691 g / cm^3
# Si number density = 20.152780 Si / 1000 Ang^3
#
#
#
# Elastic Constant Matrix: (Units=GPa)
#
#
# Indices 1 2 3 4 5 6 
#
# 1 89.7723 35.5051 21.8280 -4.4679 17.1072 11.3853
# 2 35.5051 171.6129 34.0653 -14.3395 8.6604 29.3943
# 3 21.8280 34.0653 67.7456 -12.0951 11.5466 4.1894
# 4 -4.4679 -14.3395 -12.0951 34.7586 -2.8575 3.6497
# 5 17.1072 8.6604 11.5466 -2.8575 21.2040 1.6394
# 6 11.3853 29.3943 4.1894 3.6497 1.6394 41.6904
#
#
#
# Elastic Compliance Matrix: (Units=1/GPa)
#
#
# Indices 1 2 3 4 5 6 
#
# 1 0.014426 -0.001746 -0.002014 -0.000141 -0.009685 -0.002113
# 2 -0.001746 0.007762 -0.002635 0.002617 0.000411 -0.004976
# 3 -0.002014 -0.002635 0.018699 0.004551 -0.006899 0.000402
# 4 -0.000141 0.002617 0.004551 0.032058 0.001283 -0.005121
# 5 -0.009685 0.000411 -0.006899 0.001283 0.058688 0.000628
# 6 -0.002113 -0.004976 0.000402 -0.005121 0.000628 0.028455
#
#
# Mechanical properties :
#
#
# Convention : Reuss Voigt Hill
#
# Bulk Modulus (GPa) = 35.59287 56.88085 46.23686
# Shear Modulus (GPa) = 27.43584 35.37941 31.40763
#
# Velocity S-wave (km/s) = 3.69371 4.19449 3.95204
# Velocity P-wave (km/s) = 5.99092 7.19336 6.61950
#
# Compressibility (1/GPa) = 0.02809551
#
# Stress axis : x y z
#
# Youngs Moduli (GPa) = 69.31919 128.83864 53.47932
#
# Poissons Ratio (x) = 0.22494 0.10771
# Poissons Ratio (y) = 0.12103 0.14094
# Poissons Ratio (z) = 0.13961 0.33955
#
# Static dielectric constant tensor:
#      x y z
#    x 3.485550 -0.194970 0.137440 
#    y -0.194970 3.187580 -0.327730 
#    z 0.137440 -0.327730 3.377500 
# 
# 
# High freq. dielectric constant tensor:
#      x y z
#    x 1.782590 0.010380 0.014730 
#    y 0.010380 1.833510 -0.013840 
#    z 0.014730 -0.013840 1.722100 
# 
# From -- ./inp_files/364242.got.cif
#   From: 2010.06.25/outbox.cif.g09.slc.cpg/sg2_183_cif.got.tgz:364242.got - 2010.06.27 13:26:56.
