data_PCOD8038606
_publ_section_title
;
Structure prediction by ZEFSAII (Michael W. Deem and Ramdas Pophale) SiO2 
 PCOD8038606
Probable space group: P -1
;
_chemical_formula_sum "Si O2"
_cell_formula_units_Z 16
_cell_length_a 11.962036
_cell_length_b 9.147152
_cell_length_c 15.728875
_cell_angle_alpha 106.197036
_cell_angle_beta 27.600764
_cell_angle_gamma 103.872978
_cell_volume 765.611425
_symmetry_space_group_name_H-M "P -1"
_symmetry_group_IT_number 2
_symmetry_cell_setting 'triclinic'
loop_
_space_group_symop_operation_xyz
x,y,z
-x,-y,-z
loop_
_atom_site_type_symbol
_atom_site_label
_atom_site_fract_x
_atom_site_fract_y
_atom_site_fract_z
Si Si1 0.631116 0.601388 0.753585
Si Si2 0.576771 0.267309 0.803282
Si Si3 0.283159 0.326130 0.741820
Si Si4 0.274065 0.667624 0.866468
Si Si5 0.851263 0.703212 0.792422
Si Si6 0.370389 0.217874 0.484333
Si Si7 0.995754 0.372430 0.639783
Si Si8 0.333499 0.869379 0.451957
O O1 0.549487 0.434585 0.808323
O O2 0.411168 0.688825 0.867614
O O3 0.714239 0.700563 0.793781
O O4 0.856068 0.581954 0.536027
O O5 0.775275 0.266732 0.744146
O O6 0.657622 0.144672 0.658412
O O7 0.324306 0.217267 0.007015
O O8 0.319460 0.494706 0.778713
O O9 0.389685 0.315039 0.573243
O O10 0.426278 0.210090 0.686668
O O11 0.002081 0.283301 0.926913
O O12 0.386403 0.771654 0.733601
O O13 0.900329 0.532790 0.767355
O O14 0.096069 0.795241 0.638808
O O15 0.143913 0.281421 0.594935
O O16 0.327765 0.044508 0.510729
#
# Coordination Sequence:
#
# PCOD8038606 Si02
#       8
#     2   2   2   2   2   2   2   2
#     4  10  17  39  64  95 127 151 201 263 309 353
#     4  11  21  36  65  92 123 164 202 252 307 360
#     4  11  24  43  68  86 126 159 212 257 299 362
#     4  10  23  42  67  97 115 159 208 267 300 351
#     4  11  22  36  68  93 123 163 203 253 308 368
#     4  11  26  40  65  89 129 166 203 247 310 368
#     4  10  19  39  63  92 122 160 204 260 300 354
#     4  12  24  44  57  94 130 167 200 248 305 374
#
# _framework density 20.898330000000001
#
# number of rings (size 3 to 8) (size 9 to 14) (size 15 to 20)
#    0.000    1.250    3.750    3.750    3.500    3.000 
#    0.000    0.625    0.000    0.000    0.000    0.000 
#    0.000    0.000    0.000    0.000    0.000    0.000 
#
# Total GULP energy -198465.831758 kJ/mol
# GULP energy per Si atom -12404.114485 kJ/mol
# Density = 2.085076 g / cm^3
# Si number density = 20.898330 Si / 1000 Ang^3
#
#
#
# Elastic Constant Matrix: (Units=GPa)
#
#
# Indices 1 2 3 4 5 6 
#
# 1 63.1291 35.9487 19.7884 -5.0972 -14.0402 -8.4163
# 2 35.9487 60.9148 16.4525 1.1248 -9.5067 -5.3687
# 3 19.7884 16.4525 91.4900 -7.6822 -13.2523 8.2115
# 4 -5.0972 1.1248 -7.6822 9.7203 6.7731 -0.3235
# 5 -14.0402 -9.5067 -13.2523 6.7731 32.0666 -0.9332
# 6 -8.4163 -5.3687 8.2115 -0.3235 -0.9332 8.6371
#
#
#
# Elastic Compliance Matrix: (Units=1/GPa)
#
#
# Indices 1 2 3 4 5 6 
#
# 1 0.031176 -0.013906 -0.004932 0.010786 0.006011 0.027479
# 2 -0.013906 0.026895 -0.003074 -0.015460 0.004053 0.005948
# 3 -0.004932 -0.003074 0.015255 0.008562 0.000820 -0.020811
# 4 0.010786 -0.015460 0.008562 0.134217 -0.024814 -0.004893
# 5 0.006011 0.004053 0.000820 -0.024814 0.040921 0.011089
# 6 0.027479 0.005948 -0.020811 -0.004893 0.011089 0.167054
#
#
# Mechanical properties :
#
#
# Convention : Reuss Voigt Hill
#
# Bulk Modulus (GPa) = 33.89480 39.99037 36.94259
# Shear Modulus (GPa) = 10.65696 19.64108 15.14902
#
# Velocity S-wave (km/s) = 2.26064 3.06901 2.69530
# Velocity P-wave (km/s) = 4.80293 5.63344 5.23468
#
# Compressibility (1/GPa) = 0.02950305
#
# Stress axis : x y z
#
# Youngs Moduli (GPa) = 32.07553 37.18127 65.55119
#
# Poissons Ratio (x) = 0.51703 0.32333
# Poissons Ratio (y) = 0.44603 0.20149
# Poissons Ratio (z) = 0.15821 0.11429
#
# Static dielectric constant tensor:
#      x y z
#    x 3.969130 0.118500 -0.011140 
#    y 0.118500 3.433170 -0.056220 
#    z -0.011140 -0.056220 3.904550 
# 
# 
# High freq. dielectric constant tensor:
#      x y z
#    x 1.828690 0.004470 -0.002080 
#    y 0.004470 1.784910 -0.006890 
#    z -0.002080 -0.006890 1.830470 
# 
# From -- ./inp_files/272513.got.cif
#   From: 2010.06.25/outbox.cif.g09.slc.cpg/sg2_137_cif.got.tgz:272513.got - 2010.06.27 13:26:56.
