data_PCOD8038171
_publ_section_title
;
Structure prediction by ZEFSAII (Michael W. Deem and Ramdas Pophale) SiO2 
 PCOD8038171
Probable space group: P -1
;
_chemical_formula_sum "Si O2"
_cell_formula_units_Z 14
_cell_length_a 12.000000
_cell_length_b 15.000000
_cell_length_c 21.000000
_cell_angle_alpha 160.000000
_cell_angle_beta 150.000000
_cell_angle_gamma 30.000000
_cell_volume 615.533390
_symmetry_space_group_name_H-M "P -1"
_symmetry_group_IT_number 2
_symmetry_cell_setting 'triclinic'
loop_
_space_group_symop_operation_xyz
x,y,z
-x,-y,-z
loop_
_atom_site_type_symbol
_atom_site_label
_atom_site_fract_x
_atom_site_fract_y
_atom_site_fract_z
Si Si1 0.813315 0.605511 0.774852
Si Si2 0.075295 0.420352 0.412625
Si Si3 0.366675 0.475421 0.814552
Si Si4 0.445969 0.175691 0.956093
Si Si5 0.230191 0.806214 0.096437
Si Si6 0.979395 0.012476 0.422830
Si Si7 0.412283 0.536421 0.304774
O O1 0.879672 0.343010 0.581905
O O2 0.697243 0.549883 0.744693
O O3 0.633655 0.876545 0.837241
O O4 0.055276 0.666874 0.950937
O O5 0.324279 0.462673 0.548046
O O6 0.000000 0.500000 0.500000
O O7 0.868299 0.579698 0.367245
O O8 0.090472 0.106564 0.206022
O O9 0.562829 0.200830 0.754350
O O10 0.486582 0.607917 0.909379
O O11 0.321629 0.665335 0.980898
O O12 0.194922 0.147090 0.795282
O O13 0.428992 0.302266 0.103473
O O14 0.000000 0.000000 0.500000
O O15 0.236588 0.844306 0.406948
#
# Coordination Sequence:
#
# PCOD8038171 Si02
#       7
#     2   2   2   2   2   2   2
#     4  11  24  45  71 108 138 186 242 291 354 430
#     4  12  25  48  70 108 145 187 239 295 358 430
#     4  11  25  44  74 100 143 190 238 293 355 421
#     4  12  23  46  71 102 142 191 235 296 356 424
#     4  11  26  45  73 103 144 185 241 291 360 420
#     4  10  24  40  68 102 139 177 237 289 351 420
#     4  11  25  45  71 103 145 184 237 295 360 425
#
# _framework density 22.744501
#
# number of rings (size 3 to 8) (size 9 to 14) (size 15 to 20)
#    0.000    0.857    2.857    3.429    8.000    1.714 
#    0.000    0.000    0.000    0.000    0.000    0.000 
#    0.000    0.000    0.000    0.000    0.000    0.000 
#
# Total GULP energy -173491.974340 kJ/mol
# GULP energy per Si atom -12392.283881 kJ/mol
# Density = 2.269273 g / cm^3
# Si number density = 22.744501 Si / 1000 Ang^3
#
#
#
# Elastic Constant Matrix: (Units=GPa)
#
#
# Indices 1 2 3 4 5 6 
#
# 1 82.8761 10.2590 18.6390 -18.3398 6.4188 -9.5510
# 2 10.2590 113.5217 29.3390 -31.5400 -10.8090 -16.4261
# 3 18.6390 29.3390 110.4806 -32.2026 1.6403 -10.9995
# 4 -18.3398 -31.5400 -32.2026 53.7466 -7.8040 1.0979
# 5 6.4188 -10.8090 1.6403 -7.8040 34.8331 -6.3775
# 6 -9.5510 -16.4261 -10.9995 1.0979 -6.3775 37.2263
#
#
#
# Elastic Compliance Matrix: (Units=1/GPa)
#
#
# Indices 1 2 3 4 5 6 
#
# 1 0.013565 0.000586 -0.000863 0.004284 -0.000725 0.003233
# 2 0.000586 0.012807 -0.000537 0.008269 0.006950 0.006590
# 3 -0.000863 -0.000537 0.011488 0.006421 0.001438 0.002993
# 4 0.004284 0.008269 0.006421 0.030003 0.009550 0.007396
# 5 -0.000725 0.006950 0.001438 0.009550 0.034713 0.008971
# 6 0.003233 0.006590 0.002993 0.007396 0.008971 0.032803
#
#
# Mechanical properties :
#
#
# Convention : Reuss Voigt Hill
#
# Bulk Modulus (GPa) = 27.59925 47.03916 37.31921
# Shear Modulus (GPa) = 33.53836 41.73727 37.63782
#
# Velocity S-wave (km/s) = 3.84418 4.28839 4.07235
# Velocity P-wave (km/s) = 5.64486 6.72658 6.20932
#
# Compressibility (1/GPa) = 0.03623287
#
# Stress axis : x y z
#
# Youngs Moduli (GPa) = 73.72163 78.08064 87.04917
#
# Poissons Ratio (x) = -0.04578 0.07509
# Poissons Ratio (y) = -0.04322 0.04675
# Poissons Ratio (z) = 0.06360 0.04193
#
# Static dielectric constant tensor:
#      x y z
#    x 4.122800 -0.350040 -0.079930 
#    y -0.350040 5.329620 0.288030 
#    z -0.079930 0.288030 4.497030 
# 
# 
# High freq. dielectric constant tensor:
#      x y z
#    x 1.904280 -0.019090 -0.000490 
#    y -0.019090 1.927150 -0.004540 
#    z -0.000490 -0.004540 1.902370 
# 
# From -- ./inp_files/243460.got.cif
#   From: 2010.06.25/outbox.ucp.g09.slc.cvg/sg2_122_cif.got.tgz:243460.got - 2010.06.28 11:54:26.
