data_PCOD8038315
_publ_section_title
;
Structure prediction by ZEFSAII (Michael W. Deem and Ramdas Pophale) SiO2 
 PCOD8038315
Probable space group: P -1
;
_chemical_formula_sum "Si O2"
_cell_formula_units_Z 14
_cell_length_a 9.000000
_cell_length_b 9.000000
_cell_length_c 24.000000
_cell_angle_alpha 140.000000
_cell_angle_beta 150.000000
_cell_angle_gamma 50.000000
_cell_volume 623.501542
_symmetry_space_group_name_H-M "P -1"
_symmetry_group_IT_number 2
_symmetry_cell_setting 'triclinic'
loop_
_space_group_symop_operation_xyz
x,y,z
-x,-y,-z
loop_
_atom_site_type_symbol
_atom_site_label
_atom_site_fract_x
_atom_site_fract_y
_atom_site_fract_z
Si Si1 0.198615 0.006505 0.936887
Si Si2 0.786861 0.720192 0.429460
Si Si3 0.782215 0.047900 0.715902
Si Si4 0.091767 0.075289 0.715174
Si Si5 0.673739 0.528749 0.508313
Si Si6 0.404003 0.244159 0.182729
Si Si7 0.080186 0.440811 0.228394
O O1 0.093263 0.741431 0.839980
O O2 0.944423 0.106345 0.843730
O O3 0.500000 0.000000 0.000000
O O4 0.258587 0.179854 0.057524
O O5 0.554915 0.871715 0.363745
O O6 0.634509 0.469517 0.322589
O O7 0.082817 0.665955 0.474933
O O8 0.881888 0.874668 0.558846
O O9 0.950472 0.172809 0.754507
O O10 0.824415 0.785755 0.633739
O O11 0.102124 0.324941 0.758642
O O12 0.418257 0.976867 0.801263
O O13 0.500000 0.500000 0.500000
O O14 0.428659 0.499138 0.372149
O O15 0.114208 0.302082 0.141355
#
# Coordination Sequence:
#
# PCOD8038315 Si02
#       7
#     2   2   2   2   2   2   2
#     4  12  27  51  72  99 151 196 237 293 357 427
#     4  12  24  43  78 109 144 185 234 297 366 422
#     4  12  24  45  74 109 144 187 236 295 363 423
#     4  12  23  44  77 110 137 184 241 298 356 421
#     4  12  24  44  71 109 149 181 235 303 361 420
#     4  12  25  46  74 105 146 194 236 287 358 430
#     4  12  26  47  74 107 142 186 245 298 350 429
#
# _framework density 22.453834000000001
#
# number of rings (size 3 to 8) (size 9 to 14) (size 15 to 20)
#    0.000    0.000    8.571    2.143    0.000    1.714 
#    2.571    0.000    0.000    0.000    0.000    0.000 
#    0.000    0.000    0.000    0.000    0.000    0.000 
#
# Total GULP energy -173510.211109 kJ/mol
# GULP energy per Si atom -12393.586508 kJ/mol
# Density = 2.240273 g / cm^3
# Si number density = 22.453834 Si / 1000 Ang^3
#
#
#
# Elastic Constant Matrix: (Units=GPa)
#
#
# Indices 1 2 3 4 5 6 
#
# 1 96.1172 52.8431 39.9179 -9.4845 -10.5408 -15.3778
# 2 52.8431 163.9579 55.9003 -17.1785 -10.7976 -31.7941
# 3 39.9179 55.9003 119.5878 -16.3494 -20.9574 0.3446
# 4 -9.4845 -17.1785 -16.3494 39.8052 3.8411 2.3719
# 5 -10.5408 -10.7976 -20.9574 3.8411 38.1932 0.6973
# 6 -15.3778 -31.7941 0.3446 2.3719 0.6973 39.6200
#
#
#
# Elastic Compliance Matrix: (Units=1/GPa)
#
#
# Indices 1 2 3 4 5 6 
#
# 1 0.013854 -0.002638 -0.003101 0.000575 0.001259 0.003231
# 2 -0.002638 0.009551 -0.003400 0.001723 -0.000187 0.006570
# 3 -0.003101 -0.003400 0.012174 0.002597 0.004680 -0.004276
# 4 0.000575 0.001723 0.002597 0.027135 -0.000657 -0.000030
# 5 0.001259 -0.000187 0.004680 -0.000657 0.029115 -0.000175
# 6 0.003231 0.006570 -0.004276 -0.000030 -0.000175 0.031808
#
#
# Mechanical properties :
#
#
# Convention : Reuss Voigt Hill
#
# Bulk Modulus (GPa) = 57.80292 75.22059 66.51175
# Shear Modulus (GPa) = 33.85650 38.92379 36.39015
#
# Velocity S-wave (km/s) = 3.88729 4.16805 4.03012
# Velocity P-wave (km/s) = 6.77841 7.53236 7.16531
#
# Compressibility (1/GPa) = 0.01730017
#
# Stress axis : x y z
#
# Youngs Moduli (GPa) = 72.18142 104.70242 82.14167
#
# Poissons Ratio (x) = 0.27622 0.25475
# Poissons Ratio (y) = 0.19042 0.27928
# Poissons Ratio (z) = 0.22386 0.35598
#
# Static dielectric constant tensor:
#      x y z
#    x 4.377310 0.004180 -0.355080 
#    y 0.004180 4.204870 -0.253740 
#    z -0.355080 -0.253740 4.186610 
# 
# 
# High freq. dielectric constant tensor:
#      x y z
#    x 1.884990 -0.015140 -0.011650 
#    y -0.015140 1.900710 0.002020 
#    z -0.011650 0.002020 1.895530 
# 
# From -- ./inp_files/226754.got.cif
#   From: 2010.06.25/outbox.ucp.g09.slc.cvg/sg2_114_cif.got.tgz:226754.got - 2010.06.28 11:54:26.
