data_PCOD8038823
_publ_section_title
;
Structure prediction by ZEFSAII (Michael W. Deem and Ramdas Pophale) SiO2 
 PCOD8038823
Probable space group: P -1
;
_chemical_formula_sum "Si O2"
_cell_formula_units_Z 16
_cell_length_a 13.298007
_cell_length_b 14.436579
_cell_length_c 11.345826
_cell_angle_alpha 151.476702
_cell_angle_beta 42.816206
_cell_angle_gamma 130.730643
_cell_volume 706.687672
_symmetry_space_group_name_H-M "P -1"
_symmetry_group_IT_number 2
_symmetry_cell_setting 'triclinic'
loop_
_space_group_symop_operation_xyz
x,y,z
-x,-y,-z
loop_
_atom_site_type_symbol
_atom_site_label
_atom_site_fract_x
_atom_site_fract_y
_atom_site_fract_z
Si Si1 0.672583 0.467435 0.823616
Si Si2 0.783201 0.622438 0.508743
Si Si3 0.266338 0.791534 0.303759
Si Si4 0.215936 0.416358 0.794490
Si Si5 0.528342 0.900622 0.042323
Si Si6 0.862797 0.799791 0.153938
Si Si7 0.897567 0.435136 0.408933
Si Si8 0.457647 0.711207 0.651685
O O1 0.710681 0.288029 0.674018
O O2 0.732896 0.410720 0.578186
O O3 0.500000 0.500000 0.000000
O O4 0.747326 0.665929 0.030105
O O5 0.858720 0.613593 0.304072
O O6 0.691980 0.816782 0.821173
O O7 0.903246 0.601715 0.487144
O O8 0.679793 0.432816 0.406412
O O9 0.161269 0.975384 0.599912
O O10 0.184390 0.627275 0.110568
O O11 0.429551 0.852700 0.186918
O O12 0.157216 0.245092 0.739518
O O13 0.392916 0.408991 0.615882
O O14 0.443283 0.816626 0.907317
O O15 0.545739 0.132403 0.275516
O O16 0.032356 0.758300 0.923505
O O17 0.000000 0.500000 0.500000
#
# Coordination Sequence:
#
# PCOD8038823 Si02
#       8
#     2   2   2   2   2   2   2   2
#     4  10  23  41  66  90 113 155 214 259 294 351
#     4  11  20  36  63  87 124 163 202 251 311 353
#     4  11  19  35  61  87 124 159 195 244 313 357
#     4  10  19  34  60  94 125 155 196 245 311 372
#     4  10  18  30  57  96 128 151 189 248 311 366
#     4  10  23  40  60  87 126 163 192 252 306 364
#     4  10  24  46  61  82 124 165 210 253 297 356
#     4  10  18  31  55  96 131 152 186 250 308 366
#
# _framework density 22.640834999999999
#
# number of rings (size 3 to 8) (size 9 to 14) (size 15 to 20)
#    0.000    1.750    3.750    1.500    1.750    1.500 
#    0.000    6.875    0.000    0.000    0.000    0.000 
#    0.000    0.000    0.000    0.000    0.000    0.000 
#
# Total GULP energy -198398.233633 kJ/mol
# GULP energy per Si atom -12399.889602 kJ/mol
# Density = 2.258930 g / cm^3
# Si number density = 22.640835 Si / 1000 Ang^3
#
#
#
# Elastic Constant Matrix: (Units=GPa)
#
#
# Indices 1 2 3 4 5 6 
#
# 1 100.2947 25.9584 34.2737 -2.4428 -10.5630 -35.5806
# 2 25.9584 76.0116 44.4166 2.9647 -5.3211 -28.4337
# 3 34.2737 44.4166 122.9341 -5.3894 -16.5918 -23.7662
# 4 -2.4428 2.9647 -5.3894 51.5498 -6.2445 -2.8972
# 5 -10.5630 -5.3211 -16.5918 -6.2445 21.7707 -0.3124
# 6 -35.5806 -28.4337 -23.7662 -2.8972 -0.3124 40.7787
#
#
#
# Elastic Compliance Matrix: (Units=1/GPa)
#
#
# Indices 1 2 3 4 5 6 
#
# 1 0.016054 0.000830 -0.000766 0.002448 0.008316 0.014377
# 2 0.000830 0.020498 -0.005175 -0.000839 0.001400 0.011952
# 3 -0.000766 -0.005175 0.012044 0.002702 0.008360 0.002999
# 4 0.002448 -0.000839 0.002702 0.021224 0.009197 0.004704
# 5 0.008316 0.001400 0.008360 0.009197 0.059524 0.014214
# 6 0.014377 0.011952 0.002999 0.004704 0.014214 0.047592
#
#
# Mechanical properties :
#
#
# Convention : Reuss Voigt Hill
#
# Bulk Modulus (GPa) = 26.05938 56.50419 41.28179
# Shear Modulus (GPa) = 25.00649 35.79262 30.39956
#
# Velocity S-wave (km/s) = 3.32699 3.98035 3.66824
# Velocity P-wave (km/s) = 5.12770 6.79229 6.01783
#
# Compressibility (1/GPa) = 0.03837389
#
# Stress axis : x y z
#
# Youngs Moduli (GPa) = 62.29144 48.78584 83.02716
#
# Poissons Ratio (x) = -0.04050 0.06364
# Poissons Ratio (y) = -0.05171 0.42963
# Poissons Ratio (z) = 0.04774 0.25245
#
# Static dielectric constant tensor:
#      x y z
#    x 4.027060 -0.427800 0.013840 
#    y -0.427800 4.328880 -0.357540 
#    z 0.013840 -0.357540 4.362200 
# 
# 
# High freq. dielectric constant tensor:
#      x y z
#    x 1.875110 -0.026190 -0.009770 
#    y -0.026190 1.890890 -0.012770 
#    z -0.009770 -0.012770 1.897440 
# 
# From -- ./inp_files/313842.got.cif
#   From: 2010.06.25/outbox.cif.g09.slc.cpg/sg2_157_cif.got.tgz:313842.got - 2010.06.27 13:26:56.
