data_PCOD8038784
_publ_section_title
;
Structure prediction by ZEFSAII (Michael W. Deem and Ramdas Pophale) SiO2 
 PCOD8038784
Probable space group: P -1
;
_chemical_formula_sum "Si O2"
_cell_formula_units_Z 16
_cell_length_a 17.400755
_cell_length_b 26.666589
_cell_length_c 12.386374
_cell_angle_alpha 27.168653
_cell_angle_beta 142.146066
_cell_angle_gamma 160.597781
_cell_volume 823.956852
_symmetry_space_group_name_H-M "P -1"
_symmetry_group_IT_number 2
_symmetry_cell_setting 'triclinic'
loop_
_space_group_symop_operation_xyz
x,y,z
-x,-y,-z
loop_
_atom_site_type_symbol
_atom_site_label
_atom_site_fract_x
_atom_site_fract_y
_atom_site_fract_z
Si Si1 0.301902 0.796109 0.749523
Si Si2 0.903023 0.483159 0.580713
Si Si3 0.337748 0.535732 0.057160
Si Si4 0.536746 0.589656 0.480462
Si Si5 0.208163 0.810319 0.849601
Si Si6 0.627066 0.855416 0.956579
Si Si7 0.940091 0.648870 0.509553
Si Si8 0.640875 0.288722 0.444286
O O1 0.315767 0.865049 0.747413
O O2 0.029454 0.605911 0.757426
O O3 0.500000 0.000000 0.500000
O O4 0.383488 0.730611 0.975247
O O5 0.907928 0.589951 0.462584
O O6 0.746257 0.403249 0.457402
O O7 0.179544 0.662447 0.509374
O O8 0.770612 0.278630 0.878738
O O9 0.377439 0.613456 0.832875
O O10 0.361597 0.420162 0.300276
O O11 0.548768 0.745670 0.964683
O O12 0.070524 0.360690 0.142454
O O13 0.500000 0.500000 0.500000
O O14 0.714273 0.825828 0.194285
O O15 0.293081 0.464601 0.489219
O O16 0.376128 0.034020 0.655482
O O17 0.846285 0.103093 0.709579
#
# Coordination Sequence:
#
# PCOD8038784 Si02
#       8
#     2   2   2   2   2   2   2   2
#     4  10  18  30  53  84 110 135 169 213 277 338
#     4  10  22  36  57  87 110 140 183 226 273 333
#     4  10  22  36  54  80 107 145 192 225 259 323
#     4  10  22  36  52  79 110 144 188 224 261 326
#     4  11  20  35  58  81 112 146 176 222 280 327
#     4  10  20  34  54  82 112 140 172 222 280 330
#     4  11  21  35  55  80 113 145 173 220 281 324
#     4  10  20  38  59  81 111 142 183 230 273 319
#
# _framework density 19.418492000000001
#
# number of rings (size 3 to 8) (size 9 to 14) (size 15 to 20)
#    0.000    1.750    0.000    7.125    0.000    4.500 
#    0.000    0.625    0.000    1.500    0.000    0.000 
#    0.000    0.000    0.000    0.000    0.000    0.000 
#
# Total GULP energy -198335.076166 kJ/mol
# GULP energy per Si atom -12395.942260 kJ/mol
# Density = 1.937429 g / cm^3
# Si number density = 19.418492 Si / 1000 Ang^3
#
#
#
# Elastic Constant Matrix: (Units=GPa)
#
#
# Indices 1 2 3 4 5 6 
#
# 1 83.2835 23.1409 20.3246 19.5832 -3.8773 -5.9984
# 2 23.1409 60.7098 37.5856 17.5312 -5.9006 -17.7308
# 3 20.3246 37.5856 101.2653 31.1226 1.3456 -6.1557
# 4 19.5832 17.5312 31.1226 32.9684 6.3941 1.3625
# 5 -3.8773 -5.9006 1.3456 6.3941 25.9021 1.7441
# 6 -5.9984 -17.7308 -6.1557 1.3625 1.7441 24.5853
#
#
#
# Elastic Compliance Matrix: (Units=1/GPa)
#
#
# Indices 1 2 3 4 5 6 
#
# 1 0.015006 -0.002579 0.000848 -0.009158 0.003723 0.002257
# 2 -0.002579 0.031772 -0.006523 -0.011747 0.008698 0.020685
# 3 0.000848 -0.006523 0.015861 -0.012170 0.000815 0.000091
# 4 -0.009158 -0.011747 -0.012170 0.057361 -0.016513 -0.015761
# 5 0.003723 0.008698 0.000815 -0.016513 0.044835 0.005120
# 6 0.002257 0.020685 0.000091 -0.015761 0.005120 0.056677
#
#
# Mechanical properties :
#
#
# Convention : Reuss Voigt Hill
#
# Bulk Modulus (GPa) = 21.67753 45.26230 33.46991
# Shear Modulus (GPa) = 19.73190 27.63834 23.68512
#
# Velocity S-wave (km/s) = 3.19115 3.77676 3.49624
# Velocity P-wave (km/s) = 4.97650 6.50984 5.79411
#
# Compressibility (1/GPa) = 0.04613072
#
# Stress axis : x y z
#
# Youngs Moduli (GPa) = 66.63896 31.47414 63.04885
#
# Poissons Ratio (x) = 0.08118 -0.05345
# Poissons Ratio (y) = 0.17188 0.41124
# Poissons Ratio (z) = -0.05649 0.20529
#
# Static dielectric constant tensor:
#      x y z
#    x 3.552970 0.242450 0.133800 
#    y 0.242450 3.540980 0.254620 
#    z 0.133800 0.254620 4.011620 
# 
# 
# High freq. dielectric constant tensor:
#      x y z
#    x 1.738700 0.009760 -0.006480 
#    y 0.009760 1.740200 -0.002870 
#    z -0.006480 -0.002870 1.776480 
# 
# From -- ./inp_files/467584.got.cif
#   From: 2010.06.25/outbox.cif.g09.slc.cpg/sg2_234_cif.got.tgz:467584.got - 2010.06.27 13:26:56.
