data_PCOD8038354
_publ_section_title
;
Structure prediction by ZEFSAII (Michael W. Deem and Ramdas Pophale) SiO2 
 PCOD8038354
Probable space group: P -1
;
_chemical_formula_sum "Si O2"
_cell_formula_units_Z 16
_cell_length_a 13.085293
_cell_length_b 13.720507
_cell_length_c 19.615233
_cell_angle_alpha 32.103389
_cell_angle_beta 153.971603
_cell_angle_gamma 137.272727
_cell_volume 815.926896
_symmetry_space_group_name_H-M "P -1"
_symmetry_group_IT_number 2
_symmetry_cell_setting 'triclinic'
loop_
_space_group_symop_operation_xyz
x,y,z
-x,-y,-z
loop_
_atom_site_type_symbol
_atom_site_label
_atom_site_fract_x
_atom_site_fract_y
_atom_site_fract_z
Si Si1 0.978351 0.578858 0.017601
Si Si2 0.662642 0.740241 0.540997
Si Si3 0.927836 0.047280 0.300976
Si Si4 0.103001 0.344467 0.705681
Si Si5 0.302238 0.548363 0.510663
Si Si6 0.845681 0.033520 0.109376
Si Si7 0.632552 0.793842 0.337884
Si Si8 0.440973 0.598468 0.114064
O O1 0.175136 0.456109 0.252115
O O2 0.715361 0.568345 0.895546
O O3 0.000000 0.500000 0.000000
O O4 0.012162 0.791738 0.919583
O O5 0.447484 0.718483 0.476459
O O6 0.560838 0.794216 0.373608
O O7 0.808618 0.901442 0.561104
O O8 0.891296 0.959668 0.257032
O O9 0.867627 0.895594 0.409845
O O10 0.748147 0.228209 0.092501
O O11 0.382255 0.366210 0.863058
O O12 0.000000 0.500000 0.500000
O O13 0.967848 0.375953 0.678158
O O14 0.058968 0.138772 0.778385
O O15 0.309495 0.414723 0.529480
O O16 0.417440 0.436253 0.710455
O O17 0.572352 0.092322 0.896078
#
# Coordination Sequence:
#
# PCOD8038354 Si02
#       8
#     2   2   2   2   2   2   2   2
#     4  11  18  35  62  88 116 147 193 247 287 332
#     4  11  22  36  57  89 121 150 183 245 298 334
#     4  11  19  35  60  88 116 141 197 244 282 337
#     4  10  23  36  56  89 120 150 191 245 290 339
#     4  11  20  38  55  84 121 147 189 243 288 336
#     4  12  20  36  64  91 107 157 199 236 286 343
#     4  12  22  34  61  90 115 149 199 236 288 346
#     4  10  17  35  58  84 114 149 185 242 293 327
#
# _framework density 19.609601000000001
#
# number of rings (size 3 to 8) (size 9 to 14) (size 15 to 20)
#    0.000    1.000    7.500    2.625    0.000    0.000 
#    0.000    7.500    0.000    3.000    0.000    0.000 
#    0.000    0.000    0.000    0.000    0.000    0.000 
#
# Total GULP energy -198328.839495 kJ/mol
# GULP energy per Si atom -12395.552468 kJ/mol
# Density = 1.956497 g / cm^3
# Si number density = 19.609601 Si / 1000 Ang^3
#
#
#
# Elastic Constant Matrix: (Units=GPa)
#
#
# Indices 1 2 3 4 5 6 
#
# 1 106.9469 43.6474 31.2688 19.7796 15.6050 16.3525
# 2 43.6474 114.9465 27.4190 0.3748 12.6579 24.7000
# 3 31.2688 27.4190 25.7395 3.5278 6.9331 -2.5589
# 4 19.7796 0.3748 3.5278 26.1022 4.6619 5.3720
# 5 15.6050 12.6579 6.9331 4.6619 31.7843 4.9120
# 6 16.3525 24.7000 -2.5589 5.3720 4.9120 38.2029
#
#
#
# Elastic Compliance Matrix: (Units=1/GPa)
#
#
# Indices 1 2 3 4 5 6 
#
# 1 0.019111 0.000036 -0.022253 -0.009464 -0.001900 -0.008119
# 2 0.000036 0.015753 -0.018376 0.004900 -0.001151 -0.011972
# 3 -0.022253 -0.018376 0.089763 0.000228 -0.005716 0.028122
# 4 -0.009464 0.004900 0.000228 0.047083 -0.003444 -0.005279
# 5 -0.001900 -0.001151 -0.005716 -0.003444 0.035045 -0.002847
# 6 -0.008119 -0.011972 0.028122 -0.005279 -0.002847 0.040384
#
#
# Mechanical properties :
#
#
# Convention : Reuss Voigt Hill
#
# Bulk Modulus (GPa) = 23.01973 50.25594 36.63784
# Shear Modulus (GPa) = 14.58551 28.90440 21.74496
#
# Velocity S-wave (km/s) = 2.73022 3.84343 3.33362
# Velocity P-wave (km/s) = 4.65868 6.73645 5.79150
#
# Compressibility (1/GPa) = 0.04344099
#
# Stress axis : x y z
#
# Youngs Moduli (GPa) = 52.32570 63.48077 11.14043
#
# Poissons Ratio (x) = -0.00229 0.24791
# Poissons Ratio (y) = -0.00189 0.20472
# Poissons Ratio (z) = 1.16440 1.16653
#
# Static dielectric constant tensor:
#      x y z
#    x 3.962880 0.680660 0.271400 
#    y 0.680660 4.169700 0.217710 
#    z 0.271400 0.217710 3.520340 
# 
# 
# High freq. dielectric constant tensor:
#      x y z
#    x 1.750620 0.034510 -0.001040 
#    y 0.034510 1.771010 0.004210 
#    z -0.001040 0.004210 1.732930 
# 
# From -- ./inp_files/257132.got.cif
#   From: 2010.06.25/outbox.cif.g09.slc.cpg/sg2_129_cif.got.tgz:257132.got - 2010.06.27 13:26:56.
