data_PCOD8038618
_publ_section_title
;
Structure prediction by ZEFSAII (Michael W. Deem and Ramdas Pophale) SiO2 
 PCOD8038618
Probable space group: P -1
;
_chemical_formula_sum "Si O2"
_cell_formula_units_Z 12
_cell_length_a 9.106367
_cell_length_b 10.262946
_cell_length_c 14.692522
_cell_angle_alpha 32.160865
_cell_angle_beta 49.025308
_cell_angle_gamma 64.062100
_cell_volume 527.640167
_symmetry_space_group_name_H-M "P -1"
_symmetry_group_IT_number 2
_symmetry_cell_setting 'triclinic'
loop_
_space_group_symop_operation_xyz
x,y,z
-x,-y,-z
loop_
_atom_site_type_symbol
_atom_site_label
_atom_site_fract_x
_atom_site_fract_y
_atom_site_fract_z
Si Si1 0.536064 0.407434 0.740188
Si Si2 0.495196 0.790949 0.315770
Si Si3 0.104896 0.586643 0.307794
Si Si4 0.088293 0.897001 0.437882
Si Si5 0.088792 0.288849 0.048613
Si Si6 0.831096 0.910001 0.236592
O O1 0.521208 0.188927 0.798551
O O2 0.650356 0.319153 0.831814
O O3 0.671491 0.692526 0.489261
O O4 0.313714 0.427895 0.839025
O O5 0.500000 0.500000 0.500000
O O6 0.700017 0.981575 0.164500
O O7 0.302834 0.852780 0.403522
O O8 0.000000 0.500000 0.500000
O O9 0.011116 0.808898 0.180332
O O10 0.062659 0.369993 0.376407
O O11 0.112588 0.091845 0.230616
O O12 0.000000 0.000000 0.500000
O O13 0.934936 0.156352 0.109259
O O14 0.000000 0.500000 0.000000
#
# Coordination Sequence:
#
# PCOD8038618 Si02
#       6
#     2   2   2   2   2   2
#     4  10  21  41  72  96 133 178 240 278 332 414
#     4  10  20  40  72 105 129 183 234 279 348 408
#     4  10  17  42  70  98 125 187 230 273 344 411
#     4  12  25  43  70 102 146 180 225 293 350 404
#     4  12  28  43  66 106 140 186 235 281 350 411
#     4  10  21  42  72  97 137 180 233 281 339 414
#
# _framework density 22.742773
#
# number of rings (size 3 to 8) (size 9 to 14) (size 15 to 20)
#    0.000    1.333    8.333    0.000    4.667    5.333 
#    0.000    3.333    0.000    0.000    0.000    0.000 
#    0.000    0.000    0.000    0.000    0.000    0.000 
#
# Total GULP energy -148756.078041 kJ/mol
# GULP energy per Si atom -12396.339837 kJ/mol
# Density = 2.269101 g / cm^3
# Si number density = 22.742773 Si / 1000 Ang^3
#
#
#
# Elastic Constant Matrix: (Units=GPa)
#
#
# Indices 1 2 3 4 5 6 
#
# 1 202.8376 84.2572 37.8607 -11.1533 -53.7171 -2.5767
# 2 84.2572 203.8543 44.0727 -13.0733 -39.4325 -8.6745
# 3 37.8607 44.0727 62.4935 -7.4891 -42.6408 -3.2957
# 4 -11.1533 -13.0733 -7.4891 35.9429 -1.8596 -8.1810
# 5 -53.7171 -39.4325 -42.6408 -1.8596 42.5020 -2.2202
# 6 -2.5767 -8.6745 -3.2957 -8.1810 -2.2202 43.3309
#
#
#
# Elastic Compliance Matrix: (Units=1/GPa)
#
#
# Indices 1 2 3 4 5 6 
#
# 1 0.010369 -0.001548 0.013638 0.007779 0.025908 0.004140
# 2 -0.001548 0.006638 -0.001234 0.002233 0.003152 0.001726
# 3 0.013638 -0.001234 0.081152 0.029829 0.099726 0.017478
# 4 0.007779 0.002233 0.029829 0.042634 0.044401 0.013503
# 5 0.025908 0.003152 0.099726 0.044401 0.162574 0.026470
# 6 0.004140 0.001726 0.017478 0.013503 0.026470 0.028905
#
#
# Mechanical properties :
#
#
# Convention : Reuss Voigt Hill
#
# Bulk Modulus (GPa) = 8.34234 89.06297 48.70266
# Shear Modulus (GPa) = 14.26465 44.55482 29.40974
#
# Velocity S-wave (km/s) = 2.50715 4.43095 3.59994
# Velocity P-wave (km/s) = 3.47234 8.08849 6.22418
#
# Compressibility (1/GPa) = 0.11987039
#
# Stress axis : x y z
#
# Youngs Moduli (GPa) = 96.44286 150.63748 12.32263
#
# Poissons Ratio (x) = 0.23312 -0.16805
# Poissons Ratio (y) = 0.14925 0.01521
# Poissons Ratio (z) = -1.31527 0.18596
#
# Static dielectric constant tensor:
#      x y z
#    x 5.449800 0.088470 -0.313410 
#    y 0.088470 3.759830 0.041310 
#    z -0.313410 0.041310 4.006500 
# 
# 
# High freq. dielectric constant tensor:
#      x y z
#    x 1.930240 -0.000280 -0.010910 
#    y -0.000280 1.876970 -0.004410 
#    z -0.010910 -0.004410 1.888850 
# 
# From -- ./inp_files/211941.got.cif
#   From: 2010.06.25/outbox.cif.g09.slc.cpg/sg2_106_cif.got.tgz:211941.got - 2010.06.27 13:26:56.
