data_PCOD8038216
_publ_section_title
;
Structure prediction by ZEFSAII (Michael W. Deem and Ramdas Pophale) SiO2 
 PCOD8038216
Probable space group: P -1
;
_chemical_formula_sum "Si O2"
_cell_formula_units_Z 16
_cell_length_a 8.747142
_cell_length_b 19.887604
_cell_length_c 9.256479
_cell_angle_alpha 102.448676
_cell_angle_beta 98.146381
_cell_angle_gamma 29.478389
_cell_volume 770.222103
_symmetry_space_group_name_H-M "P -1"
_symmetry_group_IT_number 2
_symmetry_cell_setting 'triclinic'
loop_
_space_group_symop_operation_xyz
x,y,z
-x,-y,-z
loop_
_atom_site_type_symbol
_atom_site_label
_atom_site_fract_x
_atom_site_fract_y
_atom_site_fract_z
Si Si1 0.358965 0.373105 0.453421
Si Si2 0.556113 0.779649 0.812270
Si Si3 0.201403 0.588734 0.847512
Si Si4 0.348162 0.752979 0.981605
Si Si5 0.685112 0.288576 0.745833
Si Si6 0.088429 0.250859 0.826183
Si Si7 0.651348 0.012550 0.975082
Si Si8 0.640359 0.522917 0.748496
O O1 0.525558 0.244138 0.333891
O O2 0.571373 0.299352 0.587913
O O3 0.364921 0.441164 0.393604
O O4 0.000000 0.500000 0.500000
O O5 0.487704 0.771308 0.955318
O O6 0.367104 0.924861 0.864894
O O7 0.912883 0.660138 0.773744
O O8 0.450248 0.434978 0.849061
O O9 0.351453 0.581681 0.745715
O O10 0.108762 0.666131 0.013526
O O11 0.598849 0.598362 0.897279
O O12 0.296015 0.777320 0.158683
O O13 0.013308 0.865102 0.912557
O O14 0.012646 0.203534 0.730884
O O15 0.971348 0.355680 0.747934
O O16 0.454286 0.114836 0.854761
O O17 0.500000 0.000000 0.000000
#
# Coordination Sequence:
#
# PCOD8038216 Si02
#       8
#     2   2   2   2   2   2   2   2
#     4  11  24  39  55  93 134 162 191 242 316 369
#     4  10  23  38  59  90 126 156 200 251 303 362
#     4  10  17  34  59  89 117 148 207 245 295 339
#     4  11  20  37  64  94 121 159 198 255 310 351
#     4  11  19  35  60  88 125 158 199 243 298 368
#     4  10  19  35  63  98 115 151 213 261 293 344
#     4  11  21  39  65  92 116 157 209 259 300 349
#     4  10  20  37  64  90 121 159 197 257 301 353
#
# _framework density 20.773230000000002
#
# number of rings (size 3 to 8) (size 9 to 14) (size 15 to 20)
#    0.000    1.500    5.000    1.875    0.000    4.500 
#    0.000    0.625    0.000    4.500    0.000    0.000 
#    0.000    0.000    0.000    0.000    0.000    0.000 
#
# Total GULP energy -198246.045263 kJ/mol
# GULP energy per Si atom -12390.377829 kJ/mol
# Density = 2.072595 g / cm^3
# Si number density = 20.773230 Si / 1000 Ang^3
#
#
#
# Elastic Constant Matrix: (Units=GPa)
#
#
# Indices 1 2 3 4 5 6 
#
# 1 112.7701 28.7607 46.1384 -5.6280 -4.6111 13.0893
# 2 28.7607 59.0321 29.5835 -15.4446 -3.5171 5.2014
# 3 46.1384 29.5835 109.6544 -22.9100 8.5343 5.6668
# 4 -5.6280 -15.4446 -22.9100 22.6699 -0.9795 4.1236
# 5 -4.6111 -3.5171 8.5343 -0.9795 35.3166 -0.4950
# 6 13.0893 5.2014 5.6668 4.1236 -0.4950 26.5288
#
#
#
# Elastic Compliance Matrix: (Units=1/GPa)
#
#
# Indices 1 2 3 4 5 6 
#
# 1 0.012194 -0.004102 -0.004829 -0.003911 0.002193 -0.003532
# 2 -0.004102 0.024197 -0.001698 0.014699 0.002628 -0.004593
# 3 -0.004829 -0.001698 0.014729 0.012809 -0.004039 -0.002497
# 4 -0.003911 0.014699 0.012809 0.068696 -0.000438 -0.014375
# 5 0.002193 0.002628 -0.004039 -0.000438 0.029826 -0.000110
# 6 -0.003532 -0.004593 -0.002497 -0.014375 -0.000110 0.043104
#
#
# Mechanical properties :
#
#
# Convention : Reuss Voigt Hill
#
# Bulk Modulus (GPa) = 33.48838 54.49130 43.98984
# Shear Modulus (GPa) = 22.32568 28.70131 25.51350
#
# Velocity S-wave (km/s) = 3.28187 3.72109 3.50836
# Velocity P-wave (km/s) = 5.52420 6.68958 6.13462
#
# Compressibility (1/GPa) = 0.02986110
#
# Stress axis : x y z
#
# Youngs Moduli (GPa) = 82.00711 41.32828 67.89238
#
# Poissons Ratio (x) = 0.16954 0.32787
# Poissons Ratio (y) = 0.33641 0.11527
# Poissons Ratio (z) = 0.39603 0.07017
#
# Static dielectric constant tensor:
#      x y z
#    x 4.186290 -0.045890 0.114010 
#    y -0.045890 3.895230 -0.128250 
#    z 0.114010 -0.128250 3.452120 
# 
# 
# High freq. dielectric constant tensor:
#      x y z
#    x 1.830260 0.004570 0.007910 
#    y 0.004570 1.798910 -0.007660 
#    z 0.007910 -0.007660 1.774170 
# 
# From -- ./inp_files/179068.got.cif
#   From: 2010.06.25/outbox.cif.g09.slc.cpg/sg2_90_cif.got.tgz:179068.got - 2010.06.27 13:26:56.
