data_PCOD8038950
_publ_section_title
;
Structure prediction by ZEFSAII (Michael W. Deem and Ramdas Pophale) SiO2 
 PCOD8038950
Probable space group: P -1
;
_chemical_formula_sum "Si O2"
_cell_formula_units_Z 16
_cell_length_a 5.023460
_cell_length_b 10.106419
_cell_length_c 23.430722
_cell_angle_alpha 132.093526
_cell_angle_beta 80.154240
_cell_angle_gamma 93.576802
_cell_volume 867.490161
_symmetry_space_group_name_H-M "P -1"
_symmetry_group_IT_number 2
_symmetry_cell_setting 'triclinic'
loop_
_space_group_symop_operation_xyz
x,y,z
-x,-y,-z
loop_
_atom_site_type_symbol
_atom_site_label
_atom_site_fract_x
_atom_site_fract_y
_atom_site_fract_z
Si Si1 0.092974 0.600175 0.347417
Si Si2 0.326767 0.923158 0.239539
Si Si3 0.853327 0.456440 0.122738
Si Si4 0.342762 0.239399 0.242646
Si Si5 0.924945 0.317489 0.195919
Si Si6 0.232823 0.156619 0.714193
Si Si7 0.590040 0.465507 0.922798
Si Si8 0.402855 0.172652 0.588505
O O1 0.189761 0.421532 0.328925
O O2 0.339591 0.725684 0.371465
O O3 0.015116 0.520272 0.264688
O O4 0.814347 0.709732 0.409670
O O5 0.507535 0.944771 0.294974
O O6 0.423006 0.743756 0.150068
O O7 0.021575 0.928516 0.273191
O O8 0.365922 0.086606 0.243767
O O9 0.909588 0.298958 0.122341
O O10 0.769958 0.633586 0.212811
O O11 0.606809 0.416125 0.078524
O O12 0.110996 0.472093 0.077707
O O13 0.637995 0.283089 0.223831
O O14 0.159342 0.183590 0.178332
O O15 0.244498 0.116280 0.634661
O O16 0.500000 0.500000 0.000000
O O17 0.500000 0.000000 0.500000
#
# Coordination Sequence:
#
# PCOD8038950 Si02
#       8
#     2   2   2   2   2   2   2   2
#     4  10  19  34  53  77 104 133 174 216 257 312
#     4  10  21  33  57  78 102 144 173 219 248 312
#     4  10  18  32  56  76 102 136 178 218 257 302
#     4  10  18  33  54  78 102 133 183 222 249 298
#     4  10  18  31  57  79 100 130 179 231 250 294
#     4  10  19  33  51  79 105 129 181 212 260 307
#     4  10  21  34  52  80 112 140 166 212 274 318
#     4  12  22  34  55  82 111 133 164 224 278 314
#
# _framework density 18.444015
#
# number of rings (size 3 to 8) (size 9 to 14) (size 15 to 20)
#    0.750    1.000    2.500    3.000    3.500    0.000 
#    0.000    0.000    0.000    9.000    0.000    0.000 
#    0.000    0.000    0.000    0.000    0.000    0.000 
#
# Total GULP energy -198237.970237 kJ/mol
# GULP energy per Si atom -12389.873140 kJ/mol
# Density = 1.840204 g / cm^3
# Si number density = 18.444015 Si / 1000 Ang^3
#
#
#
# Elastic Constant Matrix: (Units=GPa)
#
#
# Indices 1 2 3 4 5 6 
#
# 1 97.6435 16.1642 4.3200 2.6223 -3.8005 5.0878
# 2 16.1642 65.0178 14.4884 -4.6224 2.4483 -3.4785
# 3 4.3200 14.4884 66.2856 -9.3451 -4.8935 7.8756
# 4 2.6223 -4.6224 -9.3451 15.1979 -3.5409 -1.4887
# 5 -3.8005 2.4483 -4.8935 -3.5409 16.8977 -2.0219
# 6 5.0878 -3.4785 7.8756 -1.4887 -2.0219 22.5799
#
#
#
# Elastic Compliance Matrix: (Units=1/GPa)
#
#
# Indices 1 2 3 4 5 6 
#
# 1 0.011076 -0.003207 0.000122 -0.002623 0.002080 -0.003019
# 2 -0.003207 0.017673 -0.004008 0.003184 -0.003205 0.004766
# 3 0.000122 -0.004008 0.018851 0.011608 0.007811 -0.005755
# 4 -0.002623 0.003184 0.011608 0.079268 0.019399 0.003996
# 5 0.002080 -0.003205 0.007811 0.019399 0.066867 0.003580
# 6 -0.003019 0.004766 -0.005755 0.003996 0.003580 0.048293
#
#
# Mechanical properties :
#
#
# Convention : Reuss Voigt Hill
#
# Bulk Modulus (GPa) = 29.92811 33.21023 31.56917
# Shear Modulus (GPa) = 18.70195 23.86673 21.28434
#
# Velocity S-wave (km/s) = 3.18777 3.60114 3.40074
# Velocity P-wave (km/s) = 5.45993 5.94441 5.70731
#
# Compressibility (1/GPa) = 0.03341340
#
# Stress axis : x y z
#
# Youngs Moduli (GPa) = 90.28921 56.58411 53.04688
#
# Poissons Ratio (x) = 0.18146 -0.00645
# Poissons Ratio (y) = 0.28955 0.21260
# Poissons Ratio (z) = -0.01098 0.22678
#
# Static dielectric constant tensor:
#      x y z
#    x 3.816120 -0.213050 -0.061950 
#    y -0.213050 3.245060 0.002090 
#    z -0.061950 0.002090 3.069730 
# 
# 
# High freq. dielectric constant tensor:
#      x y z
#    x 1.747670 -0.011590 -0.009730 
#    y -0.011590 1.697060 -0.010280 
#    z -0.009730 -0.010280 1.671330 
# 
# From -- ./inp_files/108865.got.cif
#   From: 2010.06.25/outbox.cif.g09.slc.cpg/sg2_55_cif.got.tgz:108865.got - 2010.06.27 13:26:56.
