data_PCOD8038665
_publ_section_title
;
Structure prediction by ZEFSAII (Michael W. Deem and Ramdas Pophale) SiO2 
 PCOD8038665
Probable space group: P -1
;
_chemical_formula_sum "Si O2"
_cell_formula_units_Z 16
_cell_length_a 21.541615
_cell_length_b 35.832902
_cell_length_c 5.215457
_cell_angle_alpha 61.523194
_cell_angle_beta 117.971567
_cell_angle_gamma 165.536308
_cell_volume 883.359795
_symmetry_space_group_name_H-M "P -1"
_symmetry_group_IT_number 2
_symmetry_cell_setting 'triclinic'
loop_
_space_group_symop_operation_xyz
x,y,z
-x,-y,-z
loop_
_atom_site_type_symbol
_atom_site_label
_atom_site_fract_x
_atom_site_fract_y
_atom_site_fract_z
Si Si1 0.453652 0.077910 0.499569
Si Si2 0.274180 0.444918 0.738079
Si Si3 0.071902 0.682431 0.666300
Si Si4 0.899551 0.178322 0.631724
Si Si5 0.626625 0.527981 0.654079
Si Si6 0.034243 0.467332 0.872765
Si Si7 0.747870 0.324781 0.284925
Si Si8 0.478175 0.953135 0.886481
O O1 0.712256 0.210222 0.449400
O O2 0.487485 0.147864 0.391000
O O3 0.410030 0.026345 0.846925
O O4 0.221680 0.936905 0.313188
O O5 0.457052 0.548495 0.504712
O O6 0.113822 0.394934 0.596433
O O7 0.096870 0.298768 0.854549
O O8 0.444061 0.539280 0.008907
O O9 0.909758 0.549492 0.903423
O O10 0.194098 0.780297 0.815932
O O11 0.067455 0.292005 0.344732
O O12 0.657959 0.067580 0.609064
O O13 0.500000 0.500000 0.500000
O O14 0.939440 0.415803 0.565836
O O15 0.276095 0.638563 0.817327
O O16 0.833638 0.368776 0.012563
O O17 0.500000 0.000000 0.000000
#
# Coordination Sequence:
#
# PCOD8038665 Si02
#       8
#     2   2   2   2   2   2   2   2
#     4  10  18  29  43  67 102 131 162 189 227 273
#     4  10  21  33  50  71  91 124 156 199 237 288
#     4  10  20  28  43  69  98 129 159 194 231 273
#     4   9  21  31  48  69  95 129 161 199 228 282
#     4  10  22  39  53  66  90 123 160 205 247 282
#     4   9  17  30  43  63  88 129 166 195 220 264
#     4   9  17  29  45  60  90 129 169 190 222 261
#     4  11  19  28  42  67 103 137 162 187 227 273
#
# _framework density 18.112663999999999
#
# number of rings (size 3 to 8) (size 9 to 14) (size 15 to 20)
#    0.750    1.500    1.250    2.625    3.500    2.000 
#    0.000    1.875    0.000    0.000    0.000    0.000 
#    0.000    2.000    0.000    0.125    0.000    0.000 
#
# Total GULP energy -198443.057438 kJ/mol
# GULP energy per Si atom -12402.691090 kJ/mol
# Density = 1.807144 g / cm^3
# Si number density = 18.112664 Si / 1000 Ang^3
#
#
#
# Elastic Constant Matrix: (Units=GPa)
#
#
# Indices 1 2 3 4 5 6 
#
# 1 67.1284 32.6799 36.6178 -0.8946 -0.3496 -12.4104
# 2 32.6799 40.0335 16.8983 -9.4032 9.4777 -18.6093
# 3 36.6178 16.8983 94.1191 3.7174 1.6068 -6.1300
# 4 -0.8946 -9.4032 3.7174 18.6351 -9.2537 7.8928
# 5 -0.3496 9.4777 1.6068 -9.2537 27.3192 -6.5644
# 6 -12.4104 -18.6093 -6.1300 7.8928 -6.5644 29.8907
#
#
#
# Elastic Compliance Matrix: (Units=1/GPa)
#
#
# Indices 1 2 3 4 5 6 
#
# 1 0.031609 -0.026644 -0.007529 -0.005860 0.007679 -0.001774
# 2 -0.026644 0.063221 0.000005 0.015622 -0.011797 0.021583
# 3 -0.007529 0.000005 0.013791 -0.004414 -0.002317 0.000362
# 4 -0.005860 0.015622 -0.004414 0.075060 0.017907 -0.009500
# 5 0.007679 -0.011797 -0.002317 0.017907 0.047241 0.001015
# 6 -0.001774 0.021583 0.000362 -0.009500 0.001015 0.048961
#
#
# Mechanical properties :
#
#
# Convention : Reuss Voigt Hill
#
# Bulk Modulus (GPa) = 24.82294 41.51920 33.17107
# Shear Modulus (GPa) = 13.82568 22.84134 18.33351
#
# Velocity S-wave (km/s) = 2.76581 3.55501 3.18495
# Velocity P-wave (km/s) = 4.89225 6.31057 5.64612
#
# Compressibility (1/GPa) = 0.04028532
#
# Stress axis : x y z
#
# Youngs Moduli (GPa) = 31.63700 15.81747 72.51289
#
# Poissons Ratio (x) = 0.42143 0.54596
# Poissons Ratio (y) = 0.84292 -0.00038
# Poissons Ratio (z) = 0.23820 -0.00008
#
# Static dielectric constant tensor:
#      x y z
#    x 3.424020 -0.412610 -0.117510 
#    y -0.412610 3.184410 -0.323780 
#    z -0.117510 -0.323780 3.638230 
# 
# 
# High freq. dielectric constant tensor:
#      x y z
#    x 1.686080 -0.036140 -0.029450 
#    y -0.036140 1.642660 -0.010880 
#    z -0.029450 -0.010880 1.708780 
# 
# From -- ./inp_files/113363.got.cif
#   From: 2010.06.25/outbox.cif.g09.slc.cpg/sg2_57_cif.got.tgz:113363.got - 2010.06.27 13:26:56.
