data_PCOD8038780
_publ_section_title
;
Structure prediction by ZEFSAII (Michael W. Deem and Ramdas Pophale) SiO2 
 PCOD8038780
Probable space group: P -1
;
_chemical_formula_sum "Si O2"
_cell_formula_units_Z 16
_cell_length_a 12.285405
_cell_length_b 24.052233
_cell_length_c 5.299962
_cell_angle_alpha 82.703740
_cell_angle_beta 102.843241
_cell_angle_gamma 153.262630
_cell_volume 677.768335
_symmetry_space_group_name_H-M "P -1"
_symmetry_group_IT_number 2
_symmetry_cell_setting 'triclinic'
loop_
_space_group_symop_operation_xyz
x,y,z
-x,-y,-z
loop_
_atom_site_type_symbol
_atom_site_label
_atom_site_fract_x
_atom_site_fract_y
_atom_site_fract_z
Si Si1 0.743445 0.149236 0.029300
Si Si2 0.344795 0.823326 0.532050
Si Si3 0.513731 0.227736 0.401894
Si Si4 0.342040 0.577252 0.634421
Si Si5 0.312590 0.164871 0.834589
Si Si6 0.931756 0.082861 0.718615
Si Si7 0.796168 0.456961 0.917728
Si Si8 0.886582 0.780077 0.765629
O O1 0.745481 0.192437 0.240454
O O2 0.002978 0.232079 0.128651
O O3 0.758891 0.188080 0.749039
O O4 0.500000 0.000000 0.000000
O O5 0.270847 0.723835 0.527260
O O6 0.642061 0.956400 0.591477
O O7 0.621263 0.338439 0.396648
O O8 0.351827 0.144263 0.619801
O O9 0.342052 0.140665 0.115073
O O10 0.181453 0.493226 0.346953
O O11 0.588874 0.650099 0.724766
O O12 0.179979 0.492503 0.851842
O O13 0.517042 0.306534 0.863425
O O14 0.038883 0.068669 0.740045
O O15 0.057881 0.178700 0.517456
O O16 0.989537 0.124941 0.013428
O O17 0.000000 0.500000 0.000000
#
# Coordination Sequence:
#
# PCOD8038780 Si02
#       8
#     2   2   2   2   2   2   2   2
#     4  12  23  37  51  70 102 135 185 229 260 283
#     4  12  24  35  51  77  98 141 190 219 247 293
#     4  10  20  35  51  71 107 134 175 215 245 309
#     4  10  19  36  51  77 107 137 159 203 269 300
#     4  10  19  34  50  75 107 138 160 202 272 305
#     4  12  19  33  52  71 101 139 175 212 259 289
#     4  10  18  30  53  79 108 130 159 199 251 331
#     4  12  20  35  54  69 101 144 169 209 266 300
#
# _framework density 23.606884999999998
#
# number of rings (size 3 to 8) (size 9 to 14) (size 15 to 20)
#    0.000    1.000    7.500    2.250    0.000    1.000 
#    0.000    0.000    0.000    0.000    0.000    0.000 
#    0.000   80.000    0.000    0.000    0.000    0.000 
#
# Total GULP energy -198261.136492 kJ/mol
# GULP energy per Si atom -12391.321031 kJ/mol
# Density = 2.355316 g / cm^3
# Si number density = 23.606885 Si / 1000 Ang^3
#
#
#
# Elastic Constant Matrix: (Units=GPa)
#
#
# Indices 1 2 3 4 5 6 
#
# 1 145.7680 9.9143 49.0918 -1.7960 3.0744 26.7426
# 2 9.9143 24.9815 11.4038 3.5790 -3.9293 19.2428
# 3 49.0918 11.4038 196.7298 -17.8649 -11.9442 19.6306
# 4 -1.7960 3.5790 -17.8649 18.1630 16.7269 0.6855
# 5 3.0744 -3.9293 -11.9442 16.7269 52.4521 -4.0033
# 6 26.7426 19.2428 19.6306 0.6855 -4.0033 30.7718
#
#
#
# Elastic Compliance Matrix: (Units=1/GPa)
#
#
# Indices 1 2 3 4 5 6 
#
# 1 0.008892 0.004431 -0.001592 -0.000013 -0.001284 -0.009650
# 2 0.004431 0.086816 -0.002448 -0.026053 0.009818 -0.054721
# 3 -0.001592 -0.002448 0.006409 0.007830 -0.001243 -0.001510
# 4 -0.000013 -0.026053 0.007830 0.095537 -0.030234 0.005247
# 5 -0.001284 0.009818 -0.001243 -0.030234 0.029253 0.000248
# 6 -0.009650 -0.054721 -0.001510 0.005247 0.000248 0.075982
#
#
# Mechanical properties :
#
#
# Convention : Reuss Voigt Hill
#
# Bulk Modulus (GPa) = 9.71825 56.47770 33.09797
# Shear Modulus (GPa) = 14.86297 40.08198 27.47248
#
# Velocity S-wave (km/s) = 2.51191 4.12502 3.41508
# Velocity P-wave (km/s) = 3.54098 6.83110 5.44070
#
# Compressibility (1/GPa) = 0.10289919
#
# Stress axis : x y z
#
# Youngs Moduli (GPa) = 112.45655 11.51858 156.04192
#
# Poissons Ratio (x) = -0.05103 0.24843
# Poissons Ratio (y) = -0.49825 0.38192
# Poissons Ratio (z) = 0.17904 0.02819
#
# Static dielectric constant tensor:
#      x y z
#    x 4.604490 0.505960 -0.582700 
#    y 0.505960 3.915070 -0.587610 
#    z -0.582700 -0.587610 6.475270 
# 
# 
# High freq. dielectric constant tensor:
#      x y z
#    x 1.923940 0.040730 -0.008300 
#    y 0.040730 1.891850 -0.007030 
#    z -0.008300 -0.007030 1.975530 
# 
# From -- ./inp_files/85063.got.cif
#   From: 2010.06.25/outbox.cif.g09.slc.cpg/sg2_43_cif.got.tgz:85063.got - 2010.06.27 13:26:56.
