data_PCOD8038537
_publ_section_title
;
Structure prediction by ZEFSAII (Michael W. Deem and Ramdas Pophale) SiO2 
 PCOD8038537
Probable space group: P -1
;
_chemical_formula_sum "Si O2"
_cell_formula_units_Z 16
_cell_length_a 11.660862
_cell_length_b 14.069466
_cell_length_c 11.262079
_cell_angle_alpha 64.088650
_cell_angle_beta 128.211250
_cell_angle_gamma 147.404732
_cell_volume 766.466010
_symmetry_space_group_name_H-M "P -1"
_symmetry_group_IT_number 2
_symmetry_cell_setting 'triclinic'
loop_
_space_group_symop_operation_xyz
x,y,z
-x,-y,-z
loop_
_atom_site_type_symbol
_atom_site_label
_atom_site_fract_x
_atom_site_fract_y
_atom_site_fract_z
Si Si1 0.828909 0.629875 0.906425
Si Si2 0.366738 0.889991 0.094958
Si Si3 0.249783 0.015589 0.587664
Si Si4 0.954401 0.771679 0.169179
Si Si5 0.366350 0.251607 0.891280
Si Si6 0.448059 0.129752 0.192883
Si Si7 0.246831 0.832155 0.497248
Si Si8 0.065201 0.116177 0.324650
O O1 0.586034 0.414316 0.852902
O O2 0.799597 0.715318 0.757960
O O3 0.832265 0.668533 0.023914
O O4 0.071432 0.702563 0.986594
O O5 0.489575 0.856335 0.247898
O O6 0.396372 0.001853 0.143820
O O7 0.500000 0.000000 0.000000
O O8 0.185665 0.887405 0.522953
O O9 0.022464 0.884447 0.607142
O O10 0.261192 0.136156 0.463488
O O11 0.758552 0.718035 0.152855
O O12 0.029410 0.709207 0.326003
O O13 0.199289 0.990687 0.191187
O O14 0.487351 0.259552 0.074881
O O15 0.176597 0.066757 0.800193
O O16 0.705198 0.253751 0.361685
O O17 0.500000 0.000000 0.500000
#
# Coordination Sequence:
#
# PCOD8038537 Si02
#       8
#     2   2   2   2   2   2   2   2
#     4  11  24  37  60  91 121 154 206 248 293 359
#     4  10  17  37  62  80 114 155 191 243 294 345
#     4  10  20  37  65  87 116 161 200 240 301 360
#     4  10  19  37  57  86 122 157 199 247 296 353
#     4  12  21  38  59  91 122 158 199 246 301 355
#     4   9  19  32  58  87 114 153 200 238 297 353
#     4   9  18  33  61  92 113 155 201 244 295 355
#     4  11  22  40  62  88 120 158 198 244 302 356
#
# _framework density 20.875029000000001
#
# number of rings (size 3 to 8) (size 9 to 14) (size 15 to 20)
#    0.000    1.750    5.000    1.500    0.000    0.000 
#    0.000    6.875    0.000    0.000    0.000    0.000 
#    0.000    0.000    0.000    0.000    0.000    0.000 
#
# Total GULP energy -198303.665336 kJ/mol
# GULP energy per Si atom -12393.979083 kJ/mol
# Density = 2.082752 g / cm^3
# Si number density = 20.875029 Si / 1000 Ang^3
#
#
#
# Elastic Constant Matrix: (Units=GPa)
#
#
# Indices 1 2 3 4 5 6 
#
# 1 64.2323 9.4290 19.1607 3.9397 5.7613 23.3828
# 2 9.4290 89.0530 38.8718 -18.1577 14.0743 18.2803
# 3 19.1607 38.8718 159.4817 -32.8197 30.7949 6.2870
# 4 3.9397 -18.1577 -32.8197 11.2812 -2.1940 -1.3933
# 5 5.7613 14.0743 30.7949 -2.1940 41.7583 0.2200
# 6 23.3828 18.2803 6.2870 -1.3933 0.2200 20.4913
#
#
#
# Elastic Compliance Matrix: (Units=1/GPa)
#
#
# Indices 1 2 3 4 5 6 
#
# 1 0.047721 -0.008229 -0.026985 -0.112139 0.010443 -0.046571
# 2 -0.008229 0.030258 0.017497 0.097218 -0.016773 -0.016181
# 3 -0.026985 0.017497 0.041251 0.154463 -0.024549 0.013294
# 4 -0.112139 0.097218 0.154463 0.720876 -0.093559 0.043863
# 5 0.010443 -0.016773 -0.024549 -0.093559 0.041328 0.003773
# 6 -0.046571 -0.016181 0.013294 0.043863 0.003773 0.115242
#
#
# Mechanical properties :
#
#
# Convention : Reuss Voigt Hill
#
# Bulk Modulus (GPa) = 11.93395 49.74334 30.83865
# Shear Modulus (GPa) = 4.71679 31.05986 17.88833
#
# Velocity S-wave (km/s) = 1.50481 3.86151 2.93050
# Velocity P-wave (km/s) = 2.95779 6.61532 5.12401
#
# Compressibility (1/GPa) = 0.08379452
#
# Stress axis : x y z
#
# Youngs Moduli (GPa) = 20.95499 33.04898 24.24192
#
# Poissons Ratio (x) = 0.27196 0.65418
# Poissons Ratio (y) = 0.17244 -0.42415
# Poissons Ratio (z) = 0.56548 -0.57825
#
# Static dielectric constant tensor:
#      x y z
#    x 3.568740 0.100120 0.528250 
#    y 0.100120 3.202480 0.054730 
#    z 0.528250 0.054730 4.438590 
# 
# 
# High freq. dielectric constant tensor:
#      x y z
#    x 1.824420 0.022470 0.008300 
#    y 0.022470 1.755170 -0.015240 
#    z 0.008300 -0.015240 1.846570 
# 
# From -- ./inp_files/406758.got.cif
#   From: 2010.06.25/outbox.cif.g09.slc.cpg/sg2_204_cif.got.tgz:406758.got - 2010.06.27 13:26:56.
