data_PCOD8038560
_publ_section_title
;
Structure prediction by ZEFSAII (Michael W. Deem and Ramdas Pophale) SiO2 
 PCOD8038560
Probable space group: P -1
;
_chemical_formula_sum "Si O2"
_cell_formula_units_Z 14
_cell_length_a 13.668195
_cell_length_b 9.317303
_cell_length_c 6.286868
_cell_angle_alpha 127.667027
_cell_angle_beta 96.357270
_cell_angle_gamma 70.522080
_cell_volume 592.833579
_symmetry_space_group_name_H-M "P -1"
_symmetry_group_IT_number 2
_symmetry_cell_setting 'triclinic'
loop_
_space_group_symop_operation_xyz
x,y,z
-x,-y,-z
loop_
_atom_site_type_symbol
_atom_site_label
_atom_site_fract_x
_atom_site_fract_y
_atom_site_fract_z
Si Si1 0.451587 0.665311 0.306743
Si Si2 0.909949 0.259350 0.829454
Si Si3 0.315133 0.003556 0.369564
Si Si4 0.584477 0.805663 0.757118
Si Si5 0.803852 0.174303 0.113798
Si Si6 0.728820 0.468352 0.713995
Si Si7 0.135135 0.078201 0.714910
O O1 0.528359 0.659802 0.517979
O O2 0.340110 0.658194 0.343166
O O3 0.424077 0.879707 0.396352
O O4 0.500000 0.500000 0.000000
O O5 0.820354 0.456432 0.900117
O O6 0.028402 0.265856 0.847069
O O7 0.895647 0.105350 0.522193
O O8 0.897663 0.190423 0.003056
O O9 0.339040 0.162015 0.374526
O O10 0.223888 0.110249 0.614422
O O11 0.286565 0.843210 0.078998
O O12 0.658059 0.692575 0.867589
O O13 0.500000 0.000000 0.000000
O O14 0.772012 0.375548 0.413378
O O15 0.829992 0.977993 0.083292
#
# Coordination Sequence:
#
# PCOD8038560 Si02
#       7
#     2   2   2   2   2   2   2
#     4  12  23  44  67  92 125 172 224 271 315 379
#     4   9  18  34  63  95 124 166 217 266 315 381
#     4  11  22  40  61  96 132 165 211 273 322 389
#     4  12  27  42  65  96 132 177 216 265 336 381
#     4  10  17  37  65  91 130 165 217 258 322 373
#     4  11  22  41  63  93 128 165 222 271 308 390
#     4   9  18  34  62  95 129 163 213 266 323 382
#
# _framework density 23.615397000000002
#
# number of rings (size 3 to 8) (size 9 to 14) (size 15 to 20)
#    0.000    1.429    4.286    3.857    0.000    1.143 
#    0.000    0.714    0.000    1.714    0.000    0.000 
#    0.000    0.000    0.000    0.000    0.000    0.000 
#
# Total GULP energy -173505.575020 kJ/mol
# GULP energy per Si atom -12393.255359 kJ/mol
# Density = 2.356165 g / cm^3
# Si number density = 23.615397 Si / 1000 Ang^3
#
#
#
# Elastic Constant Matrix: (Units=GPa)
#
#
# Indices 1 2 3 4 5 6 
#
# 1 113.3178 56.0472 35.5236 -6.8238 -30.4865 -13.4210
# 2 56.0472 142.9046 25.3466 -13.2830 -17.8822 -25.4630
# 3 35.5236 25.3466 83.9049 -11.3770 -15.8762 -3.0051
# 4 -6.8238 -13.2830 -11.3770 32.8123 6.1614 -4.7184
# 5 -30.4865 -17.8822 -15.8762 6.1614 23.2515 -1.0131
# 6 -13.4210 -25.4630 -3.0051 -4.7184 -1.0131 36.1419
#
#
#
# Elastic Compliance Matrix: (Units=1/GPa)
#
#
# Indices 1 2 3 4 5 6 
#
# 1 0.016400 -0.003174 -0.002688 -0.001588 0.017818 0.003922
# 2 -0.003174 0.010161 -0.000493 0.003726 0.002611 0.006499
# 3 -0.002688 -0.000493 0.014675 0.003414 0.005232 0.000467
# 4 -0.001588 0.003726 0.003414 0.034900 -0.005841 0.006712
# 5 0.017818 0.002611 0.005232 -0.005841 0.073944 0.010202
# 6 0.003922 0.006499 0.000467 0.006712 0.010202 0.034905
#
#
# Mechanical properties :
#
#
# Convention : Reuss Voigt Hill
#
# Bulk Modulus (GPa) = 35.05721 63.77359 49.41540
# Shear Modulus (GPa) = 24.13067 33.32180 28.72624
#
# Velocity S-wave (km/s) = 3.20006 3.76043 3.49150
# Velocity P-wave (km/s) = 5.34145 6.77629 6.10120
#
# Compressibility (1/GPa) = 0.02852481
#
# Stress axis : x y z
#
# Youngs Moduli (GPa) = 60.97532 98.41225 68.14332
#
# Poissons Ratio (x) = 0.31241 0.18316
# Poissons Ratio (y) = 0.19356 0.03363
# Poissons Ratio (z) = 0.16389 0.04856
#
# Static dielectric constant tensor:
#      x y z
#    x 4.785670 -0.339100 -0.488570 
#    y -0.339100 4.314080 -0.406610 
#    z -0.488570 -0.406610 4.292960 
# 
# 
# High freq. dielectric constant tensor:
#      x y z
#    x 1.932850 -0.017520 -0.014330 
#    y -0.017520 1.932210 -0.023650 
#    z -0.014330 -0.023650 1.919030 
# 
# From -- ./inp_files/46429.got.cif
#   From: 2010.06.25/outbox.cif.g09.slc.cpg/sg2_24_cif.got.tgz:46429.got - 2010.06.27 13:26:56.
