data_PCOD8038673
_publ_section_title
;
Structure prediction by ZEFSAII (Michael W. Deem and Ramdas Pophale) SiO2 
 PCOD8038673
Probable space group: P -1
;
_chemical_formula_sum "Si O2"
_cell_formula_units_Z 16
_cell_length_a 21.139325
_cell_length_b 15.834409
_cell_length_c 6.369004
_cell_angle_alpha 127.105368
_cell_angle_beta 47.790616
_cell_angle_gamma 144.121987
_cell_volume 916.875061
_symmetry_space_group_name_H-M "P -1"
_symmetry_group_IT_number 2
_symmetry_cell_setting 'triclinic'
loop_
_space_group_symop_operation_xyz
x,y,z
-x,-y,-z
loop_
_atom_site_type_symbol
_atom_site_label
_atom_site_fract_x
_atom_site_fract_y
_atom_site_fract_z
Si Si1 0.612382 0.980541 0.148830
Si Si2 0.216889 0.216119 0.303147
Si Si3 0.440971 0.704758 0.816792
Si Si4 0.358374 0.277878 0.700306
Si Si5 0.731878 0.607373 0.163811
Si Si6 0.950313 0.852738 0.783654
Si Si7 0.192813 0.011367 0.372515
Si Si8 0.537722 0.105585 0.262641
O O1 0.574161 0.952833 0.436162
O O2 0.624741 0.111165 0.226157
O O3 0.513023 0.832543 0.019317
O O4 0.738984 0.033426 0.932014
O O5 0.255597 0.347972 0.555663
O O6 0.109331 0.163368 0.323573
O O7 0.177486 0.085269 0.337498
O O8 0.327646 0.271594 0.002181
O O9 0.514890 0.666852 0.514497
O O10 0.323452 0.557753 0.964833
O O11 0.404866 0.742993 0.749085
O O12 0.357206 0.388534 0.748097
O O13 0.260075 0.116981 0.580193
O O14 0.858240 0.713537 0.928179
O O15 0.060323 0.867313 0.519166
O O16 0.000000 0.000000 0.000000
O O17 0.500000 0.000000 0.000000
#
# Coordination Sequence:
#
# PCOD8038673 Si02
#       8
#     2   2   2   2   2   2   2   2
#     4   9  19  34  54  75  98 124 157 205 253 288
#     4  10  18  29  47  69  97 134 168 198 241 273
#     4  10  19  32  49  72 103 129 161 196 243 301
#     4   9  18  30  45  70 101 132 163 199 234 287
#     4  10  21  30  44  72 101 138 166 194 237 282
#     4  11  19  33  47  67 102 135 170 205 228 276
#     4  10  18  30  50  73  95 130 168 203 238 280
#     4   9  18  34  53  76  97 121 158 203 251 299
#
# _framework density 17.450576999999999
#
# number of rings (size 3 to 8) (size 9 to 14) (size 15 to 20)
#    0.000    2.250    3.750    1.500    0.000    2.500 
#    0.000    0.000    0.000    0.750    0.000    8.750 
#    0.000    0.000    0.000    0.000    0.000    0.000 
#
# Total GULP energy -198331.869330 kJ/mol
# GULP energy per Si atom -12395.741833 kJ/mol
# Density = 1.741086 g / cm^3
# Si number density = 17.450577 Si / 1000 Ang^3
#
#
#
# Elastic Constant Matrix: (Units=GPa)
#
#
# Indices 1 2 3 4 5 6 
#
# 1 56.2923 43.4711 40.9843 -8.7437 -4.4461 -5.5167
# 2 43.4711 97.2046 37.8466 -21.0423 -10.1381 -11.0276
# 3 40.9843 37.8466 113.7530 -14.3656 -4.8966 -0.1097
# 4 -8.7437 -21.0423 -14.3656 19.3889 2.1306 -1.8709
# 5 -4.4461 -10.1381 -4.8966 2.1306 33.7112 -0.0583
# 6 -5.5167 -11.0276 -0.1097 -1.8709 -0.0583 18.8798
#
#
#
# Elastic Compliance Matrix: (Units=1/GPa)
#
#
# Indices 1 2 3 4 5 6 
#
# 1 0.032661 -0.012122 -0.008293 -0.004351 -0.000264 0.001983
# 2 -0.012122 0.021335 -0.000275 0.018118 0.003651 0.010725
# 3 -0.008293 -0.000275 0.012514 0.005004 0.000321 -0.002015
# 4 -0.004351 0.018118 0.005004 0.074497 0.000922 0.016725
# 5 -0.000264 0.003651 0.000321 0.000922 0.030719 0.002243
# 6 0.001983 0.010725 -0.002015 0.016725 0.002243 0.061463
#
#
# Mechanical properties :
#
#
# Convention : Reuss Voigt Hill
#
# Bulk Modulus (GPa) = 39.79384 56.87266 48.33325
# Shear Modulus (GPa) = 17.67107 24.05916 20.86512
#
# Velocity S-wave (km/s) = 3.18565 3.71712 3.46160
# Velocity P-wave (km/s) = 6.03194 7.14731 6.61318
#
# Compressibility (1/GPa) = 0.02512952
#
# Stress axis : x y z
#
# Youngs Moduli (GPa) = 30.61732 46.87026 79.90746
#
# Poissons Ratio (x) = 0.56816 0.66271
# Poissons Ratio (y) = 0.37114 0.02201
# Poissons Ratio (z) = 0.25392 0.01291
#
# Static dielectric constant tensor:
#      x y z
#    x 3.427250 -0.161180 0.005000 
#    y -0.161180 3.068820 -0.106310 
#    z 0.005000 -0.106310 3.512980 
# 
# 
# High freq. dielectric constant tensor:
#      x y z
#    x 1.667530 -0.009240 0.011400 
#    y -0.009240 1.639830 -0.011950 
#    z 0.011400 -0.011950 1.684040 
# 
# From -- ./inp_files/66245.got.cif
#   From: 2010.06.25/outbox.cif.g09.slc.cpg/sg2_34_cif.got.tgz:66245.got - 2010.06.27 13:26:56.
