data_PCOD8038801
_publ_section_title
;
Structure prediction by ZEFSAII (Michael W. Deem and Ramdas Pophale) SiO2 
 PCOD8038801
Probable space group: P -1
;
_chemical_formula_sum "Si O2"
_cell_formula_units_Z 16
_cell_length_a 12.189247
_cell_length_b 12.701616
_cell_length_c 12.409039
_cell_angle_alpha 118.637845
_cell_angle_beta 143.349875
_cell_angle_gamma 49.157553
_cell_volume 863.183148
_symmetry_space_group_name_H-M "P -1"
_symmetry_group_IT_number 2
_symmetry_cell_setting 'triclinic'
loop_
_space_group_symop_operation_xyz
x,y,z
-x,-y,-z
loop_
_atom_site_type_symbol
_atom_site_label
_atom_site_fract_x
_atom_site_fract_y
_atom_site_fract_z
Si Si1 0.168558 0.685956 0.805914
Si Si2 0.164424 0.325488 0.732414
Si Si3 0.006050 0.132469 0.439985
Si Si4 0.706749 0.650242 0.747956
Si Si5 0.972197 0.671355 0.144337
Si Si6 0.430802 0.371715 0.803998
Si Si7 0.786646 0.182262 0.513873
Si Si8 0.186494 0.362964 0.415673
O O1 0.114502 0.809137 0.739430
O O2 0.302903 0.539361 0.777136
O O3 0.954330 0.705602 0.700084
O O4 0.314628 0.691179 0.019825
O O5 0.180465 0.314258 0.868662
O O6 0.367704 0.324588 0.841988
O O7 0.155043 0.196955 0.611390
O O8 0.951032 0.469434 0.601714
O O9 0.833852 0.173740 0.419737
O O10 0.158789 0.966350 0.469282
O O11 0.463003 0.708514 0.616089
O O12 0.715674 0.688622 0.650243
O O13 0.827867 0.485315 0.784463
O O14 0.820207 0.715711 0.941371
O O15 0.068423 0.771434 0.283648
O O16 0.378981 0.309925 0.627581
#
# Coordination Sequence:
#
# PCOD8038801 Si02
#       8
#     2   2   2   2   2   2   2   2
#     4  10  19  32  53  83 110 138 177 229 269 314
#     4   9  16  33  56  79 112 135 173 232 273 312
#     4  10  19  37  55  79 116 141 179 225 267 323
#     4  10  21  37  58  78 109 146 180 222 272 322
#     4   9  20  37  55  84 106 139 185 229 267 314
#     4  10  18  30  55  87 104 140 180 221 279 312
#     4  10  22  37  55  80 110 149 179 219 270 324
#     4  10  18  34  54  80 113 135 176 230 265 318
#
# _framework density 18.536042999999999
#
# number of rings (size 3 to 8) (size 9 to 14) (size 15 to 20)
#    0.000    2.250    2.500    1.125    1.750    1.000 
#    4.500    2.500    0.000    1.500    0.000    0.000 
#    0.000    0.000    0.000    0.000    0.000    0.000 
#
# Total GULP energy -198402.871652 kJ/mol
# GULP energy per Si atom -12400.179478 kJ/mol
# Density = 1.849385 g / cm^3
# Si number density = 18.536043 Si / 1000 Ang^3
#
#
#
# Elastic Constant Matrix: (Units=GPa)
#
#
# Indices 1 2 3 4 5 6 
#
# 1 81.2547 32.1139 60.6201 -2.3326 -5.4126 9.7291
# 2 32.1139 61.3611 24.1282 8.7140 -1.2540 16.0574
# 3 60.6201 24.1282 141.2564 6.9865 -3.4216 1.5257
# 4 -2.3326 8.7140 6.9865 18.0625 2.5484 -1.5094
# 5 -5.4126 -1.2540 -3.4216 2.5484 23.2817 2.8643
# 6 9.7291 16.0574 1.5257 -1.5094 2.8643 21.3981
#
#
#
# Elastic Compliance Matrix: (Units=1/GPa)
#
#
# Indices 1 2 3 4 5 6 
#
# 1 0.023503 -0.009593 -0.008872 0.010492 0.002801 -0.002490
# 2 -0.009593 0.028630 0.000371 -0.017274 0.003576 -0.018846
# 3 -0.008872 0.000371 0.011057 -0.005362 -0.000152 0.002609
# 4 0.010492 -0.017274 -0.005362 0.069576 -0.008697 0.014646
# 5 0.002801 0.003576 -0.000152 -0.008697 0.046045 -0.010723
# 6 -0.002490 -0.018846 0.002609 0.014646 -0.010723 0.064290
#
#
# Mechanical properties :
#
#
# Convention : Reuss Voigt Hill
#
# Bulk Modulus (GPa) = 37.03499 57.51076 47.27287
# Shear Modulus (GPa) = 17.34371 23.68248 20.51309
#
# Velocity S-wave (km/s) = 3.06220 3.57829 3.33026
# Velocity P-wave (km/s) = 5.70317 6.94018 6.35186
#
# Compressibility (1/GPa) = 0.02700150
#
# Stress axis : x y z
#
# Youngs Moduli (GPa) = 42.54714 34.92898 90.44305
#
# Poissons Ratio (x) = 0.33508 0.80241
# Poissons Ratio (y) = 0.40817 -0.03357
# Poissons Ratio (z) = 0.37748 -0.01297
#
# Static dielectric constant tensor:
#      x y z
#    x 3.406740 0.155160 -0.089830 
#    y 0.155160 3.176600 0.088070 
#    z -0.089830 0.088070 3.426500 
# 
# 
# High freq. dielectric constant tensor:
#      x y z
#    x 1.715870 0.016220 -0.001940 
#    y 0.016220 1.686770 0.007190 
#    z -0.001940 0.007190 1.723200 
# 
# From -- ./inp_files/308138.got.cif
#   From: 2010.06.25/outbox.cif.g09.slc.cpg/sg2_155_cif.got.tgz:308138.got - 2010.06.27 13:26:56.
