data_PCOD8038926
_publ_section_title
;
Structure prediction by ZEFSAII (Michael W. Deem and Ramdas Pophale) SiO2 
 PCOD8038926
Probable space group: P -1
;
_chemical_formula_sum "Si O2"
_cell_formula_units_Z 16
_cell_length_a 8.092770
_cell_length_b 15.024626
_cell_length_c 8.179845
_cell_angle_alpha 59.856900
_cell_angle_beta 61.825963
_cell_angle_gamma 50.327564
_cell_volume 644.631207
_symmetry_space_group_name_H-M "P -1"
_symmetry_group_IT_number 2
_symmetry_cell_setting 'triclinic'
loop_
_space_group_symop_operation_xyz
x,y,z
-x,-y,-z
loop_
_atom_site_type_symbol
_atom_site_label
_atom_site_fract_x
_atom_site_fract_y
_atom_site_fract_z
Si Si1 0.917605 0.417126 0.303327
Si Si2 0.905395 0.763637 0.331890
Si Si3 0.704203 0.023297 0.320335
Si Si4 0.799994 0.256791 0.343929
Si Si5 0.686049 0.891277 0.820025
Si Si6 0.430917 0.868378 0.361859
Si Si7 0.260542 0.765385 0.966710
Si Si8 0.686509 0.667926 0.048890
O O1 0.755317 0.382520 0.321813
O O2 0.788337 0.563319 0.235202
O O3 0.969256 0.360591 0.510753
O O4 0.146412 0.364229 0.149326
O O5 0.688116 0.773290 0.353432
O O6 0.055243 0.752960 0.119416
O O7 0.860958 0.879181 0.352954
O O8 0.458723 0.073980 0.313453
O O9 0.688015 0.057844 0.484751
O O10 0.804509 0.095224 0.117378
O O11 0.693228 0.201048 0.568669
O O12 0.060434 0.166682 0.290898
O O13 0.675630 0.282727 0.204679
O O14 0.611093 0.017177 0.838966
O O15 0.644911 0.795230 0.028780
O O16 0.465300 0.682338 0.066758
#
# Coordination Sequence:
#
# PCOD8038926 Si02
#       8
#     2   2   2   2   2   2   2   2
#     4  10  20  36  61  78  98 138 191 220 246 308
#     4  11  20  34  54  80 106 142 179 214 259 316
#     4   9  17  33  54  76 106 143 178 213 257 317
#     4  10  19  33  52  81 110 137 168 217 270 313
#     4   9  16  30  54  79 101 131 175 219 255 298
#     4  10  18  31  55  82 110 135 172 219 263 312
#     4  10  21  34  52  78 114 139 167 217 277 315
#     4   9  19  37  57  78 101 140 183 220 254 307
#
# _framework density 24.820394
#
# number of rings (size 3 to 8) (size 9 to 14) (size 15 to 20)
#    0.000    2.250    0.000    6.750    0.000    2.000 
#    0.000    7.500    0.000    7.500    0.000    0.000 
#    0.000    0.000    0.000    0.000    0.000    0.000 
#
# Total GULP energy -198306.481788 kJ/mol
# GULP energy per Si atom -12394.155112 kJ/mol
# Density = 2.476390 g / cm^3
# Si number density = 24.820394 Si / 1000 Ang^3
#
#
#
# Elastic Constant Matrix: (Units=GPa)
#
#
# Indices 1 2 3 4 5 6 
#
# 1 109.4674 31.9529 28.0872 -17.8087 -31.0806 -9.8008
# 2 31.9529 82.1663 33.1258 -44.1752 -3.5809 4.1852
# 3 28.0872 33.1258 99.6755 -38.8722 -20.7009 -4.4331
# 4 -17.8087 -44.1752 -38.8722 38.1374 0.8262 2.4332
# 5 -31.0806 -3.5809 -20.7009 0.8262 40.3765 -3.0841
# 6 -9.8008 4.1852 -4.4331 2.4332 -3.0841 26.1412
#
#
#
# Elastic Compliance Matrix: (Units=1/GPa)
#
#
# Indices 1 2 3 4 5 6 
#
# 1 0.014739 -0.006010 0.000493 -0.000338 0.011682 0.007982
# 2 -0.006010 0.040899 0.009269 0.054752 0.001707 -0.012124
# 3 0.000493 0.009269 0.022426 0.033512 0.012076 0.000809
# 4 -0.000338 0.054752 0.033512 0.124048 0.018276 -0.012600
# 5 0.011682 0.001707 0.012076 0.018276 0.040433 0.009223
# 6 0.007982 -0.012124 0.000809 -0.012600 0.009223 0.045586
#
#
# Mechanical properties :
#
#
# Convention : Reuss Voigt Hill
#
# Bulk Modulus (GPa) = 11.68649 53.07123 32.37886
# Shear Modulus (GPa) = 16.17339 34.14058 25.15699
#
# Velocity S-wave (km/s) = 2.55545 3.71280 3.18710
# Velocity P-wave (km/s) = 3.66411 6.30939 5.15917
#
# Compressibility (1/GPa) = 0.08556892
#
# Stress axis : x y z
#
# Youngs Moduli (GPa) = 67.84544 24.45055 44.59045
#
# Poissons Ratio (x) = 0.14695 -0.02199
# Poissons Ratio (y) = 0.40776 -0.41331
# Poissons Ratio (z) = -0.03346 -0.22663
#
# Static dielectric constant tensor:
#      x y z
#    x 4.550710 0.235370 -0.439350 
#    y 0.235370 4.366520 -0.545410 
#    z -0.439350 -0.545410 4.737300 
# 
# 
# High freq. dielectric constant tensor:
#      x y z
#    x 1.989620 -0.003290 -0.022260 
#    y -0.003290 1.955260 -0.020740 
#    z -0.022260 -0.020740 1.998260 
# 
# From -- ./inp_files/216628.got.cif
#   From: 2010.06.25/outbox.cif.g09.slc.cpg/sg2_109_cif.got.tgz:216628.got - 2010.06.27 13:26:56.
