data_PCOD8038630
_publ_section_title
;
Structure prediction by ZEFSAII (Michael W. Deem and Ramdas Pophale) SiO2 
 PCOD8038630
Probable space group: P -1
;
_chemical_formula_sum "Si O2"
_cell_formula_units_Z 16
_cell_length_a 15.232581
_cell_length_b 18.414286
_cell_length_c 17.933644
_cell_angle_alpha 163.806254
_cell_angle_beta 46.703772
_cell_angle_gamma 132.585481
_cell_volume 1016.969532
_symmetry_space_group_name_H-M "P -1"
_symmetry_group_IT_number 2
_symmetry_cell_setting 'triclinic'
loop_
_space_group_symop_operation_xyz
x,y,z
-x,-y,-z
loop_
_atom_site_type_symbol
_atom_site_label
_atom_site_fract_x
_atom_site_fract_y
_atom_site_fract_z
Si Si1 0.937252 0.242193 0.688930
Si Si2 0.910065 0.229776 0.863559
Si Si3 0.457293 0.285716 0.643037
Si Si4 0.692278 0.250528 0.759393
Si Si5 0.339669 0.997926 0.153274
Si Si6 0.479448 0.751330 0.599933
Si Si7 0.427290 0.731974 0.297022
Si Si8 0.422485 0.217582 0.176599
O O1 0.882503 0.226513 0.788407
O O2 0.831165 0.288127 0.738843
O O3 0.993399 0.973386 0.371682
O O4 0.040056 0.480742 0.855222
O O5 0.786832 0.157548 0.907727
O O6 0.508936 0.290407 0.535177
O O7 0.577268 0.287998 0.629656
O O8 0.364960 0.032767 0.461177
O O9 0.384160 0.537643 0.947213
O O10 0.693176 0.281353 0.697876
O O11 0.386298 0.195309 0.388166
O O12 0.328156 0.158370 0.241071
O O13 0.440333 0.788968 0.876607
O O14 0.405484 0.497221 0.427383
O O15 0.402067 0.996503 0.905479
O O16 0.500000 0.000000 0.500000
O O17 0.500000 0.500000 0.000000
#
# Coordination Sequence:
#
# PCOD8038630 Si02
#       8
#     2   2   2   2   2   2   2   2
#     4  10  21  32  41  66  85 119 154 184 202 249
#     4  10  21  31  45  60  90 114 155 185 210 242
#     4  10  18  27  47  67  88 118 145 175 223 268
#     4  10  18  31  45  60  92 120 149 180 215 255
#     4   9  20  31  48  60  90 119 144 182 227 253
#     4  10  18  28  43  67  89 110 143 177 213 278
#     4   8  16  28  42  64  85 113 145 177 214 264
#     4   9  20  30  45  66  86 114 148 178 223 274
#
# _framework density 15.733018
#
# number of rings (size 3 to 8) (size 9 to 14) (size 15 to 20)
#    0.750    1.750    0.000    2.625    3.500    1.000 
#    0.000    0.000    0.000    0.000    0.000    0.000 
#    0.000    6.000    0.000    0.000    0.000    0.000 
#
# Total GULP energy -198222.663015 kJ/mol
# GULP energy per Si atom -12388.916438 kJ/mol
# Density = 1.569721 g / cm^3
# Si number density = 15.733018 Si / 1000 Ang^3
#
#
#
# Elastic Constant Matrix: (Units=GPa)
#
#
# Indices 1 2 3 4 5 6 
#
# 1 86.3529 38.7568 13.9458 -5.2064 3.4883 -14.4577
# 2 38.7568 99.1135 10.8981 2.8359 8.2906 -5.9133
# 3 13.9458 10.8981 60.1467 12.5087 4.5740 -5.7411
# 4 -5.2064 2.8359 12.5087 21.4618 -5.4856 3.3111
# 5 3.4883 8.2906 4.5740 -5.4856 17.0782 -3.3037
# 6 -14.4577 -5.9133 -5.7411 3.3111 -3.3037 21.5698
#
#
#
# Elastic Compliance Matrix: (Units=1/GPa)
#
#
# Indices 1 2 3 4 5 6 
#
# 1 0.016509 -0.006130 -0.003708 0.006851 0.004347 0.008013
# 2 -0.006130 0.013127 0.000630 -0.005312 -0.007115 -0.000616
# 3 -0.003708 0.000630 0.022165 -0.017207 -0.010106 0.004680
# 4 0.006851 -0.005312 -0.017207 0.066760 0.025732 -0.007751
# 5 0.004347 -0.007115 -0.010106 0.025732 0.073162 0.005529
# 6 0.008013 -0.000616 0.004680 -0.007751 0.005529 0.054845
#
#
# Mechanical properties :
#
#
# Convention : Reuss Voigt Hill
#
# Bulk Modulus (GPa) = 29.95221 41.42384 35.68803
# Shear Modulus (GPa) = 18.10853 24.15613 21.13233
#
# Velocity S-wave (km/s) = 3.39630 3.92264 3.66892
# Velocity P-wave (km/s) = 5.87018 6.84854 6.37815
#
# Compressibility (1/GPa) = 0.03338651
#
# Stress axis : x y z
#
# Youngs Moduli (GPa) = 60.57224 76.17635 45.11529
#
# Poissons Ratio (x) = 0.46693 0.16728
# Poissons Ratio (y) = 0.37128 -0.02840
# Poissons Ratio (z) = 0.22459 -0.04796
#
# Static dielectric constant tensor:
#      x y z
#    x 3.072380 -0.359400 0.132380 
#    y -0.359400 2.850840 0.133040 
#    z 0.132380 0.133040 3.150620 
# 
# 
# High freq. dielectric constant tensor:
#      x y z
#    x 1.573640 -0.025760 0.010450 
#    y -0.025760 1.581990 0.019250 
#    z 0.010450 0.019250 1.621610 
# 
# From -- ./inp_files/534675.got.cif
#   From: 2010.06.25/outbox.cif.g09.slc.cpg/sg2_268_cif.got.tgz:534675.got - 2010.06.27 13:26:56.
