data_PCOD8038540
_publ_section_title
;
Structure prediction by ZEFSAII (Michael W. Deem and Ramdas Pophale) SiO2 
 PCOD8038540
Probable space group: P -1
;
_chemical_formula_sum "Si O2"
_cell_formula_units_Z 14
_cell_length_a 19.789735
_cell_length_b 11.531550
_cell_length_c 8.098401
_cell_angle_alpha 143.775483
_cell_angle_beta 62.687185
_cell_angle_gamma 140.272850
_cell_volume 630.915189
_symmetry_space_group_name_H-M "P -1"
_symmetry_group_IT_number 2
_symmetry_cell_setting 'triclinic'
loop_
_space_group_symop_operation_xyz
x,y,z
-x,-y,-z
loop_
_atom_site_type_symbol
_atom_site_label
_atom_site_fract_x
_atom_site_fract_y
_atom_site_fract_z
Si Si1 0.587499 0.469036 0.171098
Si Si2 0.434782 0.545772 0.465488
Si Si3 0.971766 0.480080 0.820775
Si Si4 0.180941 0.148500 0.835639
Si Si5 0.801942 0.028434 0.060520
Si Si6 0.526237 0.785264 0.316097
Si Si7 0.202782 0.632653 0.309482
O O1 0.542760 0.603803 0.403606
O O2 0.569484 0.338194 0.224366
O O3 0.722798 0.736271 0.273042
O O4 0.517645 0.211405 0.807875
O O5 0.454384 0.723262 0.485933
O O6 0.311765 0.188102 0.177402
O O7 0.083987 0.798174 0.974131
O O8 0.862500 0.413161 0.833653
O O9 0.939355 0.204126 0.465210
O O10 0.000000 0.500000 0.000000
O O11 0.223116 0.183568 0.014177
O O12 0.153841 0.323078 0.048033
O O13 0.825157 0.285802 0.409794
O O14 0.658878 0.100334 0.566822
O O15 0.500000 0.500000 0.000000
#
# Coordination Sequence:
#
# PCOD8038540 Si02
#       7
#     2   2   2   2   2   2   2
#     4  10  19  34  62  92 126 168 206 260 314 369
#     4  10  18  35  63  91 127 165 217 258 306 382
#     4  11  25  43  67  91 124 168 215 268 327 379
#     4  11  23  41  65  95 126 167 218 261 323 383
#     4  11  21  41  65  90 123 172 214 262 323 378
#     4  10  17  37  62  88 128 167 206 256 314 373
#     4  11  23  41  66  93 126 168 213 270 317 379
#
# _framework density 22.189988
#
# number of rings (size 3 to 8) (size 9 to 14) (size 15 to 20)
#    0.000    1.429    4.286    5.143    0.000    4.571 
#    0.000    2.143    0.000    0.000    0.000    0.000 
#    0.000    0.000    0.000    0.000    0.000    0.000 
#
# Total GULP energy -173498.795785 kJ/mol
# GULP energy per Si atom -12392.771127 kJ/mol
# Density = 2.213948 g / cm^3
# Si number density = 22.189988 Si / 1000 Ang^3
#
#
#
# Elastic Constant Matrix: (Units=GPa)
#
#
# Indices 1 2 3 4 5 6 
#
# 1 99.7423 40.9580 52.6484 -4.7732 9.7233 -15.5225
# 2 40.9580 165.4102 33.4328 -22.2877 24.6672 -22.6335
# 3 52.6484 33.4328 72.8196 -4.5372 9.6950 -16.7342
# 4 -4.7732 -22.2877 -4.5372 37.1410 -12.1097 14.5779
# 5 9.7233 24.6672 9.6950 -12.1097 37.5749 2.9742
# 6 -15.5225 -22.6335 -16.7342 14.5779 2.9742 32.4719
#
#
#
# Elastic Compliance Matrix: (Units=1/GPa)
#
#
# Indices 1 2 3 4 5 6 
#
# 1 0.016801 -0.001733 -0.010872 -0.001256 -0.000958 0.001872
# 2 -0.001733 0.008071 -0.000808 0.001418 -0.004514 0.004158
# 3 -0.010872 -0.000808 0.024484 -0.004132 -0.005032 0.009174
# 4 -0.001256 0.001418 -0.004132 0.040401 0.015164 -0.021268
# 5 -0.000958 -0.004514 -0.005032 0.015164 0.037310 -0.016422
# 6 0.001872 0.004158 0.009174 -0.021268 -0.016422 0.050368
#
#
# Mechanical properties :
#
#
# Convention : Reuss Voigt Hill
#
# Bulk Modulus (GPa) = 44.38358 65.78342 55.08350
# Shear Modulus (GPa) = 23.61042 35.49973 29.55508
#
# Velocity S-wave (km/s) = 3.26546 4.00410 3.65349
# Velocity P-wave (km/s) = 5.85343 7.14752 6.53260
#
# Compressibility (1/GPa) = 0.02253085
#
# Stress axis : x y z
#
# Youngs Moduli (GPa) = 59.52156 123.89909 40.84248
#
# Poissons Ratio (x) = 0.21471 0.44403
# Poissons Ratio (y) = 0.10315 0.03300
# Poissons Ratio (z) = 0.64710 0.10011
#
# Static dielectric constant tensor:
#      x y z
#    x 4.137990 -0.324140 0.451320 
#    y -0.324140 4.546940 -0.243370 
#    z 0.451320 -0.243370 3.966940 
# 
# 
# High freq. dielectric constant tensor:
#      x y z
#    x 1.857820 -0.008900 0.026660 
#    y -0.008900 1.881830 0.004090 
#    z 0.026660 0.004090 1.859480 
# 
# From -- ./inp_files/346472.got.cif
#   From: 2010.06.25/outbox.cif.g09.slc.cpg/sg2_174_cif.got.tgz:346472.got - 2010.06.27 13:26:56.
