data_PCOD8038634
_publ_section_title
;
Structure prediction by ZEFSAII (Michael W. Deem and Ramdas Pophale) SiO2 
 PCOD8038634
Probable space group: P -1
;
_chemical_formula_sum "Si O2"
_cell_formula_units_Z 12
_cell_length_a 14.185575
_cell_length_b 24.970408
_cell_length_c 27.775917
_cell_angle_alpha 170.615763
_cell_angle_beta 25.462095
_cell_angle_gamma 154.489718
_cell_volume 679.982522
_symmetry_space_group_name_H-M "P -1"
_symmetry_group_IT_number 2
_symmetry_cell_setting 'triclinic'
loop_
_space_group_symop_operation_xyz
x,y,z
-x,-y,-z
loop_
_atom_site_type_symbol
_atom_site_label
_atom_site_fract_x
_atom_site_fract_y
_atom_site_fract_z
Si Si1 0.386287 0.653162 0.144835
Si Si2 0.970605 0.902126 0.164706
Si Si3 0.581123 0.885198 0.810692
Si Si4 0.987000 0.248130 0.182906
Si Si5 0.198986 0.117115 0.151228
Si Si6 0.379949 0.685780 0.342573
O O1 0.495783 0.564889 0.966311
O O2 0.568222 0.947362 0.515582
O O3 0.500000 0.500000 0.000000
O O4 0.127066 0.480111 0.114036
O O5 0.150616 0.034941 0.241074
O O6 0.073462 0.915109 0.075155
O O7 0.774141 0.127131 0.455711
O O8 0.500000 0.500000 0.500000
O O9 0.500000 0.000000 0.000000
O O10 0.460564 0.078518 0.996907
O O11 0.812796 0.491929 0.492810
O O12 0.227683 0.473148 0.264229
O O13 0.914074 0.041166 0.985155
O O14 0.000000 0.000000 0.000000
#
# Coordination Sequence:
#
# PCOD8038634 Si02
#       6
#     2   2   2   2   2   2
#     4  10  18  28  44  68  98 128 150 182 230 287
#     4   9  18  30  48  71 102 131 148 180 238 295
#     4  10  19  30  47  71 101 132 155 185 232 289
#     4  11  21  35  52  69  92 127 164 207 247 269
#     4  10  20  33  48  74 100 123 161 199 231 287
#     4  10  19  30  44  69  97 121 157 195 226 281
#
# _framework density 17.647513
#
# number of rings (size 3 to 8) (size 9 to 14) (size 15 to 20)
#    0.000    2.000    0.000    8.500    0.000    6.667 
#    0.000    0.000    0.000    0.000    0.000    7.000 
#    0.000    0.000    0.000    0.000    0.000    0.000 
#
# Total GULP energy -148717.892930 kJ/mol
# GULP energy per Si atom -12393.157744 kJ/mol
# Density = 1.760735 g / cm^3
# Si number density = 17.647513 Si / 1000 Ang^3
#
#
#
# Elastic Constant Matrix: (Units=GPa)
#
#
# Indices 1 2 3 4 5 6 
#
# 1 88.8606 48.2309 43.3480 9.8374 9.2744 9.6734
# 2 48.2309 68.0412 33.1397 20.1645 -1.9883 13.5305
# 3 43.3480 33.1397 100.9654 1.8713 12.9922 -3.2395
# 4 9.8374 20.1645 1.8713 27.0113 -0.9529 3.8656
# 5 9.2744 -1.9883 12.9922 -0.9529 33.1072 2.9863
# 6 9.6734 13.5305 -3.2395 3.8656 2.9863 27.0219
#
#
#
# Elastic Compliance Matrix: (Units=1/GPa)
#
#
# Indices 1 2 3 4 5 6 
#
# 1 0.020922 -0.013726 -0.003920 0.002858 -0.004979 -0.000945
# 2 -0.013726 0.036646 -0.007397 -0.019713 0.009514 -0.012554
# 3 -0.003920 -0.007397 0.014876 0.004740 -0.005664 0.006838
# 4 0.002858 -0.019713 0.004740 0.049908 -0.002640 0.002568
# 5 -0.004979 0.009514 -0.005664 -0.002640 0.034962 -0.007146
# 6 -0.000945 -0.012554 0.006838 0.002568 -0.007146 0.044874
#
#
# Mechanical properties :
#
#
# Convention : Reuss Voigt Hill
#
# Bulk Modulus (GPa) = 44.72624 56.36717 50.54670
# Shear Modulus (GPa) = 19.25109 26.30464 22.77787
#
# Velocity S-wave (km/s) = 3.30641 3.86496 3.59655
# Velocity P-wave (km/s) = 6.32263 7.20605 6.77875
#
# Compressibility (1/GPa) = 0.02235824
#
# Stress axis : x y z
#
# Youngs Moduli (GPa) = 47.79657 27.28820 67.22435
#
# Poissons Ratio (x) = 0.37456 0.26351
# Poissons Ratio (y) = 0.65605 0.49725
# Poissons Ratio (z) = 0.18736 0.20185
#
# Static dielectric constant tensor:
#      x y z
#    x 3.614230 0.614230 0.237580 
#    y 0.614230 4.264230 0.419060 
#    z 0.237580 0.419060 3.717490 
# 
# 
# High freq. dielectric constant tensor:
#      x y z
#    x 1.654630 0.018690 0.036300 
#    y 0.018690 1.667070 -0.004570 
#    z 0.036300 -0.004570 1.684160 
# 
# From -- ./inp_files/619915.got.cif
#   From: 2010.06.25/outbox.cif.g09.slc.cpg/sg2_310_cif.got.tgz:619915.got - 2010.06.27 13:26:56.
