data_PCOD8038952
_publ_section_title
;
Structure prediction by ZEFSAII (Michael W. Deem and Ramdas Pophale) SiO2 
 PCOD8038952
Probable space group: P -1
;
_chemical_formula_sum "Si O2"
_cell_formula_units_Z 16
_cell_length_a 11.964662
_cell_length_b 20.426746
_cell_length_c 10.903297
_cell_angle_alpha 70.126979
_cell_angle_beta 79.528359
_cell_angle_gamma 21.633908
_cell_volume 851.861500
_symmetry_space_group_name_H-M "P -1"
_symmetry_group_IT_number 2
_symmetry_cell_setting 'triclinic'
loop_
_space_group_symop_operation_xyz
x,y,z
-x,-y,-z
loop_
_atom_site_type_symbol
_atom_site_label
_atom_site_fract_x
_atom_site_fract_y
_atom_site_fract_z
Si Si1 0.729399 0.596728 0.970096
Si Si2 0.680317 0.549421 0.251773
Si Si3 0.778670 0.293079 0.636513
Si Si4 0.172171 0.281158 0.895035
Si Si5 0.740120 0.893791 0.176974
Si Si6 0.017944 0.476106 0.368974
Si Si7 0.332530 0.124173 0.332854
Si Si8 0.590914 0.122393 0.317867
O O1 0.428495 0.803273 0.822618
O O2 0.900565 0.437083 0.958089
O O3 0.575831 0.655565 0.088211
O O4 0.000000 0.500000 0.000000
O O5 0.366943 0.690364 0.277700
O O6 0.840077 0.505520 0.354210
O O7 0.940870 0.340053 0.288334
O O8 0.500000 0.500000 0.500000
O O9 0.977767 0.224012 0.738825
O O10 0.028736 0.120517 0.590542
O O11 0.083575 0.269097 0.828897
O O12 0.165334 0.358016 0.775326
O O13 0.535401 0.061048 0.019387
O O14 0.495768 0.996630 0.260188
O O15 0.408810 0.248611 0.400400
O O16 0.000000 0.500000 0.500000
O O17 0.381556 0.178706 0.268641
O O18 0.500000 0.000000 0.500000
#
# Coordination Sequence:
#
# PCOD8038952 Si02
#       8
#     2   2   2   2   2   2   2   2
#     4  11  16  37  61  87 113 144 205 257 290 346
#     4  11  21  35  62  87 113 157 201 245 297 350
#     4  11  24  40  57  87 128 161 195 237 301 369
#     4  10  20  37  63  87 117 152 195 260 296 338
#     4  10  21  38  60  84 120 156 198 240 308 349
#     4  10  22  36  63  92 116 148 209 255 294 344
#     4  10  18  31  57  84 109 150 205 247 279 341
#     4   9  20  36  57  81 117 154 195 246 296 341
#
# _framework density 18.782395000000001
#
# number of rings (size 3 to 8) (size 9 to 14) (size 15 to 20)
#    0.000    1.750    5.000    2.250    5.250    0.500 
#    0.000    1.250    0.000    0.000    0.000    0.000 
#    0.000    0.000    0.000    0.000    0.000    0.000 
#
# Total GULP energy -198308.664793 kJ/mol
# GULP energy per Si atom -12394.291550 kJ/mol
# Density = 1.873965 g / cm^3
# Si number density = 18.782395 Si / 1000 Ang^3
#
#
#
# Elastic Constant Matrix: (Units=GPa)
#
#
# Indices 1 2 3 4 5 6 
#
# 1 78.9598 52.8236 34.3391 4.9507 3.4197 4.6114
# 2 52.8236 132.1894 51.5518 4.0922 4.7396 12.9052
# 3 34.3391 51.5518 96.2383 5.5121 0.0637 6.5525
# 4 4.9507 4.0922 5.5121 38.8315 5.0975 -0.0086
# 5 3.4197 4.7396 0.0637 5.0975 25.7556 1.4721
# 6 4.6114 12.9052 6.5525 -0.0086 1.4721 31.0152
#
#
#
# Elastic Compliance Matrix: (Units=1/GPa)
#
#
# Indices 1 2 3 4 5 6 
#
# 1 0.018156 -0.005962 -0.003258 -0.001077 -0.001122 0.000523
# 2 -0.005962 0.011861 -0.004026 0.000245 -0.001250 -0.003139
# 3 -0.003258 -0.004026 0.013841 -0.001315 0.001447 -0.000834
# 4 -0.001077 0.000245 -0.001315 0.026736 -0.005224 0.000591
# 5 -0.001122 -0.001250 0.001447 -0.005224 0.040324 -0.001534
# 6 0.000523 -0.003139 -0.000834 0.000591 -0.001534 0.033720
#
#
# Mechanical properties :
#
#
# Convention : Reuss Voigt Hill
#
# Bulk Modulus (GPa) = 57.58190 64.97960 61.28075
# Shear Modulus (GPa) = 28.26188 30.36535 29.31361
#
# Velocity S-wave (km/s) = 3.88326 4.02517 3.95485
# Velocity P-wave (km/s) = 7.12953 7.50159 7.31792
#
# Compressibility (1/GPa) = 0.01736657
#
# Stress axis : x y z
#
# Youngs Moduli (GPa) = 55.07955 84.30961 72.25010
#
# Poissons Ratio (x) = 0.50266 0.23536
# Poissons Ratio (y) = 0.32839 0.29086
# Poissons Ratio (z) = 0.17943 0.33941
#
# Static dielectric constant tensor:
#      x y z
#    x 3.299170 0.265160 -0.176660 
#    y 0.265160 3.806190 0.109910 
#    z -0.176660 0.109910 3.523330 
# 
# 
# High freq. dielectric constant tensor:
#      x y z
#    x 1.696970 0.024080 -0.023490 
#    y 0.024080 1.732760 0.004110 
#    z -0.023490 0.004110 1.733330 
# 
# From -- ./inp_files/266822.got.cif
#   From: 2010.06.25/outbox.cif.g09.slc.cpg/sg2_134_cif.got.tgz:266822.got - 2010.06.27 13:26:56.
