data_PCOD8038305
_publ_section_title
;
Structure prediction by ZEFSAII (Michael W. Deem and Ramdas Pophale) SiO2 
 PCOD8038305
Probable space group: P -1
;
_chemical_formula_sum "Si O2"
_cell_formula_units_Z 16
_cell_length_a 12.000000
_cell_length_b 9.000000
_cell_length_c 21.000000
_cell_angle_alpha 150.000000
_cell_angle_beta 40.000000
_cell_angle_gamma 130.000000
_cell_volume 727.418465
_symmetry_space_group_name_H-M "P -1"
_symmetry_group_IT_number 2
_symmetry_cell_setting 'triclinic'
loop_
_space_group_symop_operation_xyz
x,y,z
-x,-y,-z
loop_
_atom_site_type_symbol
_atom_site_label
_atom_site_fract_x
_atom_site_fract_y
_atom_site_fract_z
Si Si1 0.172793 0.783319 0.976348
Si Si2 0.152873 0.725886 0.513276
Si Si3 0.692694 0.586295 0.449957
Si Si4 0.475227 0.416833 0.771777
Si Si5 0.576449 0.216369 0.784292
Si Si6 0.812317 0.053248 0.282916
Si Si7 0.912799 0.620539 0.245700
Si Si8 0.247097 0.299692 0.037916
O O1 0.347107 0.703572 0.913197
O O2 0.152370 0.482818 0.833143
O O3 0.201343 0.066774 0.025321
O O4 0.995602 0.854371 0.121033
O O5 0.338234 0.611093 0.357328
O O6 0.208892 0.793600 0.583950
O O7 0.000000 0.500000 0.500000
O O8 0.060680 0.026593 0.634385
O O9 0.500000 0.500000 0.500000
O O10 0.812815 0.334291 0.339563
O O11 0.759628 0.581079 0.347242
O O12 0.692085 0.916783 0.603606
O O13 0.532071 0.444036 0.830170
O O14 0.360843 0.127479 0.714822
O O15 0.694038 0.392683 0.845626
O O16 0.395694 0.140048 0.868830
O O17 0.080758 0.402095 0.106354
#
# Coordination Sequence:
#
# PCOD8038305 Si02
#       8
#     2   2   2   2   2   2   2   2
#     4  12  27  45  74 107 144 193 241 294 362 429
#     4  12  30  47  72 107 146 190 240 299 368 424
#     4  12  24  42  76 101 137 184 238 295 352 421
#     4  12  26  48  73 103 150 186 244 294 353 440
#     4  11  26  46  71 105 142 191 239 293 365 419
#     4  12  26  47  72 110 143 194 240 296 359 430
#     4  12  25  47  71 103 144 184 242 298 350 428
#     4  11  27  45  71 104 147 188 235 300 355 430
#
# _framework density 21.995591999999998
#
# number of rings (size 3 to 8) (size 9 to 14) (size 15 to 20)
#    0.000    0.250    5.000    2.625    8.750    2.000 
#    0.000    0.000    0.000    0.000    0.000    0.000 
#    0.000    0.000    0.000    0.000    0.000    0.000 
#
# Total GULP energy -198337.201507 kJ/mol
# GULP energy per Si atom -12396.075094 kJ/mol
# Density = 2.194553 g / cm^3
# Si number density = 21.995592 Si / 1000 Ang^3
#
#
#
# Elastic Constant Matrix: (Units=GPa)
#
#
# Indices 1 2 3 4 5 6 
#
# 1 63.0722 15.7020 23.0814 -3.9993 -16.5737 -7.9622
# 2 15.7020 118.2365 32.1730 -14.7069 -12.2676 2.7713
# 3 23.0814 32.1730 118.4555 -14.6498 -19.8746 7.6430
# 4 -3.9993 -14.7069 -14.6498 50.8654 -12.4160 -11.3114
# 5 -16.5737 -12.2676 -19.8746 -12.4160 44.1337 -1.1238
# 6 -7.9622 2.7713 7.6430 -11.3114 -1.1238 36.1078
#
#
#
# Elastic Compliance Matrix: (Units=1/GPa)
#
#
# Indices 1 2 3 4 5 6 
#
# 1 0.019942 -0.000912 -0.002323 0.003876 0.007443 0.006405
# 2 -0.000912 0.009643 -0.001707 0.002899 0.002395 0.000403
# 3 -0.002323 -0.001707 0.010542 0.003051 0.004220 -0.001526
# 4 0.003876 0.002899 0.003051 0.026341 0.011264 0.008589
# 5 0.007443 0.002395 0.004220 0.011264 0.031318 0.005068
# 6 0.006405 0.000403 -0.001526 0.008589 0.005068 0.032248
#
#
# Mechanical properties :
#
#
# Convention : Reuss Voigt Hill
#
# Bulk Modulus (GPa) = 33.06558 49.07522 41.07040
# Shear Modulus (GPa) = 33.33366 41.47524 37.40445
#
# Velocity S-wave (km/s) = 3.89713 4.34708 4.12824
# Velocity P-wave (km/s) = 5.94269 6.89608 6.43706
#
# Compressibility (1/GPa) = 0.03024293
#
# Stress axis : x y z
#
# Youngs Moduli (GPa) = 50.14478 103.70379 94.85827
#
# Poissons Ratio (x) = 0.09457 0.22038
# Poissons Ratio (y) = 0.04573 0.16192
# Poissons Ratio (z) = 0.11650 0.17702
#
# Static dielectric constant tensor:
#      x y z
#    x 3.935560 -0.751390 -0.506180 
#    y -0.751390 2.951380 -0.589250 
#    z -0.506180 -0.589250 4.171900 
# 
# 
# High freq. dielectric constant tensor:
#      x y z
#    x 1.868660 -0.007850 -0.014820 
#    y -0.007850 1.889490 -0.007720 
#    z -0.014820 -0.007720 1.891160 
# 
# From -- ./inp_files/205323.got.cif
#   From: 2010.06.25/outbox.ucp.g09.slc.cvg/sg2_103_cif.got.tgz:205323.got - 2010.06.28 11:54:26.
