data_PCOD8038471
_publ_section_title
;
Structure prediction by ZEFSAII (Michael W. Deem and Ramdas Pophale) SiO2 
 PCOD8038471
Probable space group: P -1
;
_chemical_formula_sum "Si O2"
_cell_formula_units_Z 16
_cell_length_a 15.144712
_cell_length_b 10.377062
_cell_length_c 9.174948
_cell_angle_alpha 117.168171
_cell_angle_beta 49.374188
_cell_angle_gamma 134.560903
_cell_volume 779.751342
_symmetry_space_group_name_H-M "P -1"
_symmetry_group_IT_number 2
_symmetry_cell_setting 'triclinic'
loop_
_space_group_symop_operation_xyz
x,y,z
-x,-y,-z
loop_
_atom_site_type_symbol
_atom_site_label
_atom_site_fract_x
_atom_site_fract_y
_atom_site_fract_z
Si Si1 0.930982 0.604727 0.098690
Si Si2 0.999650 0.284605 0.456636
Si Si3 0.568018 0.993953 0.074286
Si Si4 0.660153 0.278168 0.353077
Si Si5 0.134498 0.933708 0.247450
Si Si6 0.089208 0.644341 0.689227
Si Si7 0.504643 0.308127 0.790499
Si Si8 0.261023 0.297269 0.158817
O O1 0.761319 0.471713 0.259312
O O2 0.008670 0.793471 0.197193
O O3 0.000000 0.500000 0.000000
O O4 0.963050 0.640904 0.909151
O O5 0.046284 0.445163 0.603208
O O6 0.138594 0.316542 0.241786
O O7 0.919438 0.105768 0.548035
O O8 0.890039 0.263176 0.441272
O O9 0.563757 0.120045 0.259832
O O10 0.486036 0.794473 0.132840
O O11 0.735316 0.083191 0.913024
O O12 0.500000 0.000000 0.000000
O O13 0.759829 0.243818 0.325856
O O14 0.538400 0.258492 0.575893
O O15 0.184125 0.134139 0.272239
O O16 0.619232 0.521567 0.792388
O O17 0.342464 0.259048 0.929657
#
# Coordination Sequence:
#
# PCOD8038471 Si02
#       8
#     2   2   2   2   2   2   2   2
#     4  10  17  36  61  88 120 149 190 257 321 343
#     4  11  20  35  61  93 119 151 204 251 298 357
#     4  11  24  37  63  95 121 152 201 263 303 354
#     4  11  19  39  62  93 120 156 196 250 317 355
#     4  11  20  37  60  88 120 160 201 245 306 367
#     4  10  20  32  61  95 118 146 188 260 312 347
#     4  10  22  40  60  83 122 172 204 233 297 369
#     4  10  22  38  58  85 125 170 206 235 291 368
#
# _framework density 20.519359999999999
#
# number of rings (size 3 to 8) (size 9 to 14) (size 15 to 20)
#    0.000    1.500    6.250    0.750    1.750    1.000 
#    0.000    0.625    0.000   16.500    0.000    0.000 
#    0.000    0.000    0.000    0.000    0.000    0.000 
#
# Total GULP energy -198284.789013 kJ/mol
# GULP energy per Si atom -12392.799313 kJ/mol
# Density = 2.047266 g / cm^3
# Si number density = 20.519360 Si / 1000 Ang^3
#
#
#
# Elastic Constant Matrix: (Units=GPa)
#
#
# Indices 1 2 3 4 5 6 
#
# 1 62.7790 35.8400 48.7290 10.3826 7.5951 2.7561
# 2 35.8400 120.2209 39.2176 -3.9975 12.5241 -6.6899
# 3 48.7290 39.2176 144.0465 -4.1325 -1.6807 -1.2400
# 4 10.3826 -3.9975 -4.1325 24.4922 4.4653 3.0508
# 5 7.5951 12.5241 -1.6807 4.4653 30.7517 0.7038
# 6 2.7561 -6.6899 -1.2400 3.0508 0.7038 15.2413
#
#
#
# Elastic Compliance Matrix: (Units=1/GPa)
#
#
# Indices 1 2 3 4 5 6 
#
# 1 0.029057 -0.006332 -0.008579 -0.013524 -0.002968 -0.005888
# 2 -0.006332 0.011316 -0.000811 0.004432 -0.003855 0.005337
# 3 -0.008579 -0.000811 0.010235 0.004689 0.002305 0.000983
# 4 -0.013524 0.004432 0.004689 0.049657 -0.005307 -0.004922
# 5 -0.002968 -0.003855 0.002305 -0.005307 0.035754 -0.001557
# 6 -0.005888 0.005337 0.000983 -0.004922 -0.001557 0.070156
#
#
# Mechanical properties :
#
#
# Convention : Reuss Voigt Hill
#
# Bulk Modulus (GPa) = 52.17925 63.84664 58.01295
# Shear Modulus (GPa) = 20.49127 27.64769 24.06948
#
# Velocity S-wave (km/s) = 3.16354 3.67467 3.42864
# Velocity P-wave (km/s) = 6.23125 7.01335 6.63384
#
# Compressibility (1/GPa) = 0.01916470
#
# Stress axis : x y z
#
# Youngs Moduli (GPa) = 34.41514 88.36971 97.70435
#
# Poissons Ratio (x) = 0.55955 0.83820
# Poissons Ratio (y) = 0.21791 0.07921
# Poissons Ratio (z) = 0.29525 0.07165
#
# Static dielectric constant tensor:
#      x y z
#    x 3.399230 -0.095760 -0.051660 
#    y -0.095760 3.721920 -0.254130 
#    z -0.051660 -0.254130 4.477380 
# 
# 
# High freq. dielectric constant tensor:
#      x y z
#    x 1.758110 -0.005150 -0.006760 
#    y -0.005150 1.800610 -0.011180 
#    z -0.006760 -0.011180 1.820770 
# 
# From -- ./inp_files/304773.got.cif
#   From: 2010.06.25/outbox.cif.g09.slc.cpg/sg2_153_cif.got.tgz:304773.got - 2010.06.27 13:26:56.
