data_PCOD8038783
_publ_section_title
;
Structure prediction by ZEFSAII (Michael W. Deem and Ramdas Pophale) SiO2 
 PCOD8038783
Probable space group: P -1
;
_chemical_formula_sum "Si O2"
_cell_formula_units_Z 16
_cell_length_a 11.608606
_cell_length_b 11.826006
_cell_length_c 8.958756
_cell_angle_alpha 119.532541
_cell_angle_beta 59.907483
_cell_angle_gamma 137.574920
_cell_volume 701.814514
_symmetry_space_group_name_H-M "P -1"
_symmetry_group_IT_number 2
_symmetry_cell_setting 'triclinic'
loop_
_space_group_symop_operation_xyz
x,y,z
-x,-y,-z
loop_
_atom_site_type_symbol
_atom_site_label
_atom_site_fract_x
_atom_site_fract_y
_atom_site_fract_z
Si Si1 0.758716 0.189199 0.356237
Si Si2 0.290993 0.246650 0.712056
Si Si3 0.527976 0.213001 0.722528
Si Si4 0.367175 0.567723 0.908759
Si Si5 0.943567 0.135803 0.406901
Si Si6 0.712889 0.033323 0.764846
Si Si7 0.290468 0.251691 0.369189
Si Si8 0.700428 0.249551 0.130732
O O1 0.691201 0.250873 0.559119
O O2 0.931751 0.225129 0.330690
O O3 0.809992 0.301258 0.245985
O O4 0.615509 0.987843 0.276769
O O5 0.451122 0.276577 0.708985
O O6 0.254956 0.366119 0.887213
O O7 0.342709 0.301853 0.540901
O O8 0.115098 0.048838 0.715724
O O9 0.597669 0.318768 0.899471
O O10 0.547462 0.621126 0.762647
O O11 0.270381 0.590750 0.858323
O O12 0.801096 0.105719 0.593672
O O13 0.138520 0.256395 0.425040
O O14 0.777669 0.939511 0.734903
O O15 0.503684 0.899290 0.792348
O O16 0.773235 0.188862 0.930324
#
# Coordination Sequence:
#
# PCOD8038783 Si02
#       8
#     2   2   2   2   2   2   2   2
#     4  10  18  32  54  81 107 138 183 227 266 304
#     4  10  20  35  56  80 108 143 178 217 269 322
#     4  10  19  33  56  83 108 135 180 232 267 305
#     4  11  21  34  55  84 112 139 174 222 272 318
#     4  10  20  35  56  80 110 144 176 218 266 319
#     4   9  16  30  52  78 104 134 177 224 265 303
#     4  10  20  35  55  80 111 143 177 218 266 319
#     4  10  18  30  53  83 107 132 177 231 265 301
#
# _framework density 22.798047
#
# number of rings (size 3 to 8) (size 9 to 14) (size 15 to 20)
#    0.000    2.000    0.000    9.000    0.000    0.000 
#    0.000    6.875    0.000    9.750    0.000    0.000 
#    0.000    0.000    0.000    0.000    0.000    0.000 
#
# Total GULP energy -198363.698570 kJ/mol
# GULP energy per Si atom -12397.731161 kJ/mol
# Density = 2.274616 g / cm^3
# Si number density = 22.798047 Si / 1000 Ang^3
#
#
#
# Elastic Constant Matrix: (Units=GPa)
#
#
# Indices 1 2 3 4 5 6 
#
# 1 154.6722 34.7728 50.3506 1.6756 21.5418 -41.1552
# 2 34.7728 36.8552 35.4730 12.0131 3.0955 -22.9356
# 3 50.3506 35.4730 96.6262 24.0545 6.8900 -15.8392
# 4 1.6756 12.0131 24.0545 16.8827 -10.5202 -4.9834
# 5 21.5418 3.0955 6.8900 -10.5202 30.2017 -1.4923
# 6 -41.1552 -22.9356 -15.8392 -4.9834 -1.4923 24.5031
#
#
#
# Elastic Compliance Matrix: (Units=1/GPa)
#
#
# Indices 1 2 3 4 5 6 
#
# 1 0.017143 0.013414 -0.009850 0.009758 -0.006148 0.036592
# 2 0.013414 0.117079 -0.020784 -0.038114 -0.024695 0.109428
# 3 -0.009850 -0.020784 0.031536 -0.046523 -0.015529 -0.026021
# 4 0.009758 -0.038114 -0.046523 0.197873 0.076264 -0.004472
# 5 -0.006148 -0.024695 -0.015529 0.076264 0.068961 -0.023770
# 6 0.036592 0.109428 -0.026021 -0.004472 -0.023770 0.185522
#
#
# Mechanical properties :
#
#
# Convention : Reuss Voigt Hill
#
# Bulk Modulus (GPa) = 7.61518 58.81628 33.21573
# Shear Modulus (GPa) = 7.18053 25.48795 16.33424
#
# Velocity S-wave (km/s) = 1.77664 3.34726 2.67961
# Velocity P-wave (km/s) = 2.74884 6.38699 4.91680
#
# Compressibility (1/GPa) = 0.13131658
#
# Stress axis : x y z
#
# Youngs Moduli (GPa) = 58.33206 8.54123 31.71011
#
# Poissons Ratio (x) = -0.11457 0.31235
# Poissons Ratio (y) = -0.78245 0.65907
# Poissons Ratio (z) = 0.57458 0.17752
#
# Static dielectric constant tensor:
#      x y z
#    x 4.160650 -0.426370 -0.018500 
#    y -0.426370 3.743110 0.203210 
#    z -0.018500 0.203210 4.102310 
# 
# 
# High freq. dielectric constant tensor:
#      x y z
#    x 1.905580 -0.034730 0.001100 
#    y -0.034730 1.858550 0.014200 
#    z 0.001100 0.014200 1.896590 
# 
# From -- ./inp_files/259917.got.cif
#   From: 2010.06.25/outbox.cif.g09.slc.cpg/sg2_130_cif.got.tgz:259917.got - 2010.06.27 13:26:56.
