data_PCOD8038956
_publ_section_title
;
Structure prediction by ZEFSAII (Michael W. Deem and Ramdas Pophale) SiO2 
 PCOD8038956
Probable space group: P -1
;
_chemical_formula_sum "Si O2"
_cell_formula_units_Z 16
_cell_length_a 20.023261
_cell_length_b 11.567346
_cell_length_c 8.872163
_cell_angle_alpha 66.993274
_cell_angle_beta 127.268408
_cell_angle_gamma 147.956854
_cell_volume 830.346766
_symmetry_space_group_name_H-M "P -1"
_symmetry_group_IT_number 2
_symmetry_cell_setting 'triclinic'
loop_
_space_group_symop_operation_xyz
x,y,z
-x,-y,-z
loop_
_atom_site_type_symbol
_atom_site_label
_atom_site_fract_x
_atom_site_fract_y
_atom_site_fract_z
Si Si1 0.416859 0.750224 0.090889
Si Si2 0.743345 0.362988 0.610107
Si Si3 0.643141 0.065315 0.989584
Si Si4 0.057051 0.481421 0.956902
Si Si5 0.154980 0.531206 0.632213
Si Si6 0.559937 0.885984 0.656146
Si Si7 0.855508 0.190891 0.558815
Si Si8 0.550191 0.704745 0.467266
O O1 0.413399 0.618900 0.251757
O O2 0.433168 0.889533 0.157336
O O3 0.572631 0.926073 0.118298
O O4 0.270681 0.595831 0.863907
O O5 0.831739 0.499674 0.505556
O O6 0.618166 0.310161 0.495684
O O7 0.667440 0.130152 0.613921
O O8 0.853946 0.514831 0.829841
O O9 0.598490 0.916119 0.869556
O O10 0.827560 0.308558 0.114349
O O11 0.916495 0.258265 0.780743
O O12 0.000000 0.500000 0.000000
O O13 0.189882 0.723476 0.592339
O O14 0.982244 0.290365 0.570571
O O15 0.584979 0.791548 0.642121
O O16 0.707501 0.918399 0.481846
O O17 0.500000 0.500000 0.500000
#
# Coordination Sequence:
#
# PCOD8038956 Si02
#       8
#     2   2   2   2   2   2   2   2
#     4  11  21  36  60  89 116 153 189 235 299 345
#     4  10  18  31  57  93 120 144 176 242 300 354
#     4  10  19  32  61  93 117 144 184 245 301 351
#     4  11  19  28  49  87 130 147 165 224 309 354
#     4  11  20  35  60  93 123 141 179 249 305 345
#     4  10  19  34  56  85 119 149 196 236 282 338
#     4  11  22  36  55  91 123 147 186 236 305 347
#     4  12  26  43  58  78 116 164 207 235 271 349
#
# _framework density 19.269058000000001
#
# number of rings (size 3 to 8) (size 9 to 14) (size 15 to 20)
#    0.000    1.250    5.000    4.500    1.750    0.000 
#    0.000    1.250    0.000    0.750    0.000    0.000 
#    0.000    0.000    0.000    0.000    0.000    0.000 
#
# Total GULP energy -198233.498506 kJ/mol
# GULP energy per Si atom -12389.593657 kJ/mol
# Density = 1.922520 g / cm^3
# Si number density = 19.269058 Si / 1000 Ang^3
#
#
#
# Elastic Constant Matrix: (Units=GPa)
#
#
# Indices 1 2 3 4 5 6 
#
# 1 88.8006 44.4556 18.8059 -6.2358 -9.7121 12.4031
# 2 44.4556 85.0566 27.8785 0.4663 7.5537 2.5244
# 3 18.8059 27.8785 105.7318 8.6697 -1.5014 -3.7584
# 4 -6.2358 0.4663 8.6697 19.6678 3.4192 3.9286
# 5 -9.7121 7.5537 -1.5014 3.4192 25.1089 -1.3070
# 6 12.4031 2.5244 -3.7584 3.9286 -1.3070 34.6969
#
#
#
# Elastic Compliance Matrix: (Units=1/GPa)
#
#
# Indices 1 2 3 4 5 6 
#
# 1 0.018999 -0.010132 -0.001355 0.006604 0.009073 -0.006607
# 2 -0.010132 0.018904 -0.003185 -0.000919 -0.009586 0.001644
# 3 -0.001355 -0.003185 0.011171 -0.006181 0.002084 0.002705
# 4 0.006604 -0.000919 -0.006181 0.058701 -0.006044 -0.009838
# 5 0.009073 -0.009586 0.002084 -0.006044 0.047175 0.000141
# 6 -0.006607 0.001644 0.002705 -0.009838 0.000141 0.032475
#
#
# Mechanical properties :
#
#
# Convention : Reuss Voigt Hill
#
# Bulk Modulus (GPa) = 50.68245 51.31877 51.00061
# Shear Modulus (GPa) = 22.38687 28.45800 25.42244
#
# Velocity S-wave (km/s) = 3.41222 3.84718 3.63621
# Velocity P-wave (km/s) = 6.47178 6.81359 6.64488
#
# Compressibility (1/GPa) = 0.01973070
#
# Stress axis : x y z
#
# Youngs Moduli (GPa) = 52.63347 52.89986 89.51565
#
# Poissons Ratio (x) = 0.53597 0.12133
# Poissons Ratio (y) = 0.53327 0.28507
# Poissons Ratio (z) = 0.07134 0.16847
#
# Static dielectric constant tensor:
#      x y z
#    x 3.658300 0.595280 -0.086190 
#    y 0.595280 3.139900 0.243740 
#    z -0.086190 0.243740 4.019100 
# 
# 
# High freq. dielectric constant tensor:
#      x y z
#    x 1.748500 0.062800 -0.016310 
#    y 0.062800 1.682730 0.022950 
#    z -0.016310 0.022950 1.767550 
# 
# From -- ./inp_files/346042.got.cif
#   From: 2010.06.25/outbox.cif.g09.slc.cpg/sg2_174_cif.got.tgz:346042.got - 2010.06.27 13:26:56.
