data_PCOD8038183
_publ_section_title
;
Structure prediction by ZEFSAII (Michael W. Deem and Ramdas Pophale) SiO2 
 PCOD8038183
Probable space group: P -1
;
_chemical_formula_sum "Si O2"
_cell_formula_units_Z 16
_cell_length_a 23.232881
_cell_length_b 10.383714
_cell_length_c 15.847584
_cell_angle_alpha 145.400218
_cell_angle_beta 24.577262
_cell_angle_gamma 147.022565
_cell_volume 834.293641
_symmetry_space_group_name_H-M "P -1"
_symmetry_group_IT_number 2
_symmetry_cell_setting 'triclinic'
loop_
_space_group_symop_operation_xyz
x,y,z
-x,-y,-z
loop_
_atom_site_type_symbol
_atom_site_label
_atom_site_fract_x
_atom_site_fract_y
_atom_site_fract_z
Si Si1 0.289916 0.561057 0.906838
Si Si2 0.369555 0.166600 0.402254
Si Si3 0.166451 0.088919 0.912344
Si Si4 0.126066 0.818567 0.658051
Si Si5 0.890770 0.643348 0.661504
Si Si6 0.219194 0.729852 0.260961
Si Si7 0.139243 0.890361 0.011410
Si Si8 0.184072 0.471319 0.815824
O O1 0.457912 0.718956 0.738747
O O2 0.288836 0.317884 0.824245
O O3 0.182554 0.495345 0.932901
O O4 0.229060 0.705747 0.134198
O O5 0.314957 0.382751 0.564259
O O6 0.273006 0.027319 0.536003
O O7 0.353065 0.980001 0.246133
O O8 0.119256 0.854361 0.786623
O O9 0.230252 0.011709 0.870243
O O10 0.024318 0.158753 0.166709
O O11 0.130873 0.550396 0.490419
O O12 0.781288 0.507950 0.813792
O O13 0.066697 0.751262 0.509766
O O14 0.857104 0.883476 0.810854
O O15 0.219509 0.738531 0.872162
O O16 0.973004 0.719038 0.110944
#
# Coordination Sequence:
#
# PCOD8038183 Si02
#       8
#     2   2   2   2   2   2   2   2
#     4  12  22  35  60  87 114 144 190 234 273 330
#     4  11  21  37  56  87 117 146 182 232 288 326
#     4  11  18  34  59  88 106 143 195 238 262 322
#     4  10  19  32  60  86 112 138 198 237 266 321
#     4  10  17  34  58  84 109 144 183 236 277 317
#     4  10  19  33  58  88 110 141 190 234 274 324
#     4  11  21  38  58  82 117 149 184 229 284 332
#     4  11  23  37  56  85 118 149 180 231 287 331
#
# _framework density 19.177900000000001
#
# number of rings (size 3 to 8) (size 9 to 14) (size 15 to 20)
#    0.000    1.250    6.250    2.250    0.000    0.000 
#    0.000    2.500    0.000    3.000    0.000    0.000 
#    0.000    0.000    0.000    0.000    0.000    0.000 
#
# Total GULP energy -198287.288177 kJ/mol
# GULP energy per Si atom -12392.955511 kJ/mol
# Density = 1.913425 g / cm^3
# Si number density = 19.177900 Si / 1000 Ang^3
#
#
#
# Elastic Constant Matrix: (Units=GPa)
#
#
# Indices 1 2 3 4 5 6 
#
# 1 72.3050 38.1062 37.4371 16.5953 14.8052 -9.8993
# 2 38.1062 108.8044 49.6380 16.6058 -0.0678 -9.0091
# 3 37.4371 49.6380 76.5209 12.7076 11.7760 0.9218
# 4 16.5953 16.6058 12.7076 41.9169 2.5339 -4.4796
# 5 14.8052 -0.0678 11.7760 2.5339 26.4095 5.6973
# 6 -9.8993 -9.0091 0.9218 -4.4796 5.6973 25.8181
#
#
#
# Elastic Compliance Matrix: (Units=1/GPa)
#
#
# Indices 1 2 3 4 5 6 
#
# 1 0.024360 -0.003904 -0.006911 -0.004159 -0.012395 0.010238
# 2 -0.003904 0.014830 -0.008283 -0.001898 0.005582 0.002413
# 3 -0.006911 -0.008283 0.022863 -0.001191 -0.005052 -0.005448
# 4 -0.004159 -0.001898 -0.001191 0.026901 -0.000265 0.002511
# 5 -0.012395 0.005582 -0.005052 -0.000265 0.050066 -0.013718
# 6 0.010238 0.002413 -0.005448 0.002511 -0.013718 0.047157
#
#
# Mechanical properties :
#
#
# Convention : Reuss Voigt Hill
#
# Bulk Modulus (GPa) = 41.91437 56.44367 49.17902
# Shear Modulus (GPa) = 21.52167 27.65882 24.59025
#
# Velocity S-wave (km/s) = 3.35358 3.80178 3.58469
# Velocity P-wave (km/s) = 6.07440 6.98333 6.54466
#
# Compressibility (1/GPa) = 0.02385816
#
# Stress axis : x y z
#
# Youngs Moduli (GPa) = 41.05061 67.43251 43.73879
#
# Poissons Ratio (x) = 0.26326 0.30226
# Poissons Ratio (y) = 0.16026 0.36227
# Poissons Ratio (z) = 0.28369 0.55852
#
# Static dielectric constant tensor:
#      x y z
#    x 3.291930 0.037830 0.275650 
#    y 0.037830 3.763210 0.224300 
#    z 0.275650 0.224300 3.345260 
# 
# 
# High freq. dielectric constant tensor:
#      x y z
#    x 1.709510 0.014840 0.041010 
#    y 0.014840 1.760000 0.014680 
#    z 0.041010 0.014680 1.727150 
# 
# From -- ./inp_files/435284.got.cif
#   From: 2010.06.25/outbox.cif.g09.slc.cpg/sg2_218_cif.got.tgz:435284.got - 2010.06.27 13:26:56.
