data_PCOD8038720
_publ_section_title
;
Structure prediction by ZEFSAII (Michael W. Deem and Ramdas Pophale) SiO2 
 PCOD8038720
Probable space group: P -1
;
_chemical_formula_sum "Si O2"
_cell_formula_units_Z 16
_cell_length_a 9.997441
_cell_length_b 16.008285
_cell_length_c 12.811334
_cell_angle_alpha 153.922668
_cell_angle_beta 77.440964
_cell_angle_gamma 91.568187
_cell_volume 809.544153
_symmetry_space_group_name_H-M "P -1"
_symmetry_group_IT_number 2
_symmetry_cell_setting 'triclinic'
loop_
_space_group_symop_operation_xyz
x,y,z
-x,-y,-z
loop_
_atom_site_type_symbol
_atom_site_label
_atom_site_fract_x
_atom_site_fract_y
_atom_site_fract_z
Si Si1 0.148830 0.937903 0.841286
Si Si2 0.000238 0.284407 0.102286
Si Si3 0.831740 0.156530 0.802292
Si Si4 0.267018 0.083697 0.167614
Si Si5 0.933352 0.352650 0.587967
Si Si6 0.961242 0.304424 0.763501
Si Si7 0.426973 0.731230 0.890900
Si Si8 0.700723 0.546647 0.525519
O O1 0.274858 0.940628 0.903419
O O2 0.182814 0.711744 0.532422
O O3 0.129024 0.100745 0.933657
O O4 0.000000 0.000000 0.000000
O O5 0.078865 0.421086 0.188053
O O6 0.878981 0.417644 0.361345
O O7 0.921098 0.198152 0.931614
O O8 0.841743 0.289688 0.850423
O O9 0.894854 0.911704 0.493818
O O10 0.654019 0.234561 0.944415
O O11 0.100379 0.183659 0.353796
O O12 0.326885 0.257027 0.322335
O O13 0.375517 0.952687 0.091966
O O14 0.888999 0.343412 0.705124
O O15 0.000000 0.500000 0.000000
O O16 0.609086 0.625456 0.739344
O O17 0.367222 0.592748 0.677458
#
# Coordination Sequence:
#
# PCOD8038720 Si02
#       8
#     2   2   2   2   2   2   2   2
#     4  10  19  30  46  67 101 134 158 189 236 284
#     4  10  18  31  47  71 100 130 155 193 237 287
#     4  10  19  29  48  67  98 126 158 197 242 287
#     4  10  19  31  47  68 100 135 157 192 233 288
#     4  10  18  30  45  67  98 126 158 196 235 286
#     4  11  19  30  47  70  94 131 159 197 246 287
#     4  10  18  33  47  70 100 130 157 198 235 281
#     4   9  19  29  49  69  96 130 164 190 234 285
#
# _framework density 19.764211
#
# number of rings (size 3 to 8) (size 9 to 14) (size 15 to 20)
#    0.000    2.000    3.750    2.625    0.000    5.500 
#    0.000    0.000    0.000    0.000    0.000    0.875 
#    0.000   29.500    0.000    0.250    0.000    0.000 
#
# Total GULP energy -198227.151302 kJ/mol
# GULP energy per Si atom -12389.196956 kJ/mol
# Density = 1.971923 g / cm^3
# Si number density = 19.764211 Si / 1000 Ang^3
#
#
#
# Elastic Constant Matrix: (Units=GPa)
#
#
# Indices 1 2 3 4 5 6 
#
# 1 -58.4164 13.3281 -23.1184 19.6126 -55.2028 -12.9499
# 2 13.3281 117.7643 35.8641 -2.4384 -9.6911 17.6660
# 3 -23.1184 35.8641 67.5697 15.8518 -17.6724 6.0604
# 4 19.6126 -2.4384 15.8518 33.0569 24.9705 8.8133
# 5 -55.2028 -9.6911 -17.6724 24.9705 -8.5116 -22.2254
# 6 -12.9499 17.6660 6.0604 8.8133 -22.2254 15.9302
#
#
#
# Elastic Compliance Matrix: (Units=1/GPa)
#
#
# Indices 1 2 3 4 5 6 
#
# 1 0.025916 -0.000186 -0.000485 0.017353 -0.031642 -0.032288
# 2 -0.000186 0.010632 -0.004038 -0.000199 0.005123 -0.003148
# 3 -0.000485 -0.004038 0.016430 -0.001191 -0.005584 -0.009299
# 4 0.017353 -0.000199 -0.001191 0.027466 -0.006070 -0.008884
# 5 -0.031642 0.005123 -0.005584 -0.006070 0.030878 0.017159
# 6 -0.032288 -0.003148 -0.009299 -0.008884 0.017159 0.072410
#
#
# Mechanical properties :
#
#
# Convention : Reuss Voigt Hill
#
# Bulk Modulus (GPa) = 22.95735 19.89612 21.42674
# Shear Modulus (GPa) = 24.07676 14.81802 19.44739
#
# Velocity S-wave (km/s) = 3.49406 2.74111 3.14023
# Velocity P-wave (km/s) = 5.28382 4.48406 4.90029
#
# Compressibility (1/GPa) = 0.04355903
#
# Stress axis : x y z
#
# Youngs Moduli (GPa) = 38.58658 94.05504 60.86499
#
# Poissons Ratio (x) = 0.01753 0.02952
# Poissons Ratio (y) = 0.00719 0.24577
# Poissons Ratio (z) = 0.01871 0.37979
#
# Static dielectric constant tensor:
#      x y z
#    x 3.450590 0.272780 0.014020 
#    y 0.272780 3.897610 -0.004390 
#    z 0.014020 -0.004390 4.236570 
# 
# 
# High freq. dielectric constant tensor:
#      x y z
#    x 1.712680 0.024100 0.014950 
#    y 0.024100 1.781240 0.018980 
#    z 0.014950 0.018980 1.770620 
# 
# From -- ./inp_files/426304.got.cif
#   From: 2010.06.25/outbox.cif.g09.slc.cpg/sg2_214_cif.got.tgz:426304.got - 2010.06.27 13:26:56.
