data_PCOD8038541
_publ_section_title
;
Structure prediction by ZEFSAII (Michael W. Deem and Ramdas Pophale) SiO2 
 PCOD8038541
Probable space group: P -1
;
_chemical_formula_sum "Si O2"
_cell_formula_units_Z 14
_cell_length_a 19.442341
_cell_length_b 6.430959
_cell_length_c 23.234425
_cell_angle_alpha 55.155145
_cell_angle_beta 13.726780
_cell_angle_gamma 52.474083
_cell_volume 543.497210
_symmetry_space_group_name_H-M "P -1"
_symmetry_group_IT_number 2
_symmetry_cell_setting 'triclinic'
loop_
_space_group_symop_operation_xyz
x,y,z
-x,-y,-z
loop_
_atom_site_type_symbol
_atom_site_label
_atom_site_fract_x
_atom_site_fract_y
_atom_site_fract_z
Si Si1 0.715292 0.242822 0.916714
Si Si2 0.032613 0.510662 0.538720
Si Si3 0.552829 0.183719 0.377632
Si Si4 0.289285 0.948865 0.445110
Si Si5 0.635372 0.150017 0.728346
Si Si6 0.178350 0.088971 0.913218
Si Si7 0.114266 0.616675 0.117847
O O1 0.730186 0.470076 0.821989
O O2 0.757413 0.346481 0.929283
O O3 0.985857 0.975445 0.724745
O O4 0.404603 0.146318 0.180576
O O5 0.000000 0.500000 0.500000
O O6 0.308841 0.256172 0.373796
O O7 0.109756 0.781785 0.449931
O O8 0.641984 0.009670 0.275513
O O9 0.235042 0.409223 0.588877
O O10 0.500000 0.000000 0.500000
O O11 0.845401 0.291560 0.139019
O O12 0.597678 0.784827 0.251742
O O13 0.266860 0.823027 0.421067
O O14 0.311677 0.349892 0.971435
O O15 0.104335 0.856028 0.046134
#
# Coordination Sequence:
#
# PCOD8038541 Si02
#       7
#     2   2   2   2   2   2   2
#     4  10  23  40  66  96 126 170 220 260 315 393
#     4  10  24  45  67  95 131 167 214 267 325 392
#     4   9  19  31  63  94 125 178 211 259 326 366
#     4  10  22  41  62  97 127 167 221 264 311 392
#     4  12  23  40  69  94 130 172 211 269 328 377
#     4  10  17  37  62  89 133 169 214 271 313 369
#     4  11  20  38  63  95 128 173 219 258 323 381
#
# _framework density 25.759103
#
# number of rings (size 3 to 8) (size 9 to 14) (size 15 to 20)
#    0.857    0.857    4.286    0.000    2.000    1.143 
#    0.000    3.571    0.000    5.143    0.000    0.000 
#    0.000    0.000    0.000    0.000    0.000    0.000 
#
# Total GULP energy -173449.612663 kJ/mol
# GULP energy per Si atom -12389.258047 kJ/mol
# Density = 2.570047 g / cm^3
# Si number density = 25.759103 Si / 1000 Ang^3
#
#
#
# Elastic Constant Matrix: (Units=GPa)
#
#
# Indices 1 2 3 4 5 6 
#
# 1 129.6682 15.9062 37.9512 -13.9718 5.3764 28.5833
# 2 15.9062 57.4557 19.0562 16.8704 -7.6786 6.1970
# 3 37.9512 19.0562 135.4975 6.8992 -24.0981 13.1685
# 4 -13.9718 16.8704 6.8992 39.4369 14.0675 1.5622
# 5 5.3764 -7.6786 -24.0981 14.0675 63.5144 -4.9099
# 6 28.5833 6.1970 13.1685 1.5622 -4.9099 37.7575
#
#
#
# Elastic Compliance Matrix: (Units=1/GPa)
#
#
# Indices 1 2 3 4 5 6 
#
# 1 0.012495 -0.004952 -0.003479 0.009546 -0.005754 -0.008576
# 2 -0.004952 0.023743 -0.000209 -0.014236 0.006468 0.001355
# 3 -0.003479 -0.000209 0.009466 -0.004549 0.004883 0.000190
# 4 0.009546 -0.014236 -0.004549 0.040824 -0.013822 -0.006790
# 5 -0.005754 0.006468 0.004883 -0.013822 0.022319 0.005065
# 6 -0.008576 0.001355 0.000190 -0.006790 0.005065 0.033628
#
#
# Mechanical properties :
#
#
# Convention : Reuss Voigt Hill
#
# Bulk Modulus (GPa) = 35.18153 52.04986 43.61570
# Shear Modulus (GPa) = 29.54551 44.78894 37.16723
#
# Velocity S-wave (km/s) = 3.39040 4.17437 3.80264
# Velocity P-wave (km/s) = 5.38646 6.59425 6.02072
#
# Compressibility (1/GPa) = 0.02842401
#
# Stress axis : x y z
#
# Youngs Moduli (GPa) = 80.02893 42.11728 105.64605
#
# Poissons Ratio (x) = 0.20858 0.36757
# Poissons Ratio (y) = 0.39633 0.02204
# Poissons Ratio (z) = 0.27844 0.00879
#
# Static dielectric constant tensor:
#      x y z
#    x 4.708040 -0.323010 -0.193760 
#    y -0.323010 4.546880 0.294140 
#    z -0.193760 0.294140 5.954970 
# 
# 
# High freq. dielectric constant tensor:
#      x y z
#    x 2.038550 -0.010730 -0.010470 
#    y -0.010730 2.011960 0.013760 
#    z -0.010470 0.013760 2.073600 
# 
# From -- ./inp_files/598981.got.cif
#   From: 2010.06.25/outbox.cif.g09.slc.cpg/sg2_300_cif.got.tgz:598981.got - 2010.06.27 13:26:56.
