data_PCOD8038774
_publ_section_title
;
Structure prediction by ZEFSAII (Michael W. Deem and Ramdas Pophale) SiO2 
 PCOD8038774
Probable space group: P -1
;
_chemical_formula_sum "Si O2"
_cell_formula_units_Z 16
_cell_length_a 9.587745
_cell_length_b 8.350598
_cell_length_c 19.681173
_cell_angle_alpha 151.335501
_cell_angle_beta 90.233700
_cell_angle_gamma 96.040265
_cell_volume 736.143267
_symmetry_space_group_name_H-M "P -1"
_symmetry_group_IT_number 2
_symmetry_cell_setting 'triclinic'
loop_
_space_group_symop_operation_xyz
x,y,z
-x,-y,-z
loop_
_atom_site_type_symbol
_atom_site_label
_atom_site_fract_x
_atom_site_fract_y
_atom_site_fract_z
Si Si1 0.381461 0.656267 0.021127
Si Si2 0.156264 0.568727 0.491418
Si Si3 0.191013 0.356859 0.018262
Si Si4 0.968545 0.760440 0.754595
Si Si5 0.923843 0.406537 0.758875
Si Si6 0.761778 0.645518 0.225074
Si Si7 0.799034 0.631008 0.444106
Si Si8 0.379228 0.790307 0.819142
O O1 0.294092 0.404326 0.870380
O O2 0.500000 0.500000 0.000000
O O3 0.266752 0.669899 0.085629
O O4 0.453871 0.023174 0.124219
O O5 0.252529 0.483255 0.521610
O O6 0.000000 0.500000 0.500000
O O7 0.153921 0.312231 0.331460
O O8 0.213838 0.953797 0.608344
O O9 0.167813 0.514978 0.149064
O O10 0.044799 0.161974 0.907650
O O11 0.285302 0.075023 0.924218
O O12 0.074978 0.523494 0.644578
O O13 0.909066 0.665150 0.794605
O O14 0.088427 0.462002 0.803010
O O15 0.855050 0.035498 0.591301
O O16 0.639696 0.414225 0.186051
O O17 0.661886 0.495099 0.346061
#
# Coordination Sequence:
#
# PCOD8038774 Si02
#       8
#     2   2   2   2   2   2   2   2
#     4  10  22  41  56  78 111 152 200 229 266 325
#     4  10  18  30  52  82 116 145 184 220 275 334
#     4  10  22  36  55  84 118 155 173 234 283 332
#     4  10  18  33  52  80 123 148 178 218 279 347
#     4  12  21  33  56  93 121 140 177 230 300 337
#     4  12  20  33  62  90 110 141 189 239 279 331
#     4  10  19  35  56  83 113 151 184 228 276 335
#     4  10  21  39  62  79 110 155 198 227 263 326
#
# _framework density 21.734898999999999
#
# number of rings (size 3 to 8) (size 9 to 14) (size 15 to 20)
#    0.000    1.500    5.000    4.875    0.000    0.500 
#    0.000    0.625    0.000    0.000    0.000    9.625 
#    0.000    0.000    0.000    0.000    0.000    0.000 
#
# Total GULP energy -198293.577918 kJ/mol
# GULP energy per Si atom -12393.348620 kJ/mol
# Density = 2.168543 g / cm^3
# Si number density = 21.734899 Si / 1000 Ang^3
#
#
#
# Elastic Constant Matrix: (Units=GPa)
#
#
# Indices 1 2 3 4 5 6 
#
# 1 25.5494 28.1382 27.9864 -6.0774 9.5045 10.5517
# 2 28.1382 148.6473 28.0743 -9.8760 5.7936 33.3959
# 3 27.9864 28.0743 102.2996 -14.2171 15.2310 21.4511
# 4 -6.0774 -9.8760 -14.2171 50.9193 -1.9429 11.8153
# 5 9.5045 5.7936 15.2310 -1.9429 19.3171 -2.4484
# 6 10.5517 33.3959 21.4511 11.8153 -2.4484 33.1523
#
#
#
# Elastic Compliance Matrix: (Units=1/GPa)
#
#
# Indices 1 2 3 4 5 6 
#
# 1 0.078045 -0.007896 -0.010950 0.006978 -0.028521 -0.014394
# 2 -0.007896 0.010796 0.002718 0.004584 -0.002549 -0.011943
# 3 -0.010950 0.002718 0.017357 0.006853 -0.010158 -0.013677
# 4 0.006978 0.004584 0.006853 0.027991 -0.010185 -0.022001
# 5 -0.028521 -0.002549 -0.010158 -0.010185 0.077040 0.027537
# 6 -0.014394 -0.011943 -0.013677 -0.022001 0.027537 0.065500
#
#
# Mechanical properties :
#
#
# Convention : Reuss Voigt Hill
#
# Bulk Modulus (GPa) = 13.52401 49.43268 31.47835
# Shear Modulus (GPa) = 14.98664 33.49757 24.24210
#
# Velocity S-wave (km/s) = 2.62872 3.93006 3.34331
# Velocity P-wave (km/s) = 3.93056 6.58685 5.42383
#
# Compressibility (1/GPa) = 0.07394256
#
# Stress axis : x y z
#
# Youngs Moduli (GPa) = 12.81318 92.62942 57.61287
#
# Poissons Ratio (x) = 0.73144 0.63083
# Poissons Ratio (y) = 0.10118 -0.15661
# Poissons Ratio (z) = 0.14030 -0.25180
#
# Static dielectric constant tensor:
#      x y z
#    x 3.687290 0.085420 0.611090 
#    y 0.085420 4.511330 -0.292640 
#    z 0.611090 -0.292640 4.354960 
# 
# 
# High freq. dielectric constant tensor:
#      x y z
#    x 1.792990 0.006110 0.031220 
#    y 0.006110 1.876680 -0.007400 
#    z 0.031220 -0.007400 1.862380 
# 
# From -- ./inp_files/188677.got.cif
#   From: 2010.06.25/outbox.cif.g09.slc.cpg/sg2_95_cif.got.tgz:188677.got - 2010.06.27 13:26:56.
