data_PCOD8038578
_publ_section_title
;
Structure prediction by ZEFSAII (Michael W. Deem and Ramdas Pophale) SiO2 
 PCOD8038578
Probable space group: P -1
;
_chemical_formula_sum "Si O2"
_cell_formula_units_Z 14
_cell_length_a 11.539202
_cell_length_b 14.160677
_cell_length_c 15.524527
_cell_angle_alpha 142.890436
_cell_angle_beta 24.190422
_cell_angle_gamma 126.967260
_cell_volume 539.458459
_symmetry_space_group_name_H-M "P -1"
_symmetry_group_IT_number 2
_symmetry_cell_setting 'triclinic'
loop_
_space_group_symop_operation_xyz
x,y,z
-x,-y,-z
loop_
_atom_site_type_symbol
_atom_site_label
_atom_site_fract_x
_atom_site_fract_y
_atom_site_fract_z
Si Si1 0.625060 0.292663 0.118880
Si Si2 0.925667 0.010402 0.288572
Si Si3 0.488938 0.853337 0.481139
Si Si4 0.063655 0.496997 0.756869
Si Si5 0.285554 0.677867 0.219321
Si Si6 0.297968 0.240702 0.554333
Si Si7 0.612989 0.109905 0.832777
O O1 0.314314 0.483841 0.501838
O O2 0.475299 0.210897 0.091190
O O3 0.925871 0.301554 0.880054
O O4 0.749231 0.176009 0.039692
O O5 0.868902 0.059691 0.259990
O O6 0.934154 0.166975 0.450346
O O7 0.599057 0.001843 0.529594
O O8 0.485470 0.772571 0.518192
O O9 0.764405 0.699701 0.118780
O O10 0.265051 0.410230 0.645973
O O11 0.943502 0.355522 0.713150
O O12 0.490660 0.742544 0.067398
O O13 0.500000 0.500000 0.000000
O O14 0.487681 0.042429 0.231615
O O15 0.000000 0.000000 0.500000
#
# Coordination Sequence:
#
# PCOD8038578 Si02
#       7
#     2   2   2   2   2   2   2
#     4  10  21  38  64  95 122 156 211 261 303 360
#     4  10  20  38  61  87 125 169 199 254 311 368
#     4  10  21  38  61  89 125 170 203 239 324 370
#     4  12  23  36  67  99 116 162 212 258 302 371
#     4  12  21  37  64  91 123 158 208 260 305 360
#     4  10  20  39  62  88 128 163 205 252 307 370
#     4  10  17  38  61  85 122 162 195 257 309 351
#
# _framework density 25.951953
#
# number of rings (size 3 to 8) (size 9 to 14) (size 15 to 20)
#    0.000    1.429    8.571    0.429    0.000    4.571 
#    0.000    1.429    0.000    5.143    0.000    0.000 
#    0.000    0.000    0.000    0.000    0.000    0.000 
#
# Total GULP energy -173433.129812 kJ/mol
# GULP energy per Si atom -12388.080701 kJ/mol
# Density = 2.589289 g / cm^3
# Si number density = 25.951953 Si / 1000 Ang^3
#
#
#
# Elastic Constant Matrix: (Units=GPa)
#
#
# Indices 1 2 3 4 5 6 
#
# 1 118.5413 -2.2619 12.9253 -0.9513 7.1646 -20.4095
# 2 -2.2619 50.0016 -3.8101 6.7486 -9.6344 -13.7642
# 3 12.9253 -3.8101 78.6302 4.8445 14.8216 -6.3743
# 4 -0.9513 6.7486 4.8445 23.0335 -5.5881 -2.1199
# 5 7.1646 -9.6344 14.8216 -5.5881 27.3825 13.9115
# 6 -20.4095 -13.7642 -6.3743 -2.1199 13.9115 43.3825
#
#
#
# Elastic Compliance Matrix: (Units=1/GPa)
#
#
# Indices 1 2 3 4 5 6 
#
# 1 0.010011 0.001364 0.000169 -0.000824 -0.005978 0.007044
# 2 0.001364 0.023396 0.001454 -0.005905 0.002179 0.007291
# 3 0.000169 0.001454 0.016155 -0.006351 -0.013017 0.006778
# 4 -0.000824 -0.005905 -0.006351 0.049446 0.014409 -0.005398
# 5 -0.005978 0.002179 -0.013017 0.014409 0.060362 -0.022686
# 6 0.007044 0.007291 0.006778 -0.005398 -0.022686 0.036685
#
#
# Mechanical properties :
#
#
# Convention : Reuss Voigt Hill
#
# Bulk Modulus (GPa) = 18.00673 28.98664 23.49669
# Shear Modulus (GPa) = 23.97030 34.78101 29.37566
#
# Velocity S-wave (km/s) = 3.04244 3.66486 3.36806
# Velocity P-wave (km/s) = 4.39267 5.39461 4.91921
#
# Compressibility (1/GPa) = 0.05553479
#
# Stress axis : x y z
#
# Youngs Moduli (GPa) = 99.89096 42.74308 61.90121
#
# Poissons Ratio (x) = -0.05831 -0.01046
# Poissons Ratio (y) = -0.13627 -0.08998
# Poissons Ratio (z) = -0.01688 -0.06213
#
# Static dielectric constant tensor:
#      x y z
#    x 5.814810 -0.140030 0.496860 
#    y -0.140030 4.555860 0.258040 
#    z 0.496860 0.258040 4.425490 
# 
# 
# High freq. dielectric constant tensor:
#      x y z
#    x 2.058880 -0.006120 0.020120 
#    y -0.006120 2.018820 0.017570 
#    z 0.020120 0.017570 2.010710 
# 
# From -- ./inp_files/522460.got.cif
#   From: 2010.06.25/outbox.cif.g09.slc.cpg/sg2_262_cif.got.tgz:522460.got - 2010.06.27 13:26:56.
