data_PCOD8038374
_publ_section_title
;
Structure prediction by ZEFSAII (Michael W. Deem and Ramdas Pophale) SiO2 
 PCOD8038374
Probable space group: P -1
;
_chemical_formula_sum "Si O2"
_cell_formula_units_Z 16
_cell_length_a 11.390072
_cell_length_b 13.028991
_cell_length_c 8.813024
_cell_angle_alpha 121.518087
_cell_angle_beta 73.286690
_cell_angle_gamma 67.604419
_cell_volume 810.760555
_symmetry_space_group_name_H-M "P -1"
_symmetry_group_IT_number 2
_symmetry_cell_setting 'triclinic'
loop_
_space_group_symop_operation_xyz
x,y,z
-x,-y,-z
loop_
_atom_site_type_symbol
_atom_site_label
_atom_site_fract_x
_atom_site_fract_y
_atom_site_fract_z
Si Si1 0.129300 0.672549 0.316381
Si Si2 0.377681 0.324052 0.969955
Si Si3 0.947712 0.847995 0.817974
Si Si4 0.131990 0.052357 0.571715
Si Si5 0.565607 0.077842 0.469482
Si Si6 0.891166 0.142072 0.967227
Si Si7 0.377686 0.075395 0.963561
Si Si8 0.671857 0.273180 0.900779
O O1 0.274095 0.667937 0.203885
O O2 0.079055 0.737045 0.555236
O O3 0.973770 0.779249 0.346263
O O4 0.197523 0.492041 0.147807
O O5 0.458090 0.253437 0.717816
O O6 0.376365 0.204849 0.979788
O O7 0.482277 0.363921 0.040941
O O8 0.868524 0.031236 0.977476
O O9 0.806298 0.838533 0.854777
O O10 0.047440 0.788352 0.893874
O O11 0.013712 0.040396 0.701163
O O12 0.247431 0.038830 0.642306
O O13 0.236771 0.912885 0.303186
O O14 0.500000 0.000000 0.500000
O O15 0.558610 0.072637 0.285406
O O16 0.721822 0.287909 0.062306
O O17 0.500000 0.000000 0.000000
#
# Coordination Sequence:
#
# PCOD8038374 Si02
#       8
#     2   2   2   2   2   2   2   2
#     4  11  21  35  58  91 116 149 182 240 300 323
#     4  10  23  39  59  85 117 150 191 238 284 336
#     4  11  21  33  57  85 121 145 186 238 280 342
#     4  10  17  35  60  85 110 147 195 236 270 336
#     4   9  20  38  60  81 106 148 202 235 267 338
#     4  10  18  32  55  88 106 147 194 235 273 324
#     4  11  23  40  61  82 112 156 195 229 284 345
#     4  10  18  37  60  84 111 151 197 233 273 337
#
# _framework density 19.734556000000001
#
# number of rings (size 3 to 8) (size 9 to 14) (size 15 to 20)
#    0.000    1.750    3.750    1.875    3.500    0.500 
#    0.000    5.625    0.000    0.000    0.000    0.000 
#    0.000    0.000    0.000    0.000    0.000    0.000 
#
# Total GULP energy -198282.307324 kJ/mol
# GULP energy per Si atom -12392.644208 kJ/mol
# Density = 1.968964 g / cm^3
# Si number density = 19.734556 Si / 1000 Ang^3
#
#
#
# Elastic Constant Matrix: (Units=GPa)
#
#
# Indices 1 2 3 4 5 6 
#
# 1 108.4705 36.3962 26.2740 -8.0724 8.4456 -12.5556
# 2 36.3962 93.1606 47.8838 1.0317 4.9716 -12.5994
# 3 26.2740 47.8838 73.5564 -0.6450 5.9839 -16.4119
# 4 -8.0724 1.0317 -0.6450 30.9009 -3.2403 0.3653
# 5 8.4456 4.9716 5.9839 -3.2403 20.9567 -12.2585
# 6 -12.5556 -12.5994 -16.4119 0.3653 -12.2585 33.3915
#
#
#
# Elastic Compliance Matrix: (Units=1/GPa)
#
#
# Indices 1 2 3 4 5 6 
#
# 1 0.011223 -0.003475 -0.001214 0.002793 -0.002019 0.001540
# 2 -0.003475 0.017263 -0.009935 -0.001685 0.000104 0.000381
# 3 -0.001214 -0.009935 0.021970 0.000459 0.000634 0.006821
# 4 0.002793 -0.001685 0.000459 0.033732 0.005753 0.002383
# 5 -0.002019 0.000104 0.000634 0.005753 0.062322 0.022408
# 6 0.001540 0.000381 0.006821 0.002383 0.022408 0.042223
#
#
# Mechanical properties :
#
#
# Convention : Reuss Voigt Hill
#
# Bulk Modulus (GPa) = 47.15261 55.14393 51.14827
# Shear Modulus (GPa) = 22.21724 28.02538 25.12131
#
# Velocity S-wave (km/s) = 3.35894 3.77253 3.57173
# Velocity P-wave (km/s) = 6.24409 6.85416 6.55622
#
# Compressibility (1/GPa) = 0.02120773
#
# Stress axis : x y z
#
# Youngs Moduli (GPa) = 89.10623 57.92770 45.51609
#
# Poissons Ratio (x) = 0.20132 0.05525
# Poissons Ratio (y) = 0.30968 0.45219
# Poissons Ratio (z) = 0.10816 0.57550
#
# Static dielectric constant tensor:
#      x y z
#    x 3.784210 -0.128350 0.163670 
#    y -0.128350 3.455930 -0.325180 
#    z 0.163670 -0.325180 4.141210 
# 
# 
# High freq. dielectric constant tensor:
#      x y z
#    x 1.781400 -0.007060 -0.003190 
#    y -0.007060 1.750100 -0.022490 
#    z -0.003190 -0.022490 1.746360 
# 
# From -- ./inp_files/176418.got.cif
#   From: 2010.06.25/outbox.cif.g09.slc.cpg/sg2_89_cif.got.tgz:176418.got - 2010.06.27 13:26:56.
