data_PCOD8038299
_publ_section_title
;
Structure prediction by ZEFSAII (Michael W. Deem and Ramdas Pophale) SiO2 
 PCOD8038299
Probable space group: P -1
;
_chemical_formula_sum "Si O2"
_cell_formula_units_Z 16
_cell_length_a 6.423979
_cell_length_b 17.785872
_cell_length_c 14.566136
_cell_angle_alpha 39.321334
_cell_angle_beta 69.416001
_cell_angle_gamma 47.189413
_cell_volume 717.319480
_symmetry_space_group_name_H-M "P -1"
_symmetry_group_IT_number 2
_symmetry_cell_setting 'triclinic'
loop_
_space_group_symop_operation_xyz
x,y,z
-x,-y,-z
loop_
_atom_site_type_symbol
_atom_site_label
_atom_site_fract_x
_atom_site_fract_y
_atom_site_fract_z
Si Si1 0.634816 0.206156 0.951292
Si Si2 0.769890 0.418693 0.115888
Si Si3 0.657816 0.067208 0.890108
Si Si4 0.286737 0.355854 0.533829
Si Si5 0.376768 0.559632 0.691688
Si Si6 0.372614 0.139786 0.206694
Si Si7 0.348522 0.310601 0.207293
Si Si8 0.273935 0.224163 0.479909
O O1 0.619055 0.172048 0.880810
O O2 0.479666 0.390050 0.810556
O O3 0.439104 0.183316 0.061109
O O4 0.985957 0.083956 0.045915
O O5 0.569581 0.429995 0.216956
O O6 0.436949 0.419002 0.073057
O O7 0.006955 0.254413 0.173620
O O8 0.979234 0.433623 0.133179
O O9 0.505174 0.184837 0.714918
O O10 0.500000 0.000000 0.000000
O O11 0.445933 0.418933 0.422855
O O12 0.173269 0.335801 0.477657
O O13 0.000000 0.500000 0.500000
O O14 0.024928 0.717958 0.575971
O O15 0.518866 0.162331 0.247375
O O16 0.508891 0.960344 0.347584
O O17 0.450396 0.239302 0.361664
#
# Coordination Sequence:
#
# PCOD8038299 Si02
#       8
#     2   2   2   2   2   2   2   2
#     4  11  22  40  71  90 117 173 206 256 319 360
#     4   8  16  33  59  91 122 159 201 250 295 367
#     4  11  25  44  63  93 125 157 217 265 308 366
#     4  12  27  44  61  91 129 163 210 263 305 373
#     4  11  22  41  65  90 124 164 212 250 310 372
#     4  10  17  34  64  95 124 157 205 254 306 374
#     4   8  15  32  59  90 122 156 202 243 298 373
#     4  11  22  37  65  94 128 167 198 252 324 360
#
# _framework density 22.305264000000001
#
# number of rings (size 3 to 8) (size 9 to 14) (size 15 to 20)
#    0.750    1.000    1.250    4.125    0.000    4.000 
#    0.000    2.500    2.750    0.000    0.000    0.000 
#    0.000    0.000    0.000    0.000    0.000    0.000 
#
# Total GULP energy -198336.502573 kJ/mol
# GULP energy per Si atom -12396.031411 kJ/mol
# Density = 2.225450 g / cm^3
# Si number density = 22.305264 Si / 1000 Ang^3
#
#
#
# Elastic Constant Matrix: (Units=GPa)
#
#
# Indices 1 2 3 4 5 6 
#
# 1 30.4318 9.5754 22.7352 -1.7757 -2.5583 -2.7408
# 2 9.5754 101.1739 26.1395 2.0910 -0.9500 5.7841
# 3 22.7352 26.1395 137.6669 9.0639 -14.7959 -0.3930
# 4 -1.7757 2.0910 9.0639 46.5156 3.8026 -0.3090
# 5 -2.5583 -0.9500 -14.7959 3.8026 33.1855 0.6376
# 6 -2.7408 5.7841 -0.3930 -0.3090 0.6376 28.2184
#
#
#
# Elastic Compliance Matrix: (Units=1/GPa)
#
#
# Indices 1 2 3 4 5 6 
#
# 1 0.038721 -0.002379 -0.006142 0.002828 -0.000226 0.004199
# 2 -0.002379 0.010684 -0.001689 -0.000212 -0.000559 -0.002434
# 3 -0.006142 -0.001689 0.009158 -0.002257 0.003824 -0.000234
# 4 0.002828 -0.000212 -0.002257 0.022335 -0.003365 0.000607
# 5 -0.000226 -0.000559 0.003824 -0.003365 0.032203 -0.000618
# 6 0.004199 -0.002434 -0.000234 0.000607 -0.000618 0.036362
#
#
# Mechanical properties :
#
#
# Convention : Reuss Voigt Hill
#
# Bulk Modulus (GPa) = 26.21590 42.90810 34.56200
# Shear Modulus (GPa) = 27.38300 35.63874 31.51087
#
# Velocity S-wave (km/s) = 3.50758 4.00155 3.76268
# Velocity P-wave (km/s) = 5.30876 6.37404 5.86563
#
# Compressibility (1/GPa) = 0.03814479
#
# Stress axis : x y z
#
# Youngs Moduli (GPa) = 25.82564 93.60039 109.19647
#
# Poissons Ratio (x) = 0.22264 0.67064
# Poissons Ratio (y) = 0.06143 0.18442
# Poissons Ratio (z) = 0.15861 0.15808
#
# Static dielectric constant tensor:
#      x y z
#    x 3.881190 0.065220 0.120250 
#    y 0.065220 4.672980 1.063670 
#    z 0.120250 1.063670 5.321890 
# 
# 
# High freq. dielectric constant tensor:
#      x y z
#    x 1.864580 0.005920 -0.006630 
#    y 0.005920 1.889510 0.012650 
#    z -0.006630 0.012650 1.892880 
# 
# From -- ./inp_files/485201.got.cif
#   From: 2010.06.25/outbox.cif.g09.slc.cpg/sg2_243_cif.got.tgz:485201.got - 2010.06.27 13:26:56.
