data_PCOD8038118
_publ_section_title
;
Structure prediction by ZEFSAII (Michael W. Deem and Ramdas Pophale) SiO2 
 PCOD8038118
Probable space group: P -1
;
_chemical_formula_sum "Si O2"
_cell_formula_units_Z 16
_cell_length_a 14.604283
_cell_length_b 11.760625
_cell_length_c 10.997574
_cell_angle_alpha 129.111164
_cell_angle_beta 131.444115
_cell_angle_gamma 31.548282
_cell_volume 730.019118
_symmetry_space_group_name_H-M "P -1"
_symmetry_group_IT_number 2
_symmetry_cell_setting 'triclinic'
loop_
_space_group_symop_operation_xyz
x,y,z
-x,-y,-z
loop_
_atom_site_type_symbol
_atom_site_label
_atom_site_fract_x
_atom_site_fract_y
_atom_site_fract_z
Si Si1 0.791046 0.178968 0.801263
Si Si2 0.595235 0.958764 0.679685
Si Si3 0.519103 0.622008 0.184390
Si Si4 0.099208 0.682271 0.188404
Si Si5 0.588046 0.794431 0.791938
Si Si6 0.770674 0.875954 0.171772
Si Si7 0.112522 0.697599 0.806753
Si Si8 0.019119 0.548309 0.800244
O O1 0.578668 0.317023 0.728791
O O2 0.826172 0.230988 0.740600
O O3 0.835529 0.234116 0.996284
O O4 0.916477 0.921105 0.731610
O O5 0.572167 0.154468 0.811841
O O6 0.500000 0.000000 0.500000
O O7 0.507156 0.939097 0.695923
O O8 0.805826 0.722108 0.704085
O O9 0.739447 0.444776 0.269400
O O10 0.500000 0.500000 0.000000
O O11 0.262832 0.468885 0.271589
O O12 0.909478 0.868672 0.225062
O O13 0.052828 0.618938 0.993787
O O14 0.411807 0.885573 0.770941
O O15 0.696748 0.825886 0.976414
O O16 0.886505 0.692269 0.255844
O O17 0.109063 0.538980 0.753598
#
# Coordination Sequence:
#
# PCOD8038118 Si02
#       8
#     2   2   2   2   2   2   2   2
#     4   9  18  29  51  83 113 147 182 236 302 337
#     4  12  23  38  60  86 124 161 189 237 300 358
#     4  10  21  36  56  83 116 152 197 243 285 340
#     4  10  18  31  54  84 117 147 190 249 294 333
#     4  10  20  34  54  86 119 149 195 240 300 340
#     4  10  18  31  57  81 113 148 190 253 287 335
#     4   9  17  30  52  78 113 146 186 239 286 346
#     4  10  17  34  53  80 117 150 189 236 304 339
#
# _framework density 21.917233
#
# number of rings (size 3 to 8) (size 9 to 14) (size 15 to 20)
#    0.000    2.000    3.750    1.500    1.750    4.000 
#    0.000    2.500    0.000    0.750    0.000    1.750 
#    0.000    0.000    0.000    0.000    0.000    0.000 
#
# Total GULP energy -198234.691550 kJ/mol
# GULP energy per Si atom -12389.668222 kJ/mol
# Density = 2.186735 g / cm^3
# Si number density = 21.917233 Si / 1000 Ang^3
#
#
#
# Elastic Constant Matrix: (Units=GPa)
#
#
# Indices 1 2 3 4 5 6 
#
# 1 208.0081 66.7862 7.2923 -8.5419 -6.3349 -20.3852
# 2 66.7862 100.5279 23.3644 -20.5566 -3.2509 -14.8839
# 3 7.2923 23.3644 32.2229 -8.7517 -10.4492 12.0021
# 4 -8.5419 -20.5566 -8.7517 12.3674 6.0213 -1.0734
# 5 -6.3349 -3.2509 -10.4492 6.0213 10.8804 -8.3752
# 6 -20.3852 -14.8839 12.0021 -1.0734 -8.3752 45.9931
#
#
#
# Elastic Compliance Matrix: (Units=1/GPa)
#
#
# Indices 1 2 3 4 5 6 
#
# 1 0.007106 -0.007094 0.004401 -0.010063 0.013266 0.001887
# 2 -0.007094 0.028629 -0.020587 0.046375 -0.036440 0.005940
# 3 0.004401 -0.020587 0.063622 -0.014939 0.057111 -0.011263
# 4 -0.010063 0.046375 -0.014939 0.197353 -0.117352 -0.002318
# 5 0.013266 -0.036440 0.057111 -0.117352 0.221446 0.016770
# 6 0.001887 0.005940 -0.011263 -0.002318 0.016770 0.030439
#
#
# Mechanical properties :
#
#
# Convention : Reuss Voigt Hill
#
# Bulk Modulus (GPa) = 18.93938 59.51608 39.22773
# Shear Modulus (GPa) = 8.15990 30.06924 19.11457
#
# Velocity S-wave (km/s) = 1.93161 3.70800 2.95638
# Velocity P-wave (km/s) = 3.69255 6.74879 5.43972
#
# Compressibility (1/GPa) = 0.05280004
#
# Stress axis : x y z
#
# Youngs Moduli (GPa) = 140.71737 34.92965 15.71783
#
# Poissons Ratio (x) = 0.24778 -0.06918
# Poissons Ratio (y) = 0.99819 0.32358
# Poissons Ratio (z) = -0.61936 0.71908
#
# Static dielectric constant tensor:
#      x y z
#    x 4.581990 -0.118740 0.008540 
#    y -0.118740 4.268630 -0.311780 
#    z 0.008540 -0.311780 3.288070 
# 
# 
# High freq. dielectric constant tensor:
#      x y z
#    x 1.881910 -0.012570 0.005100 
#    y -0.012570 1.863990 -0.022220 
#    z 0.005100 -0.022220 1.785690 
# 
# From -- ./inp_files/451662.got.cif
#   From: 2010.06.25/outbox.cif.g09.slc.cpg/sg2_226_cif.got.tgz:451662.got - 2010.06.27 13:26:56.
