data_PCOD8038207
_publ_section_title
;
Structure prediction by ZEFSAII (Michael W. Deem and Ramdas Pophale) SiO2 
 PCOD8038207
Probable space group: P -1
;
_chemical_formula_sum "Si O2"
_cell_formula_units_Z 16
_cell_length_a 22.209037
_cell_length_b 16.650293
_cell_length_c 10.085694
_cell_angle_alpha 35.017806
_cell_angle_beta 34.799071
_cell_angle_gamma 25.786776
_cell_volume 877.063937
_symmetry_space_group_name_H-M "P -1"
_symmetry_group_IT_number 2
_symmetry_cell_setting 'triclinic'
loop_
_space_group_symop_operation_xyz
x,y,z
-x,-y,-z
loop_
_atom_site_type_symbol
_atom_site_label
_atom_site_fract_x
_atom_site_fract_y
_atom_site_fract_z
Si Si1 0.465489 0.716073 0.508893
Si Si2 0.324475 0.391010 0.963655
Si Si3 0.214374 0.834878 0.243930
Si Si4 0.131827 0.454393 0.892527
Si Si5 0.539978 0.592241 0.057822
Si Si6 0.335353 0.115840 0.178270
Si Si7 0.071907 0.750470 0.804003
Si Si8 0.674455 0.515319 0.640612
O O1 0.596097 0.638232 0.278189
O O2 0.411608 0.609644 0.713971
O O3 0.528331 0.652389 0.630018
O O4 0.330826 0.951993 0.433728
O O5 0.421609 0.339231 0.984331
O O6 0.166363 0.615484 0.945007
O O7 0.297881 0.246814 0.198190
O O8 0.366966 0.765537 0.105994
O O9 0.150464 0.814364 0.515160
O O10 0.237633 0.708096 0.250415
O O11 0.095746 0.060370 0.106897
O O12 0.068130 0.628236 0.871780
O O13 0.229336 0.436512 0.626616
O O14 0.226369 0.249994 0.073783
O O15 0.000000 0.500000 0.000000
O O16 0.633373 0.556083 0.812865
O O17 0.500000 0.000000 0.000000
#
# Coordination Sequence:
#
# PCOD8038207 Si02
#       8
#     2   2   2   2   2   2   2   2
#     4  10  17  34  59  80 108 145 188 220 266 322
#     4  10  18  33  53  84 109 143 180 233 265 310
#     4   9  17  32  53  79 103 146 175 220 270 320
#     4  10  19  35  59  81 104 143 191 224 262 324
#     4  11  21  32  58  85 113 138 183 227 276 323
#     4   9  17  34  58  77 106 143 183 228 265 306
#     4   9  17  32  53  77 110 135 181 227 265 308
#     4  10  19  37  55  80 113 144 173 230 278 321
#
# _framework density 18.242683
#
# number of rings (size 3 to 8) (size 9 to 14) (size 15 to 20)
#    0.000    2.250    6.250    1.875    0.000    2.000 
#    4.500    1.250    5.500    1.500    0.000    0.000 
#    0.000    0.000    0.000    0.000    0.000    0.000 
#
# Total GULP energy -198320.040103 kJ/mol
# GULP energy per Si atom -12395.002506 kJ/mol
# Density = 1.820116 g / cm^3
# Si number density = 18.242683 Si / 1000 Ang^3
#
#
#
# Elastic Constant Matrix: (Units=GPa)
#
#
# Indices 1 2 3 4 5 6 
#
# 1 95.5083 42.2696 21.4761 -1.9346 -5.9515 -9.1942
# 2 42.2696 127.9838 42.0880 -24.3761 2.3805 -16.0693
# 3 21.4761 42.0880 48.5091 -9.1294 -1.5849 2.2662
# 4 -1.9346 -24.3761 -9.1294 22.8574 -0.8655 1.0978
# 5 -5.9515 2.3805 -1.5849 -0.8655 20.1611 3.5840
# 6 -9.1942 -16.0693 2.2662 1.0978 3.5840 19.9662
#
#
#
# Elastic Compliance Matrix: (Units=1/GPa)
#
#
# Indices 1 2 3 4 5 6 
#
# 1 0.013338 -0.003728 -0.003514 -0.004276 0.003354 0.003174
# 2 -0.003728 0.017069 -0.011672 0.012340 -0.005945 0.013734
# 3 -0.003514 -0.011672 0.033545 0.001643 0.005887 -0.015967
# 4 -0.004276 0.012340 0.001643 0.056934 -0.001004 0.004826
# 5 0.003354 -0.005945 0.005887 -0.001004 0.054124 -0.013569
# 6 0.003174 0.013734 -0.015967 0.004826 -0.013569 0.066582
#
#
# Mechanical properties :
#
#
# Convention : Reuss Voigt Hill
#
# Bulk Modulus (GPa) = 38.27971 53.74097 46.01034
# Shear Modulus (GPa) = 17.35336 23.67476 20.51406
#
# Velocity S-wave (km/s) = 3.08758 3.60636 3.35701
# Velocity P-wave (km/s) = 5.80862 6.84573 6.34839
#
# Compressibility (1/GPa) = 0.02612350
#
# Stress axis : x y z
#
# Youngs Moduli (GPa) = 74.97245 58.58745 29.81067
#
# Poissons Ratio (x) = 0.21841 0.10476
# Poissons Ratio (y) = 0.27949 0.34796
# Poissons Ratio (z) = 0.26346 0.68384
#
# Static dielectric constant tensor:
#      x y z
#    x 3.152140 0.010980 -0.098770 
#    y 0.010980 3.597580 -0.251250 
#    z -0.098770 -0.251250 3.137670 
# 
# 
# High freq. dielectric constant tensor:
#      x y z
#    x 1.692560 -0.002560 -0.005560 
#    y -0.002560 1.708070 -0.021220 
#    z -0.005560 -0.021220 1.678780 
# 
# From -- ./inp_files/303231.got.cif
#   From: 2010.06.25/outbox.cif.g09.slc.cpg/sg2_152_cif.got.tgz:303231.got - 2010.06.27 13:26:56.
