data_PCOD8038448
_publ_section_title
;
Structure prediction by ZEFSAII (Michael W. Deem and Ramdas Pophale) SiO2 
 PCOD8038448
Probable space group: P -1
;
_chemical_formula_sum "Si O2"
_cell_formula_units_Z 14
_cell_length_a 9.719619
_cell_length_b 14.175612
_cell_length_c 7.540294
_cell_angle_alpha 119.958877
_cell_angle_beta 101.803888
_cell_angle_gamma 115.591389
_cell_volume 684.377903
_symmetry_space_group_name_H-M "P -1"
_symmetry_group_IT_number 2
_symmetry_cell_setting 'triclinic'
loop_
_space_group_symop_operation_xyz
x,y,z
-x,-y,-z
loop_
_atom_site_type_symbol
_atom_site_label
_atom_site_fract_x
_atom_site_fract_y
_atom_site_fract_z
Si Si1 0.854669 0.177333 0.128174
Si Si2 0.596652 0.242669 0.136630
Si Si3 0.814939 0.982672 0.220195
Si Si4 0.235426 0.462281 0.453252
Si Si5 0.930983 0.094524 0.729597
Si Si6 0.729237 0.614771 0.972169
Si Si7 0.597250 0.414895 0.042692
O O1 0.674760 0.160280 0.099587
O O2 0.894404 0.121903 0.257820
O O3 0.019001 0.341097 0.289608
O O4 0.818522 0.085755 0.858270
O O5 0.706171 0.382392 0.421660
O O6 0.619269 0.298541 0.991041
O O7 0.382982 0.139672 0.028055
O O8 0.798507 0.000059 0.443336
O O9 0.949927 0.947045 0.200913
O O10 0.318853 0.428101 0.287378
O O11 0.315015 0.464866 0.667069
O O12 0.062521 0.250769 0.830082
O O13 0.614244 0.654796 0.072843
O O14 0.693185 0.484706 0.946928
#
# Coordination Sequence:
#
# PCOD8038448 Si02
#       7
#     2   2   2   2   2   2   2
#     4  11  22  40  60  83 117 154 185 232 290 334
#     4  10  22  40  56  87 121 145 188 235 282 344
#     4  11  22  41  59  83 116 151 192 235 278 336
#     4   9  20  36  57  83 112 145 191 231 274 339
#     4  10  22  39  61  85 111 149 199 234 273 339
#     4  10  17  36  58  86 111 149 188 234 284 327
#     4   9  19  32  56  85 115 145 181 235 284 324
#
# _framework density 20.456534000000001
#
# number of rings (size 3 to 8) (size 9 to 14) (size 15 to 20)
#    0.857    1.143    1.429    2.571    0.000    0.571 
#    5.143    1.429    0.000    0.000    0.000    0.000 
#    0.000    0.000    0.000    0.000    0.000    0.000 
#
# Total GULP energy -173456.837563 kJ/mol
# GULP energy per Si atom -12389.774112 kJ/mol
# Density = 2.040997 g / cm^3
# Si number density = 20.456534 Si / 1000 Ang^3
#
#
#
# Elastic Constant Matrix: (Units=GPa)
#
#
# Indices 1 2 3 4 5 6 
#
# 1 68.8491 28.5207 18.2852 6.3879 -4.1569 -7.1246
# 2 28.5207 89.7204 16.1230 -1.6221 -0.9009 -2.6287
# 3 18.2852 16.1230 78.2243 4.5866 -4.1770 8.1546
# 4 6.3879 -1.6221 4.5866 27.5187 1.8558 -1.5368
# 5 -4.1569 -0.9009 -4.1770 1.8558 21.4523 3.9701
# 6 -7.1246 -2.6287 8.1546 -1.5368 3.9701 17.7880
#
#
#
# Elastic Compliance Matrix: (Units=1/GPa)
#
#
# Indices 1 2 3 4 5 6 
#
# 1 0.018951 -0.005142 -0.003899 -0.003713 0.001547 0.007952
# 2 -0.005142 0.013180 -0.001851 0.002431 -0.001240 0.001224
# 3 -0.003899 -0.001851 0.015518 -0.002646 0.004293 -0.010136
# 4 -0.003713 0.002431 -0.002646 0.038399 -0.005303 0.004586
# 5 0.001547 -0.001240 0.004293 -0.005303 0.050616 -0.013287
# 6 0.007952 0.001224 -0.010136 0.004586 -0.013287 0.067592
#
#
# Mechanical properties :
#
#
# Convention : Reuss Voigt Hill
#
# Bulk Modulus (GPa) = 38.66198 40.29462 39.47830
# Shear Modulus (GPa) = 21.30740 24.94281 23.12511
#
# Velocity S-wave (km/s) = 3.23087 3.49565 3.36587
# Velocity P-wave (km/s) = 5.73225 6.00276 5.86906
#
# Compressibility (1/GPa) = 0.02586521
#
# Stress axis : x y z
#
# Youngs Moduli (GPa) = 52.76841 75.87074 64.44327
#
# Poissons Ratio (x) = 0.39014 0.25124
# Poissons Ratio (y) = 0.27134 0.11928
# Poissons Ratio (z) = 0.20572 0.14043
#
# Static dielectric constant tensor:
#      x y z
#    x 3.291880 0.011850 0.013250 
#    y 0.011850 3.678620 0.048830 
#    z 0.013250 0.048830 3.607840 
# 
# 
# High freq. dielectric constant tensor:
#      x y z
#    x 1.771460 0.003920 0.006420 
#    y 0.003920 1.800320 0.005740 
#    z 0.006420 0.005740 1.789090 
# 
# From -- ./inp_files/209052.got.cif
#   From: 2010.06.25/outbox.cif.g09.slc.cpg/sg2_105_cif.got.tgz:209052.got - 2010.06.27 13:26:56.
