data_PCOD8038311
_publ_section_title
;
Structure prediction by ZEFSAII (Michael W. Deem and Ramdas Pophale) SiO2 
 PCOD8038311
Probable space group: P -1
;
_chemical_formula_sum "Si O2"
_cell_formula_units_Z 16
_cell_length_a 14.466417
_cell_length_b 9.144417
_cell_length_c 9.711359
_cell_angle_alpha 64.075913
_cell_angle_beta 98.807721
_cell_angle_gamma 53.975193
_cell_volume 771.651280
_symmetry_space_group_name_H-M "P -1"
_symmetry_group_IT_number 2
_symmetry_cell_setting 'triclinic'
loop_
_space_group_symop_operation_xyz
x,y,z
-x,-y,-z
loop_
_atom_site_type_symbol
_atom_site_label
_atom_site_fract_x
_atom_site_fract_y
_atom_site_fract_z
Si Si1 0.330018 0.846509 0.571159
Si Si2 0.453181 0.996950 0.640034
Si Si3 0.209571 0.097317 0.143565
Si Si4 0.595600 0.396121 0.694419
Si Si5 0.944286 0.246202 0.930441
Si Si6 0.250074 0.424319 0.010983
Si Si7 0.159721 0.762333 0.610748
Si Si8 0.246714 0.522641 0.434466
O O1 0.340636 0.997244 0.600053
O O2 0.489424 0.576856 0.716765
O O3 0.239162 0.828272 0.635770
O O4 0.259540 0.975583 0.355537
O O5 0.585864 0.772163 0.848777
O O6 0.500000 0.000000 0.500000
O O7 0.376600 0.237895 0.608169
O O8 0.202668 0.298463 0.048676
O O9 0.319865 0.880570 0.147692
O O10 0.058911 0.221587 0.024096
O O11 0.500000 0.500000 0.500000
O O12 0.707882 0.391324 0.693380
O O13 0.830001 0.374783 0.971532
O O14 0.873237 0.414527 0.707397
O O15 0.000000 0.000000 0.000000
O O16 0.214479 0.548198 0.806161
O O17 0.187382 0.673190 0.497856
O O18 0.000000 0.000000 0.500000
#
# Coordination Sequence:
#
# PCOD8038311 Si02
#       8
#     2   2   2   2   2   2   2   2
#     4  11  21  42  70  98 139 181 224 280 352 402
#     4  12  22  42  72 106 134 164 232 306 337 381
#     4  11  21  38  67 100 131 177 237 280 329 403
#     4  10  17  34  67  98 121 171 231 275 328 392
#     4  12  22  39  67 101 131 180 239 284 324 402
#     4  12  26  43  67 104 139 177 231 285 342 411
#     4  12  28  48  66  96 150 190 218 269 353 430
#     4  12  22  43  69 100 138 179 224 291 339 398
#
# _framework density 20.734753999999999
#
# number of rings (size 3 to 8) (size 9 to 14) (size 15 to 20)
#    0.000    0.500    7.500    2.625    0.000    2.000 
#    0.000    3.750    0.000    0.000    0.000    0.000 
#    0.000    0.000    0.000    0.000    0.000    0.000 
#
# Total GULP energy -198360.535191 kJ/mol
# GULP energy per Si atom -12397.533449 kJ/mol
# Density = 2.068756 g / cm^3
# Si number density = 20.734754 Si / 1000 Ang^3
#
#
#
# Elastic Constant Matrix: (Units=GPa)
#
#
# Indices 1 2 3 4 5 6 
#
# 1 117.6378 61.7575 50.2265 -6.0982 8.6373 4.8875
# 2 61.7575 125.0834 24.0426 -20.1209 2.7130 -1.6140
# 3 50.2265 24.0426 101.7377 -18.8545 13.5017 -3.6883
# 4 -6.0982 -20.1209 -18.8545 29.4841 3.6156 4.2390
# 5 8.6373 2.7130 13.5017 3.6156 38.4257 -3.0890
# 6 4.8875 -1.6140 -3.6883 4.2390 -3.0890 33.8138
#
#
#
# Elastic Compliance Matrix: (Units=1/GPa)
#
#
# Indices 1 2 3 4 5 6 
#
# 1 0.014910 -0.006991 -0.006836 -0.005679 -0.000125 -0.002534
# 2 -0.006991 0.012404 0.002218 0.008435 -0.000820 0.000712
# 3 -0.006836 0.002218 0.015277 0.010320 -0.004877 0.001021
# 4 -0.005679 0.008435 0.010320 0.046643 -0.007672 -0.004199
# 5 -0.000125 -0.000820 -0.004877 -0.007672 0.028790 0.003039
# 6 -0.002534 0.000712 0.001021 -0.004199 0.003039 0.030889
#
#
# Mechanical properties :
#
#
# Convention : Reuss Voigt Hill
#
# Bulk Modulus (GPa) = 51.62129 68.50134 60.06132
# Shear Modulus (GPa) = 27.99743 34.24020 31.11881
#
# Velocity S-wave (km/s) = 3.67858 4.06808 3.87822
# Velocity P-wave (km/s) = 6.55688 7.42795 7.00597
#
# Compressibility (1/GPa) = 0.01937185
#
# Stress axis : x y z
#
# Youngs Moduli (GPa) = 67.07081 80.62028 65.45855
#
# Poissons Ratio (x) = 0.56360 0.44750
# Poissons Ratio (y) = 0.46888 -0.14518
# Poissons Ratio (z) = 0.45852 -0.17881
#
# Static dielectric constant tensor:
#      x y z
#    x 3.735210 0.158250 0.218970 
#    y 0.158250 4.230670 -0.286020 
#    z 0.218970 -0.286020 3.732020 
# 
# 
# High freq. dielectric constant tensor:
#      x y z
#    x 1.806680 0.014060 0.031680 
#    y 0.014060 1.822830 -0.024460 
#    z 0.031680 -0.024460 1.797090 
# 
# From -- ./inp_files/186509.got.cif
#   From: 2010.06.25/outbox.cif.g09.slc.cpg/sg2_94_cif.got.tgz:186509.got - 2010.06.27 13:26:56.
