data_PCOD8038556
_publ_section_title
;
Structure prediction by ZEFSAII (Michael W. Deem and Ramdas Pophale) SiO2 
 PCOD8038556
Probable space group: P -1
;
_chemical_formula_sum "Si O2"
_cell_formula_units_Z 12
_cell_length_a 8.968826
_cell_length_b 14.614018
_cell_length_c 9.074133
_cell_angle_alpha 105.823398
_cell_angle_beta 132.895839
_cell_angle_gamma 42.022981
_cell_volume 513.258727
_symmetry_space_group_name_H-M "P -1"
_symmetry_group_IT_number 2
_symmetry_cell_setting 'triclinic'
loop_
_space_group_symop_operation_xyz
x,y,z
-x,-y,-z
loop_
_atom_site_type_symbol
_atom_site_label
_atom_site_fract_x
_atom_site_fract_y
_atom_site_fract_z
Si Si1 0.745630 0.007750 0.316519
Si Si2 0.832945 0.466747 0.927544
Si Si3 0.675432 0.340777 0.105528
Si Si4 0.294698 0.325813 0.679135
Si Si5 0.290381 0.205638 0.359480
Si Si6 0.860230 0.757817 0.203939
O O1 0.567146 0.057259 0.375877
O O2 0.930560 0.841319 0.328445
O O3 0.487013 0.127969 0.066199
O O4 0.000000 0.000000 0.500000
O O5 0.451038 0.625423 0.794458
O O6 0.842877 0.384089 0.769042
O O7 0.000000 0.500000 0.000000
O O8 0.040636 0.361263 0.164176
O O9 0.073736 0.204147 0.297527
O O10 0.500000 0.500000 0.000000
O O11 0.583639 0.282017 0.923972
O O12 0.456178 0.210392 0.598552
O O13 0.141666 0.307274 0.682751
O O14 0.000000 0.500000 0.500000
#
# Coordination Sequence:
#
# PCOD8038556 Si02
#       6
#     2   2   2   2   2   2
#     4  10  24  48  66  88 126 180 231 268 308 380
#     4  10  17  37  64  91 128 168 205 264 326 386
#     4  10  20  36  61  93 135 166 198 266 328 383
#     4  12  21  39  64 102 133 163 210 263 336 399
#     4  10  23  39  62  90 131 167 218 264 326 380
#     4  10  23  41  68  95 131 169 222 265 323 383
#
# _framework density 23.380022
#
# number of rings (size 3 to 8) (size 9 to 14) (size 15 to 20)
#    0.000    1.667    5.000    0.000    0.000    7.333 
#    0.000    2.500    0.000    0.000    0.000    0.000 
#    0.000    0.000    0.000    0.000    0.000    0.000 
#
# Total GULP energy -148759.144760 kJ/mol
# GULP energy per Si atom -12396.595397 kJ/mol
# Density = 2.332681 g / cm^3
# Si number density = 23.380022 Si / 1000 Ang^3
#
#
#
# Elastic Constant Matrix: (Units=GPa)
#
#
# Indices 1 2 3 4 5 6 
#
# 1 163.6160 76.1398 44.8745 21.0163 11.8845 -18.0689
# 2 76.1398 131.8959 60.1090 54.9890 8.1610 -20.2305
# 3 44.8745 60.1090 75.6077 33.5812 5.4863 0.1386
# 4 21.0163 54.9890 33.5812 41.3491 4.0124 -6.1173
# 5 11.8845 8.1610 5.4863 4.0124 51.4449 2.3786
# 6 -18.0689 -20.2305 0.1386 -6.1173 2.3786 50.3929
#
#
#
# Elastic Compliance Matrix: (Units=1/GPa)
#
#
# Indices 1 2 3 4 5 6 
#
# 1 0.009457 -0.006406 -0.003512 0.006959 -0.001417 0.001741
# 2 -0.006406 0.024413 -0.004587 -0.024799 -0.000178 0.004514
# 3 -0.003512 -0.004587 0.024670 -0.012863 0.000130 -0.004736
# 4 0.006959 -0.024799 -0.012863 0.064269 -0.001335 0.000439
# 5 -0.001417 -0.000178 0.000130 -0.001335 0.019962 -0.001684
# 6 0.001741 0.004514 -0.004736 0.000439 -0.001684 0.022426
#
#
# Mechanical properties :
#
#
# Convention : Reuss Voigt Hill
#
# Bulk Modulus (GPa) = 33.86286 81.48513 57.67400
# Shear Modulus (GPa) = 24.50389 41.30380 32.90385
#
# Velocity S-wave (km/s) = 3.24090 4.20769 3.75553
# Velocity P-wave (km/s) = 5.34039 7.65077 6.59750
#
# Compressibility (1/GPa) = 0.02953088
#
# Stress axis : x y z
#
# Youngs Moduli (GPa) = 105.73968 40.96247 40.53540
#
# Poissons Ratio (x) = 0.26239 0.14235
# Poissons Ratio (y) = 0.67732 0.18594
# Poissons Ratio (z) = 0.37132 0.18790
#
# Static dielectric constant tensor:
#      x y z
#    x 5.044660 -0.386270 -0.126910 
#    y -0.386270 4.306110 0.425080 
#    z -0.126910 0.425080 4.204120 
# 
# 
# High freq. dielectric constant tensor:
#      x y z
#    x 1.935080 -0.001350 -0.011320 
#    y -0.001350 1.923230 0.025250 
#    z -0.011320 0.025250 1.915410 
# 
# From -- ./inp_files/184579.got.cif
#   From: 2010.06.25/outbox.cif.g09.slc.cpg/sg2_93_cif.got.tgz:184579.got - 2010.06.27 13:26:56.
