data_PCOD8038582
_publ_section_title
;
Structure prediction by ZEFSAII (Michael W. Deem and Ramdas Pophale) SiO2 
 PCOD8038582
Probable space group: P -1
;
_chemical_formula_sum "Si O2"
_cell_formula_units_Z 16
_cell_length_a 9.693041
_cell_length_b 17.907443
_cell_length_c 9.693167
_cell_angle_alpha 77.880377
_cell_angle_beta 138.402032
_cell_angle_gamma 124.270465
_cell_volume 851.996050
_symmetry_space_group_name_H-M "P -1"
_symmetry_group_IT_number 2
_symmetry_cell_setting 'triclinic'
loop_
_space_group_symop_operation_xyz
x,y,z
-x,-y,-z
loop_
_atom_site_type_symbol
_atom_site_label
_atom_site_fract_x
_atom_site_fract_y
_atom_site_fract_z
Si Si1 0.404550 0.795514 0.204422
Si Si2 0.187953 0.748493 0.349784
Si Si3 0.876659 0.812572 0.434374
Si Si4 0.883271 0.278896 0.257086
Si Si5 0.428731 0.121035 0.185438
Si Si6 0.744517 0.765354 0.044040
Si Si7 0.466054 0.002160 0.812199
Si Si8 0.860149 0.388313 0.414762
O O1 0.294378 0.739493 0.288801
O O2 0.693045 0.826449 0.379768
O O3 0.433861 0.892987 0.200348
O O4 0.193848 0.722604 0.957835
O O5 0.426521 0.846020 0.571391
O O6 0.073476 0.652224 0.391460
O O7 0.960102 0.758166 0.143775
O O8 0.901422 0.739676 0.567820
O O9 0.158093 0.918448 0.574424
O O10 0.743826 0.760724 0.210347
O O11 0.627018 0.192445 0.184024
O O12 0.981684 0.378867 0.368349
O O13 0.197279 0.132852 0.002794
O O14 0.345203 0.015798 0.121924
O O15 0.457047 0.672745 0.809273
O O16 0.500000 0.000000 0.000000
O O17 0.000000 0.500000 0.500000
#
# Coordination Sequence:
#
# PCOD8038582 Si02
#       8
#     2   2   2   2   2   2   2   2
#     4  12  22  34  58  86 119 155 188 244 279 318
#     4  10  22  38  55  88 120 146 185 239 299 329
#     4  11  18  36  61  79 112 163 196 225 273 334
#     4   9  18  35  56  81 113 143 190 229 279 338
#     4   9  18  35  53  76 117 151 194 232 264 328
#     4  10  17  38  64  78 114 156 186 229 294 337
#     4  11  19  35  55  85 114 153 214 231 251 332
#     4  10  21  40  66  88 108 141 193 237 279 365
#
# _framework density 18.779430000000001
#
# number of rings (size 3 to 8) (size 9 to 14) (size 15 to 20)
#    0.000    2.000    8.750    0.375    0.000    3.000 
#    0.000    1.250    0.000    1.500    0.000    0.000 
#    0.000    0.000    0.000    0.000    0.000    0.000 
#
# Total GULP energy -198323.201319 kJ/mol
# GULP energy per Si atom -12395.200082 kJ/mol
# Density = 1.873669 g / cm^3
# Si number density = 18.779430 Si / 1000 Ang^3
#
#
#
# Elastic Constant Matrix: (Units=GPa)
#
#
# Indices 1 2 3 4 5 6 
#
# 1 77.8228 34.7013 36.8001 -4.5801 -10.3671 -10.9018
# 2 34.7013 100.5058 34.4385 4.1578 -4.1707 -31.2878
# 3 36.8001 34.4385 97.1120 -10.2489 -5.9841 -9.8168
# 4 -4.5801 4.1578 -10.2489 22.5183 -9.3676 -1.6622
# 5 -10.3671 -4.1707 -5.9841 -9.3676 37.4023 -4.1549
# 6 -10.9018 -31.2878 -9.8168 -1.6622 -4.1549 20.6753
#
#
#
# Elastic Compliance Matrix: (Units=1/GPa)
#
#
# Indices 1 2 3 4 5 6 
#
# 1 0.018029 -0.003645 -0.004334 0.004913 0.005509 0.003434
# 2 -0.003645 0.022123 -0.003442 -0.002637 0.003627 0.030439
# 3 -0.004334 -0.003442 0.014110 0.007246 0.002520 0.000295
# 4 0.004913 -0.002637 0.007246 0.057316 0.017716 0.010208
# 5 0.005509 0.003627 0.002520 0.017716 0.035525 0.018153
# 6 0.003434 0.030439 0.000295 0.010208 0.018153 0.100850
#
#
# Mechanical properties :
#
#
# Convention : Reuss Voigt Hill
#
# Bulk Modulus (GPa) = 31.82730 54.14672 42.98701
# Shear Modulus (GPa) = 17.77670 27.41923 22.59796
#
# Velocity S-wave (km/s) = 3.08003 3.82523 3.47268
# Velocity P-wave (km/s) = 5.44367 6.95740 6.24656
#
# Compressibility (1/GPa) = 0.03141957
#
# Stress axis : x y z
#
# Youngs Moduli (GPa) = 55.46726 45.20183 70.87084
#
# Poissons Ratio (x) = 0.16476 0.30716
# Poissons Ratio (y) = 0.20218 0.24393
# Poissons Ratio (z) = 0.24040 0.15558
#
# Static dielectric constant tensor:
#      x y z
#    x 3.565010 -0.501710 0.045620 
#    y -0.501710 3.518680 -0.183950 
#    z 0.045620 -0.183950 3.638070 
# 
# 
# High freq. dielectric constant tensor:
#      x y z
#    x 1.715380 -0.040640 -0.006210 
#    y -0.040640 1.696270 -0.018630 
#    z -0.006210 -0.018630 1.739080 
# 
# From -- ./inp_files/215222.got.cif
#   From: 2010.06.25/outbox.cif.g09.slc.cpg/sg2_108_cif.got.tgz:215222.got - 2010.06.27 13:26:56.
