data_PCOD8038165
_publ_section_title
;
Structure prediction by ZEFSAII (Michael W. Deem and Ramdas Pophale) SiO2 
 PCOD8038165
Probable space group: P -1
;
_chemical_formula_sum "Si O2"
_cell_formula_units_Z 14
_cell_length_a 8.492847
_cell_length_b 16.153923
_cell_length_c 10.646394
_cell_angle_alpha 32.290657
_cell_angle_beta 66.200328
_cell_angle_gamma 66.451129
_cell_volume 708.811047
_symmetry_space_group_name_H-M "P -1"
_symmetry_group_IT_number 2
_symmetry_cell_setting 'triclinic'
loop_
_space_group_symop_operation_xyz
x,y,z
-x,-y,-z
loop_
_atom_site_type_symbol
_atom_site_label
_atom_site_fract_x
_atom_site_fract_y
_atom_site_fract_z
Si Si1 0.517783 0.225828 0.646783
Si Si2 0.464011 0.089054 0.090540
Si Si3 0.580342 0.194756 0.174005
Si Si4 0.214559 0.350099 0.184144
Si Si5 0.200419 0.945068 0.505899
Si Si6 0.161890 0.687514 0.671009
Si Si7 0.366231 0.486068 0.175333
O O1 0.726335 0.238829 0.568727
O O2 0.436387 0.378512 0.405482
O O3 0.460360 0.076284 0.783184
O O4 0.450653 0.221869 0.816823
O O5 0.585753 0.136419 0.103616
O O6 0.274324 0.070185 0.229666
O O7 0.383417 0.233723 0.240053
O O8 0.688194 0.057580 0.397619
O O9 0.683501 0.346188 0.958922
O O10 0.211109 0.411080 0.252090
O O11 0.044343 0.260485 0.342883
O O12 0.202093 0.500139 0.902980
O O13 0.229084 0.766532 0.674622
O O14 0.000000 0.000000 0.500000
O O15 0.500000 0.500000 0.000000
#
# Coordination Sequence:
#
# PCOD8038165 Si02
#       7
#     2   2   2   2   2   2   2
#     4  10  20  38  56  82 118 154 187 228 280 347
#     4  10  22  36  57  83 117 154 186 224 293 340
#     4  11  20  36  59  86 111 148 192 239 279 333
#     4  10  18  32  59  87 110 143 186 238 278 323
#     4  11  22  37  58  85 114 145 191 243 278 334
#     4  10  18  33  56  84 114 144 187 229 278 330
#     4  10  17  34  57  82 110 148 191 230 275 325
#
# _framework density 19.751384999999999
#
# number of rings (size 3 to 8) (size 9 to 14) (size 15 to 20)
#    0.000    1.714    4.286    3.857    0.000    1.714 
#    0.000    1.429    0.000    9.429    0.000    0.000 
#    0.000    0.000    0.000    0.000    0.000    0.000 
#
# Total GULP energy -173450.259915 kJ/mol
# GULP energy per Si atom -12389.304280 kJ/mol
# Density = 1.970643 g / cm^3
# Si number density = 19.751385 Si / 1000 Ang^3
#
#
#
# Elastic Constant Matrix: (Units=GPa)
#
#
# Indices 1 2 3 4 5 6 
#
# 1 116.6259 38.1739 50.9600 18.1911 9.1659 10.4242
# 2 38.1739 73.6283 43.4841 12.1516 3.1885 20.5709
# 3 50.9600 43.4841 132.4838 21.4113 7.1307 5.9925
# 4 18.1911 12.1516 21.4113 28.4550 4.4175 3.8544
# 5 9.1659 3.1885 7.1307 4.4175 23.7396 -9.1855
# 6 10.4242 20.5709 5.9925 3.8544 -9.1855 33.9035
#
#
#
# Elastic Compliance Matrix: (Units=1/GPa)
#
#
# Indices 1 2 3 4 5 6 
#
# 1 0.011757 -0.003412 -0.002609 -0.003371 -0.003286 -0.001591
# 2 -0.003412 0.022251 -0.004973 -0.001084 -0.004922 -0.012783
# 3 -0.002609 -0.004973 0.010820 -0.004735 0.000282 0.002522
# 4 -0.003371 -0.001084 -0.004735 0.042935 -0.006736 -0.004175
# 5 -0.003286 -0.004922 0.000282 -0.006736 0.052555 0.018952
# 6 -0.001591 -0.012783 0.002522 -0.004175 0.018952 0.042904
#
#
# Mechanical properties :
#
#
# Convention : Reuss Voigt Hill
#
# Bulk Modulus (GPa) = 43.78101 65.33044 54.55572
# Shear Modulus (GPa) = 23.49363 29.89428 26.69395
#
# Velocity S-wave (km/s) = 3.45261 3.89463 3.68026
# Velocity P-wave (km/s) = 6.17318 7.30564 6.76316
#
# Compressibility (1/GPa) = 0.02284095
#
# Stress axis : x y z
#
# Youngs Moduli (GPa) = 85.05260 44.94195 92.42261
#
# Poissons Ratio (x) = 0.15334 0.24114
# Poissons Ratio (y) = 0.29019 0.45958
# Poissons Ratio (z) = 0.22191 0.22348
#
# Static dielectric constant tensor:
#      x y z
#    x 3.940550 0.470720 -0.176060 
#    y 0.470720 3.704170 -0.124120 
#    z -0.176060 -0.124120 3.605450 
# 
# 
# High freq. dielectric constant tensor:
#      x y z
#    x 1.763120 0.030060 -0.004040 
#    y 0.030060 1.754310 -0.023950 
#    z -0.004040 -0.023950 1.759110 
# 
# From -- ./inp_files/198945.got.cif
#   From: 2010.06.25/outbox.cif.g09.slc.cpg/sg2_100_cif.got.tgz:198945.got - 2010.06.27 13:26:56.
