data_PCOD8038116
_publ_section_title
;
Structure prediction by ZEFSAII (Michael W. Deem and Ramdas Pophale) SiO2 
 PCOD8038116
Probable space group: P -1
;
_chemical_formula_sum "Si O2"
_cell_formula_units_Z 16
_cell_length_a 14.282041
_cell_length_b 11.493436
_cell_length_c 14.482677
_cell_angle_alpha 127.320061
_cell_angle_beta 139.827712
_cell_angle_gamma 82.881347
_cell_volume 914.696259
_symmetry_space_group_name_H-M "P -1"
_symmetry_group_IT_number 2
_symmetry_cell_setting 'triclinic'
loop_
_space_group_symop_operation_xyz
x,y,z
-x,-y,-z
loop_
_atom_site_type_symbol
_atom_site_label
_atom_site_fract_x
_atom_site_fract_y
_atom_site_fract_z
Si Si1 0.039178 0.986020 0.256539
Si Si2 0.967988 0.701586 0.584034
Si Si3 0.749583 0.957194 0.920542
Si Si4 0.906212 0.268954 0.722121
Si Si5 0.280229 0.717276 0.745247
Si Si6 0.746197 0.294308 0.799298
Si Si7 0.581689 0.109931 0.260599
Si Si8 0.312417 0.054491 0.340015
O O1 0.027799 0.849854 0.256869
O O2 0.202186 0.069101 0.342581
O O3 0.090813 0.175053 0.437500
O O4 0.830091 0.864289 0.988543
O O5 0.095545 0.703017 0.603973
O O6 0.777507 0.482567 0.359805
O O7 0.101481 0.811539 0.829731
O O8 0.536035 0.856553 0.746971
O O9 0.749500 0.927047 0.797372
O O10 0.796047 0.274507 0.724830
O O11 0.762086 0.162455 0.476368
O O12 0.095202 0.485750 0.938696
O O13 0.346416 0.749326 0.705004
O O14 0.453646 0.888326 0.023149
O O15 0.539185 0.234798 0.613516
O O16 0.738839 0.151941 0.794503
#
# Coordination Sequence:
#
# PCOD8038116 Si02
#       8
#     2   2   2   2   2   2   2   2
#     4   9  20  34  52  77 115 138 165 223 265 308
#     4   8  18  35  55  76 105 133 173 228 260 300
#     4   9  18  33  54  77 107 140 172 215 262 308
#     4  10  19  36  51  78 109 144 168 214 268 309
#     4   9  18  36  56  81  97 135 187 224 252 310
#     4   9  20  32  54  76 111 139 182 207 247 325
#     4  10  19  33  59  78 103 137 181 218 261 310
#     4  10  17  34  53  80 105 143 179 211 252 313
#
# _framework density 17.492145000000001
#
# number of rings (size 3 to 8) (size 9 to 14) (size 15 to 20)
#    0.750    2.000    1.250    0.375    1.750    0.000 
#    2.250    1.875    0.000    0.000    0.000    0.000 
#    0.000    0.000    0.000    0.000    0.000    0.000 
#
# Total GULP energy -198309.995692 kJ/mol
# GULP energy per Si atom -12394.374731 kJ/mol
# Density = 1.745233 g / cm^3
# Si number density = 17.492145 Si / 1000 Ang^3
#
#
#
# Elastic Constant Matrix: (Units=GPa)
#
#
# Indices 1 2 3 4 5 6 
#
# 1 39.4564 20.3168 25.6632 4.8082 5.6605 -5.3408
# 2 20.3168 93.5381 63.2678 0.6944 5.2440 -10.2531
# 3 25.6632 63.2678 105.8363 0.3215 9.7647 3.0252
# 4 4.8082 0.6944 0.3215 30.9922 2.6397 0.9841
# 5 5.6605 5.2440 9.7647 2.6397 18.7206 -2.4185
# 6 -5.3408 -10.2531 3.0252 0.9841 -2.4185 26.1398
#
#
#
# Elastic Compliance Matrix: (Units=1/GPa)
#
#
# Indices 1 2 3 4 5 6 
#
# 1 0.032644 -0.001478 -0.006804 -0.004800 -0.004371 0.006654
# 2 -0.001478 0.020111 -0.012150 -0.000596 0.002429 0.009240
# 3 -0.006804 -0.012150 0.019164 0.001923 -0.005969 -0.008999
# 4 -0.004800 -0.000596 0.001923 0.033487 -0.004509 -0.003115
# 5 -0.004371 0.002429 -0.005969 -0.004509 0.058627 0.006344
# 6 0.006654 0.009240 -0.008999 -0.003115 0.006344 0.044985
#
#
# Mechanical properties :
#
#
# Convention : Reuss Voigt Hill
#
# Bulk Modulus (GPa) = 32.20229 50.81404 41.50816
# Shear Modulus (GPa) = 19.21346 23.80939 21.51142
#
# Velocity S-wave (km/s) = 3.31781 3.69338 3.51062
# Velocity P-wave (km/s) = 5.75558 6.87755 6.34143
#
# Compressibility (1/GPa) = 0.03105370
#
# Stress axis : x y z
#
# Youngs Moduli (GPa) = 30.63378 49.72359 52.18182
#
# Poissons Ratio (x) = 0.07349 0.35506
# Poissons Ratio (y) = 0.04528 0.63402
# Poissons Ratio (z) = 0.20844 0.60415
#
# Static dielectric constant tensor:
#      x y z
#    x 3.152760 -0.012390 0.160660 
#    y -0.012390 3.092390 0.057290 
#    z 0.160660 0.057290 3.176730 
# 
# 
# High freq. dielectric constant tensor:
#      x y z
#    x 1.668780 0.002040 0.013730 
#    y 0.002040 1.659240 0.002300 
#    z 0.013730 0.002300 1.669170 
# 
# From -- ./inp_files/531261.got.cif
#   From: 2010.06.25/outbox.cif.g09.slc.cpg/sg2_266_cif.got.tgz:531261.got - 2010.06.27 13:26:56.
