data_PCOD8038680
_publ_section_title
;
Structure prediction by ZEFSAII (Michael W. Deem and Ramdas Pophale) SiO2 
 PCOD8038680
Probable space group: P -1
;
_chemical_formula_sum "Si O2"
_cell_formula_units_Z 16
_cell_length_a 23.326747
_cell_length_b 14.430069
_cell_length_c 8.853889
_cell_angle_alpha 58.747701
_cell_angle_beta 58.921820
_cell_angle_gamma 20.549097
_cell_volume 889.703042
_symmetry_space_group_name_H-M "P -1"
_symmetry_group_IT_number 2
_symmetry_cell_setting 'triclinic'
loop_
_space_group_symop_operation_xyz
x,y,z
-x,-y,-z
loop_
_atom_site_type_symbol
_atom_site_label
_atom_site_fract_x
_atom_site_fract_y
_atom_site_fract_z
Si Si1 0.695454 0.791556 0.778077
Si Si2 0.359971 0.879657 0.482789
Si Si3 0.561595 0.004722 0.107092
Si Si4 0.996937 0.380760 0.557076
Si Si5 0.626673 0.290281 0.135544
Si Si6 0.516220 0.311137 0.850568
Si Si7 0.134418 0.418218 0.757100
Si Si8 0.840511 0.866653 0.976041
O O1 0.886900 0.479602 0.748313
O O2 0.660264 0.961300 0.608131
O O3 0.575352 0.884040 0.783088
O O4 0.673349 0.823477 0.960095
O O5 0.441098 0.709248 0.668042
O O6 0.470102 0.692810 0.344648
O O7 0.187693 0.065991 0.550668
O O8 0.682373 0.817606 0.244321
O O9 0.472263 0.253187 0.005595
O O10 0.902559 0.490690 0.438469
O O11 0.000000 0.500000 0.500000
O O12 0.632398 0.392066 0.141241
O O13 0.798966 0.003281 0.063177
O O14 0.500000 0.500000 0.000000
O O15 0.690303 0.085427 0.877820
O O16 0.116679 0.315250 0.867661
O O17 0.001519 0.671352 0.835372
#
# Coordination Sequence:
#
# PCOD8038680 Si02
#       8
#     2   2   2   2   2   2   2   2
#     4   9  19  33  50  79 105 135 164 204 257 303
#     4  10  18  31  51  75 103 130 166 211 256 295
#     4   9  19  33  52  76 107 136 165 200 252 307
#     4  10  19  29  48  76 105 128 159 208 259 304
#     4  10  20  31  48  74 101 133 169 207 251 296
#     4   9  17  32  49  73 102 135 166 201 246 299
#     4  10  18  29  49  75 105 131 161 208 257 297
#     4   9  17  28  46  74 103 127 162 208 248 296
#
# _framework density 17.983526999999999
#
# number of rings (size 3 to 8) (size 9 to 14) (size 15 to 20)
#    0.000    2.500    1.250    1.875    7.000    0.500 
#    0.000    0.000    0.000    0.750    3.250    2.625 
#    0.000    0.000    0.000    0.000    0.000    0.000 
#
# Total GULP energy -198254.679757 kJ/mol
# GULP energy per Si atom -12390.917485 kJ/mol
# Density = 1.794260 g / cm^3
# Si number density = 17.983527 Si / 1000 Ang^3
#
#
#
# Elastic Constant Matrix: (Units=GPa)
#
#
# Indices 1 2 3 4 5 6 
#
# 1 84.3129 41.4198 33.9435 13.1217 -4.0132 3.7584
# 2 41.4198 77.4348 30.4463 17.2016 -3.7725 17.2526
# 3 33.9435 30.4463 81.8008 1.3257 0.9597 0.5932
# 4 13.1217 17.2016 1.3257 29.6509 -2.0654 6.0701
# 5 -4.0132 -3.7725 0.9597 -2.0654 20.6331 6.6520
# 6 3.7584 17.2526 0.5932 6.0701 6.6520 32.0185
#
#
#
# Elastic Compliance Matrix: (Units=1/GPa)
#
#
# Indices 1 2 3 4 5 6 
#
# 1 0.017906 -0.007381 -0.004652 -0.003853 0.001175 0.002448
# 2 -0.007381 0.023579 -0.005582 -0.007357 0.006144 -0.011617
# 3 -0.004652 -0.005582 0.016189 0.003673 -0.003360 0.003256
# 4 -0.003853 -0.007357 0.003673 0.040564 0.003079 -0.003981
# 5 0.001175 0.006144 -0.003360 0.003079 0.055263 -0.015451
# 6 0.002448 -0.011617 0.003256 -0.003981 -0.015451 0.041109
#
#
# Mechanical properties :
#
#
# Convention : Reuss Voigt Hill
#
# Bulk Modulus (GPa) = 44.55521 50.57419 47.56470
# Shear Modulus (GPa) = 21.06852 25.64309 23.35581
#
# Velocity S-wave (km/s) = 3.42650 3.78023 3.60770
# Velocity P-wave (km/s) = 6.36269 6.87293 6.62273
#
# Compressibility (1/GPa) = 0.02244406
#
# Stress axis : x y z
#
# Youngs Moduli (GPa) = 55.84749 42.41120 61.77015
#
# Poissons Ratio (x) = 0.31303 0.28736
# Poissons Ratio (y) = 0.41221 0.34479
# Poissons Ratio (z) = 0.25980 0.23673
#
# Static dielectric constant tensor:
#      x y z
#    x 3.306140 0.258100 0.201150 
#    y 0.258100 3.660480 0.179820 
#    z 0.201150 0.179820 3.359130 
# 
# 
# High freq. dielectric constant tensor:
#      x y z
#    x 1.666900 0.012240 0.028940 
#    y 0.012240 1.684910 0.007990 
#    z 0.028940 0.007990 1.694580 
# 
# From -- ./inp_files/248212.got.cif
#   From: 2010.06.25/outbox.cif.g09.slc.cpg/sg2_125_cif.got.tgz:248212.got - 2010.06.27 13:26:56.
