data_PCOD8038881
_publ_section_title
;
Structure prediction by ZEFSAII (Michael W. Deem and Ramdas Pophale) SiO2 
 PCOD8038881
Probable space group: P -1
;
_chemical_formula_sum "Si O2"
_cell_formula_units_Z 16
_cell_length_a 11.469117
_cell_length_b 22.180619
_cell_length_c 22.817209
_cell_angle_alpha 160.530798
_cell_angle_beta 142.224043
_cell_angle_gamma 29.378955
_cell_volume 931.717036
_symmetry_space_group_name_H-M "P -1"
_symmetry_group_IT_number 2
_symmetry_cell_setting 'triclinic'
loop_
_space_group_symop_operation_xyz
x,y,z
-x,-y,-z
loop_
_atom_site_type_symbol
_atom_site_label
_atom_site_fract_x
_atom_site_fract_y
_atom_site_fract_z
Si Si1 0.142345 0.987016 0.625094
Si Si2 0.079745 0.201461 0.304803
Si Si3 0.370499 0.759417 0.625600
Si Si4 0.280489 0.769328 0.728289
Si Si5 0.315963 0.634109 0.271563
Si Si6 0.849877 0.430935 0.304316
Si Si7 0.561735 0.833347 0.097592
Si Si8 0.668615 0.936808 0.902925
O O1 0.283504 0.082045 0.746079
O O2 0.857304 0.180849 0.677783
O O3 0.179747 0.929317 0.655870
O O4 0.245467 0.756786 0.419075
O O5 0.140876 0.359274 0.500364
O O6 0.962339 0.148090 0.259428
O O7 0.891426 0.331231 0.295126
O O8 0.324881 0.961931 0.162002
O O9 0.223896 0.815313 0.678722
O O10 0.504192 0.498568 0.419657
O O11 0.574855 0.791383 0.746564
O O12 0.363436 0.916926 0.919465
O O13 0.590990 0.518979 0.258934
O O14 0.280180 0.439079 0.080061
O O15 0.050029 0.235870 0.161144
O O16 0.485646 0.886614 0.048726
#
# Coordination Sequence:
#
# PCOD8038881 Si02
#       8
#     2   2   2   2   2   2   2   2
#     4  10  21  35  50  74 105 133 165 206 244 292
#     4  10  18  31  52  77 103 127 159 210 258 293
#     4  10  21  35  50  74 105 133 165 206 244 292
#     4  11  20  32  53  77 100 135 166 199 252 303
#     4  11  20  32  53  77 100 135 166 199 252 303
#     4  10  18  31  52  77 103 127 159 210 258 293
#     4  10  19  32  53  78 102 126 162 209 254 297
#     4  10  19  32  53  78 102 126 162 209 254 297
#
# _framework density 17.172595999999999
#
# number of rings (size 3 to 8) (size 9 to 14) (size 15 to 20)
#    0.000    1.750    2.500    3.750    0.000    2.000 
#    0.000    0.000    0.000    3.750    0.000    0.000 
#    0.000    0.000    0.000    0.000    0.000    0.000 
#
# Total GULP energy -198450.370137 kJ/mol
# GULP energy per Si atom -12403.148134 kJ/mol
# Density = 1.713351 g / cm^3
# Si number density = 17.172596 Si / 1000 Ang^3
#
#
#
# Elastic Constant Matrix: (Units=GPa)
#
#
# Indices 1 2 3 4 5 6 
#
# 1 84.6687 38.1334 20.6602 -2.5329 0.3916 8.3708
# 2 38.1334 89.9275 31.7776 0.7361 1.6425 -2.6078
# 3 20.6602 31.7776 111.0907 0.7676 -1.0530 10.1702
# 4 -2.5329 0.7361 0.7676 19.7873 1.6741 -0.2964
# 5 0.3916 1.6425 -1.0530 1.6741 17.9294 -1.1861
# 6 8.3708 -2.6078 10.1702 -0.2964 -1.1861 17.7997
#
#
#
# Elastic Compliance Matrix: (Units=1/GPa)
#
#
# Indices 1 2 3 4 5 6 
#
# 1 0.015866 -0.006896 -0.000235 0.002213 -0.000487 -0.008333
# 2 -0.006896 0.015673 -0.003906 -0.001123 -0.000901 0.007692
# 3 -0.000235 -0.003906 0.010774 -0.000452 0.000602 -0.006585
# 4 0.002213 -0.001123 -0.000452 0.051279 -0.004787 -0.000412
# 5 -0.000487 -0.000901 0.000602 -0.004787 0.056578 0.003443
# 6 -0.008333 0.007692 -0.006585 -0.000412 0.003443 0.065212
#
#
# Mechanical properties :
#
#
# Convention : Reuss Voigt Hill
#
# Bulk Modulus (GPa) = 49.40706 51.86992 50.63849
# Shear Modulus (GPa) = 20.47483 24.11099 22.29291
#
# Velocity S-wave (km/s) = 3.45671 3.75112 3.60692
# Velocity P-wave (km/s) = 6.69068 7.00227 6.84825
#
# Compressibility (1/GPa) = 0.02024002
#
# Stress axis : x y z
#
# Youngs Moduli (GPa) = 63.02720 63.80366 92.81289
#
# Poissons Ratio (x) = 0.43997 0.02183
# Poissons Ratio (y) = 0.43462 0.36251
# Poissons Ratio (z) = 0.01482 0.24921
#
# Static dielectric constant tensor:
#      x y z
#    x 3.090220 -0.052080 0.054820 
#    y -0.052080 3.029410 -0.028980 
#    z 0.054820 -0.028980 3.377300 
# 
# 
# High freq. dielectric constant tensor:
#      x y z
#    x 1.646920 -0.007730 0.005290 
#    y -0.007730 1.638280 -0.002630 
#    z 0.005290 -0.002630 1.686270 
# 
# From -- ./inp_files/247873.got.cif
#   From: 2010.06.25/outbox.cif.g09.slc.cpg/sg2_124_cif.got.tgz:247873.got - 2010.06.27 13:26:56.
