data_PCOD8038238
_publ_section_title
;
Structure prediction by ZEFSAII (Michael W. Deem and Ramdas Pophale) SiO2 
 PCOD8038238
Probable space group: P -1
;
_chemical_formula_sum "Si O2"
_cell_formula_units_Z 14
_cell_length_a 7.449564
_cell_length_b 14.138378
_cell_length_c 8.731745
_cell_angle_alpha 50.356453
_cell_angle_beta 52.445284
_cell_angle_gamma 70.833822
_cell_volume 558.647795
_symmetry_space_group_name_H-M "P -1"
_symmetry_group_IT_number 2
_symmetry_cell_setting 'triclinic'
loop_
_space_group_symop_operation_xyz
x,y,z
-x,-y,-z
loop_
_atom_site_type_symbol
_atom_site_label
_atom_site_fract_x
_atom_site_fract_y
_atom_site_fract_z
Si Si1 0.024558 0.971435 0.194894
Si Si2 0.394873 0.180956 0.276247
Si Si3 0.776929 0.349470 0.346994
Si Si4 0.837060 0.399844 0.768764
Si Si5 0.387655 0.795892 0.149512
Si Si6 0.725223 0.551680 0.928371
Si Si7 0.137349 0.800734 0.824159
O O1 0.822097 0.876348 0.461382
O O2 0.255898 0.908986 0.160250
O O3 0.035789 0.095997 0.162115
O O4 0.000000 0.000000 0.000000
O O5 0.412397 0.329493 0.110601
O O6 0.617917 0.144481 0.288819
O O7 0.397092 0.146013 0.126832
O O8 0.581255 0.291311 0.628979
O O9 0.841038 0.233512 0.329645
O O10 0.003796 0.403664 0.261950
O O11 0.670918 0.457510 0.196650
O O12 0.749220 0.292491 0.810788
O O13 0.662810 0.481424 0.869922
O O14 0.000000 0.500000 0.500000
O O15 0.963143 0.327429 0.910622
#
# Coordination Sequence:
#
# PCOD8038238 Si02
#       7
#     2   2   2   2   2   2   2
#     4  12  22  43  67  93 122 168 211 268 301 369
#     4  11  23  42  65  96 120 167 216 262 293 385
#     4  10  21  42  60  96 129 169 195 264 321 374
#     4  10  17  34  60  93 113 166 206 250 293 374
#     4  11  23  39  68  93 128 163 216 253 317 364
#     4  10  21  38  66  87 134 162 209 255 313 367
#     4  10  24  37  65  93 129 160 215 254 315 365
#
# _framework density 25.060511000000002
#
# number of rings (size 3 to 8) (size 9 to 14) (size 15 to 20)
#    0.000    1.429    5.714    0.429    0.000    6.286 
#    0.000    2.143    0.000    0.000    0.000    0.000 
#    0.000    0.000    0.000    0.000    0.000    0.000 
#
# Total GULP energy -173443.501764 kJ/mol
# GULP energy per Si atom -12388.821555 kJ/mol
# Density = 2.500347 g / cm^3
# Si number density = 25.060511 Si / 1000 Ang^3
#
#
#
# Elastic Constant Matrix: (Units=GPa)
#
#
# Indices 1 2 3 4 5 6 
#
# 1 34.1665 10.2861 12.4651 2.7580 9.4887 6.1197
# 2 10.2861 174.2865 37.3183 7.7001 4.6868 -4.7464
# 3 12.4651 37.3183 186.1792 20.3462 13.3625 -0.2080
# 4 2.7580 7.7001 20.3462 31.4479 1.4865 5.4309
# 5 9.4887 4.6868 13.3625 1.4865 30.6589 5.1972
# 6 6.1197 -4.7464 -0.2080 5.4309 5.1972 30.4195
#
#
#
# Elastic Compliance Matrix: (Units=1/GPa)
#
#
# Indices 1 2 3 4 5 6 
#
# 1 0.033635 -0.001612 -0.001272 -0.000376 -0.008662 -0.005480
# 2 -0.001612 0.006135 -0.001000 -0.000960 -0.000207 0.001482
# 3 -0.001272 -0.001000 0.006228 -0.003775 -0.002186 0.001190
# 4 -0.000376 -0.000960 -0.003775 0.035600 0.001315 -0.006680
# 5 -0.008662 -0.000207 -0.002186 0.001315 0.037044 -0.004868
# 6 -0.005480 0.001482 0.001190 -0.006680 -0.004868 0.036240
#
#
# Mechanical properties :
#
#
# Convention : Reuss Voigt Hill
#
# Bulk Modulus (GPa) = 26.15840 57.19681 41.67761
# Shear Modulus (GPa) = 28.50705 40.80944 34.65824
#
# Velocity S-wave (km/s) = 3.37639 4.03977 3.72288
# Velocity P-wave (km/s) = 5.06564 6.68077 5.92846
#
# Compressibility (1/GPa) = 0.03822863
#
# Stress axis : x y z
#
# Youngs Moduli (GPa) = 29.73051 162.98911 160.57468
#
# Poissons Ratio (x) = 0.26281 0.20427
# Poissons Ratio (y) = 0.04794 0.16064
# Poissons Ratio (z) = 0.03782 0.16306
#
# Static dielectric constant tensor:
#      x y z
#    x 4.180780 -0.028240 0.142400 
#    y -0.028240 4.979460 -0.026210 
#    z 0.142400 -0.026210 5.588400 
# 
# 
# High freq. dielectric constant tensor:
#      x y z
#    x 1.964860 0.009010 0.008920 
#    y 0.009010 2.019630 0.001850 
#    z 0.008920 0.001850 2.019900 
# 
# From -- ./inp_files/199233.got.cif
#   From: 2010.06.25/outbox.cif.g09.slc.cpg/sg2_100_cif.got.tgz:199233.got - 2010.06.27 13:26:56.
