data_PCOD8038917
_publ_section_title
;
Structure prediction by ZEFSAII (Michael W. Deem and Ramdas Pophale) SiO2 
 PCOD8038917
Probable space group: P -1
;
_chemical_formula_sum "Si O2"
_cell_formula_units_Z 16
_cell_length_a 18.613440
_cell_length_b 21.353129
_cell_length_c 10.968597
_cell_angle_alpha 148.693392
_cell_angle_beta 40.414424
_cell_angle_gamma 161.196795
_cell_volume 700.259670
_symmetry_space_group_name_H-M "P -1"
_symmetry_group_IT_number 2
_symmetry_cell_setting 'triclinic'
loop_
_space_group_symop_operation_xyz
x,y,z
-x,-y,-z
loop_
_atom_site_type_symbol
_atom_site_label
_atom_site_fract_x
_atom_site_fract_y
_atom_site_fract_z
Si Si1 0.527835 0.472560 0.616984
Si Si2 0.732991 0.334440 0.725469
Si Si3 0.380401 0.545434 0.786939
Si Si4 0.225454 0.818022 0.964649
Si Si5 0.289585 0.897065 0.458327
Si Si6 0.031776 0.232343 0.435013
Si Si7 0.736149 0.300011 0.050959
Si Si8 0.858676 0.011960 0.537933
O O1 0.532209 0.615758 0.806726
O O2 0.511195 0.371354 0.349236
O O3 0.769695 0.671463 0.707328
O O4 0.311551 0.247985 0.613738
O O5 0.727315 0.191421 0.541322
O O6 0.006580 0.622035 0.827801
O O7 0.569846 0.194155 0.581996
O O8 0.627347 0.321173 0.945649
O O9 0.120246 0.241966 0.629908
O O10 0.196147 0.676674 0.860138
O O11 0.247024 0.957981 0.250172
O O12 0.458977 0.029241 0.937395
O O13 0.138517 0.876072 0.629066
O O14 0.175414 0.711839 0.184957
O O15 0.172100 0.478186 0.726790
O O16 0.867766 0.009307 0.374932
#
# Coordination Sequence:
#
# PCOD8038917 Si02
#       8
#     2   2   2   2   2   2   2   2
#     4  10  19  34  58  85 107 141 189 232 277 317
#     4  10  22  37  53  78 115 152 183 219 285 332
#     4   9  20  36  56  80 113 145 183 231 274 326
#     4  10  19  31  54  85 110 141 181 234 270 330
#     4  11  21  35  54  78 116 155 176 224 281 340
#     4  11  20  33  56  86 111 142 185 231 277 325
#     4  11  19  32  56  82 114 140 184 232 274 323
#     4  10  18  31  54  86 109 138 177 235 279 322
#
# _framework density 22.848666000000001
#
# number of rings (size 3 to 8) (size 9 to 14) (size 15 to 20)
#    0.000    1.750    3.750    3.000    0.000    0.500 
#    0.000    0.625    0.000    0.750    0.000    0.000 
#    0.000    0.000    0.000    0.000    0.000    0.000 
#
# Total GULP energy -198246.090684 kJ/mol
# GULP energy per Si atom -12390.380668 kJ/mol
# Density = 2.279666 g / cm^3
# Si number density = 22.848666 Si / 1000 Ang^3
#
#
#
# Elastic Constant Matrix: (Units=GPa)
#
#
# Indices 1 2 3 4 5 6 
#
# 1 107.6923 35.7728 7.6621 10.7671 -2.9208 29.2724
# 2 35.7728 107.9775 1.2843 12.5800 -5.6430 4.7271
# 3 7.6621 1.2843 19.0947 8.2615 6.6252 3.8066
# 4 10.7671 12.5800 8.2615 23.2634 9.8030 1.0882
# 5 -2.9208 -5.6430 6.6252 9.8030 24.0016 5.0727
# 6 29.2724 4.7271 3.8066 1.0882 5.0727 51.6254
#
#
#
# Elastic Compliance Matrix: (Units=1/GPa)
#
#
# Indices 1 2 3 4 5 6 
#
# 1 0.013244 -0.003127 -0.003260 -0.005246 0.005486 -0.007411
# 2 -0.003127 0.011370 0.002008 -0.007411 0.004707 0.000277
# 3 -0.003260 0.002008 0.065379 -0.018477 -0.010049 -0.001779
# 4 -0.005246 -0.007411 -0.018477 0.066551 -0.025761 0.006144
# 5 0.005486 0.004707 -0.010049 -0.025761 0.058424 -0.007998
# 6 -0.007411 0.000277 -0.001779 0.006144 -0.007998 0.024335
#
#
# Mechanical properties :
#
#
# Convention : Reuss Voigt Hill
#
# Bulk Modulus (GPa) = 12.30984 36.02258 24.16621
# Shear Modulus (GPa) = 18.17255 32.44777 25.31016
#
# Velocity S-wave (km/s) = 2.82324 3.77253 3.33187
# Velocity P-wave (km/s) = 4.00336 5.89711 5.03998
#
# Compressibility (1/GPa) = 0.08123582
#
# Stress axis : x y z
#
# Youngs Moduli (GPa) = 75.50557 87.94745 15.29539
#
# Poissons Ratio (x) = 0.27498 0.04987
# Poissons Ratio (y) = 0.23608 -0.03071
# Poissons Ratio (z) = 0.24616 -0.17659
#
# Static dielectric constant tensor:
#      x y z
#    x 4.163960 0.499040 -0.074560 
#    y 0.499040 4.350010 0.197800 
#    z -0.074560 0.197800 3.642580 
# 
# 
# High freq. dielectric constant tensor:
#      x y z
#    x 1.903910 0.037260 -0.013790 
#    y 0.037260 1.908590 0.015030 
#    z -0.013790 0.015030 1.843650 
# 
# From -- ./inp_files/445360.got.cif
#   From: 2010.06.25/outbox.cif.g09.slc.cpg/sg2_223_cif.got.tgz:445360.got - 2010.06.27 13:26:56.
