data_PCOD8038474
_publ_section_title
;
Structure prediction by ZEFSAII (Michael W. Deem and Ramdas Pophale) SiO2 
 PCOD8038474
Probable space group: P -1
;
_chemical_formula_sum "Si O2"
_cell_formula_units_Z 14
_cell_length_a 9.152119
_cell_length_b 11.630975
_cell_length_c 22.886655
_cell_angle_alpha 35.805933
_cell_angle_beta 27.862363
_cell_angle_gamma 40.106060
_cell_volume 655.826279
_symmetry_space_group_name_H-M "P -1"
_symmetry_group_IT_number 2
_symmetry_cell_setting 'triclinic'
loop_
_space_group_symop_operation_xyz
x,y,z
-x,-y,-z
loop_
_atom_site_type_symbol
_atom_site_label
_atom_site_fract_x
_atom_site_fract_y
_atom_site_fract_z
Si Si1 0.345388 0.611392 0.065757
Si Si2 0.779270 0.073641 0.275009
Si Si3 0.618243 0.686206 0.307866
Si Si4 0.588159 0.520906 0.775105
Si Si5 0.727650 0.814816 0.023320
Si Si6 0.296001 0.327790 0.581975
Si Si7 0.382820 0.989310 0.177566
O O1 0.406818 0.472197 0.158880
O O2 0.970479 0.676937 0.162050
O O3 0.500000 0.500000 0.000000
O O4 0.504645 0.802617 0.940698
O O5 0.495710 0.256697 0.314652
O O6 0.636164 0.874554 0.396266
O O7 0.035774 0.030574 0.254003
O O8 0.922482 0.151077 0.132285
O O9 0.500692 0.479789 0.418588
O O10 0.594883 0.723820 0.369514
O O11 0.377925 0.874111 0.288066
O O12 0.326531 0.394915 0.897206
O O13 0.925118 0.419586 0.671995
O O14 0.650242 0.834328 0.111133
O O15 0.500000 0.000000 0.000000
#
# Coordination Sequence:
#
# PCOD8038474 Si02
#       7
#     2   2   2   2   2   2   2
#     4  11  24  39  61 100 129 159 214 264 320 372
#     4  11  22  37  67  96 125 164 208 263 317 371
#     4  10  24  43  65  85 129 177 208 257 314 378
#     4  11  21  39  65  96 127 165 208 259 317 377
#     4  10  17  36  61  90 125 158 207 255 311 366
#     4  10  22  47  63  88 127 177 215 247 315 385
#     4  11  22  39  65  96 123 167 210 264 324 359
#
# _framework density 21.347114999999999
#
# number of rings (size 3 to 8) (size 9 to 14) (size 15 to 20)
#    0.000    1.429    5.714    1.714    4.000    0.571 
#    2.571    2.857    0.000    0.000    0.000    0.000 
#    0.000    0.000    0.000    0.000    0.000    0.000 
#
# Total GULP energy -173576.378431 kJ/mol
# GULP energy per Si atom -12398.312745 kJ/mol
# Density = 2.129853 g / cm^3
# Si number density = 21.347115 Si / 1000 Ang^3
#
#
#
# Elastic Constant Matrix: (Units=GPa)
#
#
# Indices 1 2 3 4 5 6 
#
# 1 85.8909 42.5917 36.0446 -20.4447 -8.7672 -10.9490
# 2 42.5917 94.6561 21.0380 -35.1013 -3.3947 -7.3706
# 3 36.0446 21.0380 73.6742 -32.4278 -23.2046 -7.1307
# 4 -20.4447 -35.1013 -32.4278 27.6439 12.7031 7.0635
# 5 -8.7672 -3.3947 -23.2046 12.7031 30.8104 -12.7072
# 6 -10.9490 -7.3706 -7.1307 7.0635 -12.7072 34.3279
#
#
#
# Elastic Compliance Matrix: (Units=1/GPa)
#
#
# Indices 1 2 3 4 5 6 
#
# 1 0.020515 -0.014591 -0.013615 -0.025217 0.007969 0.008721
# 2 -0.014591 0.040535 0.022924 0.082670 -0.023470 -0.016887
# 3 -0.013615 0.022924 0.045999 0.073762 0.000949 -0.004692
# 4 -0.025217 0.082670 0.073762 0.254351 -0.069212 -0.052928
# 5 0.007969 -0.023470 0.000949 -0.069212 0.078262 0.040911
# 6 0.008721 -0.016887 -0.004692 -0.052928 0.040911 0.053347
#
#
# Mechanical properties :
#
#
# Convention : Reuss Voigt Hill
#
# Bulk Modulus (GPa) = 10.36435 50.39666 30.38050
# Shear Modulus (GPa) = 9.33298 28.85958 19.09628
#
# Velocity S-wave (km/s) = 2.09320 3.68083 2.99416
# Velocity P-wave (km/s) = 3.27226 6.45942 5.12015
#
# Compressibility (1/GPa) = 0.09648461
#
# Stress axis : x y z
#
# Youngs Moduli (GPa) = 48.74578 24.67012 21.73945
#
# Poissons Ratio (x) = 0.35997 0.29599
# Poissons Ratio (y) = 0.71126 -0.49837
# Poissons Ratio (z) = 0.66369 -0.56555
#
# Static dielectric constant tensor:
#      x y z
#    x 4.000850 -0.102940 -0.015880 
#    y -0.102940 3.478350 -0.033360 
#    z -0.015880 -0.033360 3.936250 
# 
# 
# High freq. dielectric constant tensor:
#      x y z
#    x 1.837610 -0.005830 -0.008310 
#    y -0.005830 1.830370 -0.016050 
#    z -0.008310 -0.016050 1.828680 
# 
# From -- ./inp_files/186868.got.cif
#   From: 2010.06.25/outbox.cif.g09.slc.cpg/sg2_94_cif.got.tgz:186868.got - 2010.06.27 13:26:56.
