data_PCOD8038651
_publ_section_title
;
Structure prediction by ZEFSAII (Michael W. Deem and Ramdas Pophale) SiO2 
 PCOD8038651
Probable space group: P -1
;
_chemical_formula_sum "Si O2"
_cell_formula_units_Z 16
_cell_length_a 11.422401
_cell_length_b 14.539062
_cell_length_c 11.842961
_cell_angle_alpha 121.348991
_cell_angle_beta 42.875803
_cell_angle_gamma 90.789366
_cell_volume 885.299146
_symmetry_space_group_name_H-M "P -1"
_symmetry_group_IT_number 2
_symmetry_cell_setting 'triclinic'
loop_
_space_group_symop_operation_xyz
x,y,z
-x,-y,-z
loop_
_atom_site_type_symbol
_atom_site_label
_atom_site_fract_x
_atom_site_fract_y
_atom_site_fract_z
Si Si1 0.189038 0.946766 0.482328
Si Si2 0.183263 0.616350 0.363224
Si Si3 0.157144 0.846074 0.663125
Si Si4 0.404055 0.059694 0.291795
Si Si5 0.691520 0.129487 0.205693
Si Si6 0.703438 0.805504 0.771489
Si Si7 0.610074 0.339322 0.950321
Si Si8 0.302984 0.806999 0.001140
O O1 0.234716 0.904469 0.554571
O O2 0.324984 0.807895 0.223757
O O3 0.272243 0.034010 0.452828
O O4 0.924711 0.041794 0.705279
O O5 0.188764 0.715213 0.506720
O O6 0.258970 0.622657 0.188078
O O7 0.937865 0.662805 0.555405
O O8 0.346458 0.460169 0.195610
O O9 0.314584 0.795548 0.629543
O O10 0.903545 0.966593 0.954498
O O11 0.474141 0.139444 0.361273
O O12 0.250068 0.150005 0.350643
O O13 0.629694 0.918739 0.992137
O O14 0.695980 0.208621 0.144850
O O15 0.514298 0.792732 0.880386
O O16 0.672258 0.316349 0.026323
#
# Coordination Sequence:
#
# PCOD8038651 Si02
#       8
#     2   2   2   2   2   2   2   2
#     4  10  19  31  50  76 103 125 159 205 246 287
#     4  10  20  34  48  72 103 133 160 194 246 295
#     4   9  18  33  50  67  99 134 161 202 236 290
#     4  10  18  28  49  77  99 125 157 203 245 286
#     4   9  18  32  50  73  95 128 168 197 247 281
#     4  10  19  29  48  76 105 124 154 203 247 288
#     4  10  20  31  49  73 101 132 160 193 250 297
#     4  10  19  32  51  76 101 124 162 207 242 288
#
# _framework density 18.072986
#
# number of rings (size 3 to 8) (size 9 to 14) (size 15 to 20)
#    0.000    2.250    2.500    1.125    5.250    1.000 
#    0.000    0.625    0.000    0.000    0.000   42.875 
#    0.000    0.000    0.000    0.000    0.000    0.000 
#
# Total GULP energy -198299.343192 kJ/mol
# GULP energy per Si atom -12393.708949 kJ/mol
# Density = 1.803185 g / cm^3
# Si number density = 18.072986 Si / 1000 Ang^3
#
#
#
# Elastic Constant Matrix: (Units=GPa)
#
#
# Indices 1 2 3 4 5 6 
#
# 1 100.3981 42.9528 48.0119 -9.2895 -9.0398 -18.8807
# 2 42.9528 88.6653 36.2282 -7.3057 -0.8359 -22.5509
# 3 48.0119 36.2282 80.8521 3.8520 -18.5589 -12.2606
# 4 -9.2895 -7.3057 3.8520 23.1505 -7.5830 -5.8798
# 5 -9.0398 -0.8359 -18.5589 -7.5830 20.7111 -0.4855
# 6 -18.8807 -22.5509 -12.2606 -5.8798 -0.4855 27.1901
#
#
#
# Elastic Compliance Matrix: (Units=1/GPa)
#
#
# Indices 1 2 3 4 5 6 
#
# 1 0.017979 -0.001970 -0.007494 0.012346 0.005813 0.010245
# 2 -0.001970 0.018868 -0.006140 0.008930 -0.002016 0.013408
# 3 -0.007494 -0.006140 0.023408 -0.003617 0.016127 -0.000235
# 4 0.012346 0.008930 -0.003617 0.068341 0.028225 0.029632
# 5 0.005813 -0.002016 0.016127 0.028225 0.075925 0.017096
# 6 0.010245 0.013408 -0.000235 0.029632 0.017096 0.061619
#
#
# Mechanical properties :
#
#
# Convention : Reuss Voigt Hill
#
# Bulk Modulus (GPa) = 34.42571 58.25569 46.34070
# Shear Modulus (GPa) = 16.28498 23.72519 20.00509
#
# Velocity S-wave (km/s) = 3.00504 3.62711 3.33063
# Velocity P-wave (km/s) = 5.57941 7.06008 6.36296
#
# Compressibility (1/GPa) = 0.02904805
#
# Stress axis : x y z
#
# Youngs Moduli (GPa) = 55.61901 52.99913 42.72040
#
# Poissons Ratio (x) = 0.10441 0.32015
# Poissons Ratio (y) = 0.10957 0.26229
# Poissons Ratio (z) = 0.41682 0.32540
#
# Static dielectric constant tensor:
#      x y z
#    x 3.256020 -0.366570 -0.052960 
#    y -0.366570 3.399840 -0.134170 
#    z -0.052960 -0.134170 3.245890 
# 
# 
# High freq. dielectric constant tensor:
#      x y z
#    x 1.681040 -0.026010 -0.016550 
#    y -0.026010 1.692830 -0.019020 
#    z -0.016550 -0.019020 1.682800 
# 
# From -- ./inp_files/180599.got.cif
#   From: 2010.06.25/outbox.cif.g09.slc.cpg/sg2_91_cif.got.tgz:180599.got - 2010.06.27 13:26:56.
