data_PCOD8038335
_publ_section_title
;
Structure prediction by ZEFSAII (Michael W. Deem and Ramdas Pophale) SiO2 
 PCOD8038335
Probable space group: P -1
;
_chemical_formula_sum "Si O2"
_cell_formula_units_Z 16
_cell_length_a 15.667539
_cell_length_b 15.124157
_cell_length_c 11.847755
_cell_angle_alpha 52.436796
_cell_angle_beta 152.890830
_cell_angle_gamma 136.677743
_cell_volume 871.245494
_symmetry_space_group_name_H-M "P -1"
_symmetry_group_IT_number 2
_symmetry_cell_setting 'triclinic'
loop_
_space_group_symop_operation_xyz
x,y,z
-x,-y,-z
loop_
_atom_site_type_symbol
_atom_site_label
_atom_site_fract_x
_atom_site_fract_y
_atom_site_fract_z
Si Si1 0.403216 0.692421 0.987316
Si Si2 0.323093 0.564819 0.565067
Si Si3 0.739010 0.680345 0.655446
Si Si4 0.076000 0.683421 0.772755
Si Si5 0.735410 0.439062 0.754730
Si Si6 0.761500 0.605966 0.986046
Si Si7 0.103249 0.150128 0.483678
Si Si8 0.841699 0.360927 0.475144
O O1 0.294651 0.742982 0.910059
O O2 0.343525 0.723763 0.768494
O O3 0.293381 0.538167 0.999704
O O4 0.662859 0.767935 0.243821
O O5 0.311132 0.613412 0.387657
O O6 0.566600 0.590371 0.848380
O O7 0.280551 0.641685 0.551805
O O8 0.140120 0.412236 0.479663
O O9 0.800284 0.590041 0.722477
O O10 0.486025 0.635978 0.374203
O O11 0.793135 0.684594 0.847049
O O12 0.872074 0.822103 0.643867
O O13 0.062572 0.806693 0.699633
O O14 0.087368 0.592452 0.958435
O O15 0.991672 0.688787 0.258510
O O16 0.000000 0.000000 0.500000
O O17 0.000000 0.500000 0.500000
#
# Coordination Sequence:
#
# PCOD8038335 Si02
#       8
#     2   2   2   2   2   2   2   2
#     4  11  21  39  53  83 122 142 186 230 279 339
#     4  11  19  29  52  89 118 143 175 216 288 350
#     4  10  17  35  56  80 121 137 178 245 276 333
#     4  12  20  33  59  83 114 151 179 231 284 337
#     4  10  18  30  57  89 113 141 175 233 298 332
#     4  10  19  32  55  88 113 144 177 224 289 334
#     4  12  26  39  55  80 113 157 193 231 276 325
#     4  10  21  32  52  83 124 148 173 219 283 355
#
# _framework density 18.364512999999999
#
# number of rings (size 3 to 8) (size 9 to 14) (size 15 to 20)
#    0.000    1.250    7.500    1.125    1.750    3.500 
#    0.000    0.000    0.000    0.750    0.000    2.625 
#    0.000    0.000    0.000    0.000    0.000    0.000 
#
# Total GULP energy -198311.801081 kJ/mol
# GULP energy per Si atom -12394.487568 kJ/mol
# Density = 1.832271 g / cm^3
# Si number density = 18.364513 Si / 1000 Ang^3
#
#
#
# Elastic Constant Matrix: (Units=GPa)
#
#
# Indices 1 2 3 4 5 6 
#
# 1 96.8319 21.6520 48.4023 -9.1176 13.4779 5.8689
# 2 21.6520 76.2452 23.5230 -14.7678 0.5966 10.4539
# 3 48.4023 23.5230 126.8635 -13.6707 9.6634 0.6654
# 4 -9.1176 -14.7678 -13.6707 14.2053 -1.9627 0.3201
# 5 13.4779 0.5966 9.6634 -1.9627 36.2006 -4.6983
# 6 5.8689 10.4539 0.6654 0.3201 -4.6983 15.8027
#
#
#
# Elastic Compliance Matrix: (Units=1/GPa)
#
#
# Indices 1 2 3 4 5 6 
#
# 1 0.014091 -0.001245 -0.004445 0.002962 -0.004612 -0.005654
# 2 -0.001245 0.019038 -0.001003 0.018280 -0.000217 -0.012524
# 3 -0.004445 -0.001003 0.010452 0.006047 -0.000586 0.001577
# 4 0.002962 0.018280 0.006047 0.097505 0.000277 -0.015340
# 5 -0.004612 -0.000217 -0.000586 0.000277 0.030954 0.011078
# 6 -0.005654 -0.012524 0.001577 -0.015340 0.011078 0.077203
#
#
# Mechanical properties :
#
#
# Convention : Reuss Voigt Hill
#
# Bulk Modulus (GPa) = 33.11798 54.12168 43.61983
# Shear Modulus (GPa) = 18.33551 26.99926 22.66739
#
# Velocity S-wave (km/s) = 3.16321 3.83846 3.51708
# Velocity P-wave (km/s) = 5.60482 7.01283 6.34799
#
# Compressibility (1/GPa) = 0.03019508
#
# Stress axis : x y z
#
# Youngs Moduli (GPa) = 70.96685 52.52621 95.67219
#
# Poissons Ratio (x) = 0.06540 0.42527
# Poissons Ratio (y) = 0.08837 0.09595
# Poissons Ratio (z) = 0.31546 0.05268
#
# Static dielectric constant tensor:
#      x y z
#    x 3.562400 0.157080 0.029980 
#    y 0.157080 2.703090 -0.111240 
#    z 0.029980 -0.111240 4.000260 
# 
# 
# High freq. dielectric constant tensor:
#      x y z
#    x 1.731160 0.022680 0.016620 
#    y 0.022680 1.622250 -0.013920 
#    z 0.016620 -0.013920 1.737800 
# 
# From -- ./inp_files/455577.got.cif
#   From: 2010.06.25/outbox.cif.g09.slc.cpg/sg2_228_cif.got.tgz:455577.got - 2010.06.27 13:26:56.
