data_PCOD8038212
_publ_section_title
;
Structure prediction by ZEFSAII (Michael W. Deem and Ramdas Pophale) SiO2 
 PCOD8038212
Probable space group: P -1
;
_chemical_formula_sum "Si O2"
_cell_formula_units_Z 14
_cell_length_a 8.960990
_cell_length_b 10.149882
_cell_length_c 10.846217
_cell_angle_alpha 101.384827
_cell_angle_beta 111.579321
_cell_angle_gamma 120.238155
_cell_volume 696.883999
_symmetry_space_group_name_H-M "P -1"
_symmetry_group_IT_number 2
_symmetry_cell_setting 'triclinic'
loop_
_space_group_symop_operation_xyz
x,y,z
-x,-y,-z
loop_
_atom_site_type_symbol
_atom_site_label
_atom_site_fract_x
_atom_site_fract_y
_atom_site_fract_z
Si Si1 0.120337 0.925102 0.504828
Si Si2 0.901574 0.026111 0.761688
Si Si3 0.682462 0.825240 0.196491
Si Si4 0.235448 0.602923 0.948799
Si Si5 0.751049 0.577740 0.297924
Si Si6 0.390538 0.365302 0.329507
Si Si7 0.945827 0.675473 0.947765
O O1 0.169181 0.929560 0.375065
O O2 0.961350 0.725009 0.465443
O O3 0.316785 0.052796 0.677255
O O4 0.000000 0.000000 0.500000
O O5 0.114956 0.057452 0.807660
O O6 0.711754 0.827184 0.694253
O O7 0.942222 0.145567 0.910945
O O8 0.669091 0.668152 0.220087
O O9 0.482554 0.750387 0.041297
O O10 0.168614 0.490424 0.785565
O O11 0.125093 0.688398 0.934697
O O12 0.181738 0.488403 0.031624
O O13 0.571878 0.423915 0.300094
O O14 0.500000 0.500000 0.500000
O O15 0.213618 0.359644 0.210403
#
# Coordination Sequence:
#
# PCOD8038212 Si02
#       7
#     2   2   2   2   2   2   2
#     4   8  16  31  55  84 110 138 189 240 267 321
#     4  10  20  37  57  85 116 146 191 235 281 335
#     4  10  17  34  59  84 110 149 197 229 274 336
#     4  11  21  37  61  85 114 150 194 240 276 336
#     4  10  18  36  60  84 109 152 198 224 280 336
#     4  12  23  38  61  88 115 149 190 236 282 345
#     4  11  23  38  56  88 118 147 190 241 288 323
#
# _framework density 20.089426
#
# number of rings (size 3 to 8) (size 9 to 14) (size 15 to 20)
#    0.000    2.000    4.286    4.286    0.000    0.000 
#    0.000    5.714    0.000    0.000    0.000    0.000 
#    0.000    0.000    0.000    0.000    0.000    0.000 
#
# Total GULP energy -173480.880498 kJ/mol
# GULP energy per Si atom -12391.491464 kJ/mol
# Density = 2.004370 g / cm^3
# Si number density = 20.089426 Si / 1000 Ang^3
#
#
#
# Elastic Constant Matrix: (Units=GPa)
#
#
# Indices 1 2 3 4 5 6 
#
# 1 91.5716 42.5042 45.3948 15.5167 -20.5855 7.2491
# 2 42.5042 81.0937 35.3712 20.8216 5.6045 21.6026
# 3 45.3948 35.3712 130.6805 33.9569 -18.9644 -12.9148
# 4 15.5167 20.8216 33.9569 29.7928 4.0383 2.1028
# 5 -20.5855 5.6045 -18.9644 4.0383 18.1737 4.1852
# 6 7.2491 21.6026 -12.9148 2.1028 4.1852 27.8487
#
#
#
# Elastic Compliance Matrix: (Units=1/GPa)
#
#
# Indices 1 2 3 4 5 6 
#
# 1 0.030114 -0.018627 0.006624 -0.017211 0.049785 0.003500
# 2 -0.018627 0.034879 -0.013454 0.008015 -0.042455 -0.022672
# 3 0.006624 -0.013454 0.022852 -0.026312 0.037747 0.015624
# 4 -0.017211 0.008015 -0.026312 0.076311 -0.064060 -0.010075
# 5 0.049785 -0.042455 0.037747 -0.064060 0.174424 0.016103
# 6 0.003500 -0.022672 0.015624 -0.010075 0.016103 0.058170
#
#
# Mechanical properties :
#
#
# Convention : Reuss Voigt Hill
#
# Bulk Modulus (GPa) = 27.07865 61.09846 44.08855
# Shear Modulus (GPa) = 10.87016 27.16808 19.01912
#
# Velocity S-wave (km/s) = 2.32865 3.68143 3.08022
# Velocity P-wave (km/s) = 4.55395 6.96777 5.88593
#
# Compressibility (1/GPa) = 0.03692946
#
# Stress axis : x y z
#
# Youngs Moduli (GPa) = 33.20750 28.67077 43.75985
#
# Poissons Ratio (x) = 0.53405 -0.28986
# Poissons Ratio (y) = 0.61856 0.58876
# Poissons Ratio (z) = -0.21996 0.38575
#
# Static dielectric constant tensor:
#      x y z
#    x 3.538490 0.244140 -0.065480 
#    y 0.244140 3.516340 0.323350 
#    z -0.065480 0.323350 4.620720 
# 
# 
# High freq. dielectric constant tensor:
#      x y z
#    x 1.760430 0.026600 -0.011220 
#    y 0.026600 1.757580 0.027070 
#    z -0.011220 0.027070 1.802600 
# 
# From -- ./inp_files/380092.got.cif
#   From: 2010.06.25/outbox.cif.g09.slc.cpg/sg2_191_cif.got.tgz:380092.got - 2010.06.27 13:26:56.
