data_PCOD8038924
_publ_section_title
;
Structure prediction by ZEFSAII (Michael W. Deem and Ramdas Pophale) SiO2 
 PCOD8038924
Probable space group: P -1
;
_chemical_formula_sum "Si O2"
_cell_formula_units_Z 16
_cell_length_a 10.879551
_cell_length_b 13.883981
_cell_length_c 9.349871
_cell_angle_alpha 116.583518
_cell_angle_beta 100.799754
_cell_angle_gamma 41.873548
_cell_volume 817.493634
_symmetry_space_group_name_H-M "P -1"
_symmetry_group_IT_number 2
_symmetry_cell_setting 'triclinic'
loop_
_space_group_symop_operation_xyz
x,y,z
-x,-y,-z
loop_
_atom_site_type_symbol
_atom_site_label
_atom_site_fract_x
_atom_site_fract_y
_atom_site_fract_z
Si Si1 0.711204 0.150019 0.621499
Si Si2 0.050117 0.618202 0.968108
Si Si3 0.298145 0.451693 0.639528
Si Si4 0.246747 0.245666 0.534538
Si Si5 0.455084 0.916088 0.261815
Si Si6 0.977702 0.169836 0.688228
Si Si7 0.730707 0.662329 0.940797
Si Si8 0.838197 0.421554 0.603823
O O1 0.520717 0.326232 0.632637
O O2 0.661433 0.109800 0.720589
O O3 0.850331 0.154100 0.707782
O O4 0.815351 0.007410 0.431667
O O5 0.170425 0.573778 0.825314
O O6 0.859980 0.677214 0.922328
O O7 0.992308 0.763656 0.135782
O O8 0.178422 0.456452 0.982328
O O9 0.259076 0.351779 0.528810
O O10 0.236248 0.559076 0.557477
O O11 0.367673 0.168741 0.654976
O O12 0.034044 0.360269 0.610549
O O13 0.318353 0.107977 0.349025
O O14 0.529597 0.840310 0.069032
O O15 0.866286 0.292329 0.609438
O O16 0.691761 0.598196 0.767541
#
# Coordination Sequence:
#
# PCOD8038924 Si02
#       8
#     2   2   2   2   2   2   2   2
#     4  10  21  39  58  80 106 144 195 224 265 316
#     4  10  19  33  55  83 110 141 180 227 270 319
#     4  11  22  36  56  84 117 143 175 223 279 333
#     4  10  18  31  55  81 109 145 175 216 278 329
#     4  10  18  32  56  83 108 143 183 230 262 317
#     4  10  22  38  62  78 103 146 194 231 259 316
#     4  10  18  32  53  85 112 138 181 223 269 325
#     4  11  21  36  56  83 115 147 173 222 283 324
#
# _framework density 19.572016999999999
#
# number of rings (size 3 to 8) (size 9 to 14) (size 15 to 20)
#    0.000    1.750    5.000    1.875    3.500    1.000 
#    0.000    1.875    0.000    1.500    0.000    0.000 
#    0.000    0.000    0.000    0.000    0.000    0.000 
#
# Total GULP energy -198410.625546 kJ/mol
# GULP energy per Si atom -12400.664097 kJ/mol
# Density = 1.952747 g / cm^3
# Si number density = 19.572017 Si / 1000 Ang^3
#
#
#
# Elastic Constant Matrix: (Units=GPa)
#
#
# Indices 1 2 3 4 5 6 
#
# 1 59.7743 9.5083 24.8302 12.8637 -6.2448 -8.2121
# 2 9.5083 33.2612 29.7295 4.7598 -5.1796 3.9034
# 3 24.8302 29.7295 125.7092 17.9227 -12.4343 -4.0816
# 4 12.8637 4.7598 17.9227 28.6596 -1.6339 -2.5763
# 5 -6.2448 -5.1796 -12.4343 -1.6339 23.3245 8.2061
# 6 -8.2121 3.9034 -4.0816 -2.5763 8.2061 12.4773
#
#
#
# Elastic Compliance Matrix: (Units=1/GPa)
#
#
# Indices 1 2 3 4 5 6 
#
# 1 0.021692 -0.006049 -0.001670 -0.006396 -0.002480 0.015933
# 2 -0.006049 0.046042 -0.009082 -0.001225 0.014675 -0.031260
# 3 -0.001670 -0.009082 0.011387 -0.004459 0.002205 0.003096
# 4 -0.006396 -0.001225 -0.004459 0.041049 -0.003394 0.005423
# 5 -0.002480 0.014675 0.002205 -0.003394 0.063216 -0.047779
# 6 0.015933 -0.031260 0.003096 0.005423 -0.047779 0.133967
#
#
# Mechanical properties :
#
#
# Convention : Reuss Voigt Hill
#
# Bulk Modulus (GPa) = 21.96948 38.54230 30.25589
# Shear Modulus (GPa) = 13.65642 23.20407 18.43024
#
# Velocity S-wave (km/s) = 2.64437 3.44695 3.07198
# Velocity P-wave (km/s) = 4.53573 5.96467 5.29859
#
# Compressibility (1/GPa) = 0.04551770
#
# Stress axis : x y z
#
# Youngs Moduli (GPa) = 46.09994 21.71950 87.81926
#
# Poissons Ratio (x) = 0.13138 0.14667
# Poissons Ratio (y) = 0.27885 0.79762
# Poissons Ratio (z) = 0.07699 0.19727
#
# Static dielectric constant tensor:
#      x y z
#    x 3.437830 0.102320 -0.095440 
#    y 0.102320 3.357270 0.340490 
#    z -0.095440 0.340490 3.665820 
# 
# 
# High freq. dielectric constant tensor:
#      x y z
#    x 1.750120 0.007190 -0.010830 
#    y 0.007190 1.731280 0.028960 
#    z -0.010830 0.028960 1.765310 
# 
# From -- ./inp_files/273735.got.cif
#   From: 2010.06.25/outbox.cif.g09.slc.cpg/sg2_137_cif.got.tgz:273735.got - 2010.06.27 13:26:56.
