data_PCOD8038693
_publ_section_title
;
Structure prediction by ZEFSAII (Michael W. Deem and Ramdas Pophale) SiO2 
 PCOD8038693
Probable space group: P -1
;
_chemical_formula_sum "Si O2"
_cell_formula_units_Z 14
_cell_length_a 11.932764
_cell_length_b 18.830374
_cell_length_c 13.027080
_cell_angle_alpha 27.384536
_cell_angle_beta 113.686403
_cell_angle_gamma 132.868525
_cell_volume 789.243257
_symmetry_space_group_name_H-M "P -1"
_symmetry_group_IT_number 2
_symmetry_cell_setting 'triclinic'
loop_
_space_group_symop_operation_xyz
x,y,z
-x,-y,-z
loop_
_atom_site_type_symbol
_atom_site_label
_atom_site_fract_x
_atom_site_fract_y
_atom_site_fract_z
Si Si1 0.299352 0.879461 0.874402
Si Si2 0.945556 0.329112 0.431763
Si Si3 0.981655 0.654600 0.335357
Si Si4 0.518962 0.964612 0.667605
Si Si5 0.403244 0.683561 0.278682
Si Si6 0.737802 0.904481 0.258624
Si Si7 0.724619 0.542456 0.689344
O O1 0.415386 0.992723 0.664839
O O2 0.303256 0.052733 0.702875
O O3 0.079446 0.611925 0.122293
O O4 0.409000 0.866160 0.007083
O O5 0.059504 0.315582 0.420410
O O6 0.916484 0.234828 0.657305
O O7 0.742384 0.168658 0.514177
O O8 0.000000 0.500000 0.500000
O O9 0.761958 0.491900 0.472374
O O10 0.059559 0.849803 0.029295
O O11 0.500000 0.000000 0.500000
O O12 0.412261 0.697418 0.983996
O O13 0.597780 0.824994 0.220250
O O14 0.362601 0.532124 0.361562
O O15 0.728916 0.714526 0.521046
#
# Coordination Sequence:
#
# PCOD8038693 Si02
#       7
#     2   2   2   2   2   2   2
#     4   9  20  32  52  85 100 139 179 217 261 298
#     4   9  19  37  54  75 111 131 186 212 245 331
#     4  10  18  29  50  80 108 147 168 191 257 306
#     4  10  21  40  62  72  93 138 185 228 270 312
#     4   9  19  31  49  77 115 151 178 194 246 314
#     4  12  19  31  53  78 121 137 171 217 250 313
#     4   9  22  35  49  83 107 142 173 215 269 302
#
# _framework density 17.738512
#
# number of rings (size 3 to 8) (size 9 to 14) (size 15 to 20)
#    0.000    2.857    2.857    2.571    2.000    5.714 
#    0.000    0.714    0.000    1.714    0.000    0.000 
#    0.000    0.000    0.000    0.000    0.000    0.000 
#
# Total GULP energy -173534.357403 kJ/mol
# GULP energy per Si atom -12395.311243 kJ/mol
# Density = 1.769814 g / cm^3
# Si number density = 17.738512 Si / 1000 Ang^3
#
#
#
# Elastic Constant Matrix: (Units=GPa)
#
#
# Indices 1 2 3 4 5 6 
#
# 1 109.4962 48.4021 61.4942 -6.9471 6.6176 -27.2164
# 2 48.4021 59.7428 39.4717 3.9426 -5.3709 -6.9089
# 3 61.4942 39.4717 91.8352 -0.9695 -2.7199 -13.5611
# 4 -6.9471 3.9426 -0.9695 18.1463 -10.1848 -0.9960
# 5 6.6176 -5.3709 -2.7199 -10.1848 33.4404 -9.3384
# 6 -27.2164 -6.9089 -13.5611 -0.9960 -9.3384 25.2957
#
#
#
# Elastic Compliance Matrix: (Units=1/GPa)
#
#
# Indices 1 2 3 4 5 6 
#
# 1 0.025898 -0.014057 -0.007918 0.015139 0.002536 0.021313
# 2 -0.014057 0.031722 -0.005769 -0.012648 0.000834 -0.009743
# 3 -0.007918 -0.005769 0.018922 0.000829 0.002737 0.001092
# 4 0.015139 -0.012648 0.000829 0.080194 0.026819 0.026337
# 5 0.002536 0.000834 0.002737 0.026819 0.043992 0.021720
# 6 0.021313 -0.009743 0.001092 0.026337 0.021720 0.069443
#
#
# Mechanical properties :
#
#
# Convention : Reuss Voigt Hill
#
# Bulk Modulus (GPa) = 47.49795 62.20113 54.84954
# Shear Modulus (GPa) = 15.02963 22.82356 18.92659
#
# Velocity S-wave (km/s) = 2.91398 3.59091 3.27001
# Velocity P-wave (km/s) = 6.17710 7.23426 6.72648
#
# Compressibility (1/GPa) = 0.02105354
#
# Stress axis : x y z
#
# Youngs Moduli (GPa) = 38.61300 31.52415 52.84980
#
# Poissons Ratio (x) = 0.44314 0.41845
# Poissons Ratio (y) = 0.54279 0.30489
# Poissons Ratio (z) = 0.30572 0.18186
#
# Static dielectric constant tensor:
#      x y z
#    x 3.309850 -0.168220 -0.149770 
#    y -0.168220 3.011270 -0.065410 
#    z -0.149770 -0.065410 2.938520 
# 
# 
# High freq. dielectric constant tensor:
#      x y z
#    x 1.688550 -0.009820 -0.024070 
#    y -0.009820 1.658800 -0.017830 
#    z -0.024070 -0.017830 1.670750 
# 
# From -- ./inp_files/276500.got.cif
#   From: 2010.06.25/outbox.cif.g09.slc.cpg/sg2_139_cif.got.tgz:276500.got - 2010.06.27 13:26:56.
