data_PCOD8038550
_publ_section_title
;
Structure prediction by ZEFSAII (Michael W. Deem and Ramdas Pophale) SiO2 
 PCOD8038550
Probable space group: P -1
;
_chemical_formula_sum "Si O2"
_cell_formula_units_Z 14
_cell_length_a 13.540715
_cell_length_b 9.053767
_cell_length_c 11.250759
_cell_angle_alpha 56.933366
_cell_angle_beta 43.744851
_cell_angle_gamma 44.090680
_cell_volume 662.555802
_symmetry_space_group_name_H-M "P -1"
_symmetry_group_IT_number 2
_symmetry_cell_setting 'triclinic'
loop_
_space_group_symop_operation_xyz
x,y,z
-x,-y,-z
loop_
_atom_site_type_symbol
_atom_site_label
_atom_site_fract_x
_atom_site_fract_y
_atom_site_fract_z
Si Si1 0.966788 0.432274 0.933264
Si Si2 0.354767 0.533075 0.889759
Si Si3 0.756738 0.514637 0.751083
Si Si4 0.169290 0.997100 0.837122
Si Si5 0.144934 0.199137 0.537307
Si Si6 0.060768 0.199816 0.343693
Si Si7 0.267357 0.740689 0.318069
O O1 0.931650 0.605756 0.789517
O O2 0.136274 0.199112 0.853256
O O3 0.793335 0.432500 0.087472
O O4 0.000000 0.500000 0.000000
O O5 0.542961 0.376057 0.736397
O O6 0.324731 0.762110 0.847617
O O7 0.353813 0.420282 0.061590
O O8 0.727330 0.719132 0.616314
O O9 0.710128 0.379595 0.771220
O O10 0.957864 0.379964 0.673534
O O11 0.217394 0.009678 0.652598
O O12 0.000000 0.000000 0.000000
O O13 0.123408 0.131661 0.455145
O O14 0.863245 0.269069 0.474639
O O15 0.188167 0.988522 0.248341
#
# Coordination Sequence:
#
# PCOD8038550 Si02
#       7
#     2   2   2   2   2   2   2
#     4  11  23  40  63  89 125 164 201 245 311 369
#     4  11  22  40  59  94 124 158 205 256 298 356
#     4  10  18  35  62  86 119 155 208 249 296 360
#     4  10  20  36  62  89 122 158 202 247 304 359
#     4  10  17  37  64  86 114 165 208 243 292 368
#     4  10  22  42  62  88 123 165 206 247 307 365
#     4  10  23  36  63  90 124 156 205 256 302 356
#
# _framework density 21.130295
#
# number of rings (size 3 to 8) (size 9 to 14) (size 15 to 20)
#    0.000    1.714    4.286    2.143    2.000    4.000 
#    0.000    5.714    0.000    0.000    0.000    0.000 
#    0.000    0.000    0.000    0.000    0.000    0.000 
#
# Total GULP energy -173509.813523 kJ/mol
# GULP energy per Si atom -12393.558109 kJ/mol
# Density = 2.108220 g / cm^3
# Si number density = 21.130295 Si / 1000 Ang^3
#
#
#
# Elastic Constant Matrix: (Units=GPa)
#
#
# Indices 1 2 3 4 5 6 
#
# 1 79.1606 37.3636 40.0851 10.2788 -2.0917 12.7680
# 2 37.3636 122.8465 56.6781 -4.9736 -15.7014 3.0469
# 3 40.0851 56.6781 89.0857 -8.3690 3.7670 -6.1721
# 4 10.2788 -4.9736 -8.3690 36.8370 -8.4803 -4.1286
# 5 -2.0917 -15.7014 3.7670 -8.4803 30.9280 3.5387
# 6 12.7680 3.0469 -6.1721 -4.1286 3.5387 30.4291
#
#
#
# Elastic Compliance Matrix: (Units=1/GPa)
#
#
# Indices 1 2 3 4 5 6 
#
# 1 0.022378 -0.001875 -0.010751 -0.010257 0.000527 -0.012836
# 2 -0.001875 0.013865 -0.008356 0.002202 0.008880 -0.003030
# 3 -0.010751 -0.008356 0.023142 0.006777 -0.007281 0.011808
# 4 -0.010257 0.002202 0.006777 0.034738 0.008067 0.009233
# 5 0.000527 0.008880 -0.007281 0.008067 0.040688 -0.006224
# 6 -0.012836 -0.003030 0.011808 0.009233 -0.006224 0.042924
#
#
# Mechanical properties :
#
#
# Convention : Reuss Voigt Hill
#
# Bulk Modulus (GPa) = 57.40727 62.14961 59.77844
# Shear Modulus (GPa) = 22.17225 30.10321 26.13773
#
# Velocity S-wave (km/s) = 3.24282 3.77854 3.52089
# Velocity P-wave (km/s) = 6.42249 6.96512 6.69930
#
# Compressibility (1/GPa) = 0.01741940
#
# Stress axis : x y z
#
# Youngs Moduli (GPa) = 44.68657 72.12259 43.21206
#
# Poissons Ratio (x) = 0.13527 0.46458
# Poissons Ratio (y) = 0.08381 0.36108
# Poissons Ratio (z) = 0.48044 0.60266
#
# Static dielectric constant tensor:
#      x y z
#    x 3.514410 0.128050 -0.117270 
#    y 0.128050 4.199920 -0.202920 
#    z -0.117270 -0.202920 3.830030 
# 
# 
# High freq. dielectric constant tensor:
#      x y z
#    x 1.796540 0.021270 -0.002840 
#    y 0.021270 1.827710 -0.013630 
#    z -0.002840 -0.013630 1.820410 
# 
# From -- ./inp_files/444127.got.cif
#   From: 2010.06.25/outbox.cif.g09.slc.cpg/sg2_223_cif.got.tgz:444127.got - 2010.06.27 13:26:56.
