data_PCOD8038328
_publ_section_title
;
Structure prediction by ZEFSAII (Michael W. Deem and Ramdas Pophale) SiO2 
 PCOD8038328
Probable space group: P -1
;
_chemical_formula_sum "Si O2"
_cell_formula_units_Z 16
_cell_length_a 11.099967
_cell_length_b 9.229986
_cell_length_c 14.326638
_cell_angle_alpha 66.434464
_cell_angle_beta 139.350762
_cell_angle_gamma 92.547347
_cell_volume 789.761115
_symmetry_space_group_name_H-M "P -1"
_symmetry_group_IT_number 2
_symmetry_cell_setting 'triclinic'
loop_
_space_group_symop_operation_xyz
x,y,z
-x,-y,-z
loop_
_atom_site_type_symbol
_atom_site_label
_atom_site_fract_x
_atom_site_fract_y
_atom_site_fract_z
Si Si1 0.127322 0.358984 0.001571
Si Si2 0.662486 0.401122 0.539666
Si Si3 0.257847 0.281963 0.487558
Si Si4 0.198113 0.590614 0.839055
Si Si5 0.482681 0.263678 0.975315
Si Si6 0.304311 0.358290 0.292510
Si Si7 0.533706 0.078512 0.867203
Si Si8 0.948975 0.908131 0.079077
O O1 0.241664 0.278078 0.186800
O O2 0.199742 0.497000 0.963160
O O3 0.173561 0.200867 0.999921
O O4 0.880540 0.448934 0.847563
O O5 0.500000 0.500000 0.500000
O O6 0.764444 0.528284 0.537746
O O7 0.514363 0.372681 0.383717
O O8 0.840361 0.209527 0.714869
O O9 0.335808 0.242893 0.435206
O O10 0.418601 0.136358 0.685836
O O11 0.033637 0.286446 0.361804
O O12 0.299632 0.443958 0.856509
O O13 0.307845 0.717260 0.887043
O O14 0.444774 0.233532 0.852026
O O15 0.496851 0.092452 0.080556
O O16 0.774317 0.042989 0.009814
O O17 0.000000 0.000000 0.000000
#
# Coordination Sequence:
#
# PCOD8038328 Si02
#       8
#     2   2   2   2   2   2   2   2
#     4  10  19  35  58  87 121 156 203 241 298 365
#     4  10  17  35  54  86 118 160 201 237 289 363
#     4  10  20  36  59  89 125 153 200 258 298 364
#     4  10  20  42  66  86 114 163 211 258 294 353
#     4  10  23  42  66  85 117 165 212 253 303 362
#     4   9  19  33  58  87 119 155 197 245 292 362
#     4  11  24  40  61  93 125 159 201 255 314 358
#     4  12  22  36  60  88 128 163 193 248 312 367
#
# _framework density 20.259288999999999
#
# number of rings (size 3 to 8) (size 9 to 14) (size 15 to 20)
#    0.000    1.750    5.000    1.500    1.750    3.000 
#    0.000    3.750    0.000    0.000    0.000    0.000 
#    0.000    0.000    0.000    0.000    0.000    0.000 
#
# Total GULP energy -198273.426935 kJ/mol
# GULP energy per Si atom -12392.089183 kJ/mol
# Density = 2.021318 g / cm^3
# Si number density = 20.259289 Si / 1000 Ang^3
#
#
#
# Elastic Constant Matrix: (Units=GPa)
#
#
# Indices 1 2 3 4 5 6 
#
# 1 86.7098 28.6199 50.2509 10.2753 7.3408 8.9948
# 2 28.6199 64.3448 23.4619 10.1750 2.0905 5.8098
# 3 50.2509 23.4619 129.3281 12.3644 1.6118 -1.0135
# 4 10.2753 10.1750 12.3644 25.1267 2.6874 -0.5223
# 5 7.3408 2.0905 1.6118 2.6874 35.6184 7.8207
# 6 8.9948 5.8098 -1.0135 -0.5223 7.8207 34.1126
#
#
#
# Elastic Compliance Matrix: (Units=1/GPa)
#
#
# Indices 1 2 3 4 5 6 
#
# 1 0.017163 -0.004885 -0.005578 -0.002143 -0.002087 -0.003414
# 2 -0.004885 0.019136 -0.001090 -0.005352 0.000837 -0.002277
# 3 -0.005578 -0.001090 0.010333 -0.002381 0.000529 0.001806
# 4 -0.002143 -0.005352 -0.002381 0.044403 -0.003101 0.002797
# 5 -0.002087 0.000837 0.000529 -0.003101 0.030099 -0.006525
# 6 -0.003414 -0.002277 0.001806 0.002797 -0.006525 0.032195
#
#
# Mechanical properties :
#
#
# Convention : Reuss Voigt Hill
#
# Bulk Modulus (GPa) = 42.50796 53.89424 48.20110
# Shear Modulus (GPa) = 27.13308 30.84153 28.98730
#
# Velocity S-wave (km/s) = 3.66360 3.90595 3.78672
# Velocity P-wave (km/s) = 6.23887 6.85579 6.55459
#
# Compressibility (1/GPa) = 0.02352501
#
# Stress axis : x y z
#
# Youngs Moduli (GPa) = 58.26646 52.25684 96.78037
#
# Poissons Ratio (x) = 0.25527 0.53986
# Poissons Ratio (y) = 0.28462 0.10551
# Poissons Ratio (z) = 0.32502 0.05697
#
# Static dielectric constant tensor:
#      x y z
#    x 3.785040 0.108260 0.127770 
#    y 0.108260 3.760730 0.289810 
#    z 0.127770 0.289810 3.805360 
# 
# 
# High freq. dielectric constant tensor:
#      x y z
#    x 1.786290 0.007930 0.012370 
#    y 0.007930 1.777110 0.012440 
#    z 0.012370 0.012440 1.788380 
# 
# From -- ./inp_files/515433.got.cif
#   From: 2010.06.25/outbox.cif.g09.slc.cpg/sg2_258_cif.got.tgz:515433.got - 2010.06.27 13:26:56.
