data_PCOD8038496
_publ_section_title
;
Structure prediction by ZEFSAII (Michael W. Deem and Ramdas Pophale) SiO2 
 PCOD8038496
Probable space group: P -1
;
_chemical_formula_sum "Si O2"
_cell_formula_units_Z 16
_cell_length_a 11.704795
_cell_length_b 10.914631
_cell_length_c 17.720836
_cell_angle_alpha 33.558380
_cell_angle_beta 34.330557
_cell_angle_gamma 34.073362
_cell_volume 630.420886
_symmetry_space_group_name_H-M "P -1"
_symmetry_group_IT_number 2
_symmetry_cell_setting 'triclinic'
loop_
_space_group_symop_operation_xyz
x,y,z
-x,-y,-z
loop_
_atom_site_type_symbol
_atom_site_label
_atom_site_fract_x
_atom_site_fract_y
_atom_site_fract_z
Si Si1 0.695893 0.251429 0.056155
Si Si2 0.253378 0.938807 0.385168
Si Si3 0.472977 0.951947 0.411250
Si Si4 0.695152 0.743312 0.055434
Si Si5 0.721250 0.626023 0.945115
Si Si6 0.638812 0.416184 0.620593
Si Si7 0.203045 0.927738 0.067762
Si Si8 0.959197 0.773014 0.397282
O O1 0.597002 0.114216 0.235895
O O2 0.500000 0.500000 0.000000
O O3 0.836980 0.353759 0.980941
O O4 0.840426 0.072043 0.999970
O O5 0.354028 0.896140 0.434558
O O6 0.373294 0.685353 0.403413
O O7 0.278525 0.164947 0.217116
O O8 0.000000 0.000000 0.500000
O O9 0.651813 0.677466 0.481476
O O10 0.297356 0.075855 0.511571
O O11 0.593234 0.555304 0.229680
O O12 0.848165 0.617544 0.960851
O O13 0.500000 0.000000 0.000000
O O14 0.816520 0.808082 0.026297
O O15 0.452640 0.705215 0.065806
O O16 0.863976 0.218327 0.641700
O O17 0.003561 0.885108 0.238178
O O18 0.000000 0.500000 0.500000
#
# Coordination Sequence:
#
# PCOD8038496 Si02
#       8
#     2   2   2   2   2   2   2   2
#     4  10  19  38  65  92 125 178 223 262 326 406
#     4  12  22  39  70  99 135 173 220 274 339 394
#     4  12  26  41  69 104 131 173 226 273 338 394
#     4  10  17  36  65  88 119 177 218 258 328 394
#     4  10  18  34  67  92 121 180 226 256 330 405
#     4  12  24  43  68  97 137 172 216 283 334 394
#     4  10  18  35  67  87 122 179 221 257 328 394
#     4  12  25  42  66  97 137 175 222 277 331 392
#
# _framework density 25.37987
#
# number of rings (size 3 to 8) (size 9 to 14) (size 15 to 20)
#    0.000    1.000    8.750    1.875    0.000    0.500 
#    0.000    0.625    2.750    5.250    0.000    0.000 
#    0.000    0.000    0.000    0.000    0.000    0.000 
#
# Total GULP energy -198337.939699 kJ/mol
# GULP energy per Si atom -12396.121231 kJ/mol
# Density = 2.532210 g / cm^3
# Si number density = 25.379870 Si / 1000 Ang^3
#
#
#
# Elastic Constant Matrix: (Units=GPa)
#
#
# Indices 1 2 3 4 5 6 
#
# 1 115.0160 28.4263 7.6601 5.2668 -2.1169 40.2186
# 2 28.4263 129.6022 63.2910 -1.7167 1.3205 47.4323
# 3 7.6601 63.2910 170.3880 0.0339 8.9007 13.1008
# 4 5.2668 -1.7167 0.0339 44.1759 16.7257 2.6216
# 5 -2.1169 1.3205 8.9007 16.7257 20.8944 -4.7950
# 6 40.2186 47.4323 13.1008 2.6216 -4.7950 37.4362
#
#
#
# Elastic Compliance Matrix: (Units=1/GPa)
#
#
# Indices 1 2 3 4 5 6 
#
# 1 0.016118 0.006619 -0.000824 0.002298 -0.006329 -0.026385
# 2 0.006619 0.021662 -0.005057 0.006583 -0.011791 -0.034759
# 3 -0.000824 -0.005057 0.007585 0.000579 -0.002476 0.004281
# 4 0.002298 0.006583 0.000579 0.036440 -0.033703 -0.017882
# 5 -0.006329 -0.011791 -0.002476 -0.033703 0.084202 0.035750
# 6 -0.026385 -0.034759 0.004281 -0.017882 0.035750 0.103431
#
#
# Mechanical properties :
#
#
# Convention : Reuss Voigt Hill
#
# Bulk Modulus (GPa) = 21.34926 68.19568 44.77247
# Shear Modulus (GPa) = 17.63195 41.54321 29.58758
#
# Velocity S-wave (km/s) = 2.63862 4.05020 3.41807
# Velocity P-wave (km/s) = 4.20871 6.98573 5.76687
#
# Compressibility (1/GPa) = 0.04684004
#
# Stress axis : x y z
#
# Youngs Moduli (GPa) = 62.04177 46.16360 131.84783
#
# Poissons Ratio (x) = -0.30555 0.10869
# Poissons Ratio (y) = -0.41064 0.66674
# Poissons Ratio (z) = 0.05114 0.23344
#
# Static dielectric constant tensor:
#      x y z
#    x 5.046590 0.769510 -0.043890 
#    y 0.769510 4.902830 0.005210 
#    z -0.043890 0.005210 4.487990 
# 
# 
# High freq. dielectric constant tensor:
#      x y z
#    x 2.029420 0.028340 0.000970 
#    y 0.028340 2.013650 -0.003660 
#    z 0.000970 -0.003660 2.008460 
# 
# From -- ./inp_files/597776.got.cif
#   From: 2010.06.25/outbox.cif.g09.slc.cpg/sg2_299_cif.got.tgz:597776.got - 2010.06.27 13:26:56.
