data_PCOD8038256
_publ_section_title
;
Structure prediction by ZEFSAII (Michael W. Deem and Ramdas Pophale) SiO2 
 PCOD8038256
Probable space group: P -1
;
_chemical_formula_sum "Si O2"
_cell_formula_units_Z 16
_cell_length_a 10.279792
_cell_length_b 9.726268
_cell_length_c 11.345626
_cell_angle_alpha 87.124587
_cell_angle_beta 127.598656
_cell_angle_gamma 119.052785
_cell_volume 734.403915
_symmetry_space_group_name_H-M "P -1"
_symmetry_group_IT_number 2
_symmetry_cell_setting 'triclinic'
loop_
_space_group_symop_operation_xyz
x,y,z
-x,-y,-z
loop_
_atom_site_type_symbol
_atom_site_label
_atom_site_fract_x
_atom_site_fract_y
_atom_site_fract_z
Si Si1 0.346645 0.629621 0.987771
Si Si2 0.115587 0.421068 0.525758
Si Si3 0.682186 0.282781 0.534983
Si Si4 0.745158 0.147336 0.216885
Si Si5 0.220633 0.664070 0.149589
Si Si6 0.930787 0.707989 0.257790
Si Si7 0.391733 0.034209 0.207029
Si Si8 0.267056 0.133817 0.925343
O O1 0.253418 0.718479 0.869899
O O2 0.180381 0.429459 0.900713
O O3 0.378221 0.678350 0.141427
O O4 0.549659 0.683828 0.030236
O O5 0.287697 0.560854 0.528843
O O6 0.196232 0.380137 0.687585
O O7 0.000000 0.500000 0.500000
O O8 0.967639 0.242522 0.387970
O O9 0.692455 0.335720 0.674314
O O10 0.470226 0.119708 0.376668
O O11 0.844537 0.239686 0.604333
O O12 0.582189 0.076926 0.233393
O O13 0.707610 0.996778 0.123521
O O14 0.228219 0.834680 0.141744
O O15 0.000000 0.500000 0.000000
O O16 0.930135 0.869957 0.213295
O O17 0.283317 0.108511 0.074766
#
# Coordination Sequence:
#
# PCOD8038256 Si02
#       8
#     2   2   2   2   2   2   2   2
#     4  11  19  37  60  89 116 155 206 244 289 356
#     4  10  17  34  61  85 119 152 198 247 287 352
#     4  11  22  38  63  91 119 162 203 240 296 355
#     4  11  17  35  62  86 116 155 199 245 294 344
#     4  12  22  37  64  88 115 161 216 245 276 361
#     4  11  21  37  60  94 121 153 195 249 311 355
#     4  11  21  39  61  89 123 155 205 251 292 350
#     4  11  23  35  62  94 122 151 193 257 311 348
#
# _framework density 21.786376000000001
#
# number of rings (size 3 to 8) (size 9 to 14) (size 15 to 20)
#    0.000    1.000    8.750    2.250    0.000    0.500 
#    0.000    0.625    0.000    3.000    0.000    0.000 
#    0.000    0.000    0.000    0.000    0.000    0.000 
#
# Total GULP energy -198267.532991 kJ/mol
# GULP energy per Si atom -12391.720812 kJ/mol
# Density = 2.173679 g / cm^3
# Si number density = 21.786376 Si / 1000 Ang^3
#
#
#
# Elastic Constant Matrix: (Units=GPa)
#
#
# Indices 1 2 3 4 5 6 
#
# 1 20.0426 8.0600 23.5897 -11.6380 -14.0965 5.1315
# 2 8.0600 81.8515 41.2220 -1.9832 3.5830 13.0262
# 3 23.5897 41.2220 137.1752 -3.5216 -25.8303 3.0707
# 4 -11.6380 -1.9832 -3.5216 44.6352 3.0479 4.5192
# 5 -14.0965 3.5830 -25.8303 3.0479 36.0329 -6.9707
# 6 5.1315 13.0262 3.0707 4.5192 -6.9707 23.0948
#
#
#
# Elastic Compliance Matrix: (Units=1/GPa)
#
#
# Indices 1 2 3 4 5 6 
#
# 1 0.101164 -0.002633 -0.010506 0.025247 0.027001 -0.016387
# 2 -0.002633 0.018209 -0.006601 0.001517 -0.010049 -0.012138
# 3 -0.010506 -0.006601 0.012137 -0.003273 0.006910 0.007170
# 4 0.025247 0.001517 -0.003273 0.029725 0.002733 -0.011022
# 5 0.027001 -0.010049 0.006910 0.002733 0.046401 0.012220
# 6 -0.016387 -0.012138 0.007170 -0.011022 0.012220 0.058679
#
#
# Mechanical properties :
#
#
# Convention : Reuss Voigt Hill
#
# Bulk Modulus (GPa) = 10.86600 42.75698 26.81149
# Shear Modulus (GPa) = 14.86007 31.83241 23.34624
#
# Velocity S-wave (km/s) = 2.61450 3.82660 3.27708
# Velocity P-wave (km/s) = 3.75666 6.26035 5.16258
#
# Compressibility (1/GPa) = 0.09203017
#
# Stress axis : x y z
#
# Youngs Moduli (GPa) = 9.88492 54.91781 82.39266
#
# Poissons Ratio (x) = 0.14459 0.86566
# Poissons Ratio (y) = 0.02603 0.54385
# Poissons Ratio (z) = 0.10386 0.36250
#
# Static dielectric constant tensor:
#      x y z
#    x 3.598030 0.269470 -0.368010 
#    y 0.269470 4.139690 0.013490 
#    z -0.368010 0.013490 4.324440 
# 
# 
# High freq. dielectric constant tensor:
#      x y z
#    x 1.802430 0.015420 -0.028200 
#    y 0.015420 1.858520 0.005050 
#    z -0.028200 0.005050 1.864380 
# 
# From -- ./inp_files/354506.got.cif
#   From: 2010.06.25/outbox.cif.g09.slc.cpg/sg2_178_cif.got.tgz:354506.got - 2010.06.27 13:26:56.
