data_PCOD8038843
_publ_section_title
;
Structure prediction by ZEFSAII (Michael W. Deem and Ramdas Pophale) SiO2 
 PCOD8038843
Probable space group: P -1
;
_chemical_formula_sum "Si O2"
_cell_formula_units_Z 16
_cell_length_a 11.519756
_cell_length_b 13.403224
_cell_length_c 14.296195
_cell_angle_alpha 20.685017
_cell_angle_beta 79.750369
_cell_angle_gamma 79.136338
_cell_volume 765.724135
_symmetry_space_group_name_H-M "P -1"
_symmetry_group_IT_number 2
_symmetry_cell_setting 'triclinic'
loop_
_space_group_symop_operation_xyz
x,y,z
-x,-y,-z
loop_
_atom_site_type_symbol
_atom_site_label
_atom_site_fract_x
_atom_site_fract_y
_atom_site_fract_z
Si Si1 0.262702 0.723355 0.249067
Si Si2 0.894739 0.328014 0.039794
Si Si3 0.086075 0.894117 0.966168
Si Si4 0.506955 0.581152 0.534849
Si Si5 0.146810 0.048979 0.255839
Si Si6 0.068262 0.599323 0.522990
Si Si7 0.635433 0.891748 0.952388
Si Si8 0.865843 0.960770 0.530800
O O1 0.186018 0.878580 0.043290
O O2 0.356624 0.492518 0.390008
O O3 0.185734 0.557382 0.480313
O O4 0.332479 0.964744 0.079471
O O5 0.037083 0.284995 0.071261
O O6 0.823804 0.180840 0.262715
O O7 0.857346 0.200718 0.057579
O O8 0.850440 0.652890 0.761021
O O9 0.977689 0.701959 0.177487
O O10 0.031689 0.218005 0.683100
O O11 0.500000 0.500000 0.500000
O O12 0.462849 0.909773 0.264114
O O13 0.416887 0.407764 0.760344
O O14 0.246492 0.169775 0.070626
O O15 0.201915 0.989296 0.404063
O O16 0.097279 0.764706 0.468850
O O17 0.000000 0.000000 0.500000
#
# Coordination Sequence:
#
# PCOD8038843 Si02
#       8
#     2   2   2   2   2   2   2   2
#     4  10  21  35  54  71 101 139 163 202 250 285
#     4  10  20  31  47  75 104 128 163 198 235 301
#     4  11  21  34  49  74 104 136 167 196 236 299
#     4  10  21  36  51  73 100 129 170 213 244 285
#     4   9  19  33  53  74 103 134 159 204 254 289
#     4  10  22  33  48  76 105 131 168 199 235 300
#     4  10  22  35  52  77 100 127 170 209 246 292
#     4  10  18  31  49  72 100 132 160 197 248 295
#
# _framework density 20.895253
#
# number of rings (size 3 to 8) (size 9 to 14) (size 15 to 20)
#    0.000    2.000    0.000    6.000    0.000   17.000 
#    0.000    0.000    0.000    0.000    0.000    5.250 
#    0.000    0.000    0.000    0.000    0.000    0.000 
#
# Total GULP energy -198382.525528 kJ/mol
# GULP energy per Si atom -12398.907845 kJ/mol
# Density = 2.084769 g / cm^3
# Si number density = 20.895253 Si / 1000 Ang^3
#
#
#
# Elastic Constant Matrix: (Units=GPa)
#
#
# Indices 1 2 3 4 5 6 
#
# 1 56.5421 25.3714 9.5369 6.0249 7.7523 -7.5945
# 2 25.3714 61.5608 12.2609 21.9291 7.2084 -2.6106
# 3 9.5369 12.2609 94.6082 10.7057 0.6291 -3.5074
# 4 6.0249 21.9291 10.7057 26.4613 -0.9310 3.8157
# 5 7.7523 7.2084 0.6291 -0.9310 18.3695 0.6943
# 6 -7.5945 -2.6106 -3.5074 3.8157 0.6943 18.6014
#
#
#
# Elastic Compliance Matrix: (Units=1/GPa)
#
#
# Indices 1 2 3 4 5 6 
#
# 1 0.023742 -0.008698 -0.000995 0.000754 -0.006851 0.008386
# 2 -0.008698 0.029634 0.000002 -0.023750 -0.009382 0.005830
# 3 -0.000995 0.000002 0.011310 -0.004754 -0.000312 0.002713
# 4 0.000754 -0.023750 -0.004754 0.062154 0.012963 -0.017155
# 5 -0.006851 -0.009382 -0.000312 0.012963 0.062025 -0.009147
# 6 0.008386 0.005830 0.002713 -0.017155 -0.009147 0.062373
#
#
# Mechanical properties :
#
#
# Convention : Reuss Voigt Hill
#
# Bulk Modulus (GPa) = 22.07214 34.11661 28.09437
# Shear Modulus (GPa) = 17.49958 23.72258 20.61108
#
# Velocity S-wave (km/s) = 2.89708 3.37309 3.14411
# Velocity P-wave (km/s) = 4.66658 5.61544 5.16286
#
# Compressibility (1/GPa) = 0.04530599
#
# Stress axis : x y z
#
# Youngs Moduli (GPa) = 42.11979 33.74469 88.41358
#
# Poissons Ratio (x) = 0.29350 0.08797
# Poissons Ratio (y) = 0.36634 -0.00020
# Poissons Ratio (z) = 0.04191 -0.00008
#
# Static dielectric constant tensor:
#      x y z
#    x 3.748750 -0.124770 0.265940 
#    y -0.124770 4.344120 0.352140 
#    z 0.265940 0.352140 4.081710 
# 
# 
# High freq. dielectric constant tensor:
#      x y z
#    x 1.766590 -0.007680 0.005920 
#    y -0.007680 1.807540 0.012440 
#    z 0.005920 0.012440 1.833770 
# 
# From -- ./inp_files/522081.got.cif
#   From: 2010.06.25/outbox.cif.g09.slc.cpg/sg2_262_cif.got.tgz:522081.got - 2010.06.27 13:26:56.
