data_PCOD8038526
_publ_section_title
;
Structure prediction by ZEFSAII (Michael W. Deem and Ramdas Pophale) SiO2 
 PCOD8038526
Probable space group: P -1
;
_chemical_formula_sum "Si O2"
_cell_formula_units_Z 16
_cell_length_a 18.793978
_cell_length_b 27.483542
_cell_length_c 9.728996
_cell_angle_alpha 144.303118
_cell_angle_beta 33.574207
_cell_angle_gamma 161.417542
_cell_volume 878.428672
_symmetry_space_group_name_H-M "P -1"
_symmetry_group_IT_number 2
_symmetry_cell_setting 'triclinic'
loop_
_space_group_symop_operation_xyz
x,y,z
-x,-y,-z
loop_
_atom_site_type_symbol
_atom_site_label
_atom_site_fract_x
_atom_site_fract_y
_atom_site_fract_z
Si Si1 0.618099 0.061693 0.302944
Si Si2 0.657268 0.935711 0.320381
Si Si3 0.888494 0.733383 0.041905
Si Si4 0.705262 0.935304 0.787608
Si Si5 0.509304 0.473932 0.579014
Si Si6 0.187034 0.073075 0.682122
Si Si7 0.839488 0.753283 0.870569
Si Si8 0.349294 0.206009 0.190857
O O1 0.525738 0.087956 0.418411
O O2 0.500000 0.000000 0.500000
O O3 0.907254 0.225916 0.216493
O O4 0.547670 0.933650 0.055979
O O5 0.757312 0.958508 0.355748
O O6 0.532564 0.792750 0.107815
O O7 0.874135 0.088965 0.229761
O O8 0.704643 0.606894 0.166624
O O9 0.755437 0.678094 0.984760
O O10 0.014193 0.888375 0.243308
O O11 0.653292 0.868936 0.569792
O O12 0.646222 0.833873 0.760342
O O13 0.500000 0.500000 0.500000
O O14 0.750104 0.639353 0.639189
O O15 0.510782 0.375081 0.339979
O O16 0.256381 0.205667 0.913580
O O17 0.910410 0.913575 0.724486
#
# Coordination Sequence:
#
# PCOD8038526 Si02
#       8
#     2   2   2   2   2   2   2   2
#     4  10  17  37  59  85 107 141 198 232 271 323
#     4  11  20  33  60  86 111 148 180 241 272 325
#     4  10  20  37  59  82 107 155 183 227 272 333
#     4  10  19  33  61  83 105 146 185 241 265 324
#     4  12  24  36  53  86 123 148 175 226 291 340
#     4  11  19  32  53  88 114 138 189 232 282 321
#     4  11  21  35  56  84 118 143 182 228 283 337
#     4  11  18  36  58  79 114 147 187 224 283 332
#
# _framework density 18.214343
#
# number of rings (size 3 to 8) (size 9 to 14) (size 15 to 20)
#    0.750    0.500    6.250    4.500    0.000    0.500 
#    0.000    0.000    0.000    7.500    0.000    0.000 
#    0.000    0.000    0.000    0.000    0.000    0.000 
#
# Total GULP energy -198315.756527 kJ/mol
# GULP energy per Si atom -12394.734783 kJ/mol
# Density = 1.817289 g / cm^3
# Si number density = 18.214343 Si / 1000 Ang^3
#
#
#
# Elastic Constant Matrix: (Units=GPa)
#
#
# Indices 1 2 3 4 5 6 
#
# 1 121.8313 20.8629 53.0083 -2.0395 -2.1454 -14.3115
# 2 20.8629 46.6310 34.7127 15.2258 -3.2958 -5.3499
# 3 53.0083 34.7127 98.3628 19.4653 -3.2478 -1.7821
# 4 -2.0395 15.2258 19.4653 34.6022 -1.1520 2.4821
# 5 -2.1454 -3.2958 -3.2478 -1.1520 39.6969 -2.8301
# 6 -14.3115 -5.3499 -1.7821 2.4821 -2.8301 17.7825
#
#
#
# Elastic Compliance Matrix: (Units=1/GPa)
#
#
# Indices 1 2 3 4 5 6 
#
# 1 0.012594 -0.000643 -0.007270 0.004516 0.000784 0.008708
# 2 -0.000643 0.033178 -0.009078 -0.010193 0.002420 0.010363
# 3 -0.007270 -0.009078 0.018438 -0.006393 -0.000243 -0.005881
# 4 0.004516 -0.010193 -0.006393 0.037620 -0.000418 -0.005390
# 5 0.000784 0.002420 -0.000243 -0.000418 0.025794 0.005498
# 6 0.008708 0.010363 -0.005881 -0.005390 0.005498 0.067399
#
#
# Mechanical properties :
#
#
# Convention : Reuss Voigt Hill
#
# Bulk Modulus (GPa) = 33.08015 53.77698 43.42856
# Shear Modulus (GPa) = 20.91340 28.96572 24.93956
#
# Velocity S-wave (km/s) = 3.39216 3.99214 3.70432
# Velocity P-wave (km/s) = 5.79166 7.13009 6.49544
#
# Compressibility (1/GPa) = 0.03022961
#
# Stress axis : x y z
#
# Youngs Moduli (GPa) = 79.40509 30.14029 54.23463
#
# Poissons Ratio (x) = 0.01937 0.39429
# Poissons Ratio (y) = 0.05103 0.49232
# Poissons Ratio (z) = 0.57728 0.27360
#
# Static dielectric constant tensor:
#      x y z
#    x 3.292830 -0.113150 -0.001050 
#    y -0.113150 3.061650 0.091640 
#    z -0.001050 0.091640 3.621460 
# 
# 
# High freq. dielectric constant tensor:
#      x y z
#    x 1.707040 -0.016870 0.011020 
#    y -0.016870 1.660150 0.008710 
#    z 0.011020 0.008710 1.715600 
# 
# From -- ./inp_files/338797.got.cif
#   From: 2010.06.25/outbox.cif.g09.slc.cpg/sg2_170_cif.got.tgz:338797.got - 2010.06.27 13:26:56.
