data_PCOD8038087
_publ_section_title
;
Structure prediction by ZEFSAII (Michael W. Deem and Ramdas Pophale) SiO2 
 PCOD8038087
Probable space group: P -1
;
_chemical_formula_sum "Si O2"
_cell_formula_units_Z 16
_cell_length_a 11.192085
_cell_length_b 12.164501
_cell_length_c 22.800793
_cell_angle_alpha 28.469052
_cell_angle_beta 29.646857
_cell_angle_gamma 35.223670
_cell_volume 713.291824
_symmetry_space_group_name_H-M "P -1"
_symmetry_group_IT_number 2
_symmetry_cell_setting 'triclinic'
loop_
_space_group_symop_operation_xyz
x,y,z
-x,-y,-z
loop_
_atom_site_type_symbol
_atom_site_label
_atom_site_fract_x
_atom_site_fract_y
_atom_site_fract_z
Si Si1 0.068878 0.179985 0.731612
Si Si2 0.834714 0.373013 0.460545
Si Si3 0.596767 0.914743 0.903982
Si Si4 0.298385 0.520189 0.663255
Si Si5 0.438685 0.679321 0.183807
Si Si6 0.244258 0.283625 0.495202
Si Si7 0.896939 0.921297 0.021219
Si Si8 0.903049 0.044719 0.383046
O O1 0.055848 0.400330 0.677323
O O2 0.292687 0.169263 0.593888
O O3 0.830663 0.203066 0.781634
O O4 0.087854 0.950730 0.873006
O O5 0.581729 0.376831 0.602846
O O6 0.795209 0.357309 0.415830
O O7 0.032230 0.141383 0.504445
O O8 0.519751 0.174745 0.844777
O O9 0.372211 0.905908 0.958942
O O10 0.853729 0.873117 0.780416
O O11 0.628559 0.708424 0.037148
O O12 0.122400 0.349165 0.838589
O O13 0.286337 0.724004 0.620915
O O14 0.464518 0.405412 0.321051
O O15 0.000000 0.500000 0.500000
O O16 0.225928 0.070204 0.560037
O O17 0.000000 0.000000 0.000000
#
# Coordination Sequence:
#
# PCOD8038087 Si02
#       8
#     2   2   2   2   2   2   2   2
#     4  10  18  34  68  87 118 172 206 248 317 369
#     4  11  21  43  64  87 127 169 204 262 323 363
#     4  10  19  34  64  88 120 167 204 251 312 367
#     4  11  26  39  63  94 124 167 216 255 312 381
#     4   9  17  32  61  96 115 163 213 240 315 380
#     4  10  17  33  62  94 122 159 205 259 308 367
#     4  11  22  40  60  87 125 169 208 254 312 376
#     4  12  21  40  65  95 125 160 215 263 306 379
#
# _framework density 22.431213
#
# number of rings (size 3 to 8) (size 9 to 14) (size 15 to 20)
#    0.000    1.500    7.500    0.375    0.000    0.000 
#    0.000    3.125    0.000    0.000    0.000    0.000 
#    0.000    0.000    0.000    0.000    0.000    0.000 
#
# Total GULP energy -198339.030177 kJ/mol
# GULP energy per Si atom -12396.189386 kJ/mol
# Density = 2.238016 g / cm^3
# Si number density = 22.431213 Si / 1000 Ang^3
#
#
#
# Elastic Constant Matrix: (Units=GPa)
#
#
# Indices 1 2 3 4 5 6 
#
# 1 99.3098 21.7815 41.6321 0.6334 3.1983 19.7037
# 2 21.7815 70.3081 36.6622 -17.4329 7.9761 25.4334
# 3 41.6321 36.6622 171.9259 -14.6465 24.0669 14.9486
# 4 0.6334 -17.4329 -14.6465 21.9741 6.0010 -4.2594
# 5 3.1983 7.9761 24.0669 6.0010 42.7301 0.1181
# 6 19.7037 25.4334 14.9486 -4.2594 0.1181 25.6002
#
#
#
# Elastic Compliance Matrix: (Units=1/GPa)
#
#
# Indices 1 2 3 4 5 6 
#
# 1 0.013133 -0.001029 -0.002906 -0.005168 0.001595 -0.008256
# 2 -0.001029 0.030146 -0.001191 0.020395 -0.007675 -0.025034
# 3 -0.002906 -0.001191 0.007962 0.005720 -0.004847 -0.000255
# 4 -0.005168 0.020395 0.005720 0.068505 -0.016241 -0.008153
# 5 0.001595 -0.007675 -0.004847 -0.016241 0.029709 0.006389
# 6 -0.008256 -0.025034 -0.000255 -0.008153 0.006389 0.069051
#
#
# Mechanical properties :
#
#
# Convention : Reuss Voigt Hill
#
# Bulk Modulus (GPa) = 24.39635 60.18837 42.29236
# Shear Modulus (GPa) = 20.62511 34.15875 27.39193
#
# Velocity S-wave (km/s) = 3.03559 3.90657 3.49829
# Velocity P-wave (km/s) = 4.81519 6.87307 5.93402
#
# Compressibility (1/GPa) = 0.04098974
#
# Stress axis : x y z
#
# Youngs Moduli (GPa) = 76.14257 33.17147 125.59185
#
# Poissons Ratio (x) = 0.03412 0.36503
# Poissons Ratio (y) = 0.07833 0.14957
# Poissons Ratio (z) = 0.22131 0.03951
#
# Static dielectric constant tensor:
#      x y z
#    x 4.219160 0.132740 0.330520 
#    y 0.132740 3.446590 0.029640 
#    z 0.330520 0.029640 5.141960 
# 
# 
# High freq. dielectric constant tensor:
#      x y z
#    x 1.899930 0.015480 0.007130 
#    y 0.015480 1.819890 -0.005300 
#    z 0.007130 -0.005300 1.915160 
# 
# From -- ./inp_files/406564.got.cif
#   From: 2010.06.25/outbox.cif.g09.slc.cpg/sg2_204_cif.got.tgz:406564.got - 2010.06.27 13:26:56.
