data_PCOD8038222
_publ_section_title
;
Structure prediction by ZEFSAII (Michael W. Deem and Ramdas Pophale) SiO2 
 PCOD8038222
Probable space group: P -1
;
_chemical_formula_sum "Si O2"
_cell_formula_units_Z 16
_cell_length_a 15.000000
_cell_length_b 9.000000
_cell_length_c 15.000000
_cell_angle_alpha 130.000000
_cell_angle_beta 150.000000
_cell_angle_gamma 50.000000
_cell_volume 755.761493
_symmetry_space_group_name_H-M "P -1"
_symmetry_group_IT_number 2
_symmetry_cell_setting 'triclinic'
loop_
_space_group_symop_operation_xyz
x,y,z
-x,-y,-z
loop_
_atom_site_type_symbol
_atom_site_label
_atom_site_fract_x
_atom_site_fract_y
_atom_site_fract_z
Si Si1 0.135580 0.175471 0.328646
Si Si2 0.803119 0.637285 0.041690
Si Si3 0.195468 0.676586 0.369194
Si Si4 0.228271 0.733502 0.226064
Si Si5 0.478761 0.133214 0.257753
Si Si6 0.260235 0.527627 0.898087
Si Si7 0.602641 0.705494 0.245261
Si Si8 0.627963 0.737771 0.586197
O O1 0.263916 0.242336 0.541826
O O2 0.245389 0.153976 0.321663
O O3 0.934362 0.314939 0.205741
O O4 0.102564 0.951462 0.225224
O O5 0.742933 0.642538 0.095347
O O6 0.976582 0.739929 0.221113
O O7 0.853842 0.399459 0.967685
O O8 0.639778 0.753722 0.882711
O O9 0.240221 0.607312 0.279106
O O10 0.310929 0.841123 0.555475
O O11 0.275495 0.492028 0.430073
O O12 0.426426 0.765163 0.379784
O O13 0.383814 0.193971 0.294796
O O14 0.499248 0.898670 0.175111
O O15 0.276960 0.441160 0.779002
O O16 0.438284 0.615627 0.109230
#
# Coordination Sequence:
#
# PCOD8038222 Si02
#       8
#     2   2   2   2   2   2   2   2
#     4  12  24  43  69  96 133 171 220 267 321 390
#     4  12  24  40  66  99 136 164 214 269 321 393
#     4  11  21  40  60  98 135 173 205 256 330 395
#     4  11  22  37  65 100 135 171 206 260 339 384
#     4  11  24  41  68  94 134 173 209 265 330 383
#     4  11  28  46  66  97 124 178 227 264 322 374
#     4  11  26  49  69  88 131 175 224 275 312 376
#     4  11  20  39  64  99 133 167 211 259 331 391
#
# _framework density 21.1707
#
# number of rings (size 3 to 8) (size 9 to 14) (size 15 to 20)
#    0.000    0.750    6.250    2.625    3.500    1.000 
#    0.000    0.625    0.000    0.000    0.000    0.000 
#    0.000    0.000    0.000    0.000    0.000    0.000 
#
# Total GULP energy -198310.920573 kJ/mol
# GULP energy per Si atom -12394.432536 kJ/mol
# Density = 2.112251 g / cm^3
# Si number density = 21.170700 Si / 1000 Ang^3
#
#
#
# Elastic Constant Matrix: (Units=GPa)
#
#
# Indices 1 2 3 4 5 6 
#
# 1 117.3314 31.4474 59.1943 -11.2034 18.8991 3.6736
# 2 31.4474 75.2623 29.2546 -8.5494 1.8658 2.8514
# 3 59.1943 29.2546 99.1026 -15.0088 14.6143 -1.5972
# 4 -11.2034 -8.5494 -15.0088 31.5093 1.0600 2.0135
# 5 18.8991 1.8658 14.6143 1.0600 36.1573 -7.1770
# 6 3.6736 2.8514 -1.5972 2.0135 -7.1770 18.7288
#
#
#
# Elastic Compliance Matrix: (Units=1/GPa)
#
#
# Indices 1 2 3 4 5 6 
#
# 1 0.013671 -0.002717 -0.006398 0.001585 -0.005475 -0.005082
# 2 -0.002717 0.015843 -0.002989 0.001978 0.001393 -0.001813
# 3 -0.006398 -0.002989 0.015905 0.004485 -0.002758 0.001527
# 4 0.001585 0.001978 0.004485 0.035521 -0.004966 -0.005951
# 5 -0.005475 0.001393 -0.002758 -0.004966 0.034567 0.014407
# 6 -0.005082 -0.001813 0.001527 -0.005951 0.014407 0.060957
#
#
# Mechanical properties :
#
#
# Convention : Reuss Voigt Hill
#
# Bulk Modulus (GPa) = 47.14584 59.05432 53.10008
# Shear Modulus (GPa) = 24.06815 28.73240 26.40027
#
# Velocity S-wave (km/s) = 3.37540 3.68799 3.53515
# Velocity P-wave (km/s) = 6.12444 6.78895 6.46524
#
# Compressibility (1/GPa) = 0.02121078
#
# Stress axis : x y z
#
# Youngs Moduli (GPa) = 73.14504 63.12039 62.87181
#
# Poissons Ratio (x) = 0.17150 0.40228
# Poissons Ratio (y) = 0.19874 0.18792
# Poissons Ratio (z) = 0.46802 0.18866
#
# Static dielectric constant tensor:
#      x y z
#    x 3.910680 0.166470 0.137880 
#    y 0.166470 3.813130 -0.056210 
#    z 0.137880 -0.056210 3.919740 
# 
# 
# High freq. dielectric constant tensor:
#      x y z
#    x 1.836030 0.019060 0.013020 
#    y 0.019060 1.823720 -0.009420 
#    z 0.013020 -0.009420 1.840430 
# 
# From -- ./inp_files/308677.got.cif
#   From: 2010.06.25/outbox.ucp.g09.slc.cvg/sg2_155_cif.got.tgz:308677.got - 2010.06.28 11:54:26.
