data_PCOD8038970
_publ_section_title
;
Structure prediction by ZEFSAII (Michael W. Deem and Ramdas Pophale) SiO2 
 PCOD8038970
Probable space group: P -1
;
_chemical_formula_sum "Si O2"
_cell_formula_units_Z 14
_cell_length_a 12.137191
_cell_length_b 13.762191
_cell_length_c 11.763672
_cell_angle_alpha 31.701788
_cell_angle_beta 92.255865
_cell_angle_gamma 116.765546
_cell_volume 627.412802
_symmetry_space_group_name_H-M "P -1"
_symmetry_group_IT_number 2
_symmetry_cell_setting 'triclinic'
loop_
_space_group_symop_operation_xyz
x,y,z
-x,-y,-z
loop_
_atom_site_type_symbol
_atom_site_label
_atom_site_fract_x
_atom_site_fract_y
_atom_site_fract_z
Si Si1 0.714062 0.628156 0.383484
Si Si2 0.869311 0.169505 0.557842
Si Si3 0.572814 0.487809 0.282505
Si Si4 0.160154 0.454390 0.855523
Si Si5 0.238207 0.242978 0.494221
Si Si6 0.013076 0.306171 0.660813
Si Si7 0.104838 0.312994 0.240436
O O1 0.559130 0.456178 0.453163
O O2 0.664719 0.551025 0.591403
O O3 0.806517 0.555199 0.424652
O O4 0.846591 0.979282 0.035395
O O5 0.834308 0.339259 0.408475
O O6 0.006411 0.275752 0.554092
O O7 0.964674 0.262649 0.347982
O O8 0.681636 0.811256 0.920179
O O9 0.667462 0.431355 0.294080
O O10 0.368296 0.240324 0.470781
O O11 0.186184 0.522151 0.924910
O O12 0.972464 0.100734 0.164705
O O13 0.256184 0.432643 0.213929
O O14 0.000000 0.500000 0.500000
O O15 0.000000 0.000000 0.500000
#
# Coordination Sequence:
#
# PCOD8038970 Si02
#       7
#     2   2   2   2   2   2   2
#     4  10  19  35  55  87 122 152 198 242 295 359
#     4  11  20  40  63  88 123 157 200 250 298 354
#     4  11  23  39  62  91 121 158 201 249 298 356
#     4  11  23  42  62  87 121 158 203 248 299 354
#     4  11  21  41  63  87 124 161 197 248 302 355
#     4  10  18  31  61  88 116 159 194 239 299 353
#     4  10  20  40  65  86 118 164 199 246 302 350
#
# _framework density 22.313859999999998
#
# number of rings (size 3 to 8) (size 9 to 14) (size 15 to 20)
#    0.000    1.429    4.286    4.286    0.000    0.571 
#    2.571    0.714    0.000    6.000    0.000    0.000 
#    0.000    0.000    0.000    0.000    0.000    0.000 
#
# Total GULP energy -173483.386162 kJ/mol
# GULP energy per Si atom -12391.670440 kJ/mol
# Density = 2.226307 g / cm^3
# Si number density = 22.313860 Si / 1000 Ang^3
#
#
#
# Elastic Constant Matrix: (Units=GPa)
#
#
# Indices 1 2 3 4 5 6 
#
# 1 116.3970 20.7639 17.9232 -10.8394 4.5831 14.7254
# 2 20.7639 89.7972 17.5060 29.3901 -8.0008 6.0555
# 3 17.9232 17.5060 30.6956 14.2671 14.0721 2.5261
# 4 -10.8394 29.3901 14.2671 30.0165 -3.7097 5.5677
# 5 4.5831 -8.0008 14.0721 -3.7097 38.8920 -0.0694
# 6 14.7254 6.0555 2.5261 5.5677 -0.0694 38.6190
#
#
#
# Elastic Compliance Matrix: (Units=1/GPa)
#
#
# Indices 1 2 3 4 5 6 
#
# 1 0.014964 -0.006282 -0.016923 0.021472 0.005104 -0.006700
# 2 -0.006282 0.019624 0.001884 -0.022594 0.001945 0.002456
# 3 -0.016923 0.001884 0.078260 -0.050484 -0.030735 0.008261
# 4 0.021472 -0.022594 -0.050484 0.092354 0.019871 -0.014621
# 5 0.005104 0.001945 -0.030735 0.019871 0.038522 -0.003036
# 6 -0.006700 0.002456 0.008261 -0.014621 -0.003036 0.029626
#
#
# Mechanical properties :
#
#
# Convention : Reuss Voigt Hill
#
# Bulk Modulus (GPa) = 14.24387 38.80842 26.52615
# Shear Modulus (GPa) = 14.73214 33.55196 24.14205
#
# Velocity S-wave (km/s) = 2.57227 3.88188 3.29284
# Velocity P-wave (km/s) = 3.90120 6.12551 5.13523
#
# Compressibility (1/GPa) = 0.07020562
#
# Stress axis : x y z
#
# Youngs Moduli (GPa) = 66.82676 50.95816 12.77792
#
# Poissons Ratio (x) = 0.32012 0.21624
# Poissons Ratio (y) = 0.41981 -0.02407
# Poissons Ratio (z) = 1.13091 -0.09600
#
# Static dielectric constant tensor:
#      x y z
#    x 4.129060 0.272880 0.207070 
#    y 0.272880 5.011940 0.926380 
#    z 0.207070 0.926380 3.970310 
# 
# 
# High freq. dielectric constant tensor:
#      x y z
#    x 1.897560 0.003960 0.013300 
#    y 0.003960 1.880720 0.037650 
#    z 0.013300 0.037650 1.836690 
# 
# From -- ./inp_files/254387.got.cif
#   From: 2010.06.25/outbox.cif.g09.slc.cpg/sg2_128_cif.got.tgz:254387.got - 2010.06.27 13:26:56.
