data_PCOD8038596
_publ_section_title
;
Structure prediction by ZEFSAII (Michael W. Deem and Ramdas Pophale) SiO2 
 PCOD8038596
Probable space group: P -1
;
_chemical_formula_sum "Si O2"
_cell_formula_units_Z 14
_cell_length_a 10.629057
_cell_length_b 9.659495
_cell_length_c 12.846109
_cell_angle_alpha 81.313057
_cell_angle_beta 147.987100
_cell_angle_gamma 109.614215
_cell_volume 634.595994
_symmetry_space_group_name_H-M "P -1"
_symmetry_group_IT_number 2
_symmetry_cell_setting 'triclinic'
loop_
_space_group_symop_operation_xyz
x,y,z
-x,-y,-z
loop_
_atom_site_type_symbol
_atom_site_label
_atom_site_fract_x
_atom_site_fract_y
_atom_site_fract_z
Si Si1 0.040908 0.332914 0.439489
Si Si2 0.211549 0.441653 0.769768
Si Si3 0.338210 0.331764 0.443899
Si Si4 0.973212 0.893036 0.293630
Si Si5 0.841727 0.100331 0.020166
Si Si6 0.469006 0.917757 0.378463
Si Si7 0.660188 0.993243 0.211257
O O1 0.202267 0.424024 0.640824
O O2 0.234167 0.319919 0.489569
O O3 0.898442 0.436455 0.281147
O O4 0.833213 0.167083 0.348058
O O5 0.062626 0.278067 0.738743
O O6 0.500000 0.500000 0.000000
O O7 0.500000 0.500000 0.500000
O O8 0.540281 0.250864 0.589362
O O9 0.089835 0.252970 0.202841
O O10 0.872807 0.958084 0.115654
O O11 0.837930 0.904601 0.307598
O O12 0.272131 0.990469 0.516913
O O13 0.791047 0.082305 0.861240
O O14 0.564867 0.107608 0.855542
O O15 0.500000 0.000000 0.500000
O O16 0.500000 0.000000 0.000000
#
# Coordination Sequence:
#
# PCOD8038596 Si02
#       7
#     2   2   2   2   2   2   2
#     4  11  23  43  63  97 137 167 210 267 317 385
#     4  11  25  39  63 100 136 168 204 258 334 385
#     4  11  26  46  65  93 129 175 220 262 316 386
#     4  10  22  40  65 102 125 162 214 270 325 381
#     4  10  22  42  72  94 126 164 216 273 322 381
#     4  11  25  44  67  94 127 172 221 266 318 377
#     4  10  17  38  70  95 123 155 210 266 325 375
#
# _framework density 22.06128
#
# number of rings (size 3 to 8) (size 9 to 14) (size 15 to 20)
#    0.000    1.429    4.286    2.571    4.000    5.143 
#    2.571    0.000    0.000    0.000    0.000    0.000 
#    0.000    0.000    0.000    0.000    0.000    0.000 
#
# Total GULP energy -173523.773700 kJ/mol
# GULP energy per Si atom -12394.555264 kJ/mol
# Density = 2.201107 g / cm^3
# Si number density = 22.061280 Si / 1000 Ang^3
#
#
#
# Elastic Constant Matrix: (Units=GPa)
#
#
# Indices 1 2 3 4 5 6 
#
# 1 41.6832 10.0803 20.8602 -3.0590 -6.5471 -0.8773
# 2 10.0803 142.4494 36.7452 -8.2658 6.3354 4.8909
# 3 20.8602 36.7452 140.1690 -7.9263 -17.6507 5.9289
# 4 -3.0590 -8.2658 -7.9263 29.7268 1.8203 7.8568
# 5 -6.5471 6.3354 -17.6507 1.8203 34.3148 6.6856
# 6 -0.8773 4.8909 5.9289 7.8568 6.6856 36.2735
#
#
#
# Elastic Compliance Matrix: (Units=1/GPa)
#
#
# Indices 1 2 3 4 5 6 
#
# 1 0.026495 -0.001162 -0.003143 0.001246 0.003510 0.000394
# 2 -0.001162 0.007898 -0.002110 0.001852 -0.002738 -0.000645
# 3 -0.003143 -0.002110 0.008973 0.001861 0.004803 -0.002546
# 4 0.001246 0.001852 0.001861 0.037030 0.000574 -0.008650
# 5 0.003510 -0.002738 0.004803 0.000574 0.034069 -0.006735
# 6 0.000394 -0.000645 -0.002546 -0.008650 -0.006735 0.031196
#
#
# Mechanical properties :
#
#
# Convention : Reuss Voigt Hill
#
# Bulk Modulus (GPa) = 32.74738 51.07479 41.91108
# Shear Modulus (GPa) = 29.64369 37.17074 33.40722
#
# Velocity S-wave (km/s) = 3.66963 4.10919 3.89561
# Velocity P-wave (km/s) = 5.72983 6.76132 6.26683
#
# Compressibility (1/GPa) = 0.03053680
#
# Stress axis : x y z
#
# Youngs Moduli (GPa) = 37.74262 126.61482 111.44603
#
# Poissons Ratio (x) = 0.14707 0.35025
# Poissons Ratio (y) = 0.04384 0.23519
# Poissons Ratio (z) = 0.11862 0.26721
#
# Static dielectric constant tensor:
#      x y z
#    x 4.188600 -0.408940 0.286540 
#    y -0.408940 3.615130 -0.193350 
#    z 0.286540 -0.193350 4.389020 
# 
# 
# High freq. dielectric constant tensor:
#      x y z
#    x 1.852510 -0.004750 -0.009390 
#    y -0.004750 1.865250 -0.008920 
#    z -0.009390 -0.008920 1.890150 
# 
# From -- ./inp_files/515701.got.cif
#   From: 2010.06.25/outbox.cif.g09.slc.cpg/sg2_258_cif.got.tgz:515701.got - 2010.06.27 13:26:56.
