data_PCOD8038439
_publ_section_title
;
Structure prediction by ZEFSAII (Michael W. Deem and Ramdas Pophale) SiO2 
 PCOD8038439
Probable space group: P -1
;
_chemical_formula_sum "Si O2"
_cell_formula_units_Z 16
_cell_length_a 11.875038
_cell_length_b 12.205306
_cell_length_c 9.229331
_cell_angle_alpha 65.713913
_cell_angle_beta 82.556132
_cell_angle_gamma 48.696737
_cell_volume 896.085154
_symmetry_space_group_name_H-M "P -1"
_symmetry_group_IT_number 2
_symmetry_cell_setting 'triclinic'
loop_
_space_group_symop_operation_xyz
x,y,z
-x,-y,-z
loop_
_atom_site_type_symbol
_atom_site_label
_atom_site_fract_x
_atom_site_fract_y
_atom_site_fract_z
Si Si1 0.599366 0.869990 0.902167
Si Si2 0.865376 0.655509 0.527311
Si Si3 0.623430 0.260042 0.010381
Si Si4 0.450832 0.839880 0.185089
Si Si5 0.670238 0.494794 0.892646
Si Si6 0.127152 0.439706 0.125157
Si Si7 0.451793 0.256191 0.462708
Si Si8 0.667649 0.009490 0.319892
O O1 0.710032 0.729935 0.848086
O O2 0.435892 0.987168 0.783148
O O3 0.654691 0.967123 0.871516
O O4 0.592558 0.797354 0.092075
O O5 0.932699 0.588483 0.711341
O O6 0.702630 0.707648 0.509507
O O7 0.000000 0.500000 0.500000
O O8 0.828417 0.822691 0.412560
O O9 0.444646 0.401027 0.009685
O O10 0.708302 0.111286 0.190558
O O11 0.632645 0.200424 0.877901
O O12 0.709356 0.326427 0.962740
O O13 0.493605 0.748275 0.381355
O O14 0.833403 0.447023 0.916718
O O15 0.586617 0.597099 0.702815
O O16 0.000000 0.500000 0.000000
O O17 0.580006 0.086601 0.447360
#
# Coordination Sequence:
#
# PCOD8038439 Si02
#       8
#     2   2   2   2   2   2   2   2
#     4  10  18  32  50  79 106 140 181 217 269 316
#     4  11  22  31  51  82 112 140 176 224 274 318
#     4   9  18  32  56  77 105 141 183 224 261 322
#     4  10  18  26  52  80 105 130 175 232 259 306
#     4   9  18  36  51  76 106 145 184 216 270 321
#     4  11  22  35  53  76 112 144 177 220 275 321
#     4  10  18  31  53  76 111 143 176 224 268 318
#     4  10  17  36  56  77 108 148 178 218 274 328
#
# _framework density 17.855447000000002
#
# number of rings (size 3 to 8) (size 9 to 14) (size 15 to 20)
#    0.000    2.000    6.250    1.125    1.750    0.500 
#    0.000    0.000    0.000    7.500    0.000    0.000 
#    0.000    0.000    0.000    0.000    0.000    0.000 
#
# Total GULP energy -198214.067375 kJ/mol
# GULP energy per Si atom -12388.379211 kJ/mol
# Density = 1.781481 g / cm^3
# Si number density = 17.855447 Si / 1000 Ang^3
#
#
#
# Elastic Constant Matrix: (Units=GPa)
#
#
# Indices 1 2 3 4 5 6 
#
# 1 71.7877 40.6846 49.2609 -14.9348 3.4966 23.7675
# 2 40.6846 101.2222 53.4119 -6.9541 -7.8643 14.3671
# 3 49.2609 53.4119 128.9711 6.6181 6.6981 10.7603
# 4 -14.9348 -6.9541 6.6181 30.4556 6.8085 -3.1835
# 5 3.4966 -7.8643 6.6981 6.8085 20.3945 -2.0651
# 6 23.7675 14.3671 10.7603 -3.1835 -2.0651 30.6817
#
#
#
# Elastic Compliance Matrix: (Units=1/GPa)
#
#
# Indices 1 2 3 4 5 6 
#
# 1 0.035004 -0.005988 -0.009490 0.018790 -0.013486 -0.019941
# 2 -0.005988 0.015324 -0.004441 -0.000417 0.008488 -0.000452
# 3 -0.009490 -0.004441 0.013377 -0.007846 -0.001472 0.003826
# 4 0.018790 -0.000417 -0.007846 0.046673 -0.017189 -0.007923
# 5 -0.013486 0.008488 -0.001472 -0.017189 0.061788 0.009364
# 6 -0.019941 -0.000452 0.003826 -0.007923 0.009364 0.046718
#
#
# Mechanical properties :
#
#
# Convention : Reuss Voigt Hill
#
# Bulk Modulus (GPa) = 41.89786 65.41062 53.65424
# Shear Modulus (GPa) = 18.74913 26.88128 22.81521
#
# Velocity S-wave (km/s) = 3.24396 3.88428 3.57847
# Velocity P-wave (km/s) = 6.12756 7.53855 6.86938
#
# Compressibility (1/GPa) = 0.02386757
#
# Stress axis : x y z
#
# Youngs Moduli (GPa) = 28.56819 65.25565 74.75264
#
# Poissons Ratio (x) = 0.39075 0.70941
# Poissons Ratio (y) = 0.17107 0.33198
# Poissons Ratio (z) = 0.27111 0.28980
#
# Static dielectric constant tensor:
#      x y z
#    x 5.510000 -0.566380 0.263370 
#    y -0.566380 3.593090 -0.087820 
#    z 0.263370 -0.087820 3.791740 
# 
# 
# High freq. dielectric constant tensor:
#      x y z
#    x 1.641220 0.023590 -0.006470 
#    y 0.023590 1.682100 0.010680 
#    z -0.006470 0.010680 1.707030 
# 
# From -- ./inp_files/252486.got.cif
#   From: 2010.06.25/outbox.cif.g09.slc.cpg/sg2_127_cif.got.tgz:252486.got - 2010.06.27 13:26:56.
