data_PCOD8038842
_publ_section_title
;
Structure prediction by ZEFSAII (Michael W. Deem and Ramdas Pophale) SiO2 
 PCOD8038842
Probable space group: P -1
;
_chemical_formula_sum "Si O2"
_cell_formula_units_Z 16
_cell_length_a 19.697229
_cell_length_b 24.454620
_cell_length_c 13.821940
_cell_angle_alpha 33.182552
_cell_angle_beta 19.330162
_cell_angle_gamma 22.530363
_cell_volume 812.277261
_symmetry_space_group_name_H-M "P -1"
_symmetry_group_IT_number 2
_symmetry_cell_setting 'triclinic'
loop_
_space_group_symop_operation_xyz
x,y,z
-x,-y,-z
loop_
_atom_site_type_symbol
_atom_site_label
_atom_site_fract_x
_atom_site_fract_y
_atom_site_fract_z
Si Si1 0.162829 0.352117 0.692053
Si Si2 0.191172 0.364175 0.161687
Si Si3 0.705267 0.039939 0.949215
Si Si4 0.529161 0.575779 0.771239
Si Si5 0.763019 0.999849 0.716351
Si Si6 0.189605 0.240321 0.026178
Si Si7 0.585820 0.549288 0.394097
Si Si8 0.919817 0.270879 0.026288
O O1 0.458079 0.320506 0.343012
O O2 0.859275 0.531648 0.842902
O O3 0.187172 0.270552 0.872369
O O4 0.118551 0.300880 0.731374
O O5 0.847424 0.450459 0.468266
O O6 0.386076 0.199716 0.182248
O O7 0.369817 0.353358 0.848997
O O8 0.646969 0.016828 0.955240
O O9 0.926838 0.053182 0.623724
O O10 0.839756 0.906580 0.035342
O O11 0.242579 0.670407 0.945469
O O12 0.500000 0.500000 0.000000
O O13 0.837842 0.868231 0.759436
O O14 0.508972 0.157003 0.768866
O O15 0.911638 0.395078 0.226798
O O16 0.500000 0.500000 0.500000
O O17 0.324870 0.650772 0.674693
#
# Coordination Sequence:
#
# PCOD8038842 Si02
#       8
#     2   2   2   2   2   2   2   2
#     4   9  20  39  57  86 114 149 204 234 285 347
#     4   9  21  36  58  83 124 147 186 248 281 347
#     4  11  20  34  50  87 118 153 195 226 288 361
#     4  10  24  44  63  86 111 150 211 256 286 339
#     4  10  20  28  48  79 128 164 179 224 284 354
#     4  10  18  31  48  81 121 162 186 228 278 344
#     4  11  17  32  56  87 125 151 195 230 281 368
#     4  12  22  36  66  87 118 164 186 237 305 340
#
# _framework density 19.697706
#
# number of rings (size 3 to 8) (size 9 to 14) (size 15 to 20)
#    0.750    1.000    3.750    3.000    1.750    1.000 
#    0.000    0.625    0.000    0.750    0.000    0.000 
#    0.000    0.000    0.000    0.000    0.000    0.000 
#
# Total GULP energy -198222.877550 kJ/mol
# GULP energy per Si atom -12388.929847 kJ/mol
# Density = 1.965287 g / cm^3
# Si number density = 19.697706 Si / 1000 Ang^3
#
#
#
# Elastic Constant Matrix: (Units=GPa)
#
#
# Indices 1 2 3 4 5 6 
#
# 1 72.5895 40.9247 30.6140 -6.8340 -21.5201 -16.6308
# 2 40.9247 152.1502 21.2099 9.3153 -13.2058 -14.6989
# 3 30.6140 21.2099 53.0281 -13.3418 -17.9852 -5.4128
# 4 -6.8340 9.3153 -13.3418 28.3960 -3.4034 -6.4470
# 5 -21.5201 -13.2058 -17.9852 -3.4034 22.2813 3.2034
# 6 -16.6308 -14.6989 -5.4128 -6.4470 3.2034 23.3426
#
#
#
# Elastic Compliance Matrix: (Units=1/GPa)
#
#
# Indices 1 2 3 4 5 6 
#
# 1 0.030366 -0.004946 -0.001081 0.015794 0.025180 0.019176
# 2 -0.004946 0.008396 -0.003010 -0.005752 -0.003094 -0.000098
# 3 -0.001081 -0.003010 0.037861 0.024091 0.030173 0.008627
# 4 0.015794 -0.005752 0.024091 0.062438 0.037183 0.025359
# 5 0.025180 -0.003094 0.030173 0.037183 0.094484 0.020291
# 6 0.019176 -0.000098 0.008627 0.025359 0.020291 0.062660
#
#
# Mechanical properties :
#
#
# Convention : Reuss Voigt Hill
#
# Bulk Modulus (GPa) = 17.07944 51.47389 34.27667
# Shear Modulus (GPa) = 14.97924 27.13858 21.05891
#
# Velocity S-wave (km/s) = 2.76063 3.71584 3.27326
# Velocity P-wave (km/s) = 4.34178 6.67822 5.63248
#
# Compressibility (1/GPa) = 0.05854992
#
# Stress axis : x y z
#
# Youngs Moduli (GPa) = 32.93184 119.09825 26.41214
#
# Poissons Ratio (x) = 0.58905 0.02855
# Poissons Ratio (y) = 0.16288 0.07950
# Poissons Ratio (z) = 0.03560 0.35847
#
# Static dielectric constant tensor:
#      x y z
#    x 3.411980 -0.048960 -0.460920 
#    y -0.048960 3.798510 0.073490 
#    z -0.460920 0.073490 3.481630 
# 
# 
# High freq. dielectric constant tensor:
#      x y z
#    x 1.731760 -0.001650 -0.041750 
#    y -0.001650 1.781150 -0.002350 
#    z -0.041750 -0.002350 1.740540 
# 
# From -- ./inp_files/541856.got.cif
#   From: 2010.06.25/outbox.cif.g09.slc.cpg/sg2_271_cif.got.tgz:541856.got - 2010.06.27 13:26:56.
