data_PCOD8038495
_publ_section_title
;
Structure prediction by ZEFSAII (Michael W. Deem and Ramdas Pophale) SiO2 
 PCOD8038495
Probable space group: P -1
;
_chemical_formula_sum "Si O2"
_cell_formula_units_Z 16
_cell_length_a 10.878377
_cell_length_b 11.248855
_cell_length_c 11.863207
_cell_angle_alpha 134.313621
_cell_angle_beta 116.834452
_cell_angle_gamma 51.065736
_cell_volume 807.789332
_symmetry_space_group_name_H-M "P -1"
_symmetry_group_IT_number 2
_symmetry_cell_setting 'triclinic'
loop_
_space_group_symop_operation_xyz
x,y,z
-x,-y,-z
loop_
_atom_site_type_symbol
_atom_site_label
_atom_site_fract_x
_atom_site_fract_y
_atom_site_fract_z
Si Si1 0.674109 0.351863 0.438155
Si Si2 0.566474 0.216307 0.111690
Si Si3 0.649119 0.899005 0.661518
Si Si4 0.483233 0.320780 0.904107
Si Si5 0.121322 0.442596 0.321828
Si Si6 0.284434 0.183908 0.034247
Si Si7 0.230227 0.267866 0.637482
Si Si8 0.310745 0.003035 0.686178
O O1 0.500000 0.500000 0.500000
O O2 0.660757 0.309280 0.272678
O O3 0.798644 0.424961 0.546632
O O4 0.731839 0.161552 0.411684
O O5 0.690711 0.993415 0.993340
O O6 0.471594 0.332899 0.041887
O O7 0.435220 0.215230 0.141144
O O8 0.801423 0.738747 0.683251
O O9 0.663526 0.837814 0.496598
O O10 0.493738 0.914633 0.666877
O O11 0.631378 0.111717 0.795357
O O12 0.321642 0.352515 0.803640
O O13 0.500000 0.500000 0.000000
O O14 0.938714 0.563991 0.359877
O O15 0.135118 0.369389 0.149057
O O16 0.267946 0.145082 0.870333
O O17 0.206733 0.122758 0.614833
#
# Coordination Sequence:
#
# PCOD8038495 Si02
#       8
#     2   2   2   2   2   2   2   2
#     4  11  21  33  64  97 114 158 207 252 294 364
#     4  10  18  35  60  91 113 148 211 252 291 350
#     4  11  21  43  64  85 126 167 206 245 295 378
#     4  11  23  41  64  91 113 161 216 256 293 354
#     4  12  23  40  63  93 127 163 201 246 314 371
#     4  10  17  36  65  87 115 157 199 253 301 357
#     4  11  26  41  60  92 130 166 195 249 320 360
#     4  10  20  40  63  92 120 158 209 254 304 349
#
# _framework density 19.807144999999998
#
# number of rings (size 3 to 8) (size 9 to 14) (size 15 to 20)
#    0.000    1.250    6.250    2.625    1.750    2.000 
#    0.000    3.125    0.000    0.000    0.000    0.000 
#    0.000    0.000    0.000    0.000    0.000    0.000 
#
# Total GULP energy -198259.506675 kJ/mol
# GULP energy per Si atom -12391.219167 kJ/mol
# Density = 1.976206 g / cm^3
# Si number density = 19.807145 Si / 1000 Ang^3
#
#
#
# Elastic Constant Matrix: (Units=GPa)
#
#
# Indices 1 2 3 4 5 6 
#
# 1 65.3424 45.2343 58.6433 4.9814 1.9730 3.7973
# 2 45.2343 127.3887 56.0720 3.4832 10.7933 4.7516
# 3 58.6433 56.0720 119.1834 3.4762 -2.0955 13.3195
# 4 4.9814 3.4832 3.4762 31.3232 8.1386 -1.7895
# 5 1.9730 10.7933 -2.0955 8.1386 26.7235 3.7886
# 6 3.7973 4.7516 13.3195 -1.7895 3.7886 33.9310
#
#
#
# Elastic Compliance Matrix: (Units=1/GPa)
#
#
# Indices 1 2 3 4 5 6 
#
# 1 0.030347 -0.005138 -0.012706 -0.002531 -0.000711 0.002257
# 2 -0.005138 0.011362 -0.003027 0.001215 -0.004929 0.000787
# 3 -0.012706 -0.003027 0.016766 -0.000981 0.004525 -0.005293
# 4 -0.002531 0.001215 -0.000981 0.035561 -0.011733 0.003684
# 5 -0.000711 -0.004929 0.004525 -0.011733 0.044323 -0.006574
# 6 0.002257 0.000787 -0.005293 0.003684 -0.006574 0.032115
#
#
# Mechanical properties :
#
#
# Convention : Reuss Voigt Hill
#
# Bulk Modulus (GPa) = 59.76169 70.20149 64.98159
# Shear Modulus (GPa) = 22.95746 28.52654 25.74200
#
# Velocity S-wave (km/s) = 3.40817 3.79913 3.60895
# Velocity P-wave (km/s) = 6.76201 7.40027 7.08833
#
# Compressibility (1/GPa) = 0.01673313
#
# Stress axis : x y z
#
# Youngs Moduli (GPa) = 32.95182 88.01255 59.64423
#
# Poissons Ratio (x) = 0.45222 0.75782
# Poissons Ratio (y) = 0.16931 0.18056
# Poissons Ratio (z) = 0.41868 0.26644
#
# Static dielectric constant tensor:
#      x y z
#    x 3.312180 0.223730 -0.116070 
#    y 0.223730 3.727160 0.131220 
#    z -0.116070 0.131220 4.092900 
# 
# 
# High freq. dielectric constant tensor:
#      x y z
#    x 1.732960 0.019840 -0.012940 
#    y 0.019840 1.775250 0.001520 
#    z -0.012940 0.001520 1.786420 
# 
# From -- ./inp_files/257443.got.cif
#   From: 2010.06.25/outbox.cif.g09.slc.cpg/sg2_129_cif.got.tgz:257443.got - 2010.06.27 13:26:56.
