data_PCOD8038502
_publ_section_title
;
Structure prediction by ZEFSAII (Michael W. Deem and Ramdas Pophale) SiO2 
 PCOD8038502
Probable space group: P -1
;
_chemical_formula_sum "Si O2"
_cell_formula_units_Z 16
_cell_length_a 14.732151
_cell_length_b 29.651907
_cell_length_c 9.577867
_cell_angle_alpha 35.672062
_cell_angle_beta 49.484332
_cell_angle_gamma 21.387493
_cell_volume 769.481609
_symmetry_space_group_name_H-M "P -1"
_symmetry_group_IT_number 2
_symmetry_cell_setting 'triclinic'
loop_
_space_group_symop_operation_xyz
x,y,z
-x,-y,-z
loop_
_atom_site_type_symbol
_atom_site_label
_atom_site_fract_x
_atom_site_fract_y
_atom_site_fract_z
Si Si1 0.772912 0.470584 0.020603
Si Si2 0.349663 0.072192 0.323449
Si Si3 0.337992 0.608418 0.032862
Si Si4 0.317370 0.348372 0.552745
Si Si5 0.289172 0.978595 0.421136
Si Si6 0.781186 0.494259 0.500512
Si Si7 0.754009 0.582249 0.013896
Si Si8 0.565717 0.868488 0.150986
O O1 0.545185 0.535942 0.109837
O O2 0.874107 0.446717 0.127055
O O3 0.025308 0.292493 0.113731
O O4 0.630185 0.624683 0.694122
O O5 0.500000 0.000000 0.500000
O O6 0.354745 0.979937 0.503000
O O7 0.502232 0.023490 0.161759
O O8 0.272998 0.564708 0.278887
O O9 0.500000 0.500000 0.000000
O O10 0.053797 0.827872 0.737124
O O11 0.409374 0.339434 0.623816
O O12 0.517134 0.158295 0.791065
O O13 0.000000 0.500000 0.500000
O O14 0.372392 0.984889 0.190413
O O15 0.464176 0.794670 0.710216
O O16 0.684750 0.576073 0.237779
O O17 0.109549 0.320995 0.641073
O O18 0.000000 0.500000 0.000000
#
# Coordination Sequence:
#
# PCOD8038502 Si02
#       8
#     2   2   2   2   2   2   2   2
#     4  12  23  45  67  94 136 185 222 270 340 413
#     4  12  25  37  66 102 137 168 224 287 344 393
#     4  12  24  46  70  89 135 198 231 259 328 431
#     4  10  17  36  66  92 120 171 224 263 326 398
#     4  12  24  42  70 101 135 177 228 283 338 397
#     4  11  22  41  71  94 139 186 218 275 345 404
#     4  12  25  42  70 109 140 163 221 304 345 377
#     4  11  21  39  64 101 130 172 230 277 337 396
#
# _framework density 20.793220000000002
#
# number of rings (size 3 to 8) (size 9 to 14) (size 15 to 20)
#    0.000    0.500    8.750    1.875    1.750    1.000 
#    0.000    0.625    0.000    0.000    0.000    0.000 
#    0.000    0.000    0.000    0.000    0.000    0.000 
#
# Total GULP energy -198294.116168 kJ/mol
# GULP energy per Si atom -12393.382260 kJ/mol
# Density = 2.074589 g / cm^3
# Si number density = 20.793220 Si / 1000 Ang^3
#
#
#
# Elastic Constant Matrix: (Units=GPa)
#
#
# Indices 1 2 3 4 5 6 
#
# 1 119.8178 29.6938 9.1020 10.1147 -4.1367 9.6200
# 2 29.6938 79.0355 29.7761 3.7917 3.6286 1.8679
# 3 9.1020 29.7761 84.4804 16.1367 2.9191 -0.2299
# 4 10.1147 3.7917 16.1367 29.1735 8.5349 3.7099
# 5 -4.1367 3.6286 2.9191 8.5349 33.7618 5.8827
# 6 9.6200 1.8679 -0.2299 3.7099 5.8827 37.0523
#
#
#
# Elastic Compliance Matrix: (Units=1/GPa)
#
#
# Indices 1 2 3 4 5 6 
#
# 1 0.009896 -0.003980 0.000997 -0.004032 0.002998 -0.002435
# 2 -0.003980 0.016308 -0.005843 0.003218 -0.002595 0.000265
# 3 0.000997 -0.005843 0.015388 -0.008624 0.001467 0.000762
# 4 -0.004032 0.003218 -0.008624 0.043403 -0.010751 -0.001808
# 5 0.002998 -0.002595 0.001467 -0.010751 0.033713 -0.004914
# 6 -0.002435 0.000265 0.000762 -0.001808 -0.004914 0.028574
#
#
# Mechanical properties :
#
#
# Convention : Reuss Voigt Hill
#
# Bulk Modulus (GPa) = 41.77439 46.71973 44.24706
# Shear Modulus (GPa) = 28.91614 34.31497 31.61555
#
# Velocity S-wave (km/s) = 3.73319 4.06679 3.90356
# Velocity P-wave (km/s) = 6.22224 6.67602 6.45312
#
# Compressibility (1/GPa) = 0.02393811
#
# Stress axis : x y z
#
# Youngs Moduli (GPa) = 101.05053 61.32039 64.98639
#
# Poissons Ratio (x) = 0.24406 -0.06477
# Poissons Ratio (y) = 0.40219 0.37974
# Poissons Ratio (z) = -0.10071 0.35832
#
# Static dielectric constant tensor:
#      x y z
#    x 4.470750 0.372840 -0.240870 
#    y 0.372840 3.953440 0.075700 
#    z -0.240870 0.075700 3.667420 
# 
# 
# High freq. dielectric constant tensor:
#      x y z
#    x 1.825570 0.027320 -0.013760 
#    y 0.027320 1.802050 0.013460 
#    z -0.013760 0.013460 1.796080 
# 
# From -- ./inp_files/320929.got.cif
#   From: 2010.06.25/outbox.cif.g09.slc.cpg/sg2_161_cif.got.tgz:320929.got - 2010.06.27 13:26:56.
