data_PCOD8038965
_publ_section_title
;
Structure prediction by ZEFSAII (Michael W. Deem and Ramdas Pophale) SiO2 
 PCOD8038965
Probable space group: P -1
;
_chemical_formula_sum "Si O2"
_cell_formula_units_Z 14
_cell_length_a 11.499408
_cell_length_b 8.843177
_cell_length_c 14.247591
_cell_angle_alpha 116.065941
_cell_angle_beta 149.245851
_cell_angle_gamma 66.122769
_cell_volume 664.359562
_symmetry_space_group_name_H-M "P -1"
_symmetry_group_IT_number 2
_symmetry_cell_setting 'triclinic'
loop_
_space_group_symop_operation_xyz
x,y,z
-x,-y,-z
loop_
_atom_site_type_symbol
_atom_site_label
_atom_site_fract_x
_atom_site_fract_y
_atom_site_fract_z
Si Si1 0.229207 0.407890 0.871710
Si Si2 0.160908 0.248783 0.506421
Si Si3 0.961577 0.256008 0.980282
Si Si4 0.307321 0.407838 0.129541
Si Si5 0.822232 0.386034 0.445175
Si Si6 0.988884 0.896259 0.828167
Si Si7 0.454297 0.759792 0.096250
O O1 0.401732 0.268453 0.905964
O O2 0.986263 0.416179 0.654768
O O3 0.195916 0.346853 0.938402
O O4 0.338365 0.587850 0.996331
O O5 0.210318 0.445219 0.592090
O O6 0.149392 0.167482 0.374032
O O7 0.383499 0.167671 0.691077
O O8 0.931937 0.240152 0.410613
O O9 0.190455 0.319543 0.110862
O O10 0.020915 0.231472 0.125032
O O11 0.747020 0.388753 0.848479
O O12 0.888816 0.081207 0.837225
O O13 0.574239 0.347848 0.301893
O O14 0.253003 0.903612 0.981541
#
# Coordination Sequence:
#
# PCOD8038965 Si02
#       7
#     2   2   2   2   2   2   2
#     4  10  18  32  60  88 110 140 181 232 283 330
#     4  10  18  31  59  91 111 140 184 232 286 334
#     4  10  24  38  60  76 114 156 200 216 284 320
#     4  11  20  41  56  83 113 149 188 242 263 341
#     4  10  18  31  59  91 111 140 184 232 286 334
#     4  11  20  41  56  83 113 149 188 242 263 341
#     4  10  18  32  60  88 110 140 181 232 283 330
#
# _framework density 21.072925000000001
#
# number of rings (size 3 to 8) (size 9 to 14) (size 15 to 20)
#    0.000    1.714    4.286    0.857    0.000    0.000 
#    0.000   20.000    0.000    3.429    0.000    0.000 
#    0.000    0.000    0.000    0.000    0.000    0.000 
#
# Total GULP energy -173513.315849 kJ/mol
# GULP energy per Si atom -12393.808275 kJ/mol
# Density = 2.102496 g / cm^3
# Si number density = 21.072925 Si / 1000 Ang^3
#
#
#
# Elastic Constant Matrix: (Units=GPa)
#
#
# Indices 1 2 3 4 5 6 
#
# 1 103.9187 25.2645 41.9572 4.2078 -7.5264 -15.2780
# 2 25.2645 39.6633 12.0496 4.0337 -13.5462 -1.9823
# 3 41.9572 12.0496 95.9224 -1.7208 -14.6144 -8.6198
# 4 4.2078 4.0337 -1.7208 18.9176 -8.7014 -3.3442
# 5 -7.5264 -13.5462 -14.6144 -8.7014 32.6992 8.5406
# 6 -15.2780 -1.9823 -8.6198 -3.3442 8.5406 19.5485
#
#
#
# Elastic Compliance Matrix: (Units=1/GPa)
#
#
# Indices 1 2 3 4 5 6 
#
# 1 0.015484 -0.009542 -0.005642 -0.003006 -0.006586 0.011009
# 2 -0.009542 0.035833 0.001172 0.000078 0.015863 -0.010225
# 3 -0.005642 0.001172 0.013868 0.005388 0.006888 -0.000263
# 4 -0.003006 0.000078 0.005388 0.062648 0.017622 0.003053
# 5 -0.006586 0.015863 0.006888 0.017622 0.048255 -0.018569
# 6 0.011009 -0.010225 -0.000263 0.003053 -0.018569 0.067241
#
#
# Mechanical properties :
#
#
# Convention : Reuss Voigt Hill
#
# Bulk Modulus (GPa) = 26.91030 44.22745 35.56887
# Shear Modulus (GPa) = 17.62163 24.91526 21.26844
#
# Velocity S-wave (km/s) = 2.89489 3.44224 3.18036
# Velocity P-wave (km/s) = 4.89608 6.06894 5.51379
#
# Compressibility (1/GPa) = 0.03716050
#
# Stress axis : x y z
#
# Youngs Moduli (GPa) = 64.58222 27.90703 72.10734
#
# Poissons Ratio (x) = 0.26630 0.40685
# Poissons Ratio (y) = 0.61627 -0.08451
# Poissons Ratio (z) = 0.36439 -0.03271
#
# Static dielectric constant tensor:
#      x y z
#    x 4.061390 -0.399210 0.014690 
#    y -0.399210 3.596490 -0.240600 
#    z 0.014690 -0.240600 3.637390 
# 
# 
# High freq. dielectric constant tensor:
#      x y z
#    x 1.836580 -0.031520 -0.007650 
#    y -0.031520 1.788910 -0.017980 
#    z -0.007650 -0.017980 1.815410 
# 
# From -- ./inp_files/282753.got.cif
#   From: 2010.06.25/outbox.cif.g09.slc.cpg/sg2_142_cif.got.tgz:282753.got - 2010.06.27 13:26:56.
