data_PCOD8038858
_publ_section_title
;
Structure prediction by ZEFSAII (Michael W. Deem and Ramdas Pophale) SiO2 
 PCOD8038858
Probable space group: P -1
;
_chemical_formula_sum "Si O2"
_cell_formula_units_Z 16
_cell_length_a 9.866861
_cell_length_b 15.359204
_cell_length_c 11.637865
_cell_angle_alpha 52.568402
_cell_angle_beta 50.326308
_cell_angle_gamma 46.784865
_cell_volume 942.424830
_symmetry_space_group_name_H-M "P -1"
_symmetry_group_IT_number 2
_symmetry_cell_setting 'triclinic'
loop_
_space_group_symop_operation_xyz
x,y,z
-x,-y,-z
loop_
_atom_site_type_symbol
_atom_site_label
_atom_site_fract_x
_atom_site_fract_y
_atom_site_fract_z
Si Si1 0.626152 0.694700 0.057079
Si Si2 0.445428 0.374402 0.506650
Si Si3 0.842447 0.695323 0.155432
Si Si4 0.265321 0.464835 0.086012
Si Si5 0.663770 0.358095 0.617550
Si Si6 0.573404 0.350526 0.202130
Si Si7 0.047505 0.852105 0.966276
Si Si8 0.187693 0.860019 0.135286
O O1 0.773443 0.719078 0.040237
O O2 0.553144 0.607666 0.234951
O O3 0.423658 0.825052 0.029678
O O4 0.746665 0.624823 0.933383
O O5 0.328011 0.302691 0.671425
O O6 0.641349 0.339766 0.508424
O O7 0.297132 0.525525 0.471515
O O8 0.520029 0.326498 0.377238
O O9 0.043063 0.562907 0.167703
O O10 0.880093 0.808486 0.081838
O O11 0.384681 0.380865 0.197882
O O12 0.384721 0.532478 0.915478
O O13 0.838118 0.229646 0.683627
O O14 0.768135 0.224345 0.157657
O O15 0.124770 0.829045 0.072813
O O16 0.948776 0.997113 0.868281
#
# Coordination Sequence:
#
# PCOD8038858 Si02
#       8
#     2   2   2   2   2   2   2   2
#     4   9  16  34  52  75 102 134 163 216 254 303
#     4  10  18  33  51  78 108 138 158 213 263 318
#     4  10  22  30  51  83 109 125 169 215 268 300
#     4  10  18  31  50  78 104 134 170 215 257 302
#     4   8  17  32  54  73  99 145 173 188 261 319
#     4  10  18  31  53  73 106 136 176 208 250 306
#     4  10  20  35  55  83  94 136 183 219 241 297
#     4   9  18  36  60  70 100 141 183 207 244 309
#
# _framework density 16.977481999999998
#
# number of rings (size 3 to 8) (size 9 to 14) (size 15 to 20)
#    0.750    1.750    2.500    0.375    3.500    1.000 
#    0.000    0.625    0.000    4.500    0.000    0.000 
#    0.000    0.000    0.000    0.000    0.000    0.000 
#
# Total GULP energy -198323.392778 kJ/mol
# GULP energy per Si atom -12395.212049 kJ/mol
# Density = 1.693884 g / cm^3
# Si number density = 16.977482 Si / 1000 Ang^3
#
#
#
# Elastic Constant Matrix: (Units=GPa)
#
#
# Indices 1 2 3 4 5 6 
#
# 1 109.0829 53.4015 49.8744 -4.2032 12.0300 11.2605
# 2 53.4015 87.5982 36.4420 -9.1529 16.9052 8.3461
# 3 49.8744 36.4420 60.0258 -0.3119 20.2980 12.4073
# 4 -4.2032 -9.1529 -0.3119 24.0059 -1.1653 8.0071
# 5 12.0300 16.9052 20.2980 -1.1653 28.3094 1.6708
# 6 11.2605 8.3461 12.4073 8.0071 1.6708 21.8404
#
#
#
# Elastic Compliance Matrix: (Units=1/GPa)
#
#
# Indices 1 2 3 4 5 6 
#
# 1 0.017401 -0.006408 -0.012313 0.000774 0.005305 -0.000218
# 2 -0.006408 0.018971 -0.003371 0.007208 -0.005641 -0.004242
# 3 -0.012313 -0.003371 0.038076 0.000333 -0.019296 -0.012640
# 4 0.000774 0.007208 0.000333 0.051901 -0.001422 -0.022261
# 5 0.005305 -0.005641 -0.019296 -0.001422 0.049796 0.007094
# 6 -0.000218 -0.004242 -0.012640 -0.022261 0.007094 0.062319
#
#
# Mechanical properties :
#
#
# Convention : Reuss Voigt Hill
#
# Bulk Modulus (GPa) = 33.04279 59.57143 46.30711
# Shear Modulus (GPa) = 17.08022 22.63041 19.85531
#
# Velocity S-wave (km/s) = 3.17527 3.65494 3.42352
# Velocity P-wave (km/s) = 5.74004 7.27847 6.55455
#
# Compressibility (1/GPa) = 0.03026379
#
# Stress axis : x y z
#
# Youngs Moduli (GPa) = 57.46685 52.71315 26.26318
#
# Poissons Ratio (x) = 0.33779 0.32338
# Poissons Ratio (y) = 0.36825 0.08853
# Poissons Ratio (z) = 0.70760 0.17769
#
# Static dielectric constant tensor:
#      x y z
#    x 3.285580 -0.003420 0.150370 
#    y -0.003420 2.971850 -0.040570 
#    z 0.150370 -0.040570 2.860180 
# 
# 
# High freq. dielectric constant tensor:
#      x y z
#    x 1.666320 0.003020 0.018230 
#    y 0.003020 1.636380 -0.000150 
#    z 0.018230 -0.000150 1.623460 
# 
# From -- ./inp_files/270826.got.cif
#   From: 2010.06.25/outbox.cif.g09.slc.cpg/sg2_136_cif.got.tgz:270826.got - 2010.06.27 13:26:56.
