data_PCOD8038836
_publ_section_title
;
Structure prediction by ZEFSAII (Michael W. Deem and Ramdas Pophale) SiO2 
 PCOD8038836
Probable space group: P -1
;
_chemical_formula_sum "Si O2"
_cell_formula_units_Z 16
_cell_length_a 13.247314
_cell_length_b 10.242322
_cell_length_c 15.662991
_cell_angle_alpha 131.991240
_cell_angle_beta 141.623136
_cell_angle_gamma 53.882340
_cell_volume 970.865661
_symmetry_space_group_name_H-M "P -1"
_symmetry_group_IT_number 2
_symmetry_cell_setting 'triclinic'
loop_
_space_group_symop_operation_xyz
x,y,z
-x,-y,-z
loop_
_atom_site_type_symbol
_atom_site_label
_atom_site_fract_x
_atom_site_fract_y
_atom_site_fract_z
Si Si1 0.136500 0.453404 0.999124
Si Si2 0.611152 0.527750 0.690933
Si Si3 0.001081 0.711173 0.877266
Si Si4 0.740895 0.477561 0.576748
Si Si5 0.829277 0.044913 0.012498
Si Si6 0.826358 0.093862 0.393353
Si Si7 0.781992 0.952771 0.122458
Si Si8 0.477083 0.062044 0.182973
O O1 0.304817 0.499470 0.173125
O O2 0.146948 0.247538 0.890759
O O3 0.000000 0.500000 0.000000
O O4 0.106982 0.566998 0.943924
O O5 0.732788 0.442653 0.658733
O O6 0.441378 0.444326 0.543580
O O7 0.565981 0.734439 0.728047
O O8 0.859452 0.621932 0.697342
O O9 0.922762 0.877231 0.952401
O O10 0.120700 0.773223 0.911409
O O11 0.812398 0.298397 0.497711
O O12 0.629532 0.049347 0.873662
O O13 0.880862 0.017030 0.134290
O O14 0.673815 0.003625 0.292988
O O15 0.808377 0.082130 0.274276
O O16 0.000000 0.000000 0.500000
O O17 0.590712 0.959973 0.968764
#
# Coordination Sequence:
#
# PCOD8038836 Si02
#       8
#     2   2   2   2   2   2   2   2
#     4  11  16  29  53  79  97 120 171 224 244 274
#     4   9  17  29  51  77  97 128 158 217 257 282
#     4  11  18  31  54  79  99 128 168 208 252 297
#     4  10  18  31  47  74 106 129 165 198 256 307
#     4   9  19  32  55  72 100 134 170 200 249 303
#     4  11  21  28  50  81 102 131 165 213 248 289
#     4   9  18  34  49  74  99 134 169 201 247 293
#     4   8  16  35  52  71  97 133 170 203 248 293
#
# _framework density 16.480138
#
# number of rings (size 3 to 8) (size 9 to 14) (size 15 to 20)
#    0.750    1.500    3.750    1.125    0.000    0.000 
#    0.000    0.625    2.750    4.500    0.000    0.000 
#    0.000    0.000    0.000    0.000    0.000    0.000 
#
# Total GULP energy -198222.479781 kJ/mol
# GULP energy per Si atom -12388.904986 kJ/mol
# Density = 1.644263 g / cm^3
# Si number density = 16.480138 Si / 1000 Ang^3
#
#
#
# Elastic Constant Matrix: (Units=GPa)
#
#
# Indices 1 2 3 4 5 6 
#
# 1 102.6763 44.9471 57.2163 3.3116 17.2728 9.1215
# 2 44.9471 67.8208 37.8125 -1.1542 9.2488 6.2556
# 3 57.2163 37.8125 106.8693 0.6339 5.4184 4.4020
# 4 3.3116 -1.1542 0.6339 22.2890 -7.7424 1.0971
# 5 17.2728 9.2488 5.4184 -7.7424 37.6084 5.3732
# 6 9.1215 6.2556 4.4020 1.0971 5.3732 27.1859
#
#
#
# Elastic Compliance Matrix: (Units=1/GPa)
#
#
# Indices 1 2 3 4 5 6 
#
# 1 0.018012 -0.007293 -0.006639 -0.004955 -0.006278 -0.001849
# 2 -0.007293 0.022006 -0.003774 0.002148 -0.000800 -0.001934
# 3 -0.006639 -0.003774 0.014119 0.001110 0.002122 0.000346
# 4 -0.004955 0.002148 0.001110 0.050165 0.012413 -0.003489
# 5 -0.006278 -0.000800 0.002122 0.012413 0.032635 -0.005004
# 6 -0.001849 -0.001934 0.000346 -0.003489 -0.005004 0.038923
#
#
# Mechanical properties :
#
#
# Convention : Reuss Voigt Hill
#
# Bulk Modulus (GPa) = 53.40650 61.92426 57.66538
# Shear Modulus (GPa) = 22.98712 26.57603 24.78158
#
# Velocity S-wave (km/s) = 3.73880 4.02009 3.88199
# Velocity P-wave (km/s) = 7.14949 7.69447 7.42698
#
# Compressibility (1/GPa) = 0.01872431
#
# Stress axis : x y z
#
# Youngs Moduli (GPa) = 55.51949 45.44133 70.82874
#
# Poissons Ratio (x) = 0.33141 0.47022
# Poissons Ratio (y) = 0.40491 0.26732
# Poissons Ratio (z) = 0.36859 0.17150
#
# Static dielectric constant tensor:
#      x y z
#    x 3.137190 -0.093970 0.136270 
#    y -0.093970 2.931200 -0.088800 
#    z 0.136270 -0.088800 3.399830 
# 
# 
# High freq. dielectric constant tensor:
#      x y z
#    x 1.618180 -0.022840 -0.000330 
#    y -0.022840 1.600660 -0.000880 
#    z -0.000330 -0.000880 1.646740 
# 
# From -- ./inp_files/573091.got.cif
#   From: 2010.06.25/outbox.cif.g09.slc.cpg/sg2_287_cif.got.tgz:573091.got - 2010.06.27 13:26:56.
