data_PCOD8038219
_publ_section_title
;
Structure prediction by ZEFSAII (Michael W. Deem and Ramdas Pophale) SiO2 
 PCOD8038219
Probable space group: P -1
;
_chemical_formula_sum "Si O2"
_cell_formula_units_Z 16
_cell_length_a 10.794622
_cell_length_b 17.459263
_cell_length_c 9.255359
_cell_angle_alpha 70.069358
_cell_angle_beta 101.737562
_cell_angle_gamma 42.815839
_cell_volume 785.131461
_symmetry_space_group_name_H-M "P -1"
_symmetry_group_IT_number 2
_symmetry_cell_setting 'triclinic'
loop_
_space_group_symop_operation_xyz
x,y,z
-x,-y,-z
loop_
_atom_site_type_symbol
_atom_site_label
_atom_site_fract_x
_atom_site_fract_y
_atom_site_fract_z
Si Si1 0.947248 0.057831 0.787280
Si Si2 0.502702 0.232122 0.428184
Si Si3 0.173723 0.568506 0.687051
Si Si4 0.754165 0.470007 0.938120
Si Si5 0.200944 0.323481 0.088680
Si Si6 0.784528 0.662535 0.442620
Si Si7 0.388781 0.594034 0.560942
Si Si8 0.486877 0.234801 0.943343
O O1 0.798008 0.068574 0.660123
O O2 0.756592 0.241207 0.617079
O O3 0.208630 0.932047 0.842689
O O4 0.000000 0.000000 0.000000
O O5 0.439791 0.343994 0.237595
O O6 0.448176 0.182030 0.349010
O O7 0.298899 0.348568 0.437944
O O8 0.190248 0.640064 0.549051
O O9 0.887680 0.690586 0.512336
O O10 0.216566 0.570664 0.861692
O O11 0.389457 0.382356 0.806433
O O12 0.625438 0.471454 0.810324
O O13 0.044214 0.326765 0.037126
O O14 0.305077 0.293373 0.979058
O O15 0.000000 0.500000 0.000000
O O16 0.000000 0.500000 0.500000
O O17 0.538898 0.805101 0.184163
O O18 0.500000 0.500000 0.500000
#
# Coordination Sequence:
#
# PCOD8038219 Si02
#       8
#     2   2   2   2   2   2   2   2
#     4  11  23  41  59  85 126 154 198 246 293 354
#     4  10  18  34  56  87 119 150 195 243 291 341
#     4  11  20  38  61  90 120 150 197 243 296 350
#     4  10  19  36  59  85 120 152 192 249 285 351
#     4  10  17  34  59  94 118 143 202 248 291 341
#     4  10  19  30  60  92 115 152 199 243 285 343
#     4  11  26  39  60  86 116 161 200 241 298 351
#     4  11  21  35  65  93 117 158 196 247 296 341
#
# _framework density 20.378753
#
# number of rings (size 3 to 8) (size 9 to 14) (size 15 to 20)
#    0.000    1.500    5.000    3.375    7.000    0.500 
#    0.000    0.625    0.000    0.750    0.000    0.000 
#    0.000    0.000    0.000    0.000    0.000    0.000 
#
# Total GULP energy -198242.737624 kJ/mol
# GULP energy per Si atom -12390.171101 kJ/mol
# Density = 2.033237 g / cm^3
# Si number density = 20.378753 Si / 1000 Ang^3
#
#
#
# Elastic Constant Matrix: (Units=GPa)
#
#
# Indices 1 2 3 4 5 6 
#
# 1 112.1723 23.5143 48.0537 9.8490 14.7861 -7.8108
# 2 23.5143 52.1008 24.7694 17.2375 -0.3284 -3.7751
# 3 48.0537 24.7694 99.6380 23.9938 17.3917 5.3791
# 4 9.8490 17.2375 23.9938 34.3205 -4.1147 5.3946
# 5 14.7861 -0.3284 17.3917 -4.1147 43.9357 12.9453
# 6 -7.8108 -3.7751 5.3791 5.3946 12.9453 30.5175
#
#
#
# Elastic Compliance Matrix: (Units=1/GPa)
#
#
# Indices 1 2 3 4 5 6 
#
# 1 0.012523 -0.002959 -0.004928 0.000037 -0.003855 0.005336
# 2 -0.002959 0.025773 -0.002500 -0.011173 -0.000339 0.004990
# 3 -0.004928 -0.002500 0.016263 -0.009294 -0.005537 -0.000446
# 4 0.000037 -0.011173 -0.009294 0.044564 0.011428 -0.012460
# 5 -0.003855 -0.000339 -0.005537 0.011428 0.031917 -0.015612
# 6 0.005336 0.004990 -0.000446 -0.012460 -0.015612 0.043655
#
#
# Mechanical properties :
#
#
# Convention : Reuss Voigt Hill
#
# Bulk Modulus (GPa) = 29.59816 50.73176 40.16496
# Shear Modulus (GPa) = 24.18610 32.92632 28.55621
#
# Velocity S-wave (km/s) = 3.44878 4.02396 3.74742
# Velocity P-wave (km/s) = 5.51492 6.82189 6.20292
#
# Compressibility (1/GPa) = 0.03378589
#
# Stress axis : x y z
#
# Youngs Moduli (GPa) = 79.85512 38.79966 61.48912
#
# Poissons Ratio (x) = 0.11480 0.30302
# Poissons Ratio (y) = 0.23627 0.15371
# Poissons Ratio (z) = 0.39353 0.09699
#
# Static dielectric constant tensor:
#      x y z
#    x 4.222930 0.002470 0.765760 
#    y 0.002470 3.391470 0.488220 
#    z 0.765760 0.488220 4.244880 
# 
# 
# High freq. dielectric constant tensor:
#      x y z
#    x 1.807910 -0.022380 0.032300 
#    y -0.022380 1.756240 0.048900 
#    z 0.032300 0.048900 1.792470 
# 
# From -- ./inp_files/277729.got.cif
#   From: 2010.06.25/outbox.cif.g09.slc.cpg/sg2_139_cif.got.tgz:277729.got - 2010.06.27 13:26:56.
