data_PCOD8038865
_publ_section_title
;
Structure prediction by ZEFSAII (Michael W. Deem and Ramdas Pophale) SiO2 
 PCOD8038865
Probable space group: P -1
;
_chemical_formula_sum "Si O2"
_cell_formula_units_Z 16
_cell_length_a 13.887547
_cell_length_b 8.286346
_cell_length_c 9.126847
_cell_angle_alpha 83.275189
_cell_angle_beta 73.152768
_cell_angle_gamma 123.328087
_cell_volume 788.152927
_symmetry_space_group_name_H-M "P -1"
_symmetry_group_IT_number 2
_symmetry_cell_setting 'triclinic'
loop_
_space_group_symop_operation_xyz
x,y,z
-x,-y,-z
loop_
_atom_site_type_symbol
_atom_site_label
_atom_site_fract_x
_atom_site_fract_y
_atom_site_fract_z
Si Si1 0.132198 0.413945 0.367332
Si Si2 0.224360 0.291067 0.575285
Si Si3 0.764248 0.793792 0.815023
Si Si4 0.663733 0.149970 0.677871
Si Si5 0.505132 0.707104 0.921637
Si Si6 0.150798 0.902125 0.505942
Si Si7 0.315436 0.341684 0.840239
Si Si8 0.457925 0.650832 0.279072
O O1 0.134408 0.341459 0.540244
O O2 0.188462 0.334027 0.243493
O O3 0.221909 0.661151 0.292248
O O4 0.988150 0.317980 0.397786
O O5 0.244360 0.347760 0.731708
O O6 0.355818 0.418206 0.409270
O O7 0.162449 0.051584 0.608926
O O8 0.608550 0.660859 0.883783
O O9 0.836031 0.005639 0.672461
O O10 0.787907 0.826896 0.977304
O O11 0.737521 0.121283 0.520838
O O12 0.577079 0.210463 0.642459
O O13 0.575317 0.945514 0.833350
O O14 0.402245 0.566416 0.855214
O O15 0.439665 0.665672 0.112648
O O16 0.401758 0.275448 0.752026
#
# Coordination Sequence:
#
# PCOD8038865 Si02
#       8
#     2   2   2   2   2   2   2   2
#     4  10  19  36  54  72  96 128 169 216 246 278
#     4  10  20  33  51  76 100 130 167 200 245 297
#     4   9  18  32  53  76  98 127 168 203 244 295
#     4  10  19  31  52  78  97 128 173 200 236 295
#     4  10  18  31  51  76 104 132 159 196 243 297
#     4  10  19  35  54  72  96 129 169 214 246 278
#     4  11  19  32  51  76 107 132 155 199 246 296
#     4  10  19  32  51  76 106 132 159 196 242 298
#
# _framework density 20.300630000000002
#
# number of rings (size 3 to 8) (size 9 to 14) (size 15 to 20)
#    0.000    2.000    0.000    9.375    0.000    0.000 
#    0.000    8.125    0.000    0.000    0.000   15.750 
#    0.000    0.000    0.000    0.000    0.000    0.000 
#
# Total GULP energy -198253.400491 kJ/mol
# GULP energy per Si atom -12390.837531 kJ/mol
# Density = 2.025442 g / cm^3
# Si number density = 20.300630 Si / 1000 Ang^3
#
#
#
# Elastic Constant Matrix: (Units=GPa)
#
#
# Indices 1 2 3 4 5 6 
#
# 1 51.2078 15.4580 19.9150 7.1026 3.9099 -3.3766
# 2 15.4580 90.7402 18.7780 -3.4864 5.8337 -8.1538
# 3 19.9150 18.7780 70.3196 5.7938 10.7475 16.5525
# 4 7.1026 -3.4864 5.7938 19.4819 7.7089 -1.9990
# 5 3.9099 5.8337 10.7475 7.7089 24.8244 5.8718
# 6 -3.3766 -8.1538 16.5525 -1.9990 5.8718 26.1057
#
#
#
# Elastic Compliance Matrix: (Units=1/GPa)
#
#
# Indices 1 2 3 4 5 6 
#
# 1 0.024398 -0.002341 -0.007323 -0.006634 0.000408 0.006468
# 2 -0.002341 0.013908 -0.005009 0.007854 -0.005302 0.009011
# 3 -0.007323 -0.005009 0.022303 -0.005988 -0.001498 -0.016775
# 4 -0.006634 0.007854 -0.005988 0.067620 -0.022927 0.015727
# 5 0.000408 -0.005302 -0.001498 -0.022927 0.052601 -0.014240
# 6 0.006468 0.009011 -0.016775 0.015727 -0.014240 0.057000
#
#
# Mechanical properties :
#
#
# Convention : Reuss Voigt Hill
#
# Bulk Modulus (GPa) = 31.98567 35.61887 33.80227
# Shear Modulus (GPa) = 18.01160 24.62351 21.31755
#
# Velocity S-wave (km/s) = 2.98189 3.48651 3.24403
# Velocity P-wave (km/s) = 5.25793 5.81304 5.54244
#
# Compressibility (1/GPa) = 0.03126400
#
# Stress axis : x y z
#
# Youngs Moduli (GPa) = 40.98643 71.90013 44.83652
#
# Poissons Ratio (x) = 0.16830 0.32834
# Poissons Ratio (y) = 0.09594 0.22459
# Poissons Ratio (z) = 0.30014 0.36015
#
# Static dielectric constant tensor:
#      x y z
#    x 3.604140 -0.166830 -0.245560 
#    y -0.166830 3.661850 -0.101200 
#    z -0.245560 -0.101200 3.630940 
# 
# 
# High freq. dielectric constant tensor:
#      x y z
#    x 1.766120 -0.012110 -0.028060 
#    y -0.012110 1.787000 -0.010810 
#    z -0.028060 -0.010810 1.775980 
# 
# From -- ./inp_files/295507.got.cif
#   From: 2010.06.25/outbox.cif.g09.slc.cpg/sg2_148_cif.got.tgz:295507.got - 2010.06.27 13:26:56.
