data_PCOD8038405
_publ_section_title
;
Structure prediction by ZEFSAII (Michael W. Deem and Ramdas Pophale) SiO2 
 PCOD8038405
Probable space group: P -1
;
_chemical_formula_sum "Si O2"
_cell_formula_units_Z 16
_cell_length_a 15.313032
_cell_length_b 9.556047
_cell_length_c 12.425995
_cell_angle_alpha 117.174630
_cell_angle_beta 48.488469
_cell_angle_gamma 144.151423
_cell_volume 783.859067
_symmetry_space_group_name_H-M "P -1"
_symmetry_group_IT_number 2
_symmetry_cell_setting 'triclinic'
loop_
_space_group_symop_operation_xyz
x,y,z
-x,-y,-z
loop_
_atom_site_type_symbol
_atom_site_label
_atom_site_fract_x
_atom_site_fract_y
_atom_site_fract_z
Si Si1 0.955300 0.011242 0.922836
Si Si2 0.924026 0.337000 0.834704
Si Si3 0.355454 0.218295 0.148263
Si Si4 0.248011 0.115820 0.620011
Si Si5 0.174052 0.514774 0.871695
Si Si6 0.307692 0.450795 0.138914
Si Si7 0.984852 0.579876 0.650179
Si Si8 0.507156 0.391870 0.316445
O O1 0.078841 0.058372 0.746144
O O2 0.995631 0.237724 0.963616
O O3 0.754182 0.748987 0.967101
O O4 0.000000 0.000000 0.000000
O O5 0.948709 0.430887 0.728274
O O6 0.118885 0.519037 0.798906
O O7 0.827786 0.069526 0.808131
O O8 0.797384 0.317834 0.005746
O O9 0.309912 0.357719 0.217896
O O10 0.457405 0.297967 0.204293
O O11 0.491727 0.294673 0.971437
O O12 0.324326 0.196747 0.465521
O O13 0.403063 0.341054 0.653733
O O14 0.173305 0.864870 0.620346
O O15 0.352796 0.593568 0.747105
O O16 0.181278 0.472127 0.250093
O O17 0.000000 0.500000 0.500000
#
# Coordination Sequence:
#
# PCOD8038405 Si02
#       8
#     2   2   2   2   2   2   2   2
#     4  10  17  35  63  87 115 157 200 250 295 351
#     4  11  23  39  61  91 124 161 204 249 305 361
#     4  11  22  39  63  93 121 156 199 260 301 355
#     4   9  20  37  60  88 115 154 210 236 296 366
#     4  10  21  38  60  91 122 160 201 249 306 361
#     4  10  22  39  59  92 121 151 211 246 301 363
#     4  11  23  42  61  89 124 166 201 249 307 367
#     4  10  20  39  63  89 120 159 200 253 302 352
#
# _framework density 20.411833000000001
#
# number of rings (size 3 to 8) (size 9 to 14) (size 15 to 20)
#    0.000    1.750    1.250    4.500    0.000    3.000 
#    9.000    2.500    0.000    0.000    0.000    0.000 
#    0.000    0.000    0.000    0.000    0.000    0.000 
#
# Total GULP energy -198276.279312 kJ/mol
# GULP energy per Si atom -12392.267457 kJ/mol
# Density = 2.036537 g / cm^3
# Si number density = 20.411833 Si / 1000 Ang^3
#
#
#
# Elastic Constant Matrix: (Units=GPa)
#
#
# Indices 1 2 3 4 5 6 
#
# 1 126.0446 26.8524 58.8656 2.0910 8.7567 -6.0852
# 2 26.8524 86.5095 37.1399 -6.6306 12.1078 -5.5995
# 3 58.8656 37.1399 98.4379 -1.3318 9.6651 -5.8074
# 4 2.0910 -6.6306 -1.3318 28.4463 0.5040 2.2172
# 5 8.7567 12.1078 9.6651 0.5040 19.9146 -1.6830
# 6 -6.0852 -5.5995 -5.8074 2.2172 -1.6830 28.1654
#
#
#
# Elastic Compliance Matrix: (Units=1/GPa)
#
#
# Indices 1 2 3 4 5 6 
#
# 1 0.011155 -0.000617 -0.006261 -0.001312 -0.001372 0.001018
# 2 -0.000617 0.014946 -0.004502 0.003338 -0.006609 0.001252
# 3 -0.006261 -0.004502 0.015865 0.000123 -0.002138 0.000886
# 4 -0.001312 0.003338 0.000123 0.036285 -0.002651 -0.002609
# 5 -0.001372 -0.006609 -0.002138 -0.002651 0.056068 0.001508
# 6 0.001018 0.001252 0.000886 -0.002609 0.001508 0.036452
#
#
# Mechanical properties :
#
#
# Convention : Reuss Voigt Hill
#
# Bulk Modulus (GPa) = 52.06727 61.85640 56.96184
# Shear Modulus (GPa) = 25.00843 27.84753 26.42798
#
# Velocity S-wave (km/s) = 3.50407 3.69763 3.60215
# Velocity P-wave (km/s) = 6.47573 6.97136 6.72811
#
# Compressibility (1/GPa) = 0.01920592
#
# Stress axis : x y z
#
# Youngs Moduli (GPa) = 89.64210 66.90933 63.03147
#
# Poissons Ratio (x) = 0.04131 0.39464
# Poissons Ratio (y) = 0.05534 0.28375
# Poissons Ratio (z) = 0.56125 0.30121
#
# Static dielectric constant tensor:
#      x y z
#    x 3.720340 0.003830 -0.006630 
#    y 0.003830 4.096510 -0.063010 
#    z -0.006630 -0.063010 3.605350 
# 
# 
# High freq. dielectric constant tensor:
#      x y z
#    x 1.791230 0.001970 0.006600 
#    y 0.001970 1.808950 -0.003500 
#    z 0.006600 -0.003500 1.780690 
# 
# From -- ./inp_files/307213.got.cif
#   From: 2010.06.25/outbox.cif.g09.slc.cpg/sg2_154_cif.got.tgz:307213.got - 2010.06.27 13:26:56.
