data_PCOD8038864
_publ_section_title
;
Structure prediction by ZEFSAII (Michael W. Deem and Ramdas Pophale) SiO2 
 PCOD8038864
Probable space group: P -1
;
_chemical_formula_sum "Si O2"
_cell_formula_units_Z 14
_cell_length_a 5.500881
_cell_length_b 11.261323
_cell_length_c 12.125601
_cell_angle_alpha 84.595139
_cell_angle_beta 85.468408
_cell_angle_gamma 72.188365
_cell_volume 710.963853
_symmetry_space_group_name_H-M "P -1"
_symmetry_group_IT_number 2
_symmetry_cell_setting 'triclinic'
loop_
_space_group_symop_operation_xyz
x,y,z
-x,-y,-z
loop_
_atom_site_type_symbol
_atom_site_label
_atom_site_fract_x
_atom_site_fract_y
_atom_site_fract_z
Si Si1 0.433780 0.258773 0.627878
Si Si2 0.198974 0.462136 0.093210
Si Si3 0.662256 0.301159 0.980351
Si Si4 0.879020 0.897054 0.973111
Si Si5 0.948391 0.497020 0.328913
Si Si6 0.464178 0.889455 0.151729
Si Si7 0.085808 0.669036 0.466584
O O1 0.315374 0.389168 0.688321
O O2 0.498437 0.140210 0.717794
O O3 0.700430 0.259171 0.560613
O O4 0.210592 0.244455 0.552791
O O5 0.412034 0.331977 0.064616
O O6 0.067474 0.443559 0.212808
O O7 0.327617 0.572871 0.090972
O O8 0.000000 0.500000 0.000000
O O9 0.906082 0.232823 0.056653
O O10 0.674038 0.203747 0.890247
O O11 0.692170 0.962681 0.872846
O O12 0.734651 0.861046 0.085064
O O13 0.000000 0.000000 0.000000
O O14 0.891545 0.382299 0.404991
O O15 0.143582 0.550051 0.390527
#
# Coordination Sequence:
#
# PCOD8038864 Si02
#       7
#     2   2   2   2   2   2   2
#     4  10  18  31  51  75 102 132 175 219 268 312
#     4  11  21  33  49  78 106 151 172 213 259 326
#     4  10  20  33  48  73 110 138 183 205 263 328
#     4   9  19  32  50  76 102 138 173 221 272 319
#     4   9  19  31  49  70 109 136 181 215 268 309
#     4  10  19  32  53  73 109 136 175 225 269 318
#     4   9  20  32  50  75 103 139 177 225 265 312
#
# _framework density 19.691576000000001
#
# number of rings (size 3 to 8) (size 9 to 14) (size 15 to 20)
#    0.857    1.429    0.000    3.857    4.000    1.143 
#    0.000    0.000    0.000    0.000    0.000    2.000 
#    0.000    0.000    0.000    0.000    0.000    0.000 
#
# Total GULP energy -173451.087894 kJ/mol
# GULP energy per Si atom -12389.363421 kJ/mol
# Density = 1.964676 g / cm^3
# Si number density = 19.691576 Si / 1000 Ang^3
#
#
#
# Elastic Constant Matrix: (Units=GPa)
#
#
# Indices 1 2 3 4 5 6 
#
# 1 104.3687 19.2701 35.6917 -11.7176 -19.2591 -22.5337
# 2 19.2701 56.8846 27.7842 -15.1824 -3.3583 -29.0987
# 3 35.6917 27.7842 127.5037 -26.9401 -11.5436 -15.7214
# 4 -11.7176 -15.1824 -26.9401 30.4308 3.9025 -0.0820
# 5 -19.2591 -3.3583 -11.5436 3.9025 21.5602 -2.7068
# 6 -22.5337 -29.0987 -15.7214 -0.0820 -2.7068 36.8376
#
#
#
# Elastic Compliance Matrix: (Units=1/GPa)
#
#
# Indices 1 2 3 4 5 6 
#
# 1 0.015359 0.004636 -0.001180 0.005353 0.014553 0.013635
# 2 0.004636 0.040376 -0.000473 0.020199 0.010962 0.035378
# 3 -0.001180 -0.000473 0.010869 0.008475 0.003638 0.003829
# 4 0.005353 0.020199 0.008475 0.051793 0.006029 0.023406
# 5 0.014553 0.010962 0.003638 0.006029 0.064946 0.023900
# 6 0.013635 0.035378 0.003829 0.023406 0.023900 0.066874
#
#
# Mechanical properties :
#
#
# Convention : Reuss Voigt Hill
#
# Bulk Modulus (GPa) = 13.78004 50.47211 32.12608
# Shear Modulus (GPa) = 18.62602 31.49980 25.06291
#
# Velocity S-wave (km/s) = 3.07887 4.00391 3.57147
# Velocity P-wave (km/s) = 4.43310 6.86018 5.77557
#
# Compressibility (1/GPa) = 0.07256874
#
# Stress axis : x y z
#
# Youngs Moduli (GPa) = 65.10695 24.76746 92.00892
#
# Poissons Ratio (x) = -0.11482 0.10856
# Poissons Ratio (y) = -0.30184 0.04356
# Poissons Ratio (z) = 0.07682 0.01173
#
# Static dielectric constant tensor:
#      x y z
#    x 3.603470 -0.394800 -0.170540 
#    y -0.394800 3.788900 -0.483380 
#    z -0.170540 -0.483380 3.277290 
# 
# 
# High freq. dielectric constant tensor:
#      x y z
#    x 1.779190 -0.015400 -0.013160 
#    y -0.015400 1.735970 -0.037980 
#    z -0.013160 -0.037980 1.733820 
# 
# From -- ./inp_files/364243.got.cif
#   From: 2010.06.25/outbox.cif.g09.slc.cpg/sg2_183_cif.got.tgz:364243.got - 2010.06.27 13:26:56.
