data_PCOD8038123
_publ_section_title
;
Structure prediction by ZEFSAII (Michael W. Deem and Ramdas Pophale) SiO2 
 PCOD8038123
Probable space group: P -1
;
_chemical_formula_sum "Si O2"
_cell_formula_units_Z 16
_cell_length_a 13.899922
_cell_length_b 15.781078
_cell_length_c 9.548160
_cell_angle_alpha 79.981049
_cell_angle_beta 39.644517
_cell_angle_gamma 110.473402
_cell_volume 839.743432
_symmetry_space_group_name_H-M "P -1"
_symmetry_group_IT_number 2
_symmetry_cell_setting 'triclinic'
loop_
_space_group_symop_operation_xyz
x,y,z
-x,-y,-z
loop_
_atom_site_type_symbol
_atom_site_label
_atom_site_fract_x
_atom_site_fract_y
_atom_site_fract_z
Si Si1 0.759377 0.944851 0.788772
Si Si2 0.107543 0.888144 0.942461
Si Si3 0.668456 0.498340 0.264961
Si Si4 0.646860 0.042003 0.068095
Si Si5 0.432943 0.119250 0.285458
Si Si6 0.846653 0.246735 0.252655
Si Si7 0.450934 0.725891 0.433385
Si Si8 0.396766 0.259390 0.460724
O O1 0.661976 0.910093 0.753903
O O2 0.577983 0.811156 0.125371
O O3 0.000000 0.000000 0.500000
O O4 0.799223 0.058987 0.774678
O O5 0.279141 0.961762 0.862633
O O6 0.065391 0.771482 0.972419
O O7 0.226096 0.994832 0.655178
O O8 0.856975 0.819038 0.284939
O O9 0.500000 0.500000 0.500000
O O10 0.653973 0.416777 0.424019
O O11 0.578482 0.418936 0.239760
O O12 0.937364 0.649888 0.908603
O O13 0.655618 0.150049 0.021961
O O14 0.372911 0.897641 0.385714
O O15 0.512054 0.247247 0.218516
O O16 0.764248 0.304648 0.278018
O O17 0.633459 0.805533 0.338501
#
# Coordination Sequence:
#
# PCOD8038123 Si02
#       8
#     2   2   2   2   2   2   2   2
#     4  11  21  35  54  79 116 150 180 219 275 336
#     4  11  19  33  56  84 116 138 179 232 274 322
#     4  10  20  35  56  84 107 142 187 230 273 317
#     4  10  22  35  55  85 113 145 181 228 275 323
#     4  11  20  33  53  81 113 145 179 218 275 329
#     4  10  17  34  54  82 109 142 179 230 266 324
#     4   9  20  34  54  83 107 143 183 223 274 316
#     4  10  20  33  55  83 113 137 186 227 273 318
#
# _framework density 19.053436999999999
#
# number of rings (size 3 to 8) (size 9 to 14) (size 15 to 20)
#    0.750    1.000    1.250    6.375    0.000    0.000 
#    0.000    0.000    0.000    3.750    6.500    0.000 
#    0.000    0.000    0.000    0.000    0.000    0.000 
#
# Total GULP energy -198250.109498 kJ/mol
# GULP energy per Si atom -12390.631844 kJ/mol
# Density = 1.901007 g / cm^3
# Si number density = 19.053437 Si / 1000 Ang^3
#
#
#
# Elastic Constant Matrix: (Units=GPa)
#
#
# Indices 1 2 3 4 5 6 
#
# 1 101.0972 42.7747 36.2543 16.2410 -10.3004 7.5254
# 2 42.7747 142.9688 44.1393 30.7429 -14.9873 -6.5301
# 3 36.2543 44.1393 61.9535 14.5769 -20.9568 4.0275
# 4 16.2410 30.7429 14.5769 32.5505 -1.3219 -8.4741
# 5 -10.3004 -14.9873 -20.9568 -1.3219 36.1271 11.5441
# 6 7.5254 -6.5301 4.0275 -8.4741 11.5441 39.4805
#
#
#
# Elastic Compliance Matrix: (Units=1/GPa)
#
#
# Indices 1 2 3 4 5 6 
#
# 1 0.013413 -0.001663 -0.005244 -0.003610 0.001039 -0.003375
# 2 -0.001663 0.010518 -0.004834 -0.006667 0.000534 0.000963
# 3 -0.005244 -0.004834 0.031277 -0.008712 0.017513 -0.009981
# 4 -0.003610 -0.006667 -0.008712 0.045814 -0.011545 0.013683
# 5 0.001039 0.000534 0.017513 -0.011545 0.043386 -0.017060
# 6 -0.003375 0.000963 -0.009981 0.013683 -0.017060 0.035075
#
#
# Mechanical properties :
#
#
# Convention : Reuss Voigt Hill
#
# Bulk Modulus (GPa) = 31.52024 61.37291 46.44658
# Shear Modulus (GPa) = 23.41486 33.82168 28.61827
#
# Velocity S-wave (km/s) = 3.50938 4.21776 3.87977
# Velocity P-wave (km/s) = 5.74456 7.48333 6.67084
#
# Compressibility (1/GPa) = 0.03172564
#
# Stress axis : x y z
#
# Youngs Moduli (GPa) = 74.55696 95.07486 31.97274
#
# Poissons Ratio (x) = 0.15811 0.16766
# Poissons Ratio (y) = 0.12399 0.15455
# Poissons Ratio (z) = 0.39097 0.45958
#
# Static dielectric constant tensor:
#      x y z
#    x 3.537100 -0.222880 -0.329700 
#    y -0.222880 3.906100 0.304000 
#    z -0.329700 0.304000 3.239280 
# 
# 
# High freq. dielectric constant tensor:
#      x y z
#    x 1.741250 -0.011470 -0.033630 
#    y -0.011470 1.755390 0.023170 
#    z -0.033630 0.023170 1.694530 
# 
# From -- ./inp_files/317677.got.cif
#   From: 2010.06.25/outbox.cif.g09.slc.cpg/sg2_159_cif.got.tgz:317677.got - 2010.06.27 13:26:56.
