data_PCOD8038715
_publ_section_title
;
Structure prediction by ZEFSAII (Michael W. Deem and Ramdas Pophale) SiO2 
 PCOD8038715
Probable space group: P -1
;
_chemical_formula_sum "Si O2"
_cell_formula_units_Z 10
_cell_length_a 11.153157
_cell_length_b 8.576369
_cell_length_c 11.977475
_cell_angle_alpha 60.262360
_cell_angle_beta 135.584878
_cell_angle_gamma 146.056864
_cell_volume 433.830860
_symmetry_space_group_name_H-M "P -1"
_symmetry_group_IT_number 2
_symmetry_cell_setting 'triclinic'
loop_
_space_group_symop_operation_xyz
x,y,z
-x,-y,-z
loop_
_atom_site_type_symbol
_atom_site_label
_atom_site_fract_x
_atom_site_fract_y
_atom_site_fract_z
Si Si1 0.327926 0.147389 0.432760
Si Si2 0.598648 0.124379 0.788291
Si Si3 0.099634 0.236877 0.404295
Si Si4 0.825272 0.315238 0.097177
Si Si5 0.081176 0.868626 0.138193
O O1 0.351372 0.026473 0.596443
O O2 0.177456 0.206564 0.348756
O O3 0.630259 0.442236 0.481216
O O4 0.155884 0.917718 0.300510
O O5 0.656840 0.982379 0.814793
O O6 0.876822 0.473588 0.842157
O O7 0.570517 0.070356 0.925544
O O8 0.845677 0.169794 0.252036
O O9 0.000000 0.000000 0.500000
O O10 0.826644 0.518652 0.076989
O O11 0.000000 0.000000 0.000000
#
# Coordination Sequence:
#
# PCOD8038715 Si02
#       5
#     2   2   2   2   2
#     4  10  20  34  60  81 104 144 184 216 272 317
#     4   8  16  31  53  82 106 137 181 217 262 324
#     4  10  21  36  56  80 111 142 179 222 267 322
#     4   8  17  32  52  79 111 138 177 219 266 319
#     4  10  18  29  56  84 109 139 179 225 266 314
#
# _framework density 23.050457999999999
#
# number of rings (size 3 to 8) (size 9 to 14) (size 15 to 20)
#    1.200    1.600    0.000    1.800    5.600    0.000 
#    0.000    2.000    0.000    2.400    0.000    0.000 
#    0.000    0.000    0.000    0.000    0.000    0.000 
#
# Total GULP energy -123886.769780 kJ/mol
# GULP energy per Si atom -12388.676978 kJ/mol
# Density = 2.299799 g / cm^3
# Si number density = 23.050458 Si / 1000 Ang^3
#
#
#
# Elastic Constant Matrix: (Units=GPa)
#
#
# Indices 1 2 3 4 5 6 
#
# 1 64.5773 36.8000 58.6609 -1.6538 -0.6320 -36.2480
# 2 36.8000 86.0359 70.5661 -16.1486 2.9843 -27.1982
# 3 58.6609 70.5661 191.4285 -20.6822 -11.5576 -33.1839
# 4 -1.6538 -16.1486 -20.6822 46.3306 -10.1485 2.4812
# 5 -0.6320 2.9843 -11.5576 -10.1485 51.2799 -2.4060
# 6 -36.2480 -27.1982 -33.1839 2.4812 -2.4060 43.4051
#
#
#
# Elastic Compliance Matrix: (Units=1/GPa)
#
#
# Indices 1 2 3 4 5 6 
#
# 1 0.036256 -0.003866 -0.006099 -0.004121 -0.000420 0.023405
# 2 -0.003866 0.019628 -0.004809 0.004012 -0.001241 0.005096
# 3 -0.006099 -0.004809 0.009148 0.002859 0.002779 -0.001122
# 4 -0.004121 0.004012 0.002859 0.025281 0.005368 0.000110
# 5 -0.000420 -0.001241 0.002779 0.005368 0.021345 0.001873
# 6 0.023405 0.005096 -0.001122 0.000110 0.001873 0.045018
#
#
# Mechanical properties :
#
#
# Convention : Reuss Voigt Hill
#
# Bulk Modulus (GPa) = 28.18070 74.89954 51.54012
# Shear Modulus (GPa) = 25.24622 39.93744 32.59183
#
# Velocity S-wave (km/s) = 3.31306 4.16698 3.76431
# Velocity P-wave (km/s) = 5.18530 7.46431 6.42663
#
# Compressibility (1/GPa) = 0.03548528
#
# Stress axis : x y z
#
# Youngs Moduli (GPa) = 27.58162 50.94820 109.31940
#
# Poissons Ratio (x) = 0.19695 0.66669
# Poissons Ratio (y) = 0.10662 0.52570
# Poissons Ratio (z) = 0.16821 0.24500
#
# Static dielectric constant tensor:
#      x y z
#    x 4.377730 0.016770 0.249490 
#    y 0.016770 3.942050 -0.148790 
#    z 0.249490 -0.148790 4.435070 
# 
# 
# High freq. dielectric constant tensor:
#      x y z
#    x 1.911360 0.000850 0.007620 
#    y 0.000850 1.889450 -0.012570 
#    z 0.007620 -0.012570 1.923370 
# 
# From -- ./inp_files/148350.got.cif
#   From: 2010.06.25/outbox.cif.g09.slc.cpg/sg2_75_cif.got.tgz:148350.got - 2010.06.27 13:26:56.
