data_PCOD8038927
_publ_section_title
;
Structure prediction by ZEFSAII (Michael W. Deem and Ramdas Pophale) SiO2 
 PCOD8038927
Probable space group: P -1
;
_chemical_formula_sum "Si O2"
_cell_formula_units_Z 14
_cell_length_a 8.754591
_cell_length_b 11.709336
_cell_length_c 19.130222
_cell_angle_alpha 142.324746
_cell_angle_beta 33.948801
_cell_angle_gamma 140.819390
_cell_volume 627.639528
_symmetry_space_group_name_H-M "P -1"
_symmetry_group_IT_number 2
_symmetry_cell_setting 'triclinic'
loop_
_space_group_symop_operation_xyz
x,y,z
-x,-y,-z
loop_
_atom_site_type_symbol
_atom_site_label
_atom_site_fract_x
_atom_site_fract_y
_atom_site_fract_z
Si Si1 0.820279 0.135260 0.157101
Si Si2 0.708055 0.192287 0.975152
Si Si3 0.689274 0.215605 0.611326
Si Si4 0.945727 0.053227 0.317767
Si Si5 0.068947 0.382164 0.058825
Si Si6 0.780301 0.657720 0.771634
Si Si7 0.605807 0.231777 0.804223
O O1 0.817842 0.273780 0.158989
O O2 0.965078 0.272763 0.234480
O O3 0.496837 0.989147 0.230073
O O4 0.000000 0.000000 0.000000
O O5 0.503334 0.299408 0.067921
O O6 0.923735 0.352173 0.023662
O O7 0.500000 0.000000 0.000000
O O8 0.898529 0.111628 0.810563
O O9 0.922836 0.145998 0.446758
O O10 0.692501 0.423721 0.678336
O O11 0.781181 0.236645 0.668149
O O12 0.371057 0.049903 0.645514
O O13 0.126735 0.229026 0.281916
O O14 0.190617 0.616220 0.143464
O O15 0.326749 0.291844 0.918507
#
# Coordination Sequence:
#
# PCOD8038927 Si02
#       7
#     2   2   2   2   2   2   2
#     4  10  18  31  55  82 110 142 184 234 280 319
#     4  10  20  38  58  85 119 145 185 234 287 333
#     4  11  20  35  57  86 114 150 186 234 277 332
#     4  10  21  36  53  83 122 148 184 230 282 335
#     4  10  19  34  53  83 111 143 186 237 275 323
#     4  11  21  36  58  88 113 146 189 233 283 333
#     4  10  18  32  54  81 111 139 194 231 271 325
#
# _framework density 22.305800000000001
#
# number of rings (size 3 to 8) (size 9 to 14) (size 15 to 20)
#    0.000    1.714    4.286    3.000    0.000    0.571 
#    0.000    1.429    0.000    3.429    7.429   18.000 
#    0.000    0.000    0.000    0.000    0.000    0.000 
#
# Total GULP energy -173578.683056 kJ/mol
# GULP energy per Si atom -12398.477361 kJ/mol
# Density = 2.225503 g / cm^3
# Si number density = 22.305800 Si / 1000 Ang^3
#
#
#
# Elastic Constant Matrix: (Units=GPa)
#
#
# Indices 1 2 3 4 5 6 
#
# 1 41.0827 32.5708 31.7478 8.7106 7.9898 5.2146
# 2 32.5708 110.6361 43.9790 6.7680 8.0477 0.7471
# 3 31.7478 43.9790 156.2330 0.9577 13.1945 -3.3170
# 4 8.7106 6.7680 0.9577 27.8629 0.1708 9.1859
# 5 7.9898 8.0477 13.1945 0.1708 28.1847 1.9042
# 6 5.2146 0.7471 -3.3170 9.1859 1.9042 23.4281
#
#
#
# Elastic Compliance Matrix: (Units=1/GPa)
#
#
# Indices 1 2 3 4 5 6 
#
# 1 0.038324 -0.008347 -0.005021 -0.007971 -0.005718 -0.005385
# 2 -0.008347 0.012232 -0.001671 -0.000826 -0.000447 0.001592
# 3 -0.005021 -0.001671 0.008101 0.001023 -0.002039 0.002082
# 4 -0.007971 -0.000826 0.001023 0.043600 0.002791 -0.015376
# 5 -0.005718 -0.000447 -0.002039 0.002791 0.038384 -0.003216
# 6 -0.005385 0.001592 0.002082 -0.015376 -0.003216 0.050417
#
#
# Mechanical properties :
#
#
# Convention : Reuss Voigt Hill
#
# Bulk Modulus (GPa) = 34.98758 58.28299 46.63529
# Shear Modulus (GPa) = 21.67681 29.20542 25.44112
#
# Velocity S-wave (km/s) = 3.12076 3.62238 3.38088
# Velocity P-wave (km/s) = 5.35770 6.60918 6.01607
#
# Compressibility (1/GPa) = 0.02858157
#
# Stress axis : x y z
#
# Youngs Moduli (GPa) = 26.09332 81.75081 123.43576
#
# Poissons Ratio (x) = 0.68235 0.61973
# Poissons Ratio (y) = 0.21779 0.20621
# Poissons Ratio (z) = 0.13101 0.13657
#
# Static dielectric constant tensor:
#      x y z
#    x 3.688590 0.010730 0.165670 
#    y 0.010730 4.503090 -0.117790 
#    z 0.165670 -0.117790 4.194620 
# 
# 
# High freq. dielectric constant tensor:
#      x y z
#    x 1.841060 0.004340 0.031060 
#    y 0.004340 1.901060 -0.000300 
#    z 0.031060 -0.000300 1.857940 
# 
# From -- ./inp_files/257839.got.cif
#   From: 2010.06.25/outbox.cif.g09.slc.cpg/sg2_129_cif.got.tgz:257839.got - 2010.06.27 13:26:56.
