data_PCOD8038173
_publ_section_title
;
Structure prediction by ZEFSAII (Michael W. Deem and Ramdas Pophale) SiO2 
 PCOD8038173
Probable space group: P -1
;
_chemical_formula_sum "Si O2"
_cell_formula_units_Z 16
_cell_length_a 17.589420
_cell_length_b 9.582445
_cell_length_c 11.494287
_cell_angle_alpha 50.705880
_cell_angle_beta 119.716247
_cell_angle_gamma 78.042746
_cell_volume 822.408007
_symmetry_space_group_name_H-M "P -1"
_symmetry_group_IT_number 2
_symmetry_cell_setting 'triclinic'
loop_
_space_group_symop_operation_xyz
x,y,z
-x,-y,-z
loop_
_atom_site_type_symbol
_atom_site_label
_atom_site_fract_x
_atom_site_fract_y
_atom_site_fract_z
Si Si1 0.186423 0.316526 0.766974
Si Si2 0.952845 0.563509 0.624500
Si Si3 0.352835 0.226777 0.419059
Si Si4 0.454570 0.314932 0.271705
Si Si5 0.468946 0.749846 0.390043
Si Si6 0.169064 0.881051 0.722355
Si Si7 0.052681 0.894529 0.408859
Si Si8 0.045817 0.604590 0.048070
O O1 0.172464 0.264960 0.652441
O O2 0.136986 0.601614 0.564916
O O3 0.094077 0.353851 0.769676
O O4 0.342007 0.041772 0.071936
O O5 0.972373 0.380604 0.834136
O O6 0.912097 0.806942 0.537095
O O7 0.360169 0.294505 0.256529
O O8 0.406261 0.301922 0.506975
O O9 0.205227 0.390087 0.256208
O O10 0.457231 0.885642 0.669129
O O11 0.553346 0.229655 0.497064
O O12 0.335025 0.651858 0.972736
O O13 0.500000 0.500000 0.500000
O O14 0.136286 0.789822 0.646290
O O15 0.105857 0.912232 0.782096
O O16 0.050006 0.074317 0.230692
O O17 0.000000 0.500000 0.000000
#
# Coordination Sequence:
#
# PCOD8038173 Si02
#       8
#     2   2   2   2   2   2   2   2
#     4  10  22  39  60  90 112 156 203 243 293 351
#     4  10  23  37  61  86 124 149 199 250 290 360
#     4   9  21  34  57  89 116 155 194 245 287 354
#     4   9  18  33  60  84 118 150 199 246 279 346
#     4  10  19  35  63  89 117 150 199 246 290 348
#     4  10  17  34  57  88 111 154 198 244 283 340
#     4  10  20  32  59  83 117 151 198 243 291 348
#     4  12  23  39  59  89 123 158 196 248 311 341
#
# _framework density 19.455064
#
# number of rings (size 3 to 8) (size 9 to 14) (size 15 to 20)
#    0.750    1.250    2.500    1.500    1.750    1.500 
#    0.000    1.250    0.000    0.000    0.000    0.000 
#    0.000    0.000    0.000    0.000    0.000    0.000 
#
# Total GULP energy -198224.989973 kJ/mol
# GULP energy per Si atom -12389.061873 kJ/mol
# Density = 1.941078 g / cm^3
# Si number density = 19.455064 Si / 1000 Ang^3
#
#
#
# Elastic Constant Matrix: (Units=GPa)
#
#
# Indices 1 2 3 4 5 6 
#
# 1 85.4604 38.2330 47.5622 3.2919 -6.4095 6.3233
# 2 38.2330 95.3700 32.1709 -1.9326 5.5691 13.1956
# 3 47.5622 32.1709 104.9668 2.4862 1.0153 5.9869
# 4 3.2919 -1.9326 2.4862 31.6791 4.7155 -1.0362
# 5 -6.4095 5.5691 1.0153 4.7155 30.2692 7.6872
# 6 6.3233 13.1956 5.9869 -1.0362 7.6872 24.5901
#
#
#
# Elastic Compliance Matrix: (Units=1/GPa)
#
#
# Indices 1 2 3 4 5 6 
#
# 1 0.018477 -0.005262 -0.006621 -0.002709 0.006120 -0.002343
# 2 -0.005262 0.014016 -0.001651 0.001772 -0.002681 -0.004853
# 3 -0.006621 -0.001651 0.013060 -0.000224 -0.001465 -0.000143
# 4 -0.002709 0.001772 -0.000224 0.033111 -0.006902 0.003353
# 5 0.006120 -0.002681 -0.001465 -0.006902 0.039070 -0.012283
# 6 -0.002343 -0.004853 -0.000143 0.003353 -0.012283 0.047890
#
#
# Mechanical properties :
#
#
# Convention : Reuss Voigt Hill
#
# Bulk Modulus (GPa) = 54.09433 57.96992 56.03213
# Shear Modulus (GPa) = 25.14434 28.49641 26.82038
#
# Velocity S-wave (km/s) = 3.59894 3.83133 3.71695
# Velocity P-wave (km/s) = 6.71826 7.03091 6.87636
#
# Compressibility (1/GPa) = 0.01848623
#
# Stress axis : x y z
#
# Youngs Moduli (GPa) = 54.12174 71.34855 76.56759
#
# Poissons Ratio (x) = 0.37543 0.50694
# Poissons Ratio (y) = 0.28478 0.12638
# Poissons Ratio (z) = 0.35833 0.11777
#
# Static dielectric constant tensor:
#      x y z
#    x 3.234910 0.134640 -0.015240 
#    y 0.134640 3.528150 -0.067450 
#    z -0.015240 -0.067450 3.549940 
# 
# 
# High freq. dielectric constant tensor:
#      x y z
#    x 1.713370 0.015170 0.001070 
#    y 0.015170 1.757270 -0.003650 
#    z 0.001070 -0.003650 1.762900 
# 
# From -- ./inp_files/461911.got.cif
#   From: 2010.06.25/outbox.cif.g09.slc.cpg/sg2_231_cif.got.tgz:461911.got - 2010.06.27 13:26:56.
