data_PCOD8038451
_publ_section_title
;
Structure prediction by ZEFSAII (Michael W. Deem and Ramdas Pophale) SiO2 
 PCOD8038451
Probable space group: P -1
;
_chemical_formula_sum "Si O2"
_cell_formula_units_Z 16
_cell_length_a 15.448523
_cell_length_b 9.705407
_cell_length_c 9.276441
_cell_angle_alpha 110.519082
_cell_angle_beta 67.177146
_cell_angle_gamma 142.949925
_cell_volume 770.297092
_symmetry_space_group_name_H-M "P -1"
_symmetry_group_IT_number 2
_symmetry_cell_setting 'triclinic'
loop_
_space_group_symop_operation_xyz
x,y,z
-x,-y,-z
loop_
_atom_site_type_symbol
_atom_site_label
_atom_site_fract_x
_atom_site_fract_y
_atom_site_fract_z
Si Si1 0.816612 0.941546 0.782489
Si Si2 0.457829 0.246500 0.530723
Si Si3 0.338820 0.564620 0.289891
Si Si4 0.164743 0.849797 0.435819
Si Si5 0.920947 0.572687 0.715827
Si Si6 0.539765 0.703789 0.984077
Si Si7 0.371240 0.449996 0.731841
Si Si8 0.066274 0.208904 0.941789
O O1 0.836306 0.022095 0.635820
O O2 0.970791 0.126256 0.831772
O O3 0.736805 0.686715 0.735186
O O4 0.715914 0.930392 0.941687
O O5 0.554840 0.264334 0.583000
O O6 0.374112 0.276139 0.683534
O O7 0.584644 0.462052 0.426366
O O8 0.329587 0.007386 0.440533
O O9 0.211924 0.529669 0.335298
O O10 0.451590 0.716173 0.138567
O O11 0.093473 0.619709 0.327185
O O12 0.069683 0.790278 0.612981
O O13 0.919215 0.636117 0.901798
O O14 0.500000 0.500000 0.000000
O O15 0.491781 0.664024 0.835826
O O16 0.218889 0.339353 0.829274
O O17 0.000000 0.000000 0.000000
#
# Coordination Sequence:
#
# PCOD8038451 Si02
#       8
#     2   2   2   2   2   2   2   2
#     4  11  22  39  66  97 122 165 209 257 317 367
#     4  11  22  38  64  90 130 164 201 253 320 365
#     4  11  22  38  67  96 122 159 214 263 300 370
#     4  11  26  45  61  88 134 173 202 251 323 378
#     4  11  26  45  62  91 131 165 209 261 310 379
#     4  10  17  36  58  93 127 151 200 267 309 349
#     4  11  20  37  59  99 126 154 206 272 299 359
#     4  12  23  39  67  96 124 162 214 262 312 361
#
# _framework density 20.771207
#
# number of rings (size 3 to 8) (size 9 to 14) (size 15 to 20)
#    0.000    1.000    6.250    2.250    3.500    1.500 
#    0.000    2.500    0.000    0.000    0.000    0.000 
#    0.000    0.000    0.000    0.000    0.000    0.000 
#
# Total GULP energy -198280.013176 kJ/mol
# GULP energy per Si atom -12392.500824 kJ/mol
# Density = 2.072393 g / cm^3
# Si number density = 20.771207 Si / 1000 Ang^3
#
#
#
# Elastic Constant Matrix: (Units=GPa)
#
#
# Indices 1 2 3 4 5 6 
#
# 1 81.3059 21.7812 28.7545 -2.2164 5.2936 21.8518
# 2 21.7812 45.8794 23.8976 -8.0454 -7.3926 10.4768
# 3 28.7545 23.8976 89.5698 -6.8740 1.0453 9.1154
# 4 -2.2164 -8.0454 -6.8740 30.3248 13.6796 0.8923
# 5 5.2936 -7.3926 1.0453 13.6796 41.2881 -1.6133
# 6 21.8518 10.4768 9.1154 0.8923 -1.6133 30.0885
#
#
#
# Elastic Compliance Matrix: (Units=1/GPa)
#
#
# Indices 1 2 3 4 5 6 
#
# 1 0.017858 -0.004768 -0.003231 0.001395 -0.003937 -0.010583
# 2 -0.004768 0.029592 -0.005563 0.004408 0.004393 -0.005051
# 3 -0.003231 -0.005563 0.013881 0.002186 -0.001660 -0.000076
# 4 0.001395 0.004408 0.002186 0.040838 -0.013176 -0.005128
# 5 -0.003937 0.004393 -0.001660 -0.013176 0.030069 0.003836
# 6 -0.010583 -0.005051 -0.000076 -0.005128 0.003836 0.043060
#
#
# Mechanical properties :
#
#
# Convention : Reuss Voigt Hill
#
# Bulk Modulus (GPa) = 29.23480 40.62462 34.92971
# Shear Modulus (GPa) = 23.38370 29.82841 26.60605
#
# Velocity S-wave (km/s) = 3.35890 3.79363 3.58286
# Velocity P-wave (km/s) = 5.39890 6.22812 5.82828
#
# Compressibility (1/GPa) = 0.03420581
#
# Stress axis : x y z
#
# Youngs Moduli (GPa) = 55.99805 33.79275 72.04216
#
# Poissons Ratio (x) = 0.16113 0.23274
# Poissons Ratio (y) = 0.26702 0.40080
# Poissons Ratio (z) = 0.18091 0.18800
#
# Static dielectric constant tensor:
#      x y z
#    x 3.638110 0.201970 0.174730 
#    y 0.201970 3.507260 -0.037150 
#    z 0.174730 -0.037150 3.999040 
# 
# 
# High freq. dielectric constant tensor:
#      x y z
#    x 1.811410 0.031450 0.005650 
#    y 0.031450 1.789160 -0.016370 
#    z 0.005650 -0.016370 1.821420 
# 
# From -- ./inp_files/298770.got.cif
#   From: 2010.06.25/outbox.cif.g09.slc.cpg/sg2_150_cif.got.tgz:298770.got - 2010.06.27 13:26:56.
