data_PCOD8038228
_publ_section_title
;
Structure prediction by ZEFSAII (Michael W. Deem and Ramdas Pophale) SiO2 
 PCOD8038228
Probable space group: P -1
;
_chemical_formula_sum "Si O2"
_cell_formula_units_Z 16
_cell_length_a 17.387980
_cell_length_b 11.287021
_cell_length_c 22.695262
_cell_angle_alpha 157.837749
_cell_angle_beta 150.435077
_cell_angle_gamma 40.126441
_cell_volume 808.770091
_symmetry_space_group_name_H-M "P -1"
_symmetry_group_IT_number 2
_symmetry_cell_setting 'triclinic'
loop_
_space_group_symop_operation_xyz
x,y,z
-x,-y,-z
loop_
_atom_site_type_symbol
_atom_site_label
_atom_site_fract_x
_atom_site_fract_y
_atom_site_fract_z
Si Si1 0.150260 0.503349 0.427930
Si Si2 0.387086 0.174316 0.044304
Si Si3 0.322448 0.184857 0.815332
Si Si4 0.519405 0.619189 0.247292
Si Si5 0.422377 0.145563 0.193947
Si Si6 0.803399 0.233895 0.042639
Si Si7 0.843953 0.422583 0.399212
Si Si8 0.602487 0.805526 0.612697
O O1 0.113872 0.460252 0.452795
O O2 0.297830 0.340592 0.437146
O O3 0.994435 0.304809 0.198784
O O4 0.189280 0.879917 0.609490
O O5 0.427191 0.534398 0.209968
O O6 0.418355 0.180815 0.137171
O O7 0.500000 0.000000 0.000000
O O8 0.209509 0.967358 0.818459
O O9 0.242495 0.419697 0.831007
O O10 0.444274 0.056054 0.793841
O O11 0.421440 0.371327 0.020987
O O12 0.703988 0.586954 0.355695
O O13 0.509763 0.981496 0.393283
O O14 0.479895 0.507307 0.425009
O O15 0.256388 0.956086 0.024066
O O16 0.726655 0.007938 0.834184
O O17 0.000000 0.500000 0.500000
#
# Coordination Sequence:
#
# PCOD8038228 Si02
#       8
#     2   2   2   2   2   2   2   2
#     4  11  22  38  60  88 115 161 191 230 301 339
#     4  10  17  34  60  82 116 145 191 238 274 350
#     4  10  19  37  61  86 111 154 201 239 277 346
#     4  10  19  38  62  88 112 153 198 232 283 345
#     4  11  20  36  59  88 114 155 191 237 301 330
#     4  11  23  37  57  86 122 147 198 245 285 334
#     4  11  21  35  60  92 124 141 184 253 295 336
#     4  10  23  39  61  82 118 160 195 232 277 359
#
# _framework density 19.783125999999999
#
# number of rings (size 3 to 8) (size 9 to 14) (size 15 to 20)
#    0.000    1.500    3.750    4.500    0.000    2.000 
#    0.000    1.250    2.750    3.000    0.000    0.000 
#    0.000    0.000    0.000    0.000    0.000    0.000 
#
# Total GULP energy -198288.062806 kJ/mol
# GULP energy per Si atom -12393.003925 kJ/mol
# Density = 1.973810 g / cm^3
# Si number density = 19.783126 Si / 1000 Ang^3
#
#
#
# Elastic Constant Matrix: (Units=GPa)
#
#
# Indices 1 2 3 4 5 6 
#
# 1 91.8419 33.2365 38.9881 7.9268 21.3571 4.4079
# 2 33.2365 98.7808 49.9570 11.2863 12.9484 0.9669
# 3 38.9881 49.9570 115.0674 6.1167 18.7932 -3.7403
# 4 7.9268 11.2863 6.1167 34.0776 -1.7783 -0.4786
# 5 21.3571 12.9484 18.7932 -1.7783 34.9333 -5.6325
# 6 4.4079 0.9669 -3.7403 -0.4786 -5.6325 19.9920
#
#
#
# Elastic Compliance Matrix: (Units=1/GPa)
#
#
# Indices 1 2 3 4 5 6 
#
# 1 0.015385 -0.002226 -0.002971 -0.002819 -0.008125 -0.006197
# 2 -0.002226 0.013970 -0.004925 -0.003331 -0.001601 -0.001637
# 3 -0.002971 -0.004925 0.012340 0.000007 -0.002598 0.002470
# 4 -0.002819 -0.003331 0.000007 0.031407 0.005030 0.002953
# 5 -0.008125 -0.001601 -0.002598 0.005030 0.037800 0.012153
# 6 -0.006197 -0.001637 0.002470 0.002953 0.012153 0.055422
#
#
# Mechanical properties :
#
#
# Convention : Reuss Voigt Hill
#
# Bulk Modulus (GPa) = 46.62057 61.11701 53.86879
# Shear Modulus (GPa) = 25.81052 30.03448 27.92250
#
# Velocity S-wave (km/s) = 3.61595 3.90062 3.76098
# Velocity P-wave (km/s) = 6.40706 7.15870 6.79328
#
# Compressibility (1/GPa) = 0.02144976
#
# Stress axis : x y z
#
# Youngs Moduli (GPa) = 64.99672 71.58203 81.03814
#
# Poissons Ratio (x) = 0.15936 0.24076
# Poissons Ratio (y) = 0.14470 0.39915
# Poissons Ratio (z) = 0.19310 0.35258
#
# Static dielectric constant tensor:
#      x y z
#    x 3.547680 0.202710 0.182180 
#    y 0.202710 3.741570 0.230450 
#    z 0.182180 0.230450 3.996790 
# 
# 
# High freq. dielectric constant tensor:
#      x y z
#    x 1.763380 0.013000 0.003460 
#    y 0.013000 1.753970 0.002530 
#    z 0.003460 0.002530 1.787690 
# 
# From -- ./inp_files/204089.got.cif
#   From: 2010.06.25/outbox.cif.g09.slc.cpg/sg2_103_cif.got.tgz:204089.got - 2010.06.27 13:26:56.
