data_PCOD8038308
_publ_section_title
;
Structure prediction by ZEFSAII (Michael W. Deem and Ramdas Pophale) SiO2 
 PCOD8038308
Probable space group: P -1
;
_chemical_formula_sum "Si O2"
_cell_formula_units_Z 16
_cell_length_a 11.506963
_cell_length_b 13.518889
_cell_length_c 14.259251
_cell_angle_alpha 32.167783
_cell_angle_beta 132.827528
_cell_angle_gamma 147.029114
_cell_volume 639.155815
_symmetry_space_group_name_H-M "P -1"
_symmetry_group_IT_number 2
_symmetry_cell_setting 'triclinic'
loop_
_space_group_symop_operation_xyz
x,y,z
-x,-y,-z
loop_
_atom_site_type_symbol
_atom_site_label
_atom_site_fract_x
_atom_site_fract_y
_atom_site_fract_z
Si Si1 0.342226 0.763648 0.322267
Si Si2 0.411754 0.949075 0.595992
Si Si3 0.169973 0.626832 0.072524
Si Si4 0.333990 0.473980 0.994857
Si Si5 0.154737 0.926194 0.965531
Si Si6 0.660414 0.758042 0.435324
Si Si7 0.544694 0.441164 0.794302
Si Si8 0.962340 0.739434 0.536531
O O1 0.227228 0.858711 0.148440
O O2 0.564552 0.892961 0.279047
O O3 0.180371 0.460725 0.465536
O O4 0.401221 0.825170 0.415004
O O5 0.330803 0.690450 0.800408
O O6 0.212936 0.935652 0.491230
O O7 0.500000 0.000000 0.500000
O O8 0.205857 0.859748 0.949087
O O9 0.383947 0.708531 0.080579
O O10 0.076098 0.418147 0.267774
O O11 0.000000 0.500000 0.000000
O O12 0.093767 0.211416 0.053722
O O13 0.500000 0.500000 0.000000
O O14 0.402675 0.481658 0.131337
O O15 0.287978 0.224315 0.806726
O O16 0.500000 0.500000 0.500000
O O17 0.660289 0.694649 0.595481
O O18 0.890101 0.896814 0.398655
#
# Coordination Sequence:
#
# PCOD8038308 Si02
#       8
#     2   2   2   2   2   2   2   2
#     4  10  21  42  69  92 134 170 209 270 333 390
#     4  12  25  44  69  94 126 182 234 266 324 395
#     4  10  17  34  65  96 130 162 204 263 330 398
#     4  12  27  48  65  95 137 169 235 287 319 386
#     4  11  22  43  69  96 129 178 213 273 335 399
#     4   9  21  42  65 105 140 165 206 275 330 405
#     4  11  22  42  70  99 132 174 217 268 342 399
#     4   9  20  42  62  94 137 165 209 267 328 389
#
# _framework density 25.033018999999999
#
# number of rings (size 3 to 8) (size 9 to 14) (size 15 to 20)
#    0.000    1.500    5.000    1.125    1.750    1.500 
#    4.500    0.000    0.000    0.000    0.000    0.000 
#    0.000    0.000    0.000    0.000    0.000    0.000 
#
# Total GULP energy -198322.665833 kJ/mol
# GULP energy per Si atom -12395.166615 kJ/mol
# Density = 2.497604 g / cm^3
# Si number density = 25.033019 Si / 1000 Ang^3
#
#
#
# Elastic Constant Matrix: (Units=GPa)
#
#
# Indices 1 2 3 4 5 6 
#
# 1 150.9755 64.2600 18.1110 24.9149 -17.3116 16.8752
# 2 64.2600 161.6908 12.7293 27.8491 -19.3166 4.7099
# 3 18.1110 12.7293 22.5424 11.3505 -0.3590 -5.2667
# 4 24.9149 27.8491 11.3505 23.4805 -5.0602 -10.5087
# 5 -17.3116 -19.3166 -0.3590 -5.0602 40.4309 10.8069
# 6 16.8752 4.7099 -5.2667 -10.5087 10.8069 41.7617
#
#
#
# Elastic Compliance Matrix: (Units=1/GPa)
#
#
# Indices 1 2 3 4 5 6 
#
# 1 0.011154 -0.001294 -0.004755 -0.010940 0.005165 -0.009050
# 2 -0.001294 0.009022 0.000374 -0.010547 0.003512 -0.004011
# 3 -0.004755 0.000374 0.061086 -0.023893 -0.005650 0.005033
# 4 -0.010940 -0.010547 -0.023893 0.088835 -0.005894 0.026476
# 5 0.005165 0.003512 -0.005650 -0.005894 0.031247 -0.012765
# 6 -0.009050 -0.004011 0.005033 0.026476 -0.012765 0.038655
#
#
# Mechanical properties :
#
#
# Convention : Reuss Voigt Hill
#
# Bulk Modulus (GPa) = 14.30325 58.37882 36.34104
# Shear Modulus (GPa) = 18.20486 37.14185 27.67336
#
# Velocity S-wave (km/s) = 2.69965 3.85608 3.32847
# Velocity P-wave (km/s) = 3.92984 6.57245 5.41483
#
# Compressibility (1/GPa) = 0.06991417
#
# Stress axis : x y z
#
# Youngs Moduli (GPa) = 89.65596 110.83684 16.37041
#
# Poissons Ratio (x) = 0.14337 0.07783
# Poissons Ratio (y) = 0.11597 -0.00613
# Poissons Ratio (z) = 0.42627 -0.04147
#
# Static dielectric constant tensor:
#      x y z
#    x 4.658140 0.258390 0.445260 
#    y 0.258390 4.974540 0.748810 
#    z 0.445260 0.748810 4.937860 
# 
# 
# High freq. dielectric constant tensor:
#      x y z
#    x 1.982120 -0.001380 0.009770 
#    y -0.001380 2.009350 0.024290 
#    z 0.009770 0.024290 1.992510 
# 
# From -- ./inp_files/521473.got.cif
#   From: 2010.06.25/outbox.cif.g09.slc.cpg/sg2_261_cif.got.tgz:521473.got - 2010.06.27 13:26:56.
