data_PCOD8038840
_publ_section_title
;
Structure prediction by ZEFSAII (Michael W. Deem and Ramdas Pophale) SiO2 
 PCOD8038840
Probable space group: P -1
;
_chemical_formula_sum "Si O2"
_cell_formula_units_Z 16
_cell_length_a 11.955616
_cell_length_b 11.284968
_cell_length_c 11.091107
_cell_angle_alpha 141.221983
_cell_angle_beta 115.387396
_cell_angle_gamma 74.126724
_cell_volume 841.805547
_symmetry_space_group_name_H-M "P -1"
_symmetry_group_IT_number 2
_symmetry_cell_setting 'triclinic'
loop_
_space_group_symop_operation_xyz
x,y,z
-x,-y,-z
loop_
_atom_site_type_symbol
_atom_site_label
_atom_site_fract_x
_atom_site_fract_y
_atom_site_fract_z
Si Si1 0.231797 0.255502 0.207065
Si Si2 0.195004 0.675100 0.797983
Si Si3 0.509402 0.852727 0.687879
Si Si4 0.170941 0.260525 0.457030
Si Si5 0.564493 0.247290 0.913190
Si Si6 0.548099 0.668494 0.312576
Si Si7 0.272753 0.680912 0.581824
Si Si8 0.918701 0.079978 0.233243
O O1 0.363826 0.167933 0.196641
O O2 0.172943 0.229221 0.290777
O O3 0.245551 0.474315 0.342675
O O4 0.138317 0.139489 0.976462
O O5 0.124962 0.467571 0.631346
O O6 0.290317 0.645786 0.705769
O O7 0.099162 0.822445 0.830731
O O8 0.284799 0.755666 0.012612
O O9 0.498393 0.714979 0.457747
O O10 0.396382 0.793739 0.677479
O O11 0.499418 0.069149 0.815963
O O12 0.306414 0.249774 0.569307
O O13 0.067337 0.104750 0.346296
O O14 0.526546 0.226141 0.739097
O O15 0.523905 0.441965 0.103733
O O16 0.156143 0.808050 0.612300
#
# Coordination Sequence:
#
# PCOD8038840 Si02
#       8
#     2   2   2   2   2   2   2   2
#     4  10  19  29  47  74 101 130 160 198 246 293
#     4   8  17  30  48  73  98 125 154 198 242 288
#     4  11  19  33  50  72 104 129 160 201 246 294
#     4   9  17  32  48  71 103 128 161 202 242 285
#     4  10  18  35  51  74  99 127 166 201 247 286
#     4   9  21  33  52  75  98 126 166 207 239 281
#     4   9  21  31  46  75 104 132 155 196 249 296
#     4  10  18  31  48  72 104 130 159 193 247 300
#
# _framework density 19.006762999999999
#
# number of rings (size 3 to 8) (size 9 to 14) (size 15 to 20)
#    0.750    1.750    1.250    2.250    0.000    3.000 
#    0.000    0.000    0.000    0.750    0.000    8.750 
#    0.000    0.000    0.000    0.000    0.000    0.000 
#
# Total GULP energy -198269.239457 kJ/mol
# GULP energy per Si atom -12391.827466 kJ/mol
# Density = 1.896350 g / cm^3
# Si number density = 19.006763 Si / 1000 Ang^3
#
#
#
# Elastic Constant Matrix: (Units=GPa)
#
#
# Indices 1 2 3 4 5 6 
#
# 1 76.6409 7.7805 25.8904 4.0017 16.1019 7.0446
# 2 7.7805 29.8710 26.1630 6.6643 3.3911 -1.3847
# 3 25.8904 26.1630 93.4638 16.2413 8.9219 2.9459
# 4 4.0017 6.6643 16.2413 28.1151 -1.3415 3.9443
# 5 16.1019 3.3911 8.9219 -1.3415 20.4681 7.0601
# 6 7.0446 -1.3847 2.9459 3.9443 7.0601 18.1381
#
#
#
# Elastic Compliance Matrix: (Units=1/GPa)
#
#
# Indices 1 2 3 4 5 6 
#
# 1 0.016722 -0.000015 -0.003377 -0.000765 -0.011247 -0.001403
# 2 -0.000015 0.046016 -0.011581 -0.005768 -0.006049 0.009009
# 3 -0.003377 -0.011581 0.016263 -0.006365 -0.003055 0.000359
# 4 -0.000765 -0.005768 -0.006365 0.043103 0.011647 -0.013016
# 5 -0.011247 -0.006049 -0.003055 0.011647 0.069486 -0.025177
# 6 -0.001403 0.009009 0.000359 -0.013016 -0.025177 0.068937
#
#
# Mechanical properties :
#
#
# Convention : Reuss Voigt Hill
#
# Bulk Modulus (GPa) = 20.38572 35.51594 27.95083
# Shear Modulus (GPa) = 16.29597 22.68704 19.49151
#
# Velocity S-wave (km/s) = 2.93128 3.45864 3.20582
# Velocity P-wave (km/s) = 4.71225 5.88864 5.33298
#
# Compressibility (1/GPa) = 0.04905396
#
# Stress axis : x y z
#
# Youngs Moduli (GPa) = 59.80130 21.73169 61.48937
#
# Poissons Ratio (x) = 0.00033 0.20765
# Poissons Ratio (y) = 0.00091 0.71211
# Poissons Ratio (z) = 0.20195 0.25168
#
# Static dielectric constant tensor:
#      x y z
#    x 3.207190 -0.174290 -0.009320 
#    y -0.174290 3.126180 0.133550 
#    z -0.009320 0.133550 3.639270 
# 
# 
# High freq. dielectric constant tensor:
#      x y z
#    x 1.717590 -0.015910 0.002730 
#    y -0.015910 1.684430 0.024110 
#    z 0.002730 0.024110 1.754410 
# 
# From -- ./inp_files/424503.got.cif
#   From: 2010.06.25/outbox.cif.g09.slc.cpg/sg2_213_cif.got.tgz:424503.got - 2010.06.27 13:26:56.
