data_PCOD8038213
_publ_section_title
;
Structure prediction by ZEFSAII (Michael W. Deem and Ramdas Pophale) SiO2 
 PCOD8038213
Probable space group: P -1
;
_chemical_formula_sum "Si O2"
_cell_formula_units_Z 16
_cell_length_a 11.052798
_cell_length_b 23.963619
_cell_length_c 18.072306
_cell_angle_alpha 161.309164
_cell_angle_beta 140.541316
_cell_angle_gamma 30.898262
_cell_volume 763.186708
_symmetry_space_group_name_H-M "P -1"
_symmetry_group_IT_number 2
_symmetry_cell_setting 'triclinic'
loop_
_space_group_symop_operation_xyz
x,y,z
-x,-y,-z
loop_
_atom_site_type_symbol
_atom_site_label
_atom_site_fract_x
_atom_site_fract_y
_atom_site_fract_z
Si Si1 0.127998 0.692398 0.095331
Si Si2 0.860932 0.217527 0.354730
Si Si3 0.422790 0.406862 0.738850
Si Si4 0.815358 0.700785 0.323984
Si Si5 0.640597 0.935372 0.227396
Si Si6 0.647197 0.882628 0.327525
Si Si7 0.693481 0.252456 0.010604
Si Si8 0.564747 0.331292 0.216520
O O1 0.315436 0.717805 0.253571
O O2 0.843312 0.911650 0.239115
O O3 0.208064 0.588895 0.921180
O O4 0.098925 0.543763 0.948804
O O5 0.785659 0.225385 0.244925
O O6 0.628979 0.401906 0.526707
O O7 0.038922 0.282478 0.522161
O O8 0.023395 0.962715 0.142035
O O9 0.384048 0.535935 0.807449
O O10 0.417929 0.202562 0.461088
O O11 0.856561 0.761883 0.337969
O O12 0.531816 0.854542 0.407749
O O13 0.756101 0.842593 0.247651
O O14 0.546835 0.798818 0.985803
O O15 0.487323 0.800279 0.161323
O O16 0.670257 0.303978 0.151257
#
# Coordination Sequence:
#
# PCOD8038213 Si02
#       8
#     2   2   2   2   2   2   2   2
#     4  11  22  37  58  85 122 164 184 230 296 349
#     4  10  21  38  63  88 114 149 197 245 294 335
#     4  11  24  39  56  87 126 156 193 227 289 364
#     4  10  17  34  59  87 117 147 187 240 293 336
#     4  11  22  38  60  88 120 155 192 239 290 345
#     4   9  19  33  59  91 115 143 191 245 288 340
#     4  10  21  38  61  87 117 151 192 244 290 341
#     4  10  22  39  64  89 112 147 201 250 286 335
#
# _framework density 20.964725999999999
#
# number of rings (size 3 to 8) (size 9 to 14) (size 15 to 20)
#    0.000    1.750    3.750    0.750    0.000    2.500 
#    0.000    0.625    0.000    2.250    0.000    0.000 
#    0.000    0.000    0.000    0.000    0.000    0.000 
#
# Total GULP energy -198219.465274 kJ/mol
# GULP energy per Si atom -12388.716580 kJ/mol
# Density = 2.091701 g / cm^3
# Si number density = 20.964726 Si / 1000 Ang^3
#
#
#
# Elastic Constant Matrix: (Units=GPa)
#
#
# Indices 1 2 3 4 5 6 
#
# 1 84.8852 36.1432 34.6894 -0.2563 -9.4943 5.9516
# 2 36.1432 86.2490 34.9224 -8.2479 -3.5044 7.2993
# 3 34.6894 34.9224 91.3484 1.4088 -10.7710 12.2428
# 4 -0.2563 -8.2479 1.4088 28.4709 3.6454 -3.8660
# 5 -9.4943 -3.5044 -10.7710 3.6454 24.8764 0.5155
# 6 5.9516 7.2993 12.2428 -3.8660 0.5155 16.4885
#
#
#
# Elastic Compliance Matrix: (Units=1/GPa)
#
#
# Indices 1 2 3 4 5 6 
#
# 1 0.015935 -0.005217 -0.003317 -0.001959 0.004230 -0.001571
# 2 -0.005217 0.016004 -0.004402 0.005017 -0.002363 -0.000683
# 3 -0.003317 -0.004402 0.015967 -0.004184 0.005845 -0.009873
# 4 -0.001959 0.005017 -0.004184 0.039269 -0.007836 0.011045
# 5 0.004230 -0.002363 0.005845 -0.007836 0.045326 -0.008075
# 6 -0.001571 -0.000683 -0.009873 0.011045 -0.008075 0.071691
#
#
# Mechanical properties :
#
#
# Convention : Reuss Voigt Hill
#
# Bulk Modulus (GPa) = 45.38503 52.66582 49.02543
# Shear Modulus (GPa) = 21.06067 24.41567 22.73817
#
# Velocity S-wave (km/s) = 3.17294 3.41634 3.29689
# Velocity P-wave (km/s) = 5.92610 6.38259 6.15858
#
# Compressibility (1/GPa) = 0.02203369
#
# Stress axis : x y z
#
# Youngs Moduli (GPa) = 62.75510 62.48270 62.63085
#
# Poissons Ratio (x) = 0.32597 0.20777
# Poissons Ratio (y) = 0.32739 0.27569
# Poissons Ratio (z) = 0.20818 0.27504
#
# Static dielectric constant tensor:
#      x y z
#    x 3.590840 0.023530 -0.229830 
#    y 0.023530 3.755580 0.108450 
#    z -0.229830 0.108450 4.006050 
# 
# 
# High freq. dielectric constant tensor:
#      x y z
#    x 1.797710 0.005310 -0.023070 
#    y 0.005310 1.800780 0.007380 
#    z -0.023070 0.007380 1.835460 
# 
# From -- ./inp_files/454394.got.cif
#   From: 2010.06.25/outbox.cif.g09.slc.cpg/sg2_228_cif.got.tgz:454394.got - 2010.06.27 13:26:56.
