data_PCOD8038250
_publ_section_title
;
Structure prediction by ZEFSAII (Michael W. Deem and Ramdas Pophale) SiO2 
 PCOD8038250
Probable space group: P -1
;
_chemical_formula_sum "Si O2"
_cell_formula_units_Z 16
_cell_length_a 13.968175
_cell_length_b 11.317757
_cell_length_c 19.461830
_cell_angle_alpha 150.807622
_cell_angle_beta 149.489166
_cell_angle_gamma 29.877296
_cell_volume 674.754112
_symmetry_space_group_name_H-M "P -1"
_symmetry_group_IT_number 2
_symmetry_cell_setting 'triclinic'
loop_
_space_group_symop_operation_xyz
x,y,z
-x,-y,-z
loop_
_atom_site_type_symbol
_atom_site_label
_atom_site_fract_x
_atom_site_fract_y
_atom_site_fract_z
Si Si1 0.188881 0.232268 0.821087
Si Si2 0.621237 0.370706 0.352136
Si Si3 0.338339 0.364173 0.620784
Si Si4 0.381791 0.593949 0.080335
Si Si5 0.804595 0.278328 0.106924
Si Si6 0.922192 0.749468 0.393025
Si Si7 0.817338 0.254641 0.678278
Si Si8 0.058267 0.091384 0.292336
O O1 0.163770 0.161383 0.691012
O O2 0.963240 0.370601 0.791280
O O3 0.335328 0.936957 0.796276
O O4 0.286761 0.440346 0.992283
O O5 0.564968 0.552619 0.341583
O O6 0.421233 0.502234 0.346214
O O7 0.823544 0.374948 0.515376
O O8 0.529937 0.243929 0.734511
O O9 0.272153 0.129315 0.441870
O O10 0.138376 0.631628 0.661926
O O11 0.575493 0.353983 0.036294
O O12 0.207111 0.796064 0.018854
O O13 0.854216 0.533844 0.272362
O O14 0.993277 0.037822 0.147105
O O15 0.820606 0.002955 0.510568
O O16 0.903104 0.156749 0.759255
#
# Coordination Sequence:
#
# PCOD8038250 Si02
#       8
#     2   2   2   2   2   2   2   2
#     4  10  22  38  56  82 118 157 190 227 283 345
#     4  11  21  35  56  89 116 147 195 235 279 341
#     4  10  18  34  59  85 114 147 191 237 284 334
#     4   9  19  33  61  85 112 155 189 227 288 343
#     4   9  17  35  61  89 109 146 194 235 287 338
#     4  10  19  38  60  85 116 144 192 245 284 333
#     4  11  21  34  57  89 115 151 187 238 287 330
#     4  10  17  34  61  84 114 144 188 246 283 328
#
# _framework density 23.712343000000001
#
# number of rings (size 3 to 8) (size 9 to 14) (size 15 to 20)
#    0.000    2.000    3.750    3.000    0.000    3.000 
#    0.000    0.625    0.000    0.750    0.000    0.000 
#    0.000    0.000    0.000    0.000    0.000    0.000 
#
# Total GULP energy -198376.614550 kJ/mol
# GULP energy per Si atom -12398.538409 kJ/mol
# Density = 2.365837 g / cm^3
# Si number density = 23.712343 Si / 1000 Ang^3
#
#
#
# Elastic Constant Matrix: (Units=GPa)
#
#
# Indices 1 2 3 4 5 6 
#
# 1 107.8721 25.6078 33.7236 -2.3401 26.2914 -0.8356
# 2 25.6078 55.7031 24.8849 -14.6097 4.5085 -12.7168
# 3 33.7236 24.8849 92.4581 -27.2583 5.4662 -0.9326
# 4 -2.3401 -14.6097 -27.2583 21.7342 5.1658 3.0727
# 5 26.2914 4.5085 5.4662 5.1658 39.1525 -11.5605
# 6 -0.8356 -12.7168 -0.9326 3.0727 -11.5605 35.6965
#
#
#
# Elastic Compliance Matrix: (Units=1/GPa)
#
#
# Indices 1 2 3 4 5 6 
#
# 1 0.014190 -0.006242 -0.004816 -0.006059 -0.008602 -0.004282
# 2 -0.006242 0.026848 -0.000517 0.015087 0.001741 0.008670
# 3 -0.004816 -0.000517 0.020779 0.026652 -0.004123 -0.003383
# 4 -0.006059 0.015087 0.026652 0.093739 -0.015911 -0.007292
# 5 -0.008602 0.001741 -0.004123 -0.015911 0.037914 0.013959
# 6 -0.004282 0.008670 -0.003383 -0.007292 0.013959 0.036063
#
#
# Mechanical properties :
#
#
# Convention : Reuss Voigt Hill
#
# Bulk Modulus (GPa) = 25.86237 47.16287 36.51262
# Shear Modulus (GPa) = 18.82730 30.77111 24.79920
#
# Velocity S-wave (km/s) = 2.82084 3.60624 3.23745
# Velocity P-wave (km/s) = 4.64111 6.10514 5.42276
#
# Compressibility (1/GPa) = 0.03866622
#
# Stress axis : x y z
#
# Youngs Moduli (GPa) = 70.47326 37.24621 48.12607
#
# Poissons Ratio (x) = 0.23249 0.23180
# Poissons Ratio (y) = 0.43989 0.02488
# Poissons Ratio (z) = 0.33943 0.01925
#
# Static dielectric constant tensor:
#      x y z
#    x 4.579760 0.238670 0.055090 
#    y 0.238670 4.060560 -0.475890 
#    z 0.055090 -0.475890 4.165730 
# 
# 
# High freq. dielectric constant tensor:
#      x y z
#    x 1.958790 0.005790 0.008280 
#    y 0.005790 1.921880 -0.028150 
#    z 0.008280 -0.028150 1.920300 
# 
# From -- ./inp_files/598042.got.cif
#   From: 2010.06.25/outbox.cif.g09.slc.cpg/sg2_300_cif.got.tgz:598042.got - 2010.06.27 13:26:56.
