data_PCOD8038903
_publ_section_title
;
Structure prediction by ZEFSAII (Michael W. Deem and Ramdas Pophale) SiO2 
 PCOD8038903
Probable space group: P -1
;
_chemical_formula_sum "Si O2"
_cell_formula_units_Z 16
_cell_length_a 16.081205
_cell_length_b 9.057637
_cell_length_c 11.091793
_cell_angle_alpha 135.463109
_cell_angle_beta 53.268416
_cell_angle_gamma 99.017255
_cell_volume 796.902317
_symmetry_space_group_name_H-M "P -1"
_symmetry_group_IT_number 2
_symmetry_cell_setting 'triclinic'
loop_
_space_group_symop_operation_xyz
x,y,z
-x,-y,-z
loop_
_atom_site_type_symbol
_atom_site_label
_atom_site_fract_x
_atom_site_fract_y
_atom_site_fract_z
Si Si1 0.027635 0.143439 0.329984
Si Si2 0.310926 0.608325 0.537569
Si Si3 0.604136 0.831925 0.154872
Si Si4 0.383936 0.132266 0.100835
Si Si5 0.535861 0.638588 0.319856
Si Si6 0.724549 0.217010 0.056176
Si Si7 0.121362 0.349473 0.154332
Si Si8 0.092826 0.008366 0.834739
O O1 0.082558 0.235537 0.231068
O O2 0.948092 0.362723 0.614924
O O3 0.942979 0.037061 0.293242
O O4 0.136158 0.929878 0.183622
O O5 0.295530 0.371607 0.392004
O O6 0.445455 0.532343 0.340222
O O7 0.286093 0.698918 0.747934
O O8 0.224418 0.808564 0.637334
O O9 0.562994 0.676111 0.181037
O O10 0.520505 0.113370 0.414242
O O11 0.588329 0.781821 0.000712
O O12 0.739115 0.755839 0.022011
O O13 0.500000 0.000000 0.000000
O O14 0.327604 0.962907 0.023673
O O15 0.658837 0.450574 0.166097
O O16 0.089556 0.265092 0.005531
O O17 0.000000 0.000000 0.000000
#
# Coordination Sequence:
#
# PCOD8038903 Si02
#       8
#     2   2   2   2   2   2   2   2
#     4  10  20  32  60  87 116 151 198 248 297 341
#     4  12  21  37  63  89 123 153 200 253 291 356
#     4  11  22  42  60  90 120 162 203 238 303 365
#     4  12  23  36  62  89 118 153 199 246 299 351
#     4  11  23  39  64  84 125 168 189 243 310 356
#     4  12  22  41  57  93 126 153 199 252 299 351
#     4  10  18  35  57  84 117 151 196 251 284 353
#     4  10  18  31  53  91 110 146 195 246 292 330
#
# _framework density 20.077742000000001
#
# number of rings (size 3 to 8) (size 9 to 14) (size 15 to 20)
#    0.000    1.000    7.500    1.875    3.500    0.500 
#    0.000    0.625    0.000    0.750    0.000    0.000 
#    0.000    0.000    0.000    0.000    0.000    0.000 
#
# Total GULP energy -198338.068611 kJ/mol
# GULP energy per Si atom -12396.129288 kJ/mol
# Density = 2.003204 g / cm^3
# Si number density = 20.077742 Si / 1000 Ang^3
#
#
#
# Elastic Constant Matrix: (Units=GPa)
#
#
# Indices 1 2 3 4 5 6 
#
# 1 109.3387 33.8010 71.9222 14.4188 6.4468 -27.9586
# 2 33.8010 62.7350 42.1065 16.3928 -0.0414 -14.7977
# 3 71.9222 42.1065 132.4248 40.8461 18.5788 -11.4577
# 4 14.4188 16.3928 40.8461 25.0978 -2.8225 -7.0788
# 5 6.4468 -0.0414 18.5788 -2.8225 37.9248 11.0894
# 6 -27.9586 -14.7977 -11.4577 -7.0788 11.0894 22.4531
#
#
#
# Elastic Compliance Matrix: (Units=1/GPa)
#
#
# Indices 1 2 3 4 5 6 
#
# 1 0.027002 -0.000585 -0.018552 0.023990 -0.003365 0.032996
# 2 -0.000585 0.023133 -0.004518 -0.004324 -0.001351 0.011516
# 3 -0.018552 -0.004518 0.034022 -0.048187 -0.011820 -0.018072
# 4 0.023990 -0.004324 -0.048187 0.117959 0.019538 0.029973
# 5 -0.003365 -0.001351 -0.011820 0.019538 0.041645 -0.025521
# 6 0.032996 0.011516 -0.018072 0.029973 -0.025521 0.106046
#
#
# Mechanical properties :
#
#
# Convention : Reuss Voigt Hill
#
# Bulk Modulus (GPa) = 27.13937 66.68420 46.91179
# Shear Modulus (GPa) = 12.21302 27.53975 19.87638
#
# Velocity S-wave (km/s) = 2.46902 3.70760 3.14979
# Velocity P-wave (km/s) = 4.65560 7.18426 6.05343
#
# Compressibility (1/GPa) = 0.03684683
#
# Stress axis : x y z
#
# Youngs Moduli (GPa) = 37.03420 43.22834 29.39292
#
# Poissons Ratio (x) = 0.02527 0.54530
# Poissons Ratio (y) = 0.02165 0.13281
# Poissons Ratio (z) = 0.68706 0.19532
#
# Static dielectric constant tensor:
#      x y z
#    x 4.122700 -0.019040 0.207860 
#    y -0.019040 3.345780 0.311210 
#    z 0.207860 0.311210 4.123190 
# 
# 
# High freq. dielectric constant tensor:
#      x y z
#    x 1.797070 -0.007030 0.003600 
#    y -0.007030 1.733630 0.028760 
#    z 0.003600 0.028760 1.797230 
# 
# From -- ./inp_files/299623.got.cif
#   From: 2010.06.25/outbox.cif.g09.slc.cpg/sg2_150_cif.got.tgz:299623.got - 2010.06.27 13:26:56.
