data_PCOD8038511
_publ_section_title
;
Structure prediction by ZEFSAII (Michael W. Deem and Ramdas Pophale) SiO2 
 PCOD8038511
Probable space group: P -1
;
_chemical_formula_sum "Si O2"
_cell_formula_units_Z 16
_cell_length_a 8.522178
_cell_length_b 15.541939
_cell_length_c 9.766383
_cell_angle_alpha 136.486338
_cell_angle_beta 62.830414
_cell_angle_gamma 131.378364
_cell_volume 667.665858
_symmetry_space_group_name_H-M "P -1"
_symmetry_group_IT_number 2
_symmetry_cell_setting 'triclinic'
loop_
_space_group_symop_operation_xyz
x,y,z
-x,-y,-z
loop_
_atom_site_type_symbol
_atom_site_label
_atom_site_fract_x
_atom_site_fract_y
_atom_site_fract_z
Si Si1 0.086191 0.153883 0.800651
Si Si2 0.065215 0.487923 0.746771
Si Si3 0.480776 0.266348 0.134238
Si Si4 0.323896 0.688844 0.439503
Si Si5 0.366369 0.426778 0.182774
Si Si6 0.384644 0.071567 0.191974
Si Si7 0.451876 0.127873 0.691670
Si Si8 0.171265 0.393828 0.860270
O O1 0.211654 0.072079 0.681177
O O2 0.127810 0.229570 0.720252
O O3 0.840198 0.042083 0.786156
O O4 0.169987 0.294211 0.029289
O O5 0.289455 0.623782 0.766913
O O6 0.085664 0.386998 0.734927
O O7 0.927820 0.380371 0.550183
O O8 0.941915 0.561973 0.934533
O O9 0.376397 0.360539 0.249436
O O10 0.347323 0.157390 0.184932
O O11 0.492031 0.181388 0.896227
O O12 0.350818 0.567952 0.366441
O O13 0.401483 0.729799 0.298040
O O14 0.456138 0.835439 0.643182
O O15 0.583556 0.479479 0.078729
O O16 0.500000 0.000000 0.000000
O O17 0.500000 0.000000 0.500000
#
# Coordination Sequence:
#
# PCOD8038511 Si02
#       8
#     2   2   2   2   2   2   2   2
#     4  11  22  43  74  99 147 191 225 288 365 410
#     4  10  20  35  69 106 132 180 224 300 353 399
#     4  10  24  46  69 100 146 186 231 289 353 416
#     4  12  24  44  72 108 134 175 245 302 344 415
#     4  10  21  40  74 103 133 174 237 298 351 411
#     4  12  29  48  65  98 151 201 229 273 353 439
#     4  11  24  44  73 110 144 180 234 295 352 430
#     4  10  17  36  69 107 141 166 224 290 369 404
#
# _framework density 23.964082999999999
#
# number of rings (size 3 to 8) (size 9 to 14) (size 15 to 20)
#    0.000    1.250    2.500    4.875    0.000    4.500 
#    6.750    0.000    0.000    0.000    0.000    0.000 
#    0.000    0.000    0.000    0.000    0.000    0.000 
#
# Total GULP energy -198287.291966 kJ/mol
# GULP energy per Si atom -12392.955748 kJ/mol
# Density = 2.390954 g / cm^3
# Si number density = 23.964083 Si / 1000 Ang^3
#
#
#
# Elastic Constant Matrix: (Units=GPa)
#
#
# Indices 1 2 3 4 5 6 
#
# 1 154.6464 37.9506 57.7947 23.4565 10.7931 6.4390
# 2 37.9506 90.7389 17.7044 28.0693 11.3007 -20.4051
# 3 57.7947 17.7044 73.9407 19.7589 11.5484 8.6680
# 4 23.4565 28.0693 19.7589 26.5814 -6.0978 0.4012
# 5 10.7931 11.3007 11.5484 -6.0978 39.2564 11.8020
# 6 6.4390 -20.4051 8.6680 0.4012 11.8020 34.1877
#
#
#
# Elastic Compliance Matrix: (Units=1/GPa)
#
#
# Indices 1 2 3 4 5 6 
#
# 1 0.009900 -0.003960 -0.006942 0.000999 0.001519 -0.003004
# 2 -0.003960 0.036409 0.008007 -0.047898 -0.028457 0.030833
# 3 -0.006942 0.008007 0.024862 -0.023802 -0.012749 0.004464
# 4 0.000999 -0.047898 -0.023802 0.117419 0.051333 -0.041841
# 5 0.001519 -0.028457 -0.012749 0.051333 0.055092 -0.033659
# 6 -0.003004 0.030833 0.004464 -0.041841 -0.033659 0.059197
#
#
# Mechanical properties :
#
#
# Convention : Reuss Voigt Hill
#
# Bulk Modulus (GPa) = 15.29488 60.69172 37.99330
# Shear Modulus (GPa) = 15.13032 33.73017 24.43025
#
# Velocity S-wave (km/s) = 2.51544 3.75578 3.19635
# Velocity P-wave (km/s) = 3.85135 6.64747 5.43239
#
# Compressibility (1/GPa) = 0.06538137
#
# Stress axis : x y z
#
# Youngs Moduli (GPa) = 101.00922 27.46568 40.22208
#
# Poissons Ratio (x) = 0.10876 0.27923
# Poissons Ratio (y) = 0.39999 -0.32207
# Poissons Ratio (z) = 0.70123 -0.21992
#
# Static dielectric constant tensor:
#      x y z
#    x 4.811000 -0.138950 -0.126950 
#    y -0.138950 4.147340 0.347790 
#    z -0.126950 0.347790 3.998130 
# 
# 
# High freq. dielectric constant tensor:
#      x y z
#    x 1.975320 -0.009180 -0.002880 
#    y -0.009180 1.944320 0.022730 
#    z -0.002880 0.022730 1.925280 
# 
# From -- ./inp_files/503191.got.cif
#   From: 2010.06.25/outbox.cif.g09.slc.cpg/sg2_252_cif.got.tgz:503191.got - 2010.06.27 13:26:56.
