data_PCOD8038977
_publ_section_title
;
Structure prediction by ZEFSAII (Michael W. Deem and Ramdas Pophale) SiO2 
 PCOD8038977
Probable space group: P -1
;
_chemical_formula_sum "Si O2"
_cell_formula_units_Z 14
_cell_length_a 5.141351
_cell_length_b 12.120675
_cell_length_c 23.627459
_cell_angle_alpha 33.107885
_cell_angle_beta 91.793454
_cell_angle_gamma 95.676479
_cell_volume 796.689472
_symmetry_space_group_name_H-M "P -1"
_symmetry_group_IT_number 2
_symmetry_cell_setting 'triclinic'
loop_
_space_group_symop_operation_xyz
x,y,z
-x,-y,-z
loop_
_atom_site_type_symbol
_atom_site_label
_atom_site_fract_x
_atom_site_fract_y
_atom_site_fract_z
Si Si1 0.734653 0.500715 0.925298
Si Si2 0.787199 0.576640 0.340767
Si Si3 0.281976 0.452047 0.447106
Si Si4 0.279294 0.724371 0.863385
Si Si5 0.199271 0.756220 0.073651
Si Si6 0.288062 0.224795 0.863660
Si Si7 0.357704 0.194604 0.659150
O O1 0.466619 0.600798 0.880329
O O2 0.772814 0.396918 0.910833
O O3 0.980660 0.674774 0.861722
O O4 0.711156 0.330041 0.047100
O O5 0.527606 0.420200 0.421939
O O6 0.768178 0.651080 0.245203
O O7 0.815253 0.768732 0.302096
O O8 0.036973 0.458890 0.401116
O O9 0.220006 0.266551 0.570469
O O10 0.357490 0.664666 0.391950
O O11 0.388535 0.959877 0.754954
O O12 0.412228 0.718152 0.138994
O O13 0.907886 0.715015 0.115135
O O14 0.243413 0.985645 0.951691
#
# Coordination Sequence:
#
# PCOD8038977 Si02
#       7
#     2   2   2   2   2   2   2
#     4  10  21  36  48  77 103 136 171 205 233 305
#     4  10  18  32  48  78 104 131 157 209 254 312
#     4   9  20  30  51  76 112 123 167 204 266 292
#     4  10  21  33  54  73 103 139 170 193 254 296
#     4  10  20  35  49  74 103 129 172 215 234 307
#     4  10  20  32  54  74  97 137 167 200 271 284
#     4   9  20  32  52  77 108 132 161 211 250 310
#
# _framework density 17.57272
#
# number of rings (size 3 to 8) (size 9 to 14) (size 15 to 20)
#    0.857    1.429    0.000    3.000    2.000    0.000 
#    2.571    0.000    0.000    0.000    0.000   20.000 
#    0.000    0.000    0.000    0.000    0.000    0.000 
#
# Total GULP energy -173536.979956 kJ/mol
# GULP energy per Si atom -12395.498568 kJ/mol
# Density = 1.753272 g / cm^3
# Si number density = 17.572720 Si / 1000 Ang^3
#
#
#
# Elastic Constant Matrix: (Units=GPa)
#
#
# Indices 1 2 3 4 5 6 
#
# 1 91.4558 5.8295 20.4841 2.4397 11.2294 -2.2124
# 2 5.8295 56.4188 32.4100 6.4317 -0.9573 -7.7713
# 3 20.4841 32.4100 89.3902 2.9520 2.3557 5.1345
# 4 2.4397 6.4317 2.9520 21.3806 5.5404 2.5698
# 5 11.2294 -0.9573 2.3557 5.5404 19.9057 4.9154
# 6 -2.2124 -7.7713 5.1345 2.5698 4.9154 16.3128
#
#
#
# Elastic Compliance Matrix: (Units=1/GPa)
#
#
# Indices 1 2 3 4 5 6 
#
# 1 0.012799 0.001419 -0.003577 0.000013 -0.008217 0.006012
# 2 0.001419 0.027444 -0.011018 -0.009044 -0.000155 0.018206
# 3 -0.003577 -0.011018 0.016556 0.002399 0.001790 -0.011863
# 4 0.000013 -0.009044 0.002399 0.053759 -0.013341 -0.009511
# 5 -0.008217 -0.000155 0.001790 -0.013341 0.062964 -0.018623
# 6 0.006012 0.018206 -0.011863 -0.009511 -0.018623 0.081634
#
#
# Mechanical properties :
#
#
# Convention : Reuss Voigt Hill
#
# Bulk Modulus (GPa) = 32.84353 39.41244 36.12798
# Shear Modulus (GPa) = 17.14342 23.42258 20.28300
#
# Velocity S-wave (km/s) = 3.12680 3.65484 3.40109
# Velocity P-wave (km/s) = 5.63618 6.34723 6.00224
#
# Compressibility (1/GPa) = 0.03044740
#
# Stress axis : x y z
#
# Youngs Moduli (GPa) = 78.13203 36.43834 60.39955
#
# Poissons Ratio (x) = -0.05172 0.21603
# Poissons Ratio (y) = -0.11090 0.66551
# Poissons Ratio (z) = 0.27946 0.40149
#
# Static dielectric constant tensor:
#      x y z
#    x 3.375370 -0.052980 0.035490 
#    y -0.052980 2.921910 0.132420 
#    z 0.035490 0.132420 3.023710 
# 
# 
# High freq. dielectric constant tensor:
#      x y z
#    x 1.692130 -0.006610 0.005750 
#    y -0.006610 1.650780 0.019470 
#    z 0.005750 0.019470 1.664010 
# 
# From -- ./inp_files/440532.got.cif
#   From: 2010.06.25/outbox.cif.g09.slc.cpg/sg2_221_cif.got.tgz:440532.got - 2010.06.27 13:26:56.
