data_PCOD8038504
_publ_section_title
;
Structure prediction by ZEFSAII (Michael W. Deem and Ramdas Pophale) SiO2 
 PCOD8038504
Probable space group: P -1
;
_chemical_formula_sum "Si O2"
_cell_formula_units_Z 16
_cell_length_a 11.551512
_cell_length_b 12.010560
_cell_length_c 15.296572
_cell_angle_alpha 149.938737
_cell_angle_beta 123.065363
_cell_angle_gamma 46.996701
_cell_volume 771.641737
_symmetry_space_group_name_H-M "P -1"
_symmetry_group_IT_number 2
_symmetry_cell_setting 'triclinic'
loop_
_space_group_symop_operation_xyz
x,y,z
-x,-y,-z
loop_
_atom_site_type_symbol
_atom_site_label
_atom_site_fract_x
_atom_site_fract_y
_atom_site_fract_z
Si Si1 0.625238 0.903567 0.653175
Si Si2 0.155447 0.320983 0.997488
Si Si3 0.699704 0.763491 0.174668
Si Si4 0.740822 0.301055 0.972800
Si Si5 0.235642 0.502476 0.700400
Si Si6 0.106574 0.022092 0.918580
Si Si7 0.905496 0.593246 0.683822
Si Si8 0.021231 0.730120 0.349467
O O1 0.638334 0.775172 0.476494
O O2 0.761497 0.680357 0.616651
O O3 0.453163 0.986950 0.680001
O O4 0.639240 0.158923 0.825656
O O5 0.300980 0.198365 0.905037
O O6 0.142247 0.094391 0.886788
O O7 0.000000 0.500000 0.000000
O O8 0.166116 0.510299 0.201914
O O9 0.693178 0.503953 0.012468
O O10 0.858393 0.726445 0.262095
O O11 0.702236 0.463127 0.156937
O O12 0.925362 0.083835 0.895253
O O13 0.066061 0.516914 0.646212
O O14 0.222048 0.721958 0.778012
O O15 0.140721 0.173589 0.110589
O O16 0.932593 0.342237 0.579058
O O17 0.000000 0.000000 0.500000
#
# Coordination Sequence:
#
# PCOD8038504 Si02
#       8
#     2   2   2   2   2   2   2   2
#     4  12  25  36  62  99 127 163 202 252 323 367
#     4   9  18  37  62  84 115 163 205 247 298 361
#     4  11  23  43  57  93 131 158 206 259 308 369
#     4  11  20  41  63  88 130 161 198 262 308 364
#     4  11  21  38  63  92 125 162 212 250 303 372
#     4  10  17  36  67  86 115 161 214 255 295 362
#     4  10  19  39  60  89 125 162 208 256 302 372
#     4  10  21  40  65  89 118 166 215 255 299 365
#
# _framework density 20.735012000000001
#
# number of rings (size 3 to 8) (size 9 to 14) (size 15 to 20)
#    0.000    1.500    7.500    1.500    0.000    3.500 
#    2.250    5.000    0.000    0.000    0.000    0.000 
#    0.000    0.000    0.000    0.000    0.000    0.000 
#
# Total GULP energy -198375.359045 kJ/mol
# GULP energy per Si atom -12398.459940 kJ/mol
# Density = 2.068782 g / cm^3
# Si number density = 20.735012 Si / 1000 Ang^3
#
#
#
# Elastic Constant Matrix: (Units=GPa)
#
#
# Indices 1 2 3 4 5 6 
#
# 1 107.1771 35.7967 57.1283 4.7769 -22.8914 21.9948
# 2 35.7967 39.9128 12.3902 2.0501 1.0825 23.1461
# 3 57.1283 12.3902 97.5644 6.6703 -13.8430 8.7818
# 4 4.7769 2.0501 6.6703 20.4259 6.7646 1.4599
# 5 -22.8914 1.0825 -13.8430 6.7646 34.2480 6.3626
# 6 21.9948 23.1461 8.7818 1.4599 6.3626 37.2521
#
#
#
# Elastic Compliance Matrix: (Units=1/GPa)
#
#
# Indices 1 2 3 4 5 6 
#
# 1 0.023793 -0.016277 -0.009047 -0.005523 0.014610 -0.004081
# 2 -0.016277 0.051363 0.003900 0.001301 -0.007085 -0.022063
# 3 -0.009047 0.003900 0.015500 -0.003596 0.000946 -0.000756
# 4 -0.005523 0.001301 -0.003596 0.056679 -0.017126 0.004004
# 5 0.014610 -0.007085 0.000946 -0.017126 0.045085 -0.011477
# 6 -0.004081 -0.022063 -0.000756 0.004004 -0.011477 0.044944
#
#
# Mechanical properties :
#
#
# Convention : Reuss Voigt Hill
#
# Bulk Modulus (GPa) = 20.91728 50.58718 35.75223
# Shear Modulus (GPa) = 16.88347 27.67445 22.27896
#
# Velocity S-wave (km/s) = 2.85660 3.65728 3.28145
# Velocity P-wave (km/s) = 4.58149 6.50263 5.62469
#
# Compressibility (1/GPa) = 0.04780735
#
# Stress axis : x y z
#
# Youngs Moduli (GPa) = 42.02859 19.46946 64.51660
#
# Poissons Ratio (x) = 0.31690 0.58368
# Poissons Ratio (y) = 0.68410 -0.25160
# Poissons Ratio (z) = 0.38023 -0.07593
#
# Static dielectric constant tensor:
#      x y z
#    x 3.963940 0.389700 -0.227070 
#    y 0.389700 3.760780 -0.043600 
#    z -0.227070 -0.043600 3.768570 
# 
# 
# High freq. dielectric constant tensor:
#      x y z
#    x 1.798100 0.026320 -0.009490 
#    y 0.026320 1.805460 0.006920 
#    z -0.009490 0.006920 1.801300 
# 
# From -- ./inp_files/279532.got.cif
#   From: 2010.06.25/outbox.cif.g09.slc.cpg/sg2_140_cif.got.tgz:279532.got - 2010.06.27 13:26:56.
