data_PCOD8038601
_publ_section_title
;
Structure prediction by ZEFSAII (Michael W. Deem and Ramdas Pophale) SiO2 
 PCOD8038601
Probable space group: P -1
;
_chemical_formula_sum "Si O2"
_cell_formula_units_Z 14
_cell_length_a 19.893411
_cell_length_b 9.044485
_cell_length_c 9.383202
_cell_angle_alpha 124.151669
_cell_angle_beta 135.834669
_cell_angle_gamma 28.460554
_cell_volume 548.229795
_symmetry_space_group_name_H-M "P -1"
_symmetry_group_IT_number 2
_symmetry_cell_setting 'triclinic'
loop_
_space_group_symop_operation_xyz
x,y,z
-x,-y,-z
loop_
_atom_site_type_symbol
_atom_site_label
_atom_site_fract_x
_atom_site_fract_y
_atom_site_fract_z
Si Si1 0.967363 0.748662 0.282839
Si Si2 0.709919 0.879374 0.428093
Si Si3 0.532826 0.342923 0.180831
Si Si4 0.637325 0.073323 0.887696
Si Si5 0.389208 0.279149 0.319982
Si Si6 0.107082 0.862348 0.389570
Si Si7 0.255479 0.497533 0.928616
O O1 0.097269 0.412152 0.376326
O O2 0.078387 0.714035 0.338843
O O3 0.859026 0.033810 0.385915
O O4 0.834447 0.835083 0.035147
O O5 0.676063 0.757228 0.213649
O O6 0.674201 0.106379 0.395256
O O7 0.575078 0.080750 0.462847
O O8 0.493502 0.609072 0.232135
O O9 0.597986 0.141799 0.031850
O O10 0.355077 0.527028 0.061358
O O11 0.599960 0.930358 0.696795
O O12 0.277857 0.589815 0.408694
O O13 0.286923 0.390862 0.079817
O O14 0.945724 0.162005 0.210908
#
# Coordination Sequence:
#
# PCOD8038601 Si02
#       7
#     2   2   2   2   2   2   2
#     4  10  23  40  61  89 130 161 194 252 320 354
#     4  10  20  39  64  89 122 167 202 243 302 382
#     4  10  19  35  62  90 121 160 206 242 299 369
#     4  11  21  36  65  97 118 153 208 264 294 350
#     4  11  21  37  68  93 114 159 219 249 288 360
#     4  10  22  39  62  88 125 165 203 242 305 378
#     4  10  17  39  61  92 114 167 199 256 278 385
#
# _framework density 25.536738
#
# number of rings (size 3 to 8) (size 9 to 14) (size 15 to 20)
#    0.000    1.714    4.286    1.286    0.000    1.714 
#    0.000    0.000    0.000    2.571    0.000    0.000 
#    0.000    0.000    0.000    0.000    0.000    0.000 
#
# Total GULP energy -173669.302024 kJ/mol
# GULP energy per Si atom -12404.950145 kJ/mol
# Density = 2.547861 g / cm^3
# Si number density = 25.536738 Si / 1000 Ang^3
#
#
#
# Elastic Constant Matrix: (Units=GPa)
#
#
# Indices 1 2 3 4 5 6 
#
# 1 85.4846 51.3100 17.2426 -5.8829 -12.9901 8.2002
# 2 51.3100 119.9973 20.4795 -16.6856 -9.9632 -22.9062
# 3 17.2426 20.4795 66.6757 -21.1187 12.7580 -0.8203
# 4 -5.8829 -16.6856 -21.1187 29.3462 -1.5007 -16.4162
# 5 -12.9901 -9.9632 12.7580 -1.5007 27.8506 -2.3576
# 6 8.2002 -22.9062 -0.8203 -16.4162 -2.3576 41.2547
#
#
#
# Elastic Compliance Matrix: (Units=1/GPa)
#
#
# Indices 1 2 3 4 5 6 
#
# 1 0.025825 -0.016699 -0.011588 -0.025968 0.007905 -0.024517
# 2 -0.016699 0.024902 0.007130 0.033186 0.002234 0.030621
# 3 -0.011588 0.007130 0.028713 0.032371 -0.012655 0.018991
# 4 -0.025968 0.033186 0.032371 0.108433 -0.003539 0.067177
# 5 0.007905 0.002234 -0.012655 -0.003539 0.046053 0.000641
# 6 -0.024517 0.030621 0.018991 0.067177 0.000641 0.073261
#
#
# Mechanical properties :
#
#
# Convention : Reuss Voigt Hill
#
# Bulk Modulus (GPa) = 26.93594 50.02463 38.48029
# Shear Modulus (GPa) = 13.81688 31.89865 22.85777
#
# Velocity S-wave (km/s) = 2.32859 3.53813 2.99506
# Velocity P-wave (km/s) = 4.21908 6.02686 5.20210
#
# Compressibility (1/GPa) = 0.03712512
#
# Stress axis : x y z
#
# Youngs Moduli (GPa) = 38.72237 40.15671 34.82767
#
# Poissons Ratio (x) = 0.67059 0.40360
# Poissons Ratio (y) = 0.64664 -0.24834
# Poissons Ratio (z) = 0.44873 -0.28634
#
# Static dielectric constant tensor:
#      x y z
#    x 4.531650 0.157670 -0.301770 
#    y 0.157670 4.601160 -0.192880 
#    z -0.301770 -0.192880 4.402570 
# 
# 
# High freq. dielectric constant tensor:
#      x y z
#    x 2.018440 0.004400 -0.009950 
#    y 0.004400 2.023690 -0.017050 
#    z -0.009950 -0.017050 2.018340 
# 
# From -- ./inp_files/158287.got.cif
#   From: 2010.06.25/outbox.cif.g09.slc.cpg/sg2_80_cif.got.tgz:158287.got - 2010.06.27 13:26:56.
