data_PCOD8038643
_publ_section_title
;
Structure prediction by ZEFSAII (Michael W. Deem and Ramdas Pophale) SiO2 
 PCOD8038643
Probable space group: P -1
;
_chemical_formula_sum "Si O2"
_cell_formula_units_Z 14
_cell_length_a 11.754223
_cell_length_b 18.179926
_cell_length_c 8.262339
_cell_angle_alpha 126.473264
_cell_angle_beta 124.285182
_cell_angle_gamma 31.851846
_cell_volume 742.123222
_symmetry_space_group_name_H-M "P -1"
_symmetry_group_IT_number 2
_symmetry_cell_setting 'triclinic'
loop_
_space_group_symop_operation_xyz
x,y,z
-x,-y,-z
loop_
_atom_site_type_symbol
_atom_site_label
_atom_site_fract_x
_atom_site_fract_y
_atom_site_fract_z
Si Si1 0.443237 0.412898 0.497091
Si Si2 0.708079 0.683548 0.136522
Si Si3 0.251043 0.617587 0.092714
Si Si4 0.721198 0.163053 0.139019
Si Si5 0.079383 0.603907 0.217922
Si Si6 0.592846 0.646835 0.293710
Si Si7 0.141171 0.838627 0.085171
O O1 0.554706 0.432871 0.721280
O O2 0.624438 0.275287 0.348651
O O3 0.242465 0.559454 0.428109
O O4 0.342668 0.388527 0.510954
O O5 0.717648 0.661049 0.309999
O O6 0.836695 0.711230 0.235081
O O7 0.458090 0.815173 0.049473
O O8 0.818400 0.544407 0.947098
O O9 0.068108 0.679521 0.157348
O O10 0.134013 0.739605 0.022927
O O11 0.364755 0.472854 0.912828
O O12 0.814439 0.182814 0.100512
O O13 0.913095 0.003725 0.159804
O O14 0.332526 0.797024 0.272712
#
# Coordination Sequence:
#
# PCOD8038643 Si02
#       7
#     2   2   2   2   2   2   2
#     4  10  18  28  47  72  92 115 152 189 221 269
#     4   8  16  32  46  63  92 122 152 183 221 268
#     4  10  19  30  45  71  97 117 146 188 232 266
#     4   9  18  31  49  68  88 121 156 182 221 271
#     4   9  17  29  47  66  90 122 151 185 224 263
#     4   9  18  30  47  70  95 118 146 188 230 264
#     4   9  17  31  47  67  92 120 147 186 232 264
#
# _framework density 18.864792000000001
#
# number of rings (size 3 to 8) (size 9 to 14) (size 15 to 20)
#    0.000    2.857    0.000    3.000    0.000    4.000 
#    0.000    0.714    0.000    0.000    0.000   26.000 
#    0.000    0.000    0.000    0.000    0.000    0.000 
#
# Total GULP energy -173476.037618 kJ/mol
# GULP energy per Si atom -12391.145544 kJ/mol
# Density = 1.882185 g / cm^3
# Si number density = 18.864792 Si / 1000 Ang^3
#
#
#
# Elastic Constant Matrix: (Units=GPa)
#
#
# Indices 1 2 3 4 5 6 
#
# 1 152.2163 53.5913 32.0938 -9.1822 -10.2054 4.0798
# 2 53.5913 91.5487 15.3934 -12.1778 -0.1719 2.2149
# 3 32.0938 15.3934 39.4906 -3.8327 -16.1789 1.0011
# 4 -9.1822 -12.1778 -3.8327 9.6597 2.2025 -6.0808
# 5 -10.2054 -0.1719 -16.1789 2.2025 26.2239 -3.9689
# 6 4.0798 2.2149 1.0011 -6.0808 -3.9689 23.9813
#
#
#
# Elastic Compliance Matrix: (Units=1/GPa)
#
#
# Indices 1 2 3 4 5 6 
#
# 1 0.009422 -0.004425 -0.005941 0.000534 -0.000200 -0.000844
# 2 -0.004425 0.016353 -0.002906 0.018334 -0.004452 0.003276
# 3 -0.005941 -0.002906 0.041198 0.004595 0.023396 0.004596
# 4 0.000534 0.018334 0.004595 0.152601 -0.004202 0.036023
# 5 -0.000200 -0.004452 0.023396 -0.004202 0.053922 0.007327
# 6 -0.000844 0.003276 0.004596 0.036023 0.007327 0.051695
#
#
# Mechanical properties :
#
#
# Convention : Reuss Voigt Hill
#
# Bulk Modulus (GPa) = 24.73445 53.93473 39.33459
# Shear Modulus (GPa) = 13.69075 24.11813 18.90444
#
# Velocity S-wave (km/s) = 2.69686 3.57945 3.16903
# Velocity P-wave (km/s) = 4.77884 6.76281 5.85546
#
# Compressibility (1/GPa) = 0.04042943
#
# Stress axis : x y z
#
# Youngs Moduli (GPa) = 106.13902 61.14950 24.27331
#
# Poissons Ratio (x) = 0.27060 0.14420
# Poissons Ratio (y) = 0.46969 0.07053
# Poissons Ratio (z) = 0.63054 0.17767
#
# Static dielectric constant tensor:
#      x y z
#    x 4.111400 0.024870 -0.275430 
#    y 0.024870 3.333880 -0.267720 
#    z -0.275430 -0.267720 3.161420 
# 
# 
# High freq. dielectric constant tensor:
#      x y z
#    x 1.752940 0.000240 -0.028730 
#    y 0.000240 1.704380 -0.018530 
#    z -0.028730 -0.018530 1.694620 
# 
# From -- ./inp_files/190345.got.cif
#   From: 2010.06.25/outbox.cif.g09.slc.cpg/sg2_96_cif.got.tgz:190345.got - 2010.06.27 13:26:56.
