data_PCOD8038815
_publ_section_title
;
Structure prediction by ZEFSAII (Michael W. Deem and Ramdas Pophale) SiO2 
 PCOD8038815
Probable space group: P -1
;
_chemical_formula_sum "Si O2"
_cell_formula_units_Z 14
_cell_length_a 7.606461
_cell_length_b 5.558333
_cell_length_c 17.367999
_cell_angle_alpha 110.610507
_cell_angle_beta 55.329015
_cell_angle_gamma 123.933300
_cell_volume 500.423221
_symmetry_space_group_name_H-M "P -1"
_symmetry_group_IT_number 2
_symmetry_cell_setting 'triclinic'
loop_
_space_group_symop_operation_xyz
x,y,z
-x,-y,-z
loop_
_atom_site_type_symbol
_atom_site_label
_atom_site_fract_x
_atom_site_fract_y
_atom_site_fract_z
Si Si1 0.263079 0.830342 0.984996
Si Si2 0.777758 0.599673 0.649983
Si Si3 0.511662 0.018152 0.386175
Si Si4 0.787289 0.851847 0.421465
Si Si5 0.792245 0.638960 0.946598
Si Si6 0.542985 0.152683 0.226175
Si Si7 0.073393 0.564007 0.259790
O O1 0.293315 0.817913 0.884012
O O2 0.139419 0.493343 0.008592
O O3 0.500000 0.000000 0.000000
O O4 0.109413 0.012228 0.044959
O O5 0.732712 0.293738 0.590970
O O6 0.509519 0.573995 0.720748
O O7 0.879430 0.638273 0.715755
O O8 0.955065 0.877989 0.586204
O O9 0.407036 0.234082 0.469513
O O10 0.702938 0.997448 0.391952
O O11 0.642492 0.109106 0.279670
O O12 0.827363 0.580388 0.350370
O O13 0.933901 0.557000 0.837158
O O14 0.500000 0.500000 0.000000
O O15 0.283847 0.888090 0.243110
#
# Coordination Sequence:
#
# PCOD8038815 Si02
#       7
#     2   2   2   2   2   2   2
#     4  10  18  30  56  90 127 165 211 264 324 392
#     4  10  21  36  64  90 122 164 208 264 317 382
#     4  10  23  41  60  88 127 167 210 262 321 384
#     4  10  23  41  60  88 127 167 210 262 321 384
#     4  10  18  30  56  90 127 165 211 264 324 392
#     4  10  20  34  58  91 123 160 214 261 315 386
#     4  10  20  34  58  91 123 160 214 261 315 386
#
# _framework density 27.976322
#
# number of rings (size 3 to 8) (size 9 to 14) (size 15 to 20)
#    0.000    2.000    2.857    2.143    4.000    7.429 
#    0.000    2.857    0.000    1.714    0.000    0.000 
#    0.000    0.000    0.000    0.000    0.000    0.000 
#
# Total GULP energy -173451.500084 kJ/mol
# GULP energy per Si atom -12389.392863 kJ/mol
# Density = 2.791265 g / cm^3
# Si number density = 27.976322 Si / 1000 Ang^3
#
#
#
# Elastic Constant Matrix: (Units=GPa)
#
#
# Indices 1 2 3 4 5 6 
#
# 1 58.5253 14.4159 28.9484 4.9379 11.4743 -28.4200
# 2 14.4159 103.7811 41.5313 11.1085 -6.8353 -23.5453
# 3 28.9484 41.5313 192.6916 10.5154 -14.5134 -7.0565
# 4 4.9379 11.1085 10.5154 44.6222 -5.7425 -10.6664
# 5 11.4743 -6.8353 -14.5134 -5.7425 38.6891 7.8015
# 6 -28.4200 -23.5453 -7.0565 -10.6664 7.8015 46.5847
#
#
#
# Elastic Compliance Matrix: (Units=1/GPa)
#
#
# Indices 1 2 3 4 5 6 
#
# 1 0.034601 0.001898 -0.006039 0.000714 -0.016957 0.024157
# 2 0.001898 0.012011 -0.002639 -0.001090 -0.000951 0.006738
# 3 -0.006039 -0.002639 0.006891 -0.000872 0.004783 -0.004975
# 4 0.000714 -0.001090 -0.000872 0.024241 0.001860 0.004991
# 5 -0.016957 -0.000951 0.004783 0.001860 0.035943 -0.015695
# 6 0.024157 0.006738 -0.004975 0.004991 -0.015695 0.042627
#
#
# Mechanical properties :
#
#
# Convention : Reuss Voigt Hill
#
# Bulk Modulus (GPa) = 25.03596 58.30992 41.67294
# Shear Modulus (GPa) = 27.29421 43.98603 35.64012
#
# Velocity S-wave (km/s) = 3.12688 3.96947 3.57310
# Velocity P-wave (km/s) = 4.69094 6.47277 5.65251
#
# Compressibility (1/GPa) = 0.03994254
#
# Stress axis : x y z
#
# Youngs Moduli (GPa) = 28.90101 83.25687 145.10873
#
# Poissons Ratio (x) = -0.15798 0.87626
# Poissons Ratio (y) = -0.05484 0.38298
# Poissons Ratio (z) = 0.17452 0.21974
#
# Static dielectric constant tensor:
#      x y z
#    x 5.246930 -0.074000 -0.049040 
#    y -0.074000 5.550770 0.294450 
#    z -0.049040 0.294450 5.266640 
# 
# 
# High freq. dielectric constant tensor:
#      x y z
#    x 2.147770 0.007450 -0.000630 
#    y 0.007450 2.149240 0.005030 
#    z -0.000630 0.005030 2.124300 
# 
# From -- ./inp_files/43579.got.cif
#   From: 2010.06.25/outbox.cif.g09.slc.cpg/sg2_22_cif.got.tgz:43579.got - 2010.06.27 13:26:56.
