data_PCOD8038362
_publ_section_title
;
Structure prediction by ZEFSAII (Michael W. Deem and Ramdas Pophale) SiO2 
 PCOD8038362
Probable space group: P -1
;
_chemical_formula_sum "Si O2"
_cell_formula_units_Z 16
_cell_length_a 11.077642
_cell_length_b 15.913400
_cell_length_c 11.013261
_cell_angle_alpha 101.197665
_cell_angle_beta 49.478095
_cell_angle_gamma 60.385969
_cell_volume 803.391310
_symmetry_space_group_name_H-M "P -1"
_symmetry_group_IT_number 2
_symmetry_cell_setting 'triclinic'
loop_
_space_group_symop_operation_xyz
x,y,z
-x,-y,-z
loop_
_atom_site_type_symbol
_atom_site_label
_atom_site_fract_x
_atom_site_fract_y
_atom_site_fract_z
Si Si1 0.956318 0.316333 0.160390
Si Si2 0.219015 0.325905 0.831144
Si Si3 0.775790 0.985704 0.086461
Si Si4 0.143119 0.950439 0.702422
Si Si5 0.455698 0.432817 0.938641
Si Si6 0.147501 0.260234 0.619412
Si Si7 0.159825 0.778670 0.175940
Si Si8 0.503000 0.484889 0.294993
O O1 0.723657 0.411575 0.233873
O O2 0.800646 0.402379 0.414873
O O3 0.151613 0.311367 0.000419
O O4 0.157690 0.143971 0.990592
O O5 0.538732 0.221574 0.593078
O O6 0.199669 0.259531 0.725606
O O7 0.000000 0.500000 0.000000
O O8 0.857282 0.988027 0.163610
O O9 0.437479 0.149260 0.324360
O O10 0.958496 0.948713 0.850884
O O11 0.002582 0.063433 0.713888
O O12 0.667738 0.272671 0.826054
O O13 0.533912 0.415737 0.741795
O O14 0.500000 0.500000 0.000000
O O15 0.115994 0.562151 0.207217
O O16 0.067164 0.196026 0.646082
O O17 0.385666 0.647900 0.888254
#
# Coordination Sequence:
#
# PCOD8038362 Si02
#       8
#     2   2   2   2   2   2   2   2
#     4  11  19  31  52  76 108 139 162 215 265 316
#     4  11  22  32  51  78 110 137 169 217 265 315
#     4  10  20  32  51  76 112 135 168 221 264 307
#     4  10  21  32  49  80 105 137 176 216 260 307
#     4   8  16  32  55  80  99 137 178 218 243 307
#     4   9  17  34  53  76 104 139 176 210 260 309
#     4  10  17  35  59  76 106 136 181 212 251 310
#     4   9  18  28  53  79 101 133 175 203 261 305
#
# _framework density 19.915573999999999
#
# number of rings (size 3 to 8) (size 9 to 14) (size 15 to 20)
#    0.000    2.500    3.750    0.750    3.500    3.000 
#    0.000    0.625    0.000   16.500    0.000    0.000 
#    0.000    0.000    0.000    0.000    0.000    0.000 
#
# Total GULP energy -198286.055095 kJ/mol
# GULP energy per Si atom -12392.878443 kJ/mol
# Density = 1.987025 g / cm^3
# Si number density = 19.915574 Si / 1000 Ang^3
#
#
#
# Elastic Constant Matrix: (Units=GPa)
#
#
# Indices 1 2 3 4 5 6 
#
# 1 31.1488 23.3814 28.1134 -1.5201 -10.8868 -13.1275
# 2 23.3814 143.6941 73.0088 5.5093 -17.5390 -10.5656
# 3 28.1134 73.0088 184.4121 -7.8978 -22.1827 -4.3288
# 4 -1.5201 5.5093 -7.8978 22.3202 2.8524 -6.0202
# 5 -10.8868 -17.5390 -22.1827 2.8524 25.4707 3.0958
# 6 -13.1275 -10.5656 -4.3288 -6.0202 3.0958 32.5488
#
#
#
# Elastic Compliance Matrix: (Units=1/GPa)
#
#
# Indices 1 2 3 4 5 6 
#
# 1 0.051287 -0.003509 -0.004165 0.006351 0.012863 0.018943
# 2 -0.003509 0.009626 -0.003098 -0.003997 0.002843 0.000287
# 3 -0.004165 -0.003098 0.007677 0.002461 0.002674 -0.001464
# 4 0.006351 -0.003997 0.002461 0.050821 -0.004980 0.011465
# 5 0.012863 0.002843 0.002674 -0.004980 0.049501 0.000837
# 6 0.018943 0.000287 -0.001464 0.011465 0.000837 0.040303
#
#
# Mechanical properties :
#
#
# Convention : Reuss Voigt Hill
#
# Bulk Modulus (GPa) = 21.25692 67.58468 44.42080
# Shear Modulus (GPa) = 20.28875 31.71801 26.00338
#
# Velocity S-wave (km/s) = 3.19523 3.99510 3.61734
# Velocity P-wave (km/s) = 4.93045 7.43575 6.30871
#
# Compressibility (1/GPa) = 0.04704350
#
# Stress axis : x y z
#
# Youngs Moduli (GPa) = 19.49819 103.88686 130.25900
#
# Poissons Ratio (x) = 0.36459 0.54256
# Poissons Ratio (y) = 0.06843 0.40359
# Poissons Ratio (z) = 0.08122 0.32188
#
# Static dielectric constant tensor:
#      x y z
#    x 3.636340 -0.568040 -0.165630 
#    y -0.568040 3.977880 -0.013950 
#    z -0.165630 -0.013950 3.996770 
# 
# 
# High freq. dielectric constant tensor:
#      x y z
#    x 1.735330 -0.009370 -0.007450 
#    y -0.009370 1.766110 0.004390 
#    z -0.007450 0.004390 1.784920 
# 
# From -- ./inp_files/416824.got.cif
#   From: 2010.06.25/outbox.cif.g09.slc.cpg/sg2_209_cif.got.tgz:416824.got - 2010.06.27 13:26:56.
