data_PCOD8038373
_publ_section_title
;
Structure prediction by ZEFSAII (Michael W. Deem and Ramdas Pophale) SiO2 
 PCOD8038373
Probable space group: P -1
;
_chemical_formula_sum "Si O2"
_cell_formula_units_Z 14
_cell_length_a 9.024626
_cell_length_b 14.452841
_cell_length_c 9.036748
_cell_angle_alpha 127.474920
_cell_angle_beta 63.321105
_cell_angle_gamma 87.271908
_cell_volume 745.433504
_symmetry_space_group_name_H-M "P -1"
_symmetry_group_IT_number 2
_symmetry_cell_setting 'triclinic'
loop_
_space_group_symop_operation_xyz
x,y,z
-x,-y,-z
loop_
_atom_site_type_symbol
_atom_site_label
_atom_site_fract_x
_atom_site_fract_y
_atom_site_fract_z
Si Si1 0.809649 0.332613 0.249875
Si Si2 0.017051 0.246305 0.352751
Si Si3 0.740039 0.615124 0.544793
Si Si4 0.649573 0.244121 0.989778
Si Si5 0.473921 0.728782 0.536987
Si Si6 0.324623 0.972366 0.036882
Si Si7 0.372733 0.654448 0.223957
O O1 0.841639 0.459552 0.341705
O O2 0.614278 0.363246 0.447790
O O3 0.975347 0.232917 0.185036
O O4 0.804514 0.274483 0.033897
O O5 0.120586 0.335965 0.403280
O O6 0.826263 0.320254 0.599994
O O7 0.137036 0.103480 0.226092
O O8 0.680150 0.673062 0.460857
O O9 0.559037 0.661680 0.773677
O O10 0.693564 0.095719 0.868904
O O11 0.662391 0.263631 0.830266
O O12 0.475458 0.715031 0.345809
O O13 0.351132 0.877774 0.792185
O O14 0.500000 0.000000 0.000000
O O15 0.500000 0.500000 0.000000
#
# Coordination Sequence:
#
# PCOD8038373 Si02
#       7
#     2   2   2   2   2   2   2
#     4   9  18  31  54  87 108 146 201 227 274 340
#     4  11  21  35  61  85 115 151 188 243 282 331
#     4  10  17  35  60  83 109 152 198 237 274 331
#     4  10  20  36  60  80 115 156 184 238 284 335
#     4   9  19  35  62  81 114 155 186 235 290 330
#     4  10  19  40  63  83 111 146 205 240 273 330
#     4  11  23  39  55  89 125 150 183 231 298 347
#
# _framework density 18.781018
#
# number of rings (size 3 to 8) (size 9 to 14) (size 15 to 20)
#    0.000    2.286    2.857    4.714    0.000    5.714 
#    0.000    5.000    0.000    0.000    0.000    0.000 
#    0.000    0.000    0.000    0.000    0.000    0.000 
#
# Total GULP energy -173501.166879 kJ/mol
# GULP energy per Si atom -12392.940491 kJ/mol
# Density = 1.873827 g / cm^3
# Si number density = 18.781018 Si / 1000 Ang^3
#
#
#
# Elastic Constant Matrix: (Units=GPa)
#
#
# Indices 1 2 3 4 5 6 
#
# 1 117.4829 40.8917 41.6382 -13.1019 15.4570 -9.7243
# 2 40.8917 103.1785 43.3084 10.5344 14.8536 -10.8176
# 3 41.6382 43.3084 77.9202 7.8697 9.3848 -9.9318
# 4 -13.1019 10.5344 7.8697 31.2179 -14.3543 8.7175
# 5 15.4570 14.8536 9.3848 -14.3543 33.8073 0.7683
# 6 -9.7243 -10.8176 -9.9318 8.7175 0.7683 35.1588
#
#
#
# Elastic Compliance Matrix: (Units=1/GPa)
#
#
# Indices 1 2 3 4 5 6 
#
# 1 0.012666 -0.003874 -0.005965 0.009328 0.001567 -0.001721
# 2 -0.003874 0.016030 -0.003684 -0.012194 -0.009564 0.006052
# 3 -0.005965 -0.003684 0.020675 -0.010966 -0.006183 0.005911
# 4 0.009328 -0.012194 -0.010966 0.062986 0.031348 -0.020572
# 5 0.001567 -0.009564 -0.006183 0.031348 0.048389 -0.013086
# 6 -0.001721 0.006052 0.005911 -0.020572 -0.013086 0.036885
#
#
# Mechanical properties :
#
#
# Convention : Reuss Voigt Hill
#
# Bulk Modulus (GPa) = 44.79629 61.13981 52.96805
# Shear Modulus (GPa) = 21.54052 31.55302 26.54677
#
# Velocity S-wave (km/s) = 3.39031 4.10329 3.76372
# Velocity P-wave (km/s) = 6.26333 7.42119 6.86670
#
# Compressibility (1/GPa) = 0.02232328
#
# Stress axis : x y z
#
# Youngs Moduli (GPa) = 78.94943 62.38141 48.36802
#
# Poissons Ratio (x) = 0.24169 0.28853
# Poissons Ratio (y) = 0.30589 0.17821
# Poissons Ratio (z) = 0.47095 0.22984
#
# Static dielectric constant tensor:
#      x y z
#    x 3.798700 -0.197510 0.253430 
#    y -0.197510 3.517790 0.117320 
#    z 0.253430 0.117320 3.165330 
# 
# 
# High freq. dielectric constant tensor:
#      x y z
#    x 1.746890 -0.011570 0.015720 
#    y -0.011570 1.729130 0.018100 
#    z 0.015720 0.018100 1.689750 
# 
# From -- ./inp_files/172672.got.cif
#   From: 2010.06.25/outbox.cif.g09.slc.cpg/sg2_87_cif.got.tgz:172672.got - 2010.06.27 13:26:56.
