data_PCOD8038230
_publ_section_title
;
Structure prediction by ZEFSAII (Michael W. Deem and Ramdas Pophale) SiO2 
 PCOD8038230
Probable space group: P -1
;
_chemical_formula_sum "Si O2"
_cell_formula_units_Z 14
_cell_length_a 27.000000
_cell_length_b 15.000000
_cell_length_c 15.000000
_cell_angle_alpha 160.000000
_cell_angle_beta 160.000000
_cell_angle_gamma 20.000000
_cell_volume 621.679612
_symmetry_space_group_name_H-M "P -1"
_symmetry_group_IT_number 2
_symmetry_cell_setting 'triclinic'
loop_
_space_group_symop_operation_xyz
x,y,z
-x,-y,-z
loop_
_atom_site_type_symbol
_atom_site_label
_atom_site_fract_x
_atom_site_fract_y
_atom_site_fract_z
Si Si1 0.651207 0.446550 0.455683
Si Si2 0.808640 0.790032 0.144611
Si Si3 0.124166 0.218542 0.207483
Si Si4 0.918483 0.301798 0.275525
Si Si5 0.637860 0.454726 0.808564
Si Si6 0.535648 0.243081 0.745496
Si Si7 0.716405 0.922880 0.314851
O O1 0.497601 0.484692 0.289860
O O2 0.589050 0.575021 0.373413
O O3 0.790368 0.092389 0.350263
O O4 0.713876 0.657945 0.803515
O O5 0.724664 0.925222 0.224495
O O6 0.995047 0.510270 0.205941
O O7 0.172917 0.387143 0.527206
O O8 0.278760 0.967235 0.176683
O O9 0.040890 0.016532 0.907931
O O10 0.094007 0.268240 0.509293
O O11 0.812775 0.317169 0.025277
O O12 0.637461 0.248668 0.532748
O O13 0.604640 0.769496 0.006957
O O14 0.500000 0.000000 0.500000
O O15 0.500000 0.500000 0.000000
#
# Coordination Sequence:
#
# PCOD8038230 Si02
#       7
#     2   2   2   2   2   2   2
#     4  12  26  45  69  99 139 180 222 283 343 397
#     4  11  25  45  66  98 144 187 223 261 337 406
#     4  11  23  45  73  97 135 182 220 276 343 404
#     4  11  21  39  66  97 139 180 237 273 331 383
#     4  12  23  37  64  98 141 180 238 278 322 375
#     4  12  27  49  77 106 128 163 226 288 348 413
#     4  11  23  38  61 100 139 190 228 277 309 390
#
# _framework density 22.519638
#
# number of rings (size 3 to 8) (size 9 to 14) (size 15 to 20)
#    0.000    0.571    1.429    8.571    2.000    3.429 
#    0.000    4.286    0.000    0.000    0.000    0.000 
#    0.000    0.000    0.000    0.000    0.000    0.000 
#
# Total GULP energy -173454.257237 kJ/mol
# GULP energy per Si atom -12389.589803 kJ/mol
# Density = 2.246838 g / cm^3
# Si number density = 22.519638 Si / 1000 Ang^3
#
#
#
# Elastic Constant Matrix: (Units=GPa)
#
#
# Indices 1 2 3 4 5 6 
#
# 1 81.2498 41.7952 42.3081 15.9012 -21.4558 5.2015
# 2 41.7952 124.3172 43.4873 40.1334 -16.5148 17.2339
# 3 42.3081 43.4873 164.1510 45.6643 -32.5491 0.0368
# 4 15.9012 40.1334 45.6643 52.7615 0.1519 -4.4289
# 5 -21.4558 -16.5148 -32.5491 0.1519 44.4743 3.4769
# 6 5.2015 17.2339 0.0368 -4.4289 3.4769 41.4981
#
#
#
# Elastic Compliance Matrix: (Units=1/GPa)
#
#
# Indices 1 2 3 4 5 6 
#
# 1 0.017016 -0.004075 -0.002239 -0.000179 0.005127 -0.000887
# 2 -0.004075 0.014249 0.001458 -0.011479 0.004983 -0.007050
# 3 -0.002239 0.001458 0.010399 -0.009621 0.007258 -0.001969
# 4 -0.000179 -0.011479 -0.009621 0.036920 -0.012279 0.009767
# 5 0.005127 0.004983 0.007258 -0.012279 0.032692 -0.006768
# 6 -0.000887 -0.007050 -0.001969 0.009767 -0.006768 0.028748
#
#
# Mechanical properties :
#
#
# Convention : Reuss Voigt Hill
#
# Bulk Modulus (GPa) = 31.29836 69.43324 50.36580
# Shear Modulus (GPa) = 31.17470 43.88862 37.53166
#
# Velocity S-wave (km/s) = 3.72470 4.41943 4.08685
# Velocity P-wave (km/s) = 5.69441 7.54593 6.68458
#
# Compressibility (1/GPa) = 0.03195056
#
# Stress axis : x y z
#
# Youngs Moduli (GPa) = 58.76854 70.18066 96.16532
#
# Poissons Ratio (x) = 0.28602 0.21535
# Poissons Ratio (y) = 0.23951 -0.14024
# Poissons Ratio (z) = 0.13160 -0.10234
#
# Static dielectric constant tensor:
#      x y z
#    x 4.099200 0.055400 -0.091890 
#    y 0.055400 4.672000 0.277870 
#    z -0.091890 0.277870 4.657520 
# 
# 
# High freq. dielectric constant tensor:
#      x y z
#    x 1.874590 0.005980 -0.016880 
#    y 0.005980 1.930010 0.020470 
#    z -0.016880 0.020470 1.927670 
# 
# From -- ./inp_files/544228.got.cif
#   From: 2010.06.25/outbox.ucp.g09.slc.cvg/sg2_273_cif.got.tgz:544228.got - 2010.06.28 11:54:26.
