data_PCOD8038485
_publ_section_title
;
Structure prediction by ZEFSAII (Michael W. Deem and Ramdas Pophale) SiO2 
 PCOD8038485
Probable space group: P -1
;
_chemical_formula_sum "Si O2"
_cell_formula_units_Z 16
_cell_length_a 9.385268
_cell_length_b 15.285977
_cell_length_c 14.866916
_cell_angle_alpha 142.663099
_cell_angle_beta 124.674438
_cell_angle_gamma 37.420682
_cell_volume 774.658094
_symmetry_space_group_name_H-M "P -1"
_symmetry_group_IT_number 2
_symmetry_cell_setting 'triclinic'
loop_
_space_group_symop_operation_xyz
x,y,z
-x,-y,-z
loop_
_atom_site_type_symbol
_atom_site_label
_atom_site_fract_x
_atom_site_fract_y
_atom_site_fract_z
Si Si1 0.871975 0.933826 0.862343
Si Si2 0.087357 0.916777 0.162296
Si Si3 0.189242 0.585990 0.817610
Si Si4 0.882438 0.543588 0.784569
Si Si5 0.425048 0.896604 0.836823
Si Si6 0.276211 0.797426 0.333299
Si Si7 0.069603 0.190857 0.669146
Si Si8 0.344856 0.163054 0.894473
O O1 0.015465 0.713831 0.773298
O O2 0.872875 0.952886 0.769288
O O3 0.601298 0.090610 0.926556
O O4 0.000000 0.000000 0.000000
O O5 0.184816 0.874344 0.262539
O O6 0.224224 0.708487 0.991154
O O7 0.807350 0.043779 0.157311
O O8 0.445231 0.392535 0.716074
O O9 0.084128 0.517653 0.784266
O O10 0.647768 0.661859 0.734022
O O11 0.965264 0.333187 0.661294
O O12 0.824527 0.653626 0.948628
O O13 0.371036 0.979001 0.783337
O O14 0.500000 0.000000 0.000000
O O15 0.139959 0.741694 0.284620
O O16 0.230898 0.967445 0.512260
O O17 0.229078 0.219884 0.801167
#
# Coordination Sequence:
#
# PCOD8038485 Si02
#       8
#     2   2   2   2   2   2   2   2
#     4  10  22  36  62 100 125 148 193 254 312 353
#     4  11  21  39  64  93 121 159 194 249 308 353
#     4  11  21  39  63  94 121 151 199 258 303 351
#     4  11  21  37  66  94 117 153 202 254 303 352
#     4  10  17  36  63  91 120 147 193 255 301 352
#     4  11  26  44  58  84 128 163 204 247 295 356
#     4  11  26  43  60  85 121 170 205 242 294 361
#     4  11  20  40  65  91 123 157 199 248 298 361
#
# _framework density 20.654274000000001
#
# number of rings (size 3 to 8) (size 9 to 14) (size 15 to 20)
#    0.000    1.250    5.000    3.000    7.000    0.500 
#    0.000    2.500    0.000    0.000    0.000    0.000 
#    0.000    0.000    0.000    0.000    0.000    0.000 
#
# Total GULP energy -198356.999669 kJ/mol
# GULP energy per Si atom -12397.312479 kJ/mol
# Density = 2.060726 g / cm^3
# Si number density = 20.654274 Si / 1000 Ang^3
#
#
#
# Elastic Constant Matrix: (Units=GPa)
#
#
# Indices 1 2 3 4 5 6 
#
# 1 143.2366 56.4224 34.2847 16.1501 -14.0727 2.6932
# 2 56.4224 100.0494 22.3441 22.5548 -6.5434 -0.7282
# 3 34.2847 22.3441 41.1447 12.0326 -7.9930 -8.7826
# 4 16.1501 22.5548 12.0326 18.7581 -1.0736 -8.2112
# 5 -14.0727 -6.5434 -7.9930 -1.0736 22.9479 5.3684
# 6 2.6932 -0.7282 -8.7826 -8.2112 5.3684 46.9003
#
#
#
# Elastic Compliance Matrix: (Units=1/GPa)
#
#
# Indices 1 2 3 4 5 6 
#
# 1 0.010601 -0.004153 -0.006050 -0.001101 0.003726 -0.002425
# 2 -0.004153 0.016378 -0.000805 -0.016721 0.001711 -0.002781
# 3 -0.006050 -0.000805 0.036390 -0.015146 0.007166 0.003677
# 4 -0.001101 -0.016721 -0.015146 0.089544 -0.009748 0.013761
# 5 0.003726 0.001711 0.007166 -0.009748 0.049854 -0.006259
# 6 -0.002425 -0.002781 0.003677 0.013761 -0.006259 0.025232
#
#
# Mechanical properties :
#
#
# Convention : Reuss Voigt Hill
#
# Bulk Modulus (GPa) = 24.18259 56.72588 40.45423
# Shear Modulus (GPa) = 18.95371 29.14656 24.05013
#
# Velocity S-wave (km/s) = 3.03259 3.76062 3.41605
# Velocity P-wave (km/s) = 4.89855 6.81032 5.93196
#
# Compressibility (1/GPa) = 0.04135207
#
# Stress axis : x y z
#
# Youngs Moduli (GPa) = 94.32689 61.05708 27.48033
#
# Poissons Ratio (x) = 0.25358 0.16627
# Poissons Ratio (y) = 0.39175 0.02212
# Poissons Ratio (z) = 0.57072 0.04915
#
# Static dielectric constant tensor:
#      x y z
#    x 4.137200 0.435890 -0.111460 
#    y 0.435890 4.410710 0.048570 
#    z -0.111460 0.048570 3.247440 
# 
# 
# High freq. dielectric constant tensor:
#      x y z
#    x 1.825830 0.008250 -0.007410 
#    y 0.008250 1.828060 0.004270 
#    z -0.007410 0.004270 1.753400 
# 
# From -- ./inp_files/501005.got.cif
#   From: 2010.06.25/outbox.cif.g09.slc.cpg/sg2_251_cif.got.tgz:501005.got - 2010.06.27 13:26:56.
