data_PCOD8038106
_publ_section_title
;
Structure prediction by ZEFSAII (Michael W. Deem and Ramdas Pophale) SiO2 
 PCOD8038106
Probable space group: P -1
;
_chemical_formula_sum "Si O2"
_cell_formula_units_Z 16
_cell_length_a 9.526271
_cell_length_b 12.280261
_cell_length_c 22.720134
_cell_angle_alpha 145.662619
_cell_angle_beta 139.956257
_cell_angle_gamma 36.634683
_cell_volume 851.744024
_symmetry_space_group_name_H-M "P -1"
_symmetry_group_IT_number 2
_symmetry_cell_setting 'triclinic'
loop_
_space_group_symop_operation_xyz
x,y,z
-x,-y,-z
loop_
_atom_site_type_symbol
_atom_site_label
_atom_site_fract_x
_atom_site_fract_y
_atom_site_fract_z
Si Si1 0.729950 0.048197 0.776641
Si Si2 0.558220 0.721387 0.578871
Si Si3 0.824000 0.195465 0.101228
Si Si4 0.042041 0.436569 0.890204
Si Si5 0.682732 0.446918 0.872382
Si Si6 0.148985 0.219369 0.116219
Si Si7 0.243487 0.158513 0.722426
Si Si8 0.743459 0.483105 0.646826
O O1 0.757857 0.197152 0.801781
O O2 0.481221 0.196335 0.800776
O O3 0.697876 0.844289 0.647088
O O4 0.964635 0.952113 0.851262
O O5 0.743617 0.541223 0.603938
O O6 0.453146 0.610390 0.448491
O O7 0.324091 0.902949 0.622705
O O8 0.611949 0.402144 0.159079
O O9 0.928753 0.282110 0.120832
O O10 0.716899 0.038773 0.969589
O O11 0.170951 0.220440 0.794779
O O12 0.800782 0.441229 0.844436
O O13 0.965917 0.651436 0.922816
O O14 0.227138 0.434832 0.998271
O O15 0.335058 0.300370 0.240983
O O16 0.017255 0.304212 0.672115
#
# Coordination Sequence:
#
# PCOD8038106 Si02
#       8
#     2   2   2   2   2   2   2   2
#     4  10  21  36  54  87 106 145 179 222 275 325
#     4   9  20  31  56  84 110 133 179 224 278 316
#     4  11  22  35  56  83 112 143 177 224 279 317
#     4  10  22  37  52  81 110 152 184 213 270 322
#     4  11  23  37  52  75 122 148 177 222 261 331
#     4  10  20  35  57  83 109 137 186 220 270 320
#     4   9  20  34  57  78 109 138 182 225 267 313
#     4  10  17  34  51  87 110 133 173 234 273 311
#
# _framework density 18.784986
#
# number of rings (size 3 to 8) (size 9 to 14) (size 15 to 20)
#    0.750    1.250    2.500    1.875    5.250    1.500 
#    0.000    0.000    0.000    3.000    0.000    5.250 
#    0.000    0.000    0.000    0.000    0.000    0.000 
#
# Total GULP energy -198256.469457 kJ/mol
# GULP energy per Si atom -12391.029341 kJ/mol
# Density = 1.874223 g / cm^3
# Si number density = 18.784986 Si / 1000 Ang^3
#
#
#
# Elastic Constant Matrix: (Units=GPa)
#
#
# Indices 1 2 3 4 5 6 
#
# 1 79.0374 37.0477 18.3226 3.0973 11.1556 4.6256
# 2 37.0477 87.3258 30.2590 -11.4229 10.1624 10.7646
# 3 18.3226 30.2590 113.0698 8.1025 9.3131 2.6799
# 4 3.0973 -11.4229 8.1025 30.3976 4.2513 4.6016
# 5 11.1556 10.1624 9.3131 4.2513 18.3671 1.0293
# 6 4.6256 10.7646 2.6799 4.6016 1.0293 14.0812
#
#
#
# Elastic Compliance Matrix: (Units=1/GPa)
#
#
# Indices 1 2 3 4 5 6 
#
# 1 0.016873 -0.007199 -0.000124 -0.003887 -0.005395 0.001649
# 2 -0.007199 0.020499 -0.004299 0.013004 -0.006890 -0.016234
# 3 -0.000124 -0.004299 0.010431 -0.004561 -0.001946 0.002975
# 4 -0.003887 0.013004 -0.004561 0.044255 -0.011565 -0.021413
# 5 -0.005395 -0.006890 -0.001946 -0.011565 0.064836 0.006450
# 6 0.001649 -0.016234 0.002975 -0.021413 0.006450 0.088845
#
#
# Mechanical properties :
#
#
# Convention : Reuss Voigt Hill
#
# Bulk Modulus (GPa) = 40.71753 50.07684 45.39719
# Shear Modulus (GPa) = 18.03955 25.48941 21.76448
#
# Velocity S-wave (km/s) = 3.10226 3.68761 3.40753
# Velocity P-wave (km/s) = 5.87832 6.69680 6.30086
#
# Compressibility (1/GPa) = 0.02455944
#
# Stress axis : x y z
#
# Youngs Moduli (GPa) = 59.26732 48.78271 95.86576
#
# Poissons Ratio (x) = 0.35120 0.01187
# Poissons Ratio (y) = 0.42668 0.41211
# Poissons Ratio (z) = 0.00734 0.20971
#
# Static dielectric constant tensor:
#      x y z
#    x 3.122820 0.083570 0.151080 
#    y 0.083570 3.404040 0.095410 
#    z 0.151080 0.095410 3.597430 
# 
# 
# High freq. dielectric constant tensor:
#      x y z
#    x 1.680560 0.014460 0.015380 
#    y 0.014460 1.738600 0.002870 
#    z 0.015380 0.002870 1.729600 
# 
# From -- ./inp_files/607604.got.cif
#   From: 2010.06.25/outbox.cif.g09.slc.cpg/sg2_304_cif.got.tgz:607604.got - 2010.06.27 13:26:56.
