data_PCOD8038172
_publ_section_title
;
Structure prediction by ZEFSAII (Michael W. Deem and Ramdas Pophale) SiO2 
 PCOD8038172
Probable space group: P -1
;
_chemical_formula_sum "Si O2"
_cell_formula_units_Z 14
_cell_length_a 9.444936
_cell_length_b 15.676339
_cell_length_c 25.394358
_cell_angle_alpha 25.889622
_cell_angle_beta 152.878948
_cell_angle_gamma 144.766767
_cell_volume 745.971370
_symmetry_space_group_name_H-M "P -1"
_symmetry_group_IT_number 2
_symmetry_cell_setting 'triclinic'
loop_
_space_group_symop_operation_xyz
x,y,z
-x,-y,-z
loop_
_atom_site_type_symbol
_atom_site_label
_atom_site_fract_x
_atom_site_fract_y
_atom_site_fract_z
Si Si1 0.673629 0.764407 0.872661
Si Si2 0.585575 0.181479 0.635559
Si Si3 0.760028 0.670216 0.474965
Si Si4 0.248571 0.407437 0.896679
Si Si5 0.192592 0.352798 0.793676
Si Si6 0.392130 0.771923 0.088659
Si Si7 0.471669 0.578762 0.329681
O O1 0.443610 0.617912 0.844542
O O2 0.575287 0.983210 0.708504
O O3 0.635458 0.725709 0.944119
O O4 0.021575 0.738472 0.983196
O O5 0.289064 0.166637 0.587017
O O6 0.587020 0.360503 0.495027
O O7 0.908932 0.201754 0.764311
O O8 0.500000 0.500000 0.500000
O O9 0.666348 0.727366 0.352567
O O10 0.095578 0.579362 0.636996
O O11 0.296251 0.299288 0.916883
O O12 0.889529 0.441041 0.765204
O O13 0.487231 0.332288 0.865283
O O14 0.537542 0.663963 0.246362
O O15 0.500000 0.000000 0.000000
#
# Coordination Sequence:
#
# PCOD8038172 Si02
#       7
#     2   2   2   2   2   2   2
#     4  10  23  34  54  83 110 133 186 209 269 314
#     4  10  17  34  57  86  99 134 183 227 250 314
#     4   8  15  30  54  84  99 131 177 223 257 304
#     4  10  19  38  55  78 107 148 166 224 262 313
#     4  10  18  34  57  76 108 139 178 214 269 304
#     4  11  22  35  51  83 109 143 173 218 263 321
#     4   9  18  34  57  77 109 136 177 216 271 302
#
# _framework density 18.767477
#
# number of rings (size 3 to 8) (size 9 to 14) (size 15 to 20)
#    0.000    2.571    5.714    0.000    0.000    5.143 
#    0.000    0.000    0.000    0.857    0.000    0.000 
#    0.000    0.000    0.000    0.000    0.000    0.000 
#
# Total GULP energy -173500.376645 kJ/mol
# GULP energy per Si atom -12392.884046 kJ/mol
# Density = 1.872476 g / cm^3
# Si number density = 18.767477 Si / 1000 Ang^3
#
#
#
# Elastic Constant Matrix: (Units=GPa)
#
#
# Indices 1 2 3 4 5 6 
#
# 1 126.5256 26.4576 40.1257 -4.7723 3.3378 -9.8281
# 2 26.4576 51.7917 22.1865 -7.5807 -5.3642 1.3551
# 3 40.1257 22.1865 72.3991 -11.5473 -0.7407 -5.1494
# 4 -4.7723 -7.5807 -11.5473 22.4208 -4.1689 -0.3628
# 5 3.3378 -5.3642 -0.7407 -4.1689 33.5170 -0.7937
# 6 -9.8281 1.3551 -5.1494 -0.3628 -0.7937 13.5575
#
#
#
# Elastic Compliance Matrix: (Units=1/GPa)
#
#
# Indices 1 2 3 4 5 6 
#
# 1 0.010664 -0.004133 -0.004485 -0.001686 -0.001883 0.006285
# 2 -0.004133 0.025062 -0.004896 0.005868 0.004880 -0.006918
# 3 -0.004485 -0.004896 0.019379 0.007665 0.001160 0.004872
# 4 -0.001686 0.005868 0.007665 0.051667 0.007773 0.002941
# 5 -0.001883 0.004880 0.001160 0.007773 0.031812 0.000658
# 6 0.006285 -0.006918 0.004872 0.002941 0.000658 0.080975
#
#
# Mechanical properties :
#
#
# Convention : Reuss Voigt Hill
#
# Bulk Modulus (GPa) = 35.61475 47.58398 41.59937
# Shear Modulus (GPa) = 19.53527 24.69551 22.11539
#
# Velocity S-wave (km/s) = 3.22981 3.63142 3.43649
# Velocity P-wave (km/s) = 5.73820 6.55687 6.16115
#
# Compressibility (1/GPa) = 0.02807825
#
# Stress axis : x y z
#
# Youngs Moduli (GPa) = 93.76949 39.90107 51.60116
#
# Poissons Ratio (x) = 0.16490 0.23144
# Poissons Ratio (y) = 0.38753 0.25263
# Poissons Ratio (z) = 0.42057 0.19535
#
# Static dielectric constant tensor:
#      x y z
#    x 3.858710 -0.327080 0.065160 
#    y -0.327080 3.226720 0.028310 
#    z 0.065160 0.028310 3.634780 
# 
# 
# High freq. dielectric constant tensor:
#      x y z
#    x 1.724110 -0.015720 0.003280 
#    y -0.015720 1.689480 0.007070 
#    z 0.003280 0.007070 1.729850 
# 
# From -- ./inp_files/216327.got.cif
#   From: 2010.06.25/outbox.cif.g09.slc.cpg/sg2_109_cif.got.tgz:216327.got - 2010.06.27 13:26:56.
