data_PCOD8038886
_publ_section_title
;
Structure prediction by ZEFSAII (Michael W. Deem and Ramdas Pophale) SiO2 
 PCOD8038886
Probable space group: P -1
;
_chemical_formula_sum "Si O2"
_cell_formula_units_Z 16
_cell_length_a 18.601227
_cell_length_b 26.179742
_cell_length_c 7.545983
_cell_angle_alpha 80.026861
_cell_angle_beta 92.761695
_cell_angle_gamma 165.397959
_cell_volume 799.965988
_symmetry_space_group_name_H-M "P -1"
_symmetry_group_IT_number 2
_symmetry_cell_setting 'triclinic'
loop_
_space_group_symop_operation_xyz
x,y,z
-x,-y,-z
loop_
_atom_site_type_symbol
_atom_site_label
_atom_site_fract_x
_atom_site_fract_y
_atom_site_fract_z
Si Si1 0.799717 0.022058 0.991085
Si Si2 0.059811 0.868158 0.680507
Si Si3 0.255442 0.635506 0.407034
Si Si4 0.767031 0.492176 0.472690
Si Si5 0.262174 0.139285 0.928548
Si Si6 0.086458 0.294532 0.569400
Si Si7 0.746853 0.748741 0.568986
Si Si8 0.406703 0.263144 0.232051
O O1 0.013656 0.194183 0.081232
O O2 0.415044 0.755688 0.158437
O O3 0.891933 0.026559 0.967377
O O4 0.856116 0.096128 0.780407
O O5 0.986666 0.767207 0.609142
O O6 0.822235 0.745443 0.654851
O O7 0.444867 0.154310 0.541403
O O8 0.071209 0.449992 0.501306
O O9 0.000000 0.500000 0.500000
O O10 0.434487 0.264456 0.683483
O O11 0.998834 0.704390 0.410998
O O12 0.670372 0.423518 0.296746
O O13 0.521828 0.333713 0.001066
O O14 0.000000 0.000000 0.000000
O O15 0.459157 0.544050 0.512864
O O16 0.636533 0.706524 0.747346
O O17 0.057583 0.990162 0.363901
#
# Coordination Sequence:
#
# PCOD8038886 Si02
#       8
#     2   2   2   2   2   2   2   2
#     4   9  22  36  56  83 118 144 196 230 277 345
#     4  10  20  37  56  78 122 151 183 231 285 323
#     4   9  20  44  67  76 105 152 197 246 285 322
#     4  10  22  38  57  86 112 147 199 233 273 342
#     4  11  19  31  55  81 113 157 193 225 266 334
#     4  11  22  34  55  87 122 150 175 230 291 347
#     4  10  18  31  52  84 118 157 185 215 274 346
#     4  10  18  32  53  78 120 152 190 230 265 322
#
# _framework density 20.00085
#
# number of rings (size 3 to 8) (size 9 to 14) (size 15 to 20)
#    0.750    1.250    1.250    4.125    0.000    3.500 
#    0.000    3.125    0.000    0.000    0.000    0.000 
#    0.000    0.000    0.000    0.000    0.000    0.000 
#
# Total GULP energy -198239.039230 kJ/mol
# GULP energy per Si atom -12389.939952 kJ/mol
# Density = 1.995533 g / cm^3
# Si number density = 20.000850 Si / 1000 Ang^3
#
#
#
# Elastic Constant Matrix: (Units=GPa)
#
#
# Indices 1 2 3 4 5 6 
#
# 1 134.4326 16.7911 31.4330 -5.7882 -1.9274 -18.9006
# 2 16.7911 58.2317 19.7193 22.2020 -6.7096 -26.5929
# 3 31.4330 19.7193 44.2842 15.1224 2.3338 -15.2397
# 4 -5.7882 22.2020 15.1224 36.9382 -9.1934 -4.2792
# 5 -1.9274 -6.7096 2.3338 -9.1934 24.3131 -4.8404
# 6 -18.9006 -26.5929 -15.2397 -4.2792 -4.8404 27.0087
#
#
#
# Elastic Compliance Matrix: (Units=1/GPa)
#
#
# Indices 1 2 3 4 5 6 
#
# 1 0.010431 -0.000297 -0.008481 0.007038 0.005065 0.004244
# 2 -0.000297 0.047514 0.001190 -0.020022 0.014703 0.046709
# 3 -0.008481 0.001190 0.039415 -0.018841 -0.008676 0.012936
# 4 0.007038 -0.020022 -0.018841 0.049222 0.012387 -0.015401
# 5 0.005065 0.014703 -0.008676 0.012387 0.056112 0.025144
# 6 0.004244 0.046709 0.012936 -0.015401 0.025144 0.095350
#
#
# Mechanical properties :
#
#
# Convention : Reuss Voigt Hill
#
# Bulk Modulus (GPa) = 12.16801 41.42615 26.79708
# Shear Modulus (GPa) = 14.67930 28.91900 21.79915
#
# Velocity S-wave (km/s) = 2.71206 3.80661 3.30496
# Velocity P-wave (km/s) = 3.98798 6.33068 5.29063
#
# Compressibility (1/GPa) = 0.08218268
#
# Stress axis : x y z
#
# Youngs Moduli (GPa) = 95.86520 21.04637 25.37122
#
# Poissons Ratio (x) = 0.00625 0.21519
# Poissons Ratio (y) = 0.02848 -0.03019
# Poissons Ratio (z) = 0.81308 -0.02504
#
# Static dielectric constant tensor:
#      x y z
#    x 3.559860 -0.434450 0.068970 
#    y -0.434450 3.515350 0.288360 
#    z 0.068970 0.288360 3.601630 
# 
# 
# High freq. dielectric constant tensor:
#      x y z
#    x 1.768090 -0.037920 0.011440 
#    y -0.037920 1.753680 0.026010 
#    z 0.011440 0.026010 1.766760 
# 
# From -- ./inp_files/338296.got.cif
#   From: 2010.06.25/outbox.cif.g09.slc.cpg/sg2_170_cif.got.tgz:338296.got - 2010.06.27 13:26:56.
