data_PCOD8038653
_publ_section_title
;
Structure prediction by ZEFSAII (Michael W. Deem and Ramdas Pophale) SiO2 
 PCOD8038653
Probable space group: P -1
;
_chemical_formula_sum "Si O2"
_cell_formula_units_Z 14
_cell_length_a 10.030105
_cell_length_b 5.097525
_cell_length_c 20.656826
_cell_angle_alpha 63.962991
_cell_angle_beta 131.627491
_cell_angle_gamma 120.277202
_cell_volume 672.859345
_symmetry_space_group_name_H-M "P -1"
_symmetry_group_IT_number 2
_symmetry_cell_setting 'triclinic'
loop_
_space_group_symop_operation_xyz
x,y,z
-x,-y,-z
loop_
_atom_site_type_symbol
_atom_site_label
_atom_site_fract_x
_atom_site_fract_y
_atom_site_fract_z
Si Si1 0.626577 0.609517 0.966496
Si Si2 0.357346 0.748646 0.391196
Si Si3 0.710005 0.395947 0.224444
Si Si4 0.874809 0.237199 0.033414
Si Si5 0.271291 0.045101 0.456848
Si Si6 0.972633 0.069228 0.776450
Si Si7 0.882828 0.896007 0.316450
O O1 0.500901 0.645967 0.861181
O O2 0.500000 0.500000 0.000000
O O3 0.717512 0.346194 0.007011
O O4 0.781667 0.937185 0.992557
O O5 0.318856 0.388796 0.405040
O O6 0.583221 0.932260 0.438565
O O7 0.298805 0.801002 0.440088
O O8 0.231008 0.878272 0.287691
O O9 0.740884 0.067838 0.276542
O O10 0.752592 0.552385 0.292602
O O11 0.856610 0.606728 0.195964
O O12 0.012854 0.167361 0.138444
O O13 0.000000 0.500000 0.000000
O O14 0.049495 0.917898 0.420344
O O15 0.999088 0.940407 0.727531
#
# Coordination Sequence:
#
# PCOD8038653 Si02
#       7
#     2   2   2   2   2   2   2
#     4  12  22  40  59  80 102 143 189 228 265 330
#     4   9  16  23  40  63  95 139 157 197 254 328
#     4  10  18  28  50  73  93 129 172 212 249 310
#     4  12  26  39  55  80 113 143 181 231 275 312
#     4   9  14  24  37  64 101 129 156 197 263 312
#     4   9  19  30  49  69 102 134 175 206 266 310
#     4   9  15  27  43  74  98 129 160 214 259 307
#
# _framework density 20.806726999999999
#
# number of rings (size 3 to 8) (size 9 to 14) (size 15 to 20)
#    0.857    1.143    2.857    2.571    0.000    0.000 
#    0.000    0.000    0.000    0.000    0.000    0.000 
#    0.000    6.857    0.000    0.000    0.000    0.429 
#
# Total GULP energy -173438.316382 kJ/mol
# GULP energy per Si atom -12388.451170 kJ/mol
# Density = 2.075937 g / cm^3
# Si number density = 20.806727 Si / 1000 Ang^3
#
#
#
# Elastic Constant Matrix: (Units=GPa)
#
#
# Indices 1 2 3 4 5 6 
#
# 1 39.5826 13.6807 28.1805 -6.8870 19.1016 -14.9144
# 2 13.6807 78.4996 25.2435 12.8326 6.2730 -20.8181
# 3 28.1805 25.2435 124.0498 17.1306 50.3968 -1.0792
# 4 -6.8870 12.8326 17.1306 31.3119 0.5942 5.5293
# 5 19.1016 6.2730 50.3968 0.5942 32.6337 -7.5119
# 6 -14.9144 -20.8181 -1.0792 5.5293 -7.5119 33.2378
#
#
#
# Elastic Compliance Matrix: (Units=1/GPa)
#
#
# Indices 1 2 3 4 5 6 
#
# 1 0.043614 -0.003863 -0.004186 0.011742 -0.015896 0.011469
# 2 -0.003863 0.019961 -0.007471 -0.007828 0.013531 0.014887
# 3 -0.004186 -0.007471 0.031364 -0.011574 -0.047650 -0.014383
# 4 0.011742 -0.007828 -0.011574 0.044757 0.010522 -0.005078
# 5 -0.015896 0.013531 -0.047650 0.010522 0.116345 0.024339
# 6 0.011469 0.014887 -0.014383 -0.005078 0.024339 0.050435
#
#
# Mechanical properties :
#
#
# Convention : Reuss Voigt Hill
#
# Bulk Modulus (GPa) = 15.64916 41.81569 28.73243
# Shear Modulus (GPa) = 13.93476 31.10517 22.51996
#
# Velocity S-wave (km/s) = 2.59071 3.87066 3.29346
# Velocity P-wave (km/s) = 4.06037 6.33379 5.31994
#
# Compressibility (1/GPa) = 0.06390119
#
# Stress axis : x y z
#
# Youngs Moduli (GPa) = 22.92839 50.09762 31.88349
#
# Poissons Ratio (x) = 0.19350 0.13345
# Poissons Ratio (y) = 0.08856 0.23820
# Poissons Ratio (z) = 0.09597 0.37428
#
# Static dielectric constant tensor:
#      x y z
#    x 3.357830 -0.306510 0.572350 
#    y -0.306510 3.712530 0.376120 
#    z 0.572350 0.376120 3.991800 
# 
# 
# High freq. dielectric constant tensor:
#      x y z
#    x 1.764990 -0.037210 0.050700 
#    y -0.037210 1.810130 0.030950 
#    z 0.050700 0.030950 1.814950 
# 
# From -- ./inp_files/585570.got.cif
#   From: 2010.06.25/outbox.cif.g09.slc.cpg/sg2_293_cif.got.tgz:585570.got - 2010.06.27 13:26:56.
