data_PCOD8038214
_publ_section_title
;
Structure prediction by ZEFSAII (Michael W. Deem and Ramdas Pophale) SiO2 
 PCOD8038214
Probable space group: P -1
;
_chemical_formula_sum "Si O2"
_cell_formula_units_Z 16
_cell_length_a 16.567795
_cell_length_b 12.201280
_cell_length_c 9.315812
_cell_angle_alpha 120.676840
_cell_angle_beta 76.925155
_cell_angle_gamma 52.315300
_cell_volume 784.863402
_symmetry_space_group_name_H-M "P -1"
_symmetry_group_IT_number 2
_symmetry_cell_setting 'triclinic'
loop_
_space_group_symop_operation_xyz
x,y,z
-x,-y,-z
loop_
_atom_site_type_symbol
_atom_site_label
_atom_site_fract_x
_atom_site_fract_y
_atom_site_fract_z
Si Si1 0.444849 0.041227 0.889757
Si Si2 0.168833 0.860997 0.515010
Si Si3 0.109909 0.944331 0.124109
Si Si4 0.949316 0.805262 0.450524
Si Si5 0.090005 0.383788 0.235447
Si Si6 0.288646 0.467621 0.731581
Si Si7 0.947146 0.847483 0.998996
Si Si8 0.308426 0.441313 0.041232
O O1 0.571080 0.775087 0.588895
O O2 0.266343 0.213546 0.076251
O O3 0.445604 0.172314 0.887112
O O4 0.500000 0.000000 0.000000
O O5 0.313378 0.579797 0.198452
O O6 0.140255 0.027113 0.543932
O O7 0.001299 0.000202 0.692439
O O8 0.200775 0.880037 0.672583
O O9 0.159523 0.999066 0.238521
O O10 0.015733 0.122586 0.140801
O O11 0.267558 0.646050 0.819216
O O12 0.973842 0.620020 0.328756
O O13 0.130065 0.624825 0.274119
O O14 0.114721 0.211653 0.045062
O O15 0.000000 0.500000 0.500000
O O16 0.116883 0.619476 0.871831
O O17 0.344455 0.385145 0.820060
#
# Coordination Sequence:
#
# PCOD8038214 Si02
#       8
#     2   2   2   2   2   2   2   2
#     4  11  26  39  61  86 115 160 202 241 295 351
#     4  10  18  33  59  94 115 144 207 248 288 335
#     4  10  18  32  60  90 119 151 199 247 285 340
#     4  10  17  34  59  87 117 152 199 242 291 338
#     4  11  23  41  59  84 127 157 193 243 298 357
#     4  11  20  38  61  91 119 150 200 245 294 345
#     4  11  22  34  63  94 120 155 195 245 298 347
#     4  10  19  36  59  85 120 151 192 252 286 343
#
# _framework density 20.385712999999999
#
# number of rings (size 3 to 8) (size 9 to 14) (size 15 to 20)
#    0.000    1.500    5.000    3.375    5.250    0.500 
#    0.000    0.625    0.000    0.750    0.000    0.000 
#    0.000    0.000    0.000    0.000    0.000    0.000 
#
# Total GULP energy -198224.886039 kJ/mol
# GULP energy per Si atom -12389.055377 kJ/mol
# Density = 2.033931 g / cm^3
# Si number density = 20.385713 Si / 1000 Ang^3
#
#
#
# Elastic Constant Matrix: (Units=GPa)
#
#
# Indices 1 2 3 4 5 6 
#
# 1 66.3918 33.2586 35.6835 -0.7780 17.3135 5.7095
# 2 33.2586 133.3111 43.8373 -6.4655 14.8696 13.4357
# 3 35.6835 43.8373 137.2468 -5.9417 31.0208 2.8108
# 4 -0.7780 -6.4655 -5.9417 34.3179 -2.0619 9.9574
# 5 17.3135 14.8696 31.0208 -2.0619 23.1009 1.7048
# 6 5.7095 13.4357 2.8108 9.9574 1.7048 26.0000
#
#
#
# Elastic Compliance Matrix: (Units=1/GPa)
#
#
# Indices 1 2 3 4 5 6 
#
# 1 0.020630 -0.003171 -0.001902 -0.000600 -0.010791 -0.001749
# 2 -0.003171 0.009641 -0.001872 0.002870 -0.000681 -0.005138
# 3 -0.001902 -0.001872 0.011191 0.000574 -0.012403 0.000769
# 4 -0.000600 0.002870 0.000574 0.034122 0.001956 -0.014610
# 5 -0.010791 -0.000681 -0.012403 0.001956 0.068732 -0.001194
# 6 -0.001749 -0.005138 0.000769 -0.014610 -0.001194 0.047091
#
#
# Mechanical properties :
#
#
# Convention : Reuss Voigt Hill
#
# Bulk Modulus (GPa) = 36.26726 62.50094 49.38410
# Shear Modulus (GPa) = 23.31148 31.62845 27.46996
#
# Velocity S-wave (km/s) = 3.38527 3.94318 3.67483
# Velocity P-wave (km/s) = 5.75406 7.17338 6.50256
#
# Compressibility (1/GPa) = 0.02757308
#
# Stress axis : x y z
#
# Youngs Moduli (GPa) = 48.47262 103.72767 89.35836
#
# Poissons Ratio (x) = 0.32887 0.16998
# Poissons Ratio (y) = 0.15368 0.16725
# Poissons Ratio (z) = 0.09220 0.19414
#
# Static dielectric constant tensor:
#      x y z
#    x 3.505350 0.293560 0.576570 
#    y 0.293560 3.958170 0.148850 
#    z 0.576570 0.148850 4.119420 
# 
# 
# High freq. dielectric constant tensor:
#      x y z
#    x 1.748900 0.018430 0.047210 
#    y 0.018430 1.807950 -0.008540 
#    z 0.047210 -0.008540 1.801350 
# 
# From -- ./inp_files/189350.got.cif
#   From: 2010.06.25/outbox.cif.g09.slc.cpg/sg2_95_cif.got.tgz:189350.got - 2010.06.27 13:26:56.
