data_PCOD8038301
_publ_section_title
;
Structure prediction by ZEFSAII (Michael W. Deem and Ramdas Pophale) SiO2 
 PCOD8038301
Probable space group: P -1
;
_chemical_formula_sum "Si O2"
_cell_formula_units_Z 16
_cell_length_a 9.324896
_cell_length_b 13.283521
_cell_length_c 9.212854
_cell_angle_alpha 93.189609
_cell_angle_beta 72.123327
_cell_angle_gamma 48.356051
_cell_volume 755.603870
_symmetry_space_group_name_H-M "P -1"
_symmetry_group_IT_number 2
_symmetry_cell_setting 'triclinic'
loop_
_space_group_symop_operation_xyz
x,y,z
-x,-y,-z
loop_
_atom_site_type_symbol
_atom_site_label
_atom_site_fract_x
_atom_site_fract_y
_atom_site_fract_z
Si Si1 0.036170 0.220690 0.729631
Si Si2 0.870477 0.993002 0.926703
Si Si3 0.174386 0.867770 0.332451
Si Si4 0.842336 0.640573 0.457322
Si Si5 0.331877 0.589482 0.928629
Si Si6 0.302495 0.735954 0.701253
Si Si7 0.572207 0.621182 0.350499
Si Si8 0.393935 0.918569 0.725393
O O1 0.032958 0.331068 0.663478
O O2 0.895918 0.214722 0.670188
O O3 0.277522 0.061458 0.675988
O O4 0.911433 0.287846 0.926780
O O5 0.781428 0.103786 0.834313
O O6 0.673618 0.034759 0.079555
O O7 0.045493 0.829591 0.789563
O O8 0.000000 0.000000 0.000000
O O9 0.403468 0.771492 0.330137
O O10 0.000000 0.000000 0.500000
O O11 0.752689 0.605570 0.363831
O O12 0.653879 0.789800 0.618453
O O13 0.000000 0.500000 0.500000
O O14 0.399468 0.656761 0.821279
O O15 0.323427 0.504541 0.806570
O O16 0.500000 0.500000 0.000000
O O17 0.439421 0.622923 0.517303
O O18 0.308477 0.853370 0.685889
#
# Coordination Sequence:
#
# PCOD8038301 Si02
#       8
#     2   2   2   2   2   2   2   2
#     4  12  23  43  70 100 136 180 226 273 346 407
#     4  10  17  34  64  99 134 163 211 272 342 392
#     4  12  21  38  69 110 133 165 223 289 339 400
#     4  11  28  48  68  91 138 193 229 278 340 409
#     4  12  25  37  68 108 138 175 223 286 345 402
#     4  10  19  38  63  98 140 165 219 279 339 394
#     4  11  25  42  65 100 139 181 227 277 338 402
#     4  10  20  40  68  96 129 177 226 273 337 407
#
# _framework density 21.175115999999999
#
# number of rings (size 3 to 8) (size 9 to 14) (size 15 to 20)
#    0.000    1.000    6.250    2.250    3.500    1.500 
#    0.000    0.000    0.000    2.250    0.000    0.000 
#    0.000    0.000    0.000    0.000    0.000    0.000 
#
# Total GULP energy -198236.824919 kJ/mol
# GULP energy per Si atom -12389.801557 kJ/mol
# Density = 2.112692 g / cm^3
# Si number density = 21.175116 Si / 1000 Ang^3
#
#
#
# Elastic Constant Matrix: (Units=GPa)
#
#
# Indices 1 2 3 4 5 6 
#
# 1 77.2938 40.6645 42.9704 -6.1967 11.2171 0.6250
# 2 40.6645 142.1801 41.7430 -22.8765 5.7426 -3.5982
# 3 42.9704 41.7430 126.8555 -11.5152 10.6969 4.6069
# 4 -6.1967 -22.8765 -11.5152 48.8947 6.3746 1.1105
# 5 11.2171 5.7426 10.6969 6.3746 23.2184 -3.5751
# 6 0.6250 -3.5982 4.6069 1.1105 -3.5751 32.2649
#
#
#
# Elastic Compliance Matrix: (Units=1/GPa)
#
#
# Indices 1 2 3 4 5 6 
#
# 1 0.018216 -0.003631 -0.004395 0.000390 -0.006111 -0.000821
# 2 -0.003631 0.009114 -0.001435 0.003524 -0.000637 0.001100
# 3 -0.004395 -0.001435 0.010318 0.001640 -0.003024 -0.001940
# 4 0.000390 0.003524 0.001640 0.023690 -0.008568 -0.001613
# 5 -0.006111 -0.000637 -0.003024 -0.008568 0.050913 0.006415
# 6 -0.000821 0.001100 -0.001940 -0.001613 0.006415 0.032175
#
#
# Mechanical properties :
#
#
# Convention : Reuss Voigt Hill
#
# Bulk Modulus (GPa) = 53.40304 66.34281 59.87292
# Shear Modulus (GPa) = 29.48274 35.60568 32.54421
#
# Velocity S-wave (km/s) = 3.73544 4.10504 3.92460
# Velocity P-wave (km/s) = 6.62413 7.33942 6.99093
#
# Compressibility (1/GPa) = 0.01872553
#
# Stress axis : x y z
#
# Youngs Moduli (GPa) = 54.89697 109.72457 96.91377
#
# Poissons Ratio (x) = 0.39837 0.42595
# Poissons Ratio (y) = 0.19931 0.13912
# Poissons Ratio (z) = 0.24128 0.15751
#
# Static dielectric constant tensor:
#      x y z
#    x 3.372240 -0.008710 -0.128290 
#    y -0.008710 3.562200 0.587360 
#    z -0.128290 0.587360 4.604680 
# 
# 
# High freq. dielectric constant tensor:
#      x y z
#    x 1.769830 0.006230 -0.002170 
#    y 0.006230 1.848770 0.003860 
#    z -0.002170 0.003860 1.856950 
# 
# From -- ./inp_files/207325.got.cif
#   From: 2010.06.25/outbox.cif.g09.slc.cpg/sg2_104_cif.got.tgz:207325.got - 2010.06.27 13:26:56.
