data_PCOD8038055
_publ_section_title
;
Structure prediction by ZEFSAII (Michael W. Deem and Ramdas Pophale) SiO2 
 PCOD8038055
Probable space group: P -1
;
_chemical_formula_sum "Si O2"
_cell_formula_units_Z 16
_cell_length_a 8.867828
_cell_length_b 13.418162
_cell_length_c 14.892308
_cell_angle_alpha 50.589128
_cell_angle_beta 129.163227
_cell_angle_gamma 137.821396
_cell_volume 873.849702
_symmetry_space_group_name_H-M "P -1"
_symmetry_group_IT_number 2
_symmetry_cell_setting 'triclinic'
loop_
_space_group_symop_operation_xyz
x,y,z
-x,-y,-z
loop_
_atom_site_type_symbol
_atom_site_label
_atom_site_fract_x
_atom_site_fract_y
_atom_site_fract_z
Si Si1 0.240780 0.113828 0.470804
Si Si2 0.956418 0.912224 0.127387
Si Si3 0.217387 0.781403 0.835408
Si Si4 0.535676 0.268462 0.733874
Si Si5 0.568819 0.338850 0.897389
Si Si6 0.943420 0.025183 0.247401
Si Si7 0.263129 0.408903 0.315706
Si Si8 0.391436 0.908428 0.277560
O O1 0.182891 0.085815 0.358742
O O2 0.346388 0.294991 0.432268
O O3 0.446244 0.089575 0.583536
O O4 0.000000 0.000000 0.500000
O O5 0.143432 0.868582 0.242380
O O6 0.699392 0.750979 0.117914
O O7 0.980266 0.019821 0.158304
O O8 0.000000 0.000000 0.000000
O O9 0.132024 0.855289 0.833372
O O10 0.023648 0.693953 0.733592
O O11 0.468227 0.919519 0.811244
O O12 0.257940 0.656494 0.966084
O O13 0.584280 0.249185 0.867402
O O14 0.624189 0.450532 0.648481
O O15 0.672186 0.224742 0.743615
O O16 0.253241 0.145069 0.684986
O O17 0.655384 0.513787 0.798657
#
# Coordination Sequence:
#
# PCOD8038055 Si02
#       8
#     2   2   2   2   2   2   2   2
#     4  11  19  38  60  82 111 141 195 234 268 329
#     4  11  22  35  56  83 119 148 184 225 279 336
#     4  10  17  33  60  83 110 142 191 232 277 321
#     4   8  18  32  53  84 108 137 187 226 280 312
#     4   9  19  34  54  81 116 143 183 229 279 327
#     4   9  20  35  57  85 108 152 185 227 273 327
#     4   9  19  33  58  84 110 140 183 241 282 312
#     4  11  21  34  56  87 108 149 186 227 272 332
#
# _framework density 18.309787
#
# number of rings (size 3 to 8) (size 9 to 14) (size 15 to 20)
#    0.750    1.500    5.000    0.375    1.750    2.500 
#    0.000    0.625    5.500    3.750    0.000    0.000 
#    0.000    0.000    0.000    0.000    0.000    0.000 
#
# Total GULP energy -198231.475006 kJ/mol
# GULP energy per Si atom -12389.467188 kJ/mol
# Density = 1.826811 g / cm^3
# Si number density = 18.309787 Si / 1000 Ang^3
#
#
#
# Elastic Constant Matrix: (Units=GPa)
#
#
# Indices 1 2 3 4 5 6 
#
# 1 73.6906 22.9211 22.1237 3.7737 7.6771 5.0064
# 2 22.9211 85.7084 10.0690 -10.1949 4.5985 -9.6518
# 3 22.1237 10.0690 77.5461 -5.0536 17.5843 5.1957
# 4 3.7737 -10.1949 -5.0536 31.8867 1.8197 3.3678
# 5 7.6771 4.5985 17.5843 1.8197 28.2018 5.8572
# 6 5.0064 -9.6518 5.1957 3.3678 5.8572 15.8731
#
#
#
# Elastic Compliance Matrix: (Units=1/GPa)
#
#
# Indices 1 2 3 4 5 6 
#
# 1 0.017027 -0.005277 -0.004050 -0.003667 0.000360 -0.006608
# 2 -0.005277 0.015078 -0.000104 0.004445 -0.003579 0.011245
# 3 -0.004050 -0.000104 0.016471 0.003745 -0.009053 -0.001631
# 4 -0.003667 0.004445 0.003745 0.034367 -0.003587 -0.003334
# 5 0.000360 -0.003579 -0.009053 -0.003587 0.044969 -0.015159
# 6 -0.006608 0.011245 -0.001631 -0.003334 -0.015159 0.078757
#
#
# Mechanical properties :
#
#
# Convention : Reuss Voigt Hill
#
# Bulk Modulus (GPa) = 33.65638 38.57473 36.11556
# Shear Modulus (GPa) = 21.23717 27.31440 24.27579
#
# Velocity S-wave (km/s) = 3.40940 3.86656 3.64515
# Velocity P-wave (km/s) = 5.82410 6.40682 6.12240
#
# Compressibility (1/GPa) = 0.02971205
#
# Stress axis : x y z
#
# Youngs Moduli (GPa) = 58.73022 66.32122 60.71310
#
# Poissons Ratio (x) = 0.35000 0.24591
# Poissons Ratio (y) = 0.30994 0.00633
# Poissons Ratio (z) = 0.23788 0.00692
#
# Static dielectric constant tensor:
#      x y z
#    x 3.057440 -0.013470 -0.017060 
#    y -0.013470 3.517060 0.074930 
#    z -0.017060 0.074930 3.331950 
# 
# 
# High freq. dielectric constant tensor:
#      x y z
#    x 1.666260 0.001720 0.003060 
#    y 0.001720 1.713120 0.006100 
#    z 0.003060 0.006100 1.710860 
# 
# From -- ./inp_files/334623.got.cif
#   From: 2010.06.25/outbox.cif.g09.slc.cpg/sg2_168_cif.got.tgz:334623.got - 2010.06.27 13:26:56.
