data_PCOD8038852
_publ_section_title
;
Structure prediction by ZEFSAII (Michael W. Deem and Ramdas Pophale) SiO2 
 PCOD8038852
Probable space group: P -1
;
_chemical_formula_sum "Si O2"
_cell_formula_units_Z 16
_cell_length_a 11.764494
_cell_length_b 14.519874
_cell_length_c 13.902075
_cell_angle_alpha 44.931417
_cell_angle_beta 149.251824
_cell_angle_gamma 121.491081
_cell_volume 832.772592
_symmetry_space_group_name_H-M "P -1"
_symmetry_group_IT_number 2
_symmetry_cell_setting 'triclinic'
loop_
_space_group_symop_operation_xyz
x,y,z
-x,-y,-z
loop_
_atom_site_type_symbol
_atom_site_label
_atom_site_fract_x
_atom_site_fract_y
_atom_site_fract_z
Si Si1 0.040932 0.157577 0.155041
Si Si2 0.134812 0.797098 0.698855
Si Si3 0.712833 0.146487 0.425770
Si Si4 0.354985 0.005123 0.794058
Si Si5 0.782222 0.862997 0.895438
Si Si6 0.553080 0.198307 0.678391
Si Si7 0.922133 0.646415 0.792443
Si Si8 0.219677 0.833381 0.331767
O O1 0.198608 0.196723 0.155183
O O2 0.075368 0.237003 0.215580
O O3 0.109860 0.998851 0.346115
O O4 0.776771 0.205879 0.895080
O O5 0.228359 0.761073 0.685328
O O6 0.890781 0.899069 0.438167
O O7 0.098646 0.662174 0.824206
O O8 0.318127 0.859327 0.845517
O O9 0.456943 0.130264 0.233971
O O10 0.711419 0.225588 0.467748
O O11 0.484210 0.060183 0.759519
O O12 0.500000 0.000000 0.000000
O O13 0.831275 0.008015 0.805849
O O14 0.989996 0.785422 0.171581
O O15 0.341567 0.324926 0.457632
O O16 0.590937 0.205754 0.585211
O O17 0.000000 0.500000 0.000000
#
# Coordination Sequence:
#
# PCOD8038852 Si02
#       8
#     2   2   2   2   2   2   2   2
#     4  10  19  32  52  78 103 131 165 200 243 294
#     4  10  21  31  46  75  99 126 167 199 245 307
#     4  11  18  29  50  77 110 129 147 195 253 305
#     4  10  18  31  50  73 103 130 154 200 257 300
#     4   9  17  27  46  76 106 132 156 185 237 306
#     4  10  19  33  54  77 102 131 165 202 246 299
#     4  11  23  38  52  67  94 135 179 216 243 275
#     4   9  17  28  46  76 105 131 157 186 240 307
#
# _framework density 19.212928999999999
#
# number of rings (size 3 to 8) (size 9 to 14) (size 15 to 20)
#    0.000    2.000    0.000    8.250    0.000    1.500 
#    0.000    0.000    0.000    3.000    0.000    3.500 
#    0.000    0.000    0.000    0.000    0.000    0.000 
#
# Total GULP energy -198268.061723 kJ/mol
# GULP energy per Si atom -12391.753858 kJ/mol
# Density = 1.916920 g / cm^3
# Si number density = 19.212929 Si / 1000 Ang^3
#
#
#
# Elastic Constant Matrix: (Units=GPa)
#
#
# Indices 1 2 3 4 5 6 
#
# 1 142.4168 30.7289 42.2545 8.9384 -21.1708 17.8565
# 2 30.7289 28.1282 31.7770 3.1315 -9.1817 12.4374
# 3 42.2545 31.7770 78.7323 9.1666 -3.1236 18.4299
# 4 8.9384 3.1315 9.1666 27.1163 1.0884 -5.7138
# 5 -21.1708 -9.1817 -3.1236 1.0884 24.8668 2.7157
# 6 17.8565 12.4374 18.4299 -5.7138 2.7157 22.6357
#
#
#
# Elastic Compliance Matrix: (Units=1/GPa)
#
#
# Indices 1 2 3 4 5 6 
#
# 1 0.010768 -0.002694 -0.002044 -0.004499 0.008939 -0.007558
# 2 -0.002694 0.097160 -0.026694 -0.010347 0.034645 -0.036295
# 3 -0.002044 -0.026694 0.026351 -0.006082 -0.007384 -0.005824
# 4 -0.004499 -0.010347 -0.006082 0.048045 -0.013569 0.027942
# 5 0.008939 0.034645 -0.007384 -0.013569 0.063684 -0.031141
# 6 -0.007558 -0.036295 -0.005824 0.027942 -0.031141 0.085615
#
#
# Mechanical properties :
#
#
# Convention : Reuss Voigt Hill
#
# Bulk Modulus (GPa) = 14.00248 50.97757 32.49003
# Shear Modulus (GPa) = 11.95341 24.55822 18.25582
#
# Velocity S-wave (km/s) = 2.49701 3.57909 3.08585
# Velocity P-wave (km/s) = 3.95187 6.60836 5.44462
#
# Compressibility (1/GPa) = 0.07141590
#
# Stress axis : x y z
#
# Youngs Moduli (GPa) = 92.86662 10.29226 37.94980
#
# Poissons Ratio (x) = 0.02773 0.07758
# Poissons Ratio (y) = 0.25017 1.01301
# Poissons Ratio (z) = 0.18984 0.27474
#
# Static dielectric constant tensor:
#      x y z
#    x 3.931730 0.089430 -0.140340 
#    y 0.089430 3.170130 0.475590 
#    z -0.140340 0.475590 3.519970 
# 
# 
# High freq. dielectric constant tensor:
#      x y z
#    x 1.769340 0.007290 -0.005090 
#    y 0.007290 1.690010 0.054040 
#    z -0.005090 0.054040 1.731620 
# 
# From -- ./inp_files/433116.got.cif
#   From: 2010.06.25/outbox.cif.g09.slc.cpg/sg2_217_cif.got.tgz:433116.got - 2010.06.27 13:26:56.
