data_PCOD8038034
_publ_section_title
;
Structure prediction by ZEFSAII (Michael W. Deem and Ramdas Pophale) SiO2 
 PCOD8038034
Probable space group: P -1
;
_chemical_formula_sum "Si O2"
_cell_formula_units_Z 16
_cell_length_a 13.014560
_cell_length_b 10.380461
_cell_length_c 8.389570
_cell_angle_alpha 137.715000
_cell_angle_beta 85.031732
_cell_angle_gamma 109.512806
_cell_volume 695.378525
_symmetry_space_group_name_H-M "P -1"
_symmetry_group_IT_number 2
_symmetry_cell_setting 'triclinic'
loop_
_space_group_symop_operation_xyz
x,y,z
-x,-y,-z
loop_
_atom_site_type_symbol
_atom_site_label
_atom_site_fract_x
_atom_site_fract_y
_atom_site_fract_z
Si Si1 0.518243 0.785383 0.296774
Si Si2 0.617085 0.936875 0.099014
Si Si3 0.426918 0.102377 0.271183
Si Si4 0.064207 0.443545 0.646197
Si Si5 0.173611 0.662652 0.516464
Si Si6 0.126057 0.148376 0.576966
Si Si7 0.730480 0.478369 0.893118
Si Si8 0.209669 0.809573 0.154829
O O1 0.591520 0.794627 0.134200
O O2 0.574841 0.770070 0.447248
O O3 0.401570 0.580014 0.107828
O O4 0.500000 0.000000 0.500000
O O5 0.543175 0.074191 0.229909
O O6 0.747477 0.099200 0.230012
O O7 0.588570 0.800856 0.811227
O O8 0.319894 0.877677 0.088660
O O9 0.113376 0.507889 0.524874
O O10 0.123923 0.298842 0.572265
O O11 0.928807 0.325760 0.564907
O O12 0.097879 0.652620 0.938719
O O13 0.244606 0.544080 0.315865
O O14 0.195122 0.017331 0.394439
O O15 0.193367 0.290027 0.845903
O O16 0.000000 0.000000 0.500000
O O17 0.765651 0.299262 0.795101
#
# Coordination Sequence:
#
# PCOD8038034 Si02
#       8
#     2   2   2   2   2   2   2   2
#     4  10  17  33  58  99 121 162 214 258 316 388
#     4  10  18  31  62  97 126 162 213 262 327 384
#     4  10  18  31  60  95 123 162 210 259 321 384
#     4  10  24  39  64  94 122 170 218 262 326 381
#     4  11  19  38  63  95 125 164 218 265 319 396
#     4  11  25  42  62  93 129 170 217 268 320 383
#     4  11  21  39  67  92 125 167 212 265 326 381
#     4  11  20  41  64  91 127 166 212 266 320 388
#
# _framework density 23.009049000000001
#
# number of rings (size 3 to 8) (size 9 to 14) (size 15 to 20)
#    0.000    1.500    6.250    1.500    0.000    2.000 
#    0.000    7.500    0.000    1.500    0.000    0.000 
#    0.000    0.000    0.000    0.000    0.000    0.000 
#
# Total GULP energy -198271.222113 kJ/mol
# GULP energy per Si atom -12391.951382 kJ/mol
# Density = 2.295668 g / cm^3
# Si number density = 23.009049 Si / 1000 Ang^3
#
#
#
# Elastic Constant Matrix: (Units=GPa)
#
#
# Indices 1 2 3 4 5 6 
#
# 1 69.2551 26.0866 41.7243 9.3846 30.5247 20.4045
# 2 26.0866 101.5941 60.2004 -22.6674 14.7635 19.3226
# 3 41.7243 60.2004 128.2273 -9.2429 31.0392 -4.9333
# 4 9.3846 -22.6674 -9.2429 46.5643 -2.8142 7.0128
# 5 30.5247 14.7635 31.0392 -2.8142 43.6053 10.1930
# 6 20.4045 19.3226 -4.9333 7.0128 10.1930 36.0909
#
#
#
# Elastic Compliance Matrix: (Units=1/GPa)
#
#
# Indices 1 2 3 4 5 6 
#
# 1 0.028896 -0.000520 -0.007040 -0.006395 -0.012596 -0.012221
# 2 -0.000520 0.021229 -0.010956 0.011046 0.005490 -0.016266
# 3 -0.007040 -0.010956 0.017378 -0.003163 -0.007427 0.014934
# 4 -0.006395 0.011046 -0.003163 0.029548 0.007362 -0.010551
# 5 -0.012596 0.005490 -0.007427 0.007362 0.037739 -0.008922
# 6 -0.012221 -0.016266 0.014934 -0.010551 -0.008922 0.049937
#
#
# Mechanical properties :
#
#
# Convention : Reuss Voigt Hill
#
# Bulk Modulus (GPa) = 32.81956 61.67766 47.24861
# Shear Modulus (GPa) = 21.55949 36.65647 29.10798
#
# Velocity S-wave (km/s) = 3.06437 3.99574 3.56064
# Velocity P-wave (km/s) = 5.17834 6.93916 6.12238
#
# Compressibility (1/GPa) = 0.03046964
#
# Stress axis : x y z
#
# Youngs Moduli (GPa) = 34.60687 47.10487 57.54531
#
# Poissons Ratio (x) = 0.02449 0.40515
# Poissons Ratio (y) = 0.01799 0.63048
# Poissons Ratio (z) = 0.24365 0.51609
#
# Static dielectric constant tensor:
#      x y z
#    x 4.236000 0.184510 0.396250 
#    y 0.184510 4.450670 -0.432870 
#    z 0.396250 -0.432870 4.276260 
# 
# 
# High freq. dielectric constant tensor:
#      x y z
#    x 1.899510 0.021180 0.035380 
#    y 0.021180 1.911480 -0.017260 
#    z 0.035380 -0.017260 1.899070 
# 
# From -- ./inp_files/306003.got.cif
#   From: 2010.06.25/outbox.cif.g09.slc.cpg/sg2_154_cif.got.tgz:306003.got - 2010.06.27 13:26:56.
