data_PCOD8038635
_publ_section_title
;
Structure prediction by ZEFSAII (Michael W. Deem and Ramdas Pophale) SiO2 
 PCOD8038635
Probable space group: P -1
;
_chemical_formula_sum "Si O2"
_cell_formula_units_Z 16
_cell_length_a 11.009040
_cell_length_b 14.645596
_cell_length_c 5.306333
_cell_angle_alpha 90.101187
_cell_angle_beta 75.782357
_cell_angle_gamma 107.735599
_cell_volume 787.461354
_symmetry_space_group_name_H-M "P -1"
_symmetry_group_IT_number 2
_symmetry_cell_setting 'triclinic'
loop_
_space_group_symop_operation_xyz
x,y,z
-x,-y,-z
loop_
_atom_site_type_symbol
_atom_site_label
_atom_site_fract_x
_atom_site_fract_y
_atom_site_fract_z
Si Si1 0.181119 0.210158 0.408609
Si Si2 0.900359 0.558256 0.052938
Si Si3 0.881376 0.601295 0.562818
Si Si4 0.180242 0.679826 0.412473
Si Si5 0.562192 0.623216 0.740592
Si Si6 0.395635 0.573102 0.325059
Si Si7 0.881133 0.244785 0.055301
Si Si8 0.947808 0.886607 0.026371
O O1 0.102010 0.286795 0.447441
O O2 0.336464 0.269373 0.333137
O O3 0.141984 0.146603 0.679244
O O4 0.142104 0.146752 0.176605
O O5 0.810660 0.539391 0.350713
O O6 0.810028 0.542092 0.848738
O O7 0.000000 0.500000 0.000000
O O8 0.979226 0.671285 0.018775
O O9 0.033913 0.601974 0.487405
O O10 0.275093 0.614688 0.354313
O O11 0.203166 0.745869 0.653732
O O12 0.202433 0.748058 0.152751
O O13 0.458848 0.606531 0.566189
O O14 0.643752 0.545354 0.674863
O O15 0.497769 0.615846 0.048135
O O16 0.921659 0.147759 0.039307
O O17 0.000000 0.000000 0.000000
#
# Coordination Sequence:
#
# PCOD8038635 Si02
#       8
#     2   2   2   2   2   2   2   2
#     4  12  21  40  60  88 120 159 192 256 307 353
#     4  10  18  28  44  69 112 150 173 212 265 342
#     4  10  19  33  49  78 117 141 189 229 291 346
#     4  10  18  34  58  77 120 146 197 231 291 348
#     4  10  23  38  60  80 127 157 216 247 275 348
#     4  10  21  40  56  89 112 173 209 241 284 338
#     4  10  19  35  49  85 113 144 192 232 293 358
#     4  12  23  40  61  88 124 156 195 246 319 385
#
# _framework density 20.318455
#
# number of rings (size 3 to 8) (size 9 to 14) (size 15 to 20)
#    0.000    1.500    5.000    2.250    0.000    4.000 
#    0.000    2.500    0.000    0.000    0.000   17.500 
#    0.000    0.000    0.000    0.000    0.000    0.000 
#
# Total GULP energy -198282.561552 kJ/mol
# GULP energy per Si atom -12392.660097 kJ/mol
# Density = 2.027221 g / cm^3
# Si number density = 20.318455 Si / 1000 Ang^3
#
#
#
# Elastic Constant Matrix: (Units=GPa)
#
#
# Indices 1 2 3 4 5 6 
#
# 1 78.6218 34.3853 14.4804 4.2105 8.2013 -9.6382
# 2 34.3853 123.7113 45.2495 -1.2376 9.0088 -4.2931
# 3 14.4804 45.2495 170.0545 9.5178 38.0062 -0.6421
# 4 4.2105 -1.2376 9.5178 27.3827 3.0411 0.8966
# 5 8.2013 9.0088 38.0062 3.0411 40.6661 4.9596
# 6 -9.6382 -4.2931 -0.6421 0.8966 4.9596 27.4289
#
#
#
# Elastic Compliance Matrix: (Units=1/GPa)
#
#
# Indices 1 2 3 4 5 6 
#
# 1 0.015587 -0.004180 0.000702 -0.002639 -0.003351 0.005531
# 2 -0.004180 0.010166 -0.002674 0.001930 0.000967 -0.000178
# 3 0.000702 -0.002674 0.008302 -0.002350 -0.007306 0.001420
# 4 -0.002639 0.001930 -0.002350 0.037924 -0.000308 -0.001864
# 5 -0.003351 0.000967 -0.007306 -0.000308 0.032770 -0.007113
# 6 0.005531 -0.000178 0.001420 -0.001864 -0.007113 0.039754
#
#
# Mechanical properties :
#
#
# Convention : Reuss Voigt Hill
#
# Bulk Modulus (GPa) = 45.97273 62.29089 54.13181
# Shear Modulus (GPa) = 30.47741 37.64702 34.06221
#
# Velocity S-wave (km/s) = 3.87717 4.30914 4.09885
# Velocity P-wave (km/s) = 6.53594 7.44863 7.00716
#
# Compressibility (1/GPa) = 0.02175203
#
# Stress axis : x y z
#
# Youngs Moduli (GPa) = 64.15727 98.36915 120.45581
#
# Poissons Ratio (x) = 0.41115 -0.08462
# Poissons Ratio (y) = 0.26815 0.32210
# Poissons Ratio (z) = -0.04507 0.26304
#
# Static dielectric constant tensor:
#      x y z
#    x 3.628180 -0.162040 0.508980 
#    y -0.162040 3.159990 0.284080 
#    z 0.508980 0.284080 5.031370 
# 
# 
# High freq. dielectric constant tensor:
#      x y z
#    x 1.787670 -0.015940 0.019070 
#    y -0.015940 1.746880 0.015310 
#    z 0.019070 0.015310 1.838510 
# 
# From -- ./inp_files/76074.got.cif
#   From: 2010.06.25/outbox.cif.g09.slc.cpg/sg2_39_cif.got.tgz:76074.got - 2010.06.27 13:26:56.
