data_PCOD8038020
_publ_section_title
;
Structure prediction by ZEFSAII (Michael W. Deem and Ramdas Pophale) SiO2 
 PCOD8038020
Probable space group: P -1
;
_chemical_formula_sum "Si O2"
_cell_formula_units_Z 16
_cell_length_a 27.068213
_cell_length_b 21.954243
_cell_length_c 9.594611
_cell_angle_alpha 26.943380
_cell_angle_beta 29.276475
_cell_angle_gamma 18.603069
_cell_volume 809.228757
_symmetry_space_group_name_H-M "P -1"
_symmetry_group_IT_number 2
_symmetry_cell_setting 'triclinic'
loop_
_space_group_symop_operation_xyz
x,y,z
-x,-y,-z
loop_
_atom_site_type_symbol
_atom_site_label
_atom_site_fract_x
_atom_site_fract_y
_atom_site_fract_z
Si Si1 0.681341 0.070860 0.503603
Si Si2 0.915539 0.404279 0.295629
Si Si3 0.379836 0.527094 0.817106
Si Si4 0.136313 0.946104 0.705296
Si Si5 0.295984 0.334026 0.294292
Si Si6 0.980128 0.624423 0.598368
Si Si7 0.432141 0.320490 0.382783
Si Si8 0.539628 0.979825 0.218884
O O1 0.730991 0.148612 0.314647
O O2 0.536616 0.264708 0.368268
O O3 0.828328 0.874995 0.444287
O O4 0.637640 0.992843 0.871488
O O5 0.928003 0.431787 0.370848
O O6 0.749282 0.499718 0.488623
O O7 0.057459 0.160763 0.397080
O O8 0.924929 0.526508 0.928518
O O9 0.500000 0.500000 0.500000
O O10 0.217786 0.774724 0.734470
O O11 0.348146 0.433460 0.987221
O O12 0.452530 0.403387 0.036876
O O13 0.000000 0.000000 0.000000
O O14 0.105204 0.521238 0.376046
O O15 0.354083 0.175396 0.596805
O O16 0.371339 0.209217 0.217539
O O17 0.493910 0.109192 0.620403
#
# Coordination Sequence:
#
# PCOD8038020 Si02
#       8
#     2   2   2   2   2   2   2   2
#     4  11  22  34  61  86 120 151 187 234 302 343
#     4  10  18  33  58  86 112 144 197 236 278 336
#     4  11  22  38  59  82 115 156 199 238 275 334
#     4  11  21  37  59  85 109 155 204 234 270 332
#     4  10  19  35  58  86 117 145 198 240 277 336
#     4  10  17  33  58  85 113 146 183 242 289 334
#     4  11  21  38  57  89 122 147 185 246 290 342
#     4  10  19  34  59  89 115 150 184 236 297 351
#
# _framework density 19.771912
#
# number of rings (size 3 to 8) (size 9 to 14) (size 15 to 20)
#    0.000    1.500    5.000    3.375    0.000    2.500 
#    0.000    0.625    2.750    1.500    0.000    0.000 
#    0.000    0.000    0.000    0.000    0.000    0.000 
#
# Total GULP energy -198434.583105 kJ/mol
# GULP energy per Si atom -12402.161444 kJ/mol
# Density = 1.972691 g / cm^3
# Si number density = 19.771912 Si / 1000 Ang^3
#
#
#
# Elastic Constant Matrix: (Units=GPa)
#
#
# Indices 1 2 3 4 5 6 
#
# 1 59.4315 24.9092 18.7203 -0.2019 -8.1847 -13.4642
# 2 24.9092 126.0916 28.3520 15.3201 -2.0835 9.6314
# 3 18.7203 28.3520 103.0851 15.2683 -13.3782 -3.6519
# 4 -0.2019 15.3201 15.2683 36.1619 -0.3460 -6.8034
# 5 -8.1847 -2.0835 -13.3782 -0.3460 12.5972 0.5394
# 6 -13.4642 9.6314 -3.6519 -6.8034 0.5394 35.5281
#
#
#
# Elastic Compliance Matrix: (Units=1/GPa)
#
#
# Indices 1 2 3 4 5 6 
#
# 1 0.024058 -0.005727 -0.001555 0.005477 0.012697 0.011366
# 2 -0.005727 0.010465 -0.001825 -0.004874 -0.003802 -0.006071
# 3 -0.001555 -0.001825 0.012717 -0.004456 0.012063 0.000176
# 4 0.005477 -0.004874 -0.004456 0.033376 -0.001464 0.009352
# 5 0.012697 -0.003802 0.012063 -0.001464 0.099548 0.005291
# 6 0.011366 -0.006071 0.000176 0.009352 0.005291 0.035829
#
#
# Mechanical properties :
#
#
# Convention : Reuss Voigt Hill
#
# Bulk Modulus (GPa) = 34.45024 48.06349 41.25686
# Shear Modulus (GPa) = 20.50175 31.29922 25.90048
#
# Velocity S-wave (km/s) = 3.22361 3.98303 3.62327
# Velocity P-wave (km/s) = 5.59617 6.74644 6.19805
#
# Compressibility (1/GPa) = 0.02902738
#
# Stress axis : x y z
#
# Youngs Moduli (GPa) = 41.56578 95.55240 78.63595
#
# Poissons Ratio (x) = 0.54722 0.12225
# Poissons Ratio (y) = 0.23804 0.14351
# Poissons Ratio (z) = 0.06462 0.17438
#
# Static dielectric constant tensor:
#      x y z
#    x 3.257080 0.112390 -0.238480 
#    y 0.112390 3.798610 -0.004470 
#    z -0.238480 -0.004470 3.549210 
# 
# 
# High freq. dielectric constant tensor:
#      x y z
#    x 1.727170 0.005260 -0.028020 
#    y 0.005260 1.787190 0.002510 
#    z -0.028020 0.002510 1.767620 
# 
# From -- ./inp_files/357711.got.cif
#   From: 2010.06.25/outbox.cif.g09.slc.cpg/sg2_179_cif.got.tgz:357711.got - 2010.06.27 13:26:56.
