data_PCOD8038066
_publ_section_title
;
Structure prediction by ZEFSAII (Michael W. Deem and Ramdas Pophale) SiO2 
 PCOD8038066
Probable space group: P -1
;
_chemical_formula_sum "Si O2"
_cell_formula_units_Z 16
_cell_length_a 19.254801
_cell_length_b 9.116757
_cell_length_c 21.010637
_cell_angle_alpha 135.041108
_cell_angle_beta 19.124667
_cell_angle_gamma 138.586149
_cell_volume 799.312288
_symmetry_space_group_name_H-M "P -1"
_symmetry_group_IT_number 2
_symmetry_cell_setting 'triclinic'
loop_
_space_group_symop_operation_xyz
x,y,z
-x,-y,-z
loop_
_atom_site_type_symbol
_atom_site_label
_atom_site_fract_x
_atom_site_fract_y
_atom_site_fract_z
Si Si1 0.433452 0.175028 0.070206
Si Si2 0.120873 0.521351 0.193942
Si Si3 0.817094 0.288613 0.062196
Si Si4 0.635284 0.851845 0.308932
Si Si5 0.398001 0.349366 0.391543
Si Si6 0.101436 0.789089 0.174496
Si Si7 0.875409 0.938438 0.995534
Si Si8 0.809793 0.759419 0.586215
O O1 0.305582 0.299289 0.263495
O O2 0.668104 0.366521 0.905392
O O3 0.267717 0.047224 0.117418
O O4 0.500000 0.000000 0.000000
O O5 0.176262 0.634499 0.111076
O O6 0.905006 0.565353 0.424217
O O7 0.083292 0.266196 0.137938
O O8 0.567888 0.300672 0.278715
O O9 0.791697 0.066027 0.053176
O O10 0.000000 0.500000 0.000000
O O11 0.894173 0.291561 0.924474
O O12 0.472399 0.610237 0.395574
O O13 0.684246 0.875314 0.197431
O O14 0.500000 0.000000 0.500000
O O15 0.881042 0.902859 0.142427
O O16 0.155804 0.238504 0.599277
O O17 0.374621 0.234823 0.306364
O O18 0.000000 0.000000 0.500000
#
# Coordination Sequence:
#
# PCOD8038066 Si02
#       8
#     2   2   2   2   2   2   2   2
#     4  10  17  33  60  95 123 154 199 263 309 361
#     4  10  21  37  65  90 128 154 208 267 310 360
#     4  12  26  42  62  86 130 176 207 247 312 383
#     4  11  23  40  69  89 121 160 214 268 315 355
#     4  11  22  39  64  94 125 159 207 264 307 372
#     4  10  22  37  63  95 122 157 213 253 310 364
#     4  11  25  43  57  94 126 163 212 259 312 376
#     4  11  18  33  63 100 117 154 207 261 311 360
#
# _framework density 20.017208
#
# number of rings (size 3 to 8) (size 9 to 14) (size 15 to 20)
#    0.000    1.250    5.000    4.500    3.500    1.500 
#    0.000    0.625    0.000    1.500    0.000    0.000 
#    0.000    0.000    0.000    0.000    0.000    0.000 
#
# Total GULP energy -198283.166484 kJ/mol
# GULP energy per Si atom -12392.697905 kJ/mol
# Density = 1.997165 g / cm^3
# Si number density = 20.017208 Si / 1000 Ang^3
#
#
#
# Elastic Constant Matrix: (Units=GPa)
#
#
# Indices 1 2 3 4 5 6 
#
# 1 85.7859 49.3723 39.2419 6.5434 -10.8536 15.6259
# 2 49.3723 85.8635 26.5905 12.9138 -16.1977 21.7862
# 3 39.2419 26.5905 90.8002 6.6931 -4.2691 8.7772
# 4 6.5434 12.9138 6.6931 36.7137 10.2329 -7.5935
# 5 -10.8536 -16.1977 -4.2691 10.2329 35.2773 0.0573
# 6 15.6259 21.7862 8.7772 -7.5935 0.0573 36.0066
#
#
#
# Elastic Compliance Matrix: (Units=1/GPa)
#
#
# Indices 1 2 3 4 5 6 
#
# 1 0.019960 -0.008934 -0.005752 -0.000143 0.001388 -0.001887
# 2 -0.008934 0.024832 -0.000494 -0.013408 0.012505 -0.013875
# 3 -0.005752 -0.000494 0.013852 -0.001551 0.000131 -0.000909
# 4 -0.000143 -0.013408 -0.001551 0.040919 -0.018285 0.017211
# 5 0.001388 0.012505 0.000131 -0.018285 0.039855 -0.012120
# 6 -0.001887 -0.013875 -0.000909 0.017211 -0.012120 0.040858
#
#
# Mechanical properties :
#
#
# Convention : Reuss Voigt Hill
#
# Bulk Modulus (GPa) = 35.35329 54.76211 45.05770
# Shear Modulus (GPa) = 22.72084 31.41585 27.06834
#
# Velocity S-wave (km/s) = 3.37273 3.96592 3.68129
# Velocity P-wave (km/s) = 5.73296 6.95617 6.37397
#
# Compressibility (1/GPa) = 0.02828591
#
# Stress axis : x y z
#
# Youngs Moduli (GPa) = 50.10056 40.27004 72.19199
#
# Poissons Ratio (x) = 0.35976 0.41523
# Poissons Ratio (y) = 0.44759 0.03563
# Poissons Ratio (z) = 0.28817 0.01988
#
# Static dielectric constant tensor:
#      x y z
#    x 3.379390 0.678480 0.021640 
#    y 0.678480 3.488120 -0.317700 
#    z 0.021640 -0.317700 4.097030 
# 
# 
# High freq. dielectric constant tensor:
#      x y z
#    x 1.755300 0.038530 0.000710 
#    y 0.038530 1.780140 -0.010120 
#    z 0.000710 -0.010120 1.797220 
# 
# From -- ./inp_files/519022.got.cif
#   From: 2010.06.25/outbox.cif.g09.slc.cpg/sg2_260_cif.got.tgz:519022.got - 2010.06.27 13:26:56.
