data_PCOD8038046
_publ_section_title
;
Structure prediction by ZEFSAII (Michael W. Deem and Ramdas Pophale) SiO2 
 PCOD8038046
Probable space group: P -1
;
_chemical_formula_sum "Si O2"
_cell_formula_units_Z 16
_cell_length_a 14.330100
_cell_length_b 8.476081
_cell_length_c 8.343211
_cell_angle_alpha 108.695896
_cell_angle_beta 95.951513
_cell_angle_gamma 45.462765
_cell_volume 673.123083
_symmetry_space_group_name_H-M "P -1"
_symmetry_group_IT_number 2
_symmetry_cell_setting 'triclinic'
loop_
_space_group_symop_operation_xyz
x,y,z
-x,-y,-z
loop_
_atom_site_type_symbol
_atom_site_label
_atom_site_fract_x
_atom_site_fract_y
_atom_site_fract_z
Si Si1 0.982800 0.779368 0.710891
Si Si2 0.776475 0.703057 0.266957
Si Si3 0.137003 0.272889 0.022769
Si Si4 0.698686 0.376656 0.506258
Si Si5 0.879731 0.421745 0.667678
Si Si6 0.551724 0.765954 0.359114
Si Si7 0.072951 0.020172 0.815717
Si Si8 0.297354 0.928302 0.365627
O O1 0.066900 0.540525 0.753264
O O2 0.024239 0.709401 0.510333
O O3 0.823376 0.951521 0.740530
O O4 0.021815 0.908613 0.837473
O O5 0.755651 0.810258 0.122343
O O6 0.684950 0.649276 0.245251
O O7 0.739252 0.884693 0.451092
O O8 0.127637 0.080911 0.983149
O O9 0.165089 0.331610 0.216332
O O10 0.000000 0.500000 0.000000
O O11 0.747634 0.484794 0.633171
O O12 0.580019 0.589142 0.441265
O O13 0.812576 0.147316 0.347853
O O14 0.658170 0.297777 0.610499
O O15 0.949744 0.259625 0.782741
O O16 0.500000 0.000000 0.500000
O O17 0.428636 0.833655 0.262108
#
# Coordination Sequence:
#
# PCOD8038046 Si02
#       8
#     2   2   2   2   2   2   2   2
#     4  11  19  35  64  92 119 147 197 257 291 334
#     4  11  21  37  58  87 127 155 187 249 307 337
#     4  10  21  36  56  90 125 156 190 239 302 364
#     4  11  17  36  62  85 113 157 203 244 283 351
#     4  10  18  33  61  90 120 146 199 243 293 349
#     4  10  23  36  55  91 122 149 197 255 298 339
#     4  10  17  33  59  87 118 152 192 240 292 351
#     4  11  20  33  58  94 113 155 204 245 281 354
#
# _framework density 23.769798999999999
#
# number of rings (size 3 to 8) (size 9 to 14) (size 15 to 20)
#    0.000    1.500    6.250    2.250    0.000    0.000 
#    0.000    2.500    2.750    3.750    3.250    0.000 
#    0.000    0.000    0.000    0.000    0.000    0.000 
#
# Total GULP energy -198227.301390 kJ/mol
# GULP energy per Si atom -12389.206337 kJ/mol
# Density = 2.371570 g / cm^3
# Si number density = 23.769799 Si / 1000 Ang^3
#
#
#
# Elastic Constant Matrix: (Units=GPa)
#
#
# Indices 1 2 3 4 5 6 
#
# 1 181.7372 49.7229 38.6190 -2.5191 19.1759 -1.6576
# 2 49.7229 67.3112 16.8512 -9.9138 -4.4100 12.2186
# 3 38.6190 16.8512 72.4768 18.0196 38.5904 2.9565
# 4 -2.5191 -9.9138 18.0196 19.0972 10.6227 4.5284
# 5 19.1759 -4.4100 38.5904 10.6227 31.5250 0.8562
# 6 -1.6576 12.2186 2.9565 4.5284 0.8562 39.8837
#
#
#
# Elastic Compliance Matrix: (Units=1/GPa)
#
#
# Indices 1 2 3 4 5 6 
#
# 1 0.008029 -0.007479 0.001710 -0.000719 -0.007856 0.002748
# 2 -0.007479 0.039658 -0.035893 0.032761 0.043387 -0.014451
# 3 0.001710 -0.035893 0.078710 -0.047356 -0.086793 0.012473
# 4 -0.000719 0.032761 -0.047356 0.102262 0.029041 -0.018790
# 5 -0.007856 0.043387 -0.086793 0.029041 0.139394 -0.013474
# 6 0.002748 -0.014451 0.012473 -0.018790 -0.013474 0.031112
#
#
# Mechanical properties :
#
#
# Convention : Reuss Voigt Hill
#
# Bulk Modulus (GPa) = 23.21648 59.10126 41.15887
# Shear Modulus (GPa) = 10.06347 32.52333 21.29340
#
# Velocity S-wave (km/s) = 2.05983 3.70302 2.99627
# Velocity P-wave (km/s) = 3.93009 6.57275 5.41511
#
# Compressibility (1/GPa) = 0.04307286
#
# Stress axis : x y z
#
# Youngs Moduli (GPa) = 124.54429 25.21584 12.70486
#
# Poissons Ratio (x) = 0.18858 -0.02172
# Poissons Ratio (y) = 0.93143 0.45602
# Poissons Ratio (z) = -0.21294 0.90508
#
# Static dielectric constant tensor:
#      x y z
#    x 5.425080 0.439250 0.358530 
#    y 0.439250 4.577720 -0.016630 
#    z 0.358530 -0.016630 5.896390 
# 
# 
# High freq. dielectric constant tensor:
#      x y z
#    x 1.963590 0.026790 0.007170 
#    y 0.026790 1.932240 -0.001530 
#    z 0.007170 -0.001530 1.918050 
# 
# From -- ./inp_files/299245.got.cif
#   From: 2010.06.25/outbox.cif.g09.slc.cpg/sg2_150_cif.got.tgz:299245.got - 2010.06.27 13:26:56.
