data_PCOD8038674
_publ_section_title
;
Structure prediction by ZEFSAII (Michael W. Deem and Ramdas Pophale) SiO2 
 PCOD8038674
Probable space group: P -1
;
_chemical_formula_sum "Si O2"
_cell_formula_units_Z 14
_cell_length_a 15.404435
_cell_length_b 23.025200
_cell_length_c 12.945692
_cell_angle_alpha 26.656400
_cell_angle_beta 27.099855
_cell_angle_gamma 26.478039
_cell_volume 819.677261
_symmetry_space_group_name_H-M "P -1"
_symmetry_group_IT_number 2
_symmetry_cell_setting 'triclinic'
loop_
_space_group_symop_operation_xyz
x,y,z
-x,-y,-z
loop_
_atom_site_type_symbol
_atom_site_label
_atom_site_fract_x
_atom_site_fract_y
_atom_site_fract_z
Si Si1 0.863304 0.591302 0.902400
Si Si2 0.288143 0.575123 0.814953
Si Si3 0.731027 0.560121 0.406821
Si Si4 0.349801 0.178976 0.078395
Si Si5 0.190869 0.066986 0.079945
Si Si6 0.048236 0.395294 0.711815
Si Si7 0.944934 0.897909 0.608231
O O1 0.698012 0.756347 0.856576
O O2 0.041027 0.582720 0.643856
O O3 0.719339 0.521507 0.119630
O O4 0.000000 0.500000 0.000000
O O5 0.537213 0.520841 0.668129
O O6 0.168501 0.747654 0.635869
O O7 0.171779 0.548494 0.078346
O O8 0.761517 0.602347 0.423882
O O9 0.682025 0.698502 0.166543
O O10 0.178091 0.122004 0.327049
O O11 0.591225 0.043765 0.034092
O O12 0.216755 0.056168 0.194433
O O13 0.125782 0.230425 0.849795
O O14 0.001410 0.026991 0.315042
O O15 0.000000 0.500000 0.500000
#
# Coordination Sequence:
#
# PCOD8038674 Si02
#       7
#     2   2   2   2   2   2   2
#     4   9  18  30  46  77 112 135 160 200 245 308
#     4  10  18  33  52  77 103 135 168 204 251 295
#     4  10  19  32  52  74 103 137 167 205 250 294
#     4  11  18  30  50  78 110 134 159 198 257 304
#     4  10  20  30  50  74 103 133 161 208 255 303
#     4  10  22  38  52  72 100 133 175 212 247 297
#     4  10  18  29  47  77 106 129 161 202 250 307
#
# _framework density 17.079892999999998
#
# number of rings (size 3 to 8) (size 9 to 14) (size 15 to 20)
#    0.000    2.000    7.143    0.429    0.000    4.000 
#    0.000    0.000    0.000    3.429    0.000    6.000 
#    0.000    0.000    0.000    0.000    0.000    0.000 
#
# Total GULP energy -173557.176505 kJ/mol
# GULP energy per Si atom -12396.941179 kJ/mol
# Density = 1.704102 g / cm^3
# Si number density = 17.079893 Si / 1000 Ang^3
#
#
#
# Elastic Constant Matrix: (Units=GPa)
#
#
# Indices 1 2 3 4 5 6 
#
# 1 78.8297 41.8393 59.5642 -5.0284 -24.1361 12.4946
# 2 41.8393 122.9597 49.0164 0.9988 -8.7289 19.1064
# 3 59.5642 49.0164 83.6731 -5.5838 -19.2718 1.2357
# 4 -5.0284 0.9988 -5.5838 20.8223 -5.5356 -7.1276
# 5 -24.1361 -8.7289 -19.2718 -5.5356 32.7634 -2.4462
# 6 12.4946 19.1064 1.2357 -7.1276 -2.4462 24.0758
#
#
#
# Elastic Compliance Matrix: (Units=1/GPa)
#
#
# Indices 1 2 3 4 5 6 
#
# 1 0.036110 0.000217 -0.022806 0.000157 0.012042 -0.016472
# 2 0.000217 0.013794 -0.009649 -0.009050 -0.004392 -0.013690
# 3 -0.022806 -0.009649 0.035710 0.013643 0.005601 0.022268
# 4 0.000157 -0.009050 0.013643 0.066875 0.019130 0.028142
# 5 0.012042 -0.004392 0.005601 0.019130 0.045288 0.007213
# 6 -0.016472 -0.013690 0.022268 0.028142 0.007213 0.068870
#
#
# Mechanical properties :
#
#
# Convention : Reuss Voigt Hill
#
# Bulk Modulus (GPa) = 47.30368 65.14470 56.22419
# Shear Modulus (GPa) = 14.78552 24.53513 19.66033
#
# Velocity S-wave (km/s) = 2.94542 3.79422 3.39644
# Velocity P-wave (km/s) = 6.27080 7.57752 6.95492
#
# Compressibility (1/GPa) = 0.02114001
#
# Stress axis : x y z
#
# Youngs Moduli (GPa) = 27.69291 72.49451 28.00342
#
# Poissons Ratio (x) = -0.01574 0.63864
# Poissons Ratio (y) = -0.00601 0.27019
# Poissons Ratio (z) = 0.63156 0.69947
#
# Static dielectric constant tensor:
#      x y z
#    x 3.100340 0.401330 -0.305030 
#    y 0.401330 3.730970 0.209630 
#    z -0.305030 0.209630 3.039700 
# 
# 
# High freq. dielectric constant tensor:
#      x y z
#    x 1.637810 0.024320 -0.038310 
#    y 0.024320 1.658510 0.013680 
#    z -0.038310 0.013680 1.634570 
# 
# From -- ./inp_files/69103.got.cif
#   From: 2010.06.25/outbox.cif.g09.slc.cpg/sg2_35_cif.got.tgz:69103.got - 2010.06.27 13:26:56.
