data_PCOD8038622
_publ_section_title
;
Structure prediction by ZEFSAII (Michael W. Deem and Ramdas Pophale) SiO2 
 PCOD8038622
Probable space group: P -1
;
_chemical_formula_sum "Si O2"
_cell_formula_units_Z 16
_cell_length_a 11.549056
_cell_length_b 13.456663
_cell_length_c 13.922034
_cell_angle_alpha 147.553211
_cell_angle_beta 134.167676
_cell_angle_gamma 47.345559
_cell_volume 809.794413
_symmetry_space_group_name_H-M "P -1"
_symmetry_group_IT_number 2
_symmetry_cell_setting 'triclinic'
loop_
_space_group_symop_operation_xyz
x,y,z
-x,-y,-z
loop_
_atom_site_type_symbol
_atom_site_label
_atom_site_fract_x
_atom_site_fract_y
_atom_site_fract_z
Si Si1 0.324831 0.528013 0.365770
Si Si2 0.294273 0.890567 0.732764
Si Si3 0.113368 0.842433 0.005110
Si Si4 0.469428 0.982387 0.176119
Si Si5 0.166011 0.186907 0.047078
Si Si6 0.189801 0.494452 0.628921
Si Si7 0.548356 0.363478 0.212755
Si Si8 0.623481 0.930546 0.600405
O O1 0.500000 0.500000 0.500000
O O2 0.213823 0.733524 0.503943
O O3 0.214813 0.381032 0.206353
O O4 0.381744 0.517460 0.277254
O O5 0.418498 0.793699 0.810458
O O6 0.391140 0.969033 0.769791
O O7 0.161618 0.061559 0.845621
O O8 0.198228 0.651614 0.841474
O O9 0.014913 0.773179 0.978881
O O10 0.252540 0.931095 0.205902
O O11 0.000000 0.000000 0.000000
O O12 0.286556 0.078898 0.111074
O O13 0.482956 0.056566 0.352295
O O14 0.488723 0.752016 0.996900
O O15 0.294157 0.542582 0.636054
O O16 0.277423 0.283546 0.541867
O O17 0.000000 0.500000 0.500000
O O18 0.500000 0.000000 0.500000
#
# Coordination Sequence:
#
# PCOD8038622 Si02
#       8
#     2   2   2   2   2   2   2   2
#     4  10  18  26  47  84 127 151 190 241 328 369
#     4  10  19  28  54  88 128 155 191 257 328 363
#     4  12  23  40  63  94 129 164 214 274 316 371
#     4  11  17  37  57  84 128 163 202 262 312 372
#     4  11  19  32  53  90 127 150 196 266 320 356
#     4  12  24  38  67  97 127 166 217 267 321 372
#     4  10  18  32  54  92 126 151 200 266 326 361
#     4  12  28  45  63  91 132 178 217 258 321 386
#
# _framework density 19.758102999999998
#
# number of rings (size 3 to 8) (size 9 to 14) (size 15 to 20)
#    0.000    1.000    7.500    2.250    5.250    0.500 
#    0.000    0.000    0.000    0.750    0.000    2.625 
#    0.000    0.000    0.000    0.000    0.000    0.000 
#
# Total GULP energy -198253.536106 kJ/mol
# GULP energy per Si atom -12390.846007 kJ/mol
# Density = 1.971313 g / cm^3
# Si number density = 19.758103 Si / 1000 Ang^3
#
#
#
# Elastic Constant Matrix: (Units=GPa)
#
#
# Indices 1 2 3 4 5 6 
#
# 1 166.4370 34.3747 67.7116 8.1770 4.0946 -1.0424
# 2 34.3747 67.5935 57.1025 4.1040 -6.0592 0.2356
# 3 67.7116 57.1025 160.0013 29.8381 -4.0829 -4.5435
# 4 8.1770 4.1040 29.8381 31.7973 -2.9211 -3.7410
# 5 4.0946 -6.0592 -4.0829 -2.9211 39.1356 6.0300
# 6 -1.0424 0.2356 -4.5435 -3.7410 6.0300 11.5102
#
#
#
# Elastic Compliance Matrix: (Units=1/GPa)
#
#
# Indices 1 2 3 4 5 6 
#
# 1 0.007460 -0.001657 -0.002734 0.000807 -0.001355 0.000603
# 2 -0.001657 0.022813 -0.008443 0.005258 0.003875 -0.004271
# 3 -0.002734 -0.008443 0.012234 -0.009515 -0.000774 0.002067
# 4 0.000807 0.005258 -0.009515 0.040643 0.001435 0.008668
# 5 -0.001355 0.003875 -0.000774 0.001435 0.028638 -0.015044
# 6 0.000603 -0.004271 0.002067 0.008668 -0.015044 0.098536
#
#
# Mechanical properties :
#
#
# Convention : Reuss Voigt Hill
#
# Bulk Modulus (GPa) = 59.38829 79.15661 69.27245
# Shear Modulus (GPa) = 20.69496 32.14482 26.41989
#
# Velocity S-wave (km/s) = 3.23989 4.03788 3.66070
# Velocity P-wave (km/s) = 6.64220 7.86697 7.28038
#
# Compressibility (1/GPa) = 0.01683834
#
# Stress axis : x y z
#
# Youngs Moduli (GPa) = 134.04643 43.83474 81.74248
#
# Poissons Ratio (x) = 0.07263 0.22346
# Poissons Ratio (y) = 0.22212 0.69019
# Poissons Ratio (z) = 0.36644 0.37012
#
# Static dielectric constant tensor:
#      x y z
#    x 3.999870 -0.179890 -0.376460 
#    y -0.179890 3.042370 0.594770 
#    z -0.376460 0.594770 4.088210 
# 
# 
# High freq. dielectric constant tensor:
#      x y z
#    x 1.795770 -0.005350 -0.006810 
#    y -0.005350 1.683230 0.047930 
#    z -0.006810 0.047930 1.790970 
# 
# From -- ./inp_files/521954.got.cif
#   From: 2010.06.25/outbox.cif.g09.slc.cpg/sg2_261_cif.got.tgz:521954.got - 2010.06.27 13:26:56.
