data_PCOD8038570
_publ_section_title
;
Structure prediction by ZEFSAII (Michael W. Deem and Ramdas Pophale) SiO2 
 PCOD8038570
Probable space group: P -1
;
_chemical_formula_sum "Si O2"
_cell_formula_units_Z 16
_cell_length_a 9.746276
_cell_length_b 16.846312
_cell_length_c 11.805980
_cell_angle_alpha 127.642805
_cell_angle_beta 55.070661
_cell_angle_gamma 81.303851
_cell_volume 800.560191
_symmetry_space_group_name_H-M "P -1"
_symmetry_group_IT_number 2
_symmetry_cell_setting 'triclinic'
loop_
_space_group_symop_operation_xyz
x,y,z
-x,-y,-z
loop_
_atom_site_type_symbol
_atom_site_label
_atom_site_fract_x
_atom_site_fract_y
_atom_site_fract_z
Si Si1 0.831131 0.318408 0.494456
Si Si2 0.990147 0.688572 0.244819
Si Si3 0.628706 0.320429 0.930648
Si Si4 0.521736 0.675744 0.241462
Si Si5 0.965648 0.655756 0.763291
Si Si6 0.308294 0.173797 0.280799
Si Si7 0.611090 0.692399 0.794688
Si Si8 0.310547 0.182255 0.728842
O O1 0.736018 0.248758 0.504642
O O2 0.977120 0.263378 0.255856
O O3 0.016225 0.283369 0.470851
O O4 0.566835 0.503875 0.781588
O O5 0.731129 0.791943 0.536103
O O6 0.898861 0.737839 0.201725
O O7 0.095529 0.751430 0.281218
O O8 0.204631 0.501125 0.999615
O O9 0.516962 0.324463 0.873151
O O10 0.642227 0.232121 0.949732
O O11 0.526575 0.792983 0.358968
O O12 0.235206 0.469589 0.478154
O O13 0.770009 0.680365 0.802929
O O14 0.857742 0.724333 0.997699
O O15 0.452064 0.205622 0.190589
O O16 0.500000 0.000000 0.000000
O O17 0.500000 0.000000 0.500000
#
# Coordination Sequence:
#
# PCOD8038570 Si02
#       8
#     2   2   2   2   2   2   2   2
#     4   9  18  35  64  91 111 148 205 260 297 337
#     4  11  23  40  62  94 122 158 204 256 303 362
#     4  10  17  37  68  94 112 146 214 264 294 342
#     4  11  19  41  66  89 116 161 212 253 293 358
#     4   9  18  36  61  83 117 154 203 244 294 358
#     4  11  21  33  56  93 128 149 197 252 304 354
#     4   9  18  34  63  91 109 154 205 254 296 342
#     4  12  27  41  56  88 134 171 193 238 318 378
#
# _framework density 19.986004999999999
#
# number of rings (size 3 to 8) (size 9 to 14) (size 15 to 20)
#    0.000    1.750    3.750    2.625    3.500    0.000 
#    2.250    8.750    0.000    0.000    0.000    0.000 
#    0.000    0.000    0.000    0.000    0.000    0.000 
#
# Total GULP energy -198228.996662 kJ/mol
# GULP energy per Si atom -12389.312291 kJ/mol
# Density = 1.994052 g / cm^3
# Si number density = 19.986005 Si / 1000 Ang^3
#
#
#
# Elastic Constant Matrix: (Units=GPa)
#
#
# Indices 1 2 3 4 5 6 
#
# 1 68.2143 42.9919 23.8647 0.8595 5.3529 2.8859
# 2 42.9919 142.5326 62.1258 -26.0993 5.5612 23.2352
# 3 23.8647 62.1258 56.5224 -13.4217 15.4603 -1.1105
# 4 0.8595 -26.0993 -13.4217 29.2755 2.2617 3.2871
# 5 5.3529 5.5612 15.4603 2.2617 19.8063 -8.3122
# 6 2.8859 23.2352 -1.1105 3.2871 -8.3122 40.1477
#
#
#
# Elastic Compliance Matrix: (Units=1/GPa)
#
#
# Indices 1 2 3 4 5 6 
#
# 1 0.019939 -0.006689 -0.003504 -0.008662 0.001636 0.003389
# 2 -0.006689 0.021558 -0.019619 0.011483 0.004492 -0.012549
# 3 -0.003504 -0.019619 0.051654 0.008164 -0.032424 0.005654
# 4 -0.008662 0.011483 0.008164 0.051423 -0.018976 -0.013936
# 5 0.001636 0.004492 -0.032424 -0.018976 0.082572 0.015036
# 6 0.003389 -0.012549 0.005654 -0.013936 0.015036 0.036337
#
#
# Mechanical properties :
#
#
# Convention : Reuss Voigt Hill
#
# Bulk Modulus (GPa) = 29.82770 58.35935 44.09352
# Shear Modulus (GPa) = 14.95736 27.06503 21.01119
#
# Velocity S-wave (km/s) = 2.73864 3.68394 3.24589
# Velocity P-wave (km/s) = 4.99569 6.88176 6.01314
#
# Compressibility (1/GPa) = 0.03352588
#
# Stress axis : x y z
#
# Youngs Moduli (GPa) = 50.15332 46.38606 19.35959
#
# Poissons Ratio (x) = 0.31030 0.06783
# Poissons Ratio (y) = 0.33550 0.37982
# Poissons Ratio (z) = 0.17573 0.91006
#
# Static dielectric constant tensor:
#      x y z
#    x 3.253840 0.403810 0.051190 
#    y 0.403810 4.353870 -0.375600 
#    z 0.051190 -0.375600 3.327650 
# 
# 
# High freq. dielectric constant tensor:
#      x y z
#    x 1.749570 0.012750 -0.002240 
#    y 0.012750 1.801420 -0.026910 
#    z -0.002240 -0.026910 1.755800 
# 
# From -- ./inp_files/392132.got.cif
#   From: 2010.06.25/outbox.cif.g09.slc.cpg/sg2_197_cif.got.tgz:392132.got - 2010.06.27 13:26:56.
