data_PCOD8038121
_publ_section_title
;
Structure prediction by ZEFSAII (Michael W. Deem and Ramdas Pophale) SiO2 
 PCOD8038121
Probable space group: P -1
;
_chemical_formula_sum "Si O2"
_cell_formula_units_Z 14
_cell_length_a 11.935196
_cell_length_b 11.801297
_cell_length_c 11.124679
_cell_angle_alpha 95.518856
_cell_angle_beta 137.317003
_cell_angle_gamma 116.962579
_cell_volume 666.015709
_symmetry_space_group_name_H-M "P -1"
_symmetry_group_IT_number 2
_symmetry_cell_setting 'triclinic'
loop_
_space_group_symop_operation_xyz
x,y,z
-x,-y,-z
loop_
_atom_site_type_symbol
_atom_site_label
_atom_site_fract_x
_atom_site_fract_y
_atom_site_fract_z
Si Si1 0.657353 0.202893 0.151135
Si Si2 0.907409 0.196427 0.172477
Si Si3 0.656327 0.170207 0.403734
Si Si4 0.616954 0.259700 0.628823
Si Si5 0.138969 0.040919 0.735980
Si Si6 0.921626 0.642900 0.916427
Si Si7 0.923072 0.111172 0.738918
O O1 0.872583 0.300533 0.225436
O O2 0.787927 0.287805 0.395404
O O3 0.447933 0.191673 0.962866
O O4 0.500000 0.000000 0.000000
O O5 0.120082 0.329203 0.248152
O O6 0.990587 0.142946 0.327862
O O7 0.646255 0.015300 0.880471
O O8 0.674519 0.272607 0.534106
O O9 0.807086 0.136329 0.553572
O O10 0.698432 0.430731 0.746945
O O11 0.313313 0.081241 0.401355
O O12 0.788517 0.259352 0.837867
O O13 0.112754 0.126144 0.821997
O O14 0.000000 0.000000 0.500000
O O15 0.898471 0.730679 0.004655
#
# Coordination Sequence:
#
# PCOD8038121 Si02
#       7
#     2   2   2   2   2   2   2
#     4   8  17  30  53  78 103 138 179 221 253 314
#     4  10  17  34  54  78 111 136 181 222 254 317
#     4   9  15  32  53  78 103 139 178 215 259 309
#     4  10  19  32  55  82 109 139 180 214 259 320
#     4  10  20  31  54  85 102 141 181 213 273 318
#     4  10  20  33  54  85 106 141 178 216 263 311
#     4  11  18  33  57  80 111 137 172 221 265 316
#
# _framework density 21.020526
#
# number of rings (size 3 to 8) (size 9 to 14) (size 15 to 20)
#    0.000    2.571    2.857    3.429    0.000    0.571 
#    0.000    1.429    0.000    0.857    0.000    0.000 
#    0.000    0.000    0.000    0.000    0.000    0.000 
#
# Total GULP energy -173509.397431 kJ/mol
# GULP energy per Si atom -12393.528388 kJ/mol
# Density = 2.097268 g / cm^3
# Si number density = 21.020526 Si / 1000 Ang^3
#
#
#
# Elastic Constant Matrix: (Units=GPa)
#
#
# Indices 1 2 3 4 5 6 
#
# 1 153.6357 61.1362 43.3852 -10.1973 -21.7438 -21.3968
# 2 61.1362 78.8382 38.8697 -19.5243 -13.7691 -3.9186
# 3 43.3852 38.8697 54.9723 -13.0237 -17.4464 -4.1674
# 4 -10.1973 -19.5243 -13.0237 34.9560 -0.7095 -11.9910
# 5 -21.7438 -13.7691 -17.4464 -0.7095 26.1658 -12.1772
# 6 -21.3968 -3.9186 -4.1674 -11.9910 -12.1772 30.2767
#
#
#
# Elastic Compliance Matrix: (Units=1/GPa)
#
#
# Indices 1 2 3 4 5 6 
#
# 1 0.015506 -0.005351 0.004922 0.013018 0.026077 0.026587
# 2 -0.005351 0.025045 -0.008928 0.010785 0.005213 0.004599
# 3 0.004922 -0.008928 0.045857 0.028086 0.049118 0.039513
# 4 0.013018 0.010785 0.028086 0.075362 0.071213 0.072950
# 5 0.026077 0.005213 0.049118 0.071213 0.150678 0.114670
# 6 0.026587 0.004599 0.039513 0.072950 0.114670 0.132863
#
#
# Mechanical properties :
#
#
# Convention : Reuss Voigt Hill
#
# Bulk Modulus (GPa) = 14.77235 63.80316 39.28775
# Shear Modulus (GPa) = 10.27558 27.88336 19.07947
#
# Velocity S-wave (km/s) = 2.21336 3.64604 3.01601
# Velocity P-wave (km/s) = 3.68440 6.93855 5.55510
#
# Compressibility (1/GPa) = 0.06769405
#
# Stress axis : x y z
#
# Youngs Moduli (GPa) = 64.49198 39.92760 21.80689
#
# Poissons Ratio (x) = 0.21366 -0.10733
# Poissons Ratio (y) = 0.34511 0.19469
# Poissons Ratio (z) = -0.31741 0.35646
#
# Static dielectric constant tensor:
#      x y z
#    x 4.522600 0.240490 -0.339490 
#    y 0.240490 3.754670 -0.325190 
#    z -0.339490 -0.325190 3.492110 
# 
# 
# High freq. dielectric constant tensor:
#      x y z
#    x 1.837690 0.000790 -0.024020 
#    y 0.000790 1.802670 -0.021820 
#    z -0.024020 -0.021820 1.788300 
# 
# From -- ./inp_files/428472.got.cif
#   From: 2010.06.25/outbox.cif.g09.slc.cpg/sg2_215_cif.got.tgz:428472.got - 2010.06.27 13:26:56.
