data_PCOD8038376
_publ_section_title
;
Structure prediction by ZEFSAII (Michael W. Deem and Ramdas Pophale) SiO2 
 PCOD8038376
Probable space group: P -1
;
_chemical_formula_sum "Si O2"
_cell_formula_units_Z 16
_cell_length_a 25.284807
_cell_length_b 9.029257
_cell_length_c 18.953129
_cell_angle_alpha 35.530091
_cell_angle_beta 18.715084
_cell_angle_gamma 37.460936
_cell_volume 800.680725
_symmetry_space_group_name_H-M "P -1"
_symmetry_group_IT_number 2
_symmetry_cell_setting 'triclinic'
loop_
_space_group_symop_operation_xyz
x,y,z
-x,-y,-z
loop_
_atom_site_type_symbol
_atom_site_label
_atom_site_fract_x
_atom_site_fract_y
_atom_site_fract_z
Si Si1 0.384799 0.622196 0.662085
Si Si2 0.454127 0.218901 0.176482
Si Si3 0.539814 0.740750 0.162644
Si Si4 0.394235 0.990712 0.788482
Si Si5 0.858178 0.511675 0.078632
Si Si6 0.233165 0.513611 0.136213
Si Si7 0.823337 0.302768 0.356839
Si Si8 0.874652 0.732060 0.492730
O O1 0.500000 0.500000 0.500000
O O2 0.385504 0.445038 0.797663
O O3 0.456348 0.888638 0.488372
O O4 0.197607 0.652134 0.854311
O O5 0.252386 0.237463 0.424737
O O6 0.519701 0.036240 0.098674
O O7 0.532205 0.095404 0.195766
O O8 0.500000 0.500000 0.000000
O O9 0.362704 0.660825 0.391176
O O10 0.667318 0.714498 0.946452
O O11 0.233561 0.198465 0.921051
O O12 0.339548 0.753764 0.905754
O O13 0.807852 0.375538 0.266002
O O14 0.057317 0.520923 0.821326
O O15 0.211123 0.427338 0.277489
O O16 0.051728 0.585237 0.302405
O O17 0.905105 0.009255 0.376331
#
# Coordination Sequence:
#
# PCOD8038376 Si02
#       8
#     2   2   2   2   2   2   2   2
#     4  10  17  35  60  87 117 160 198 236 303 365
#     4  11  21  38  66  87 116 160 205 241 298 371
#     4  11  22  38  62  94 119 157 206 254 295 359
#     4  11  19  38  61  89 117 170 196 237 309 367
#     4  10  18  34  62  91 113 159 204 247 291 373
#     4  11  24  40  61  87 128 160 203 252 303 357
#     4  10  19  34  62  92 116 152 211 246 295 354
#     4  10  22  41  61  85 120 170 200 246 307 361
#
# _framework density 19.982994999999999
#
# number of rings (size 3 to 8) (size 9 to 14) (size 15 to 20)
#    0.000    1.500    7.500    0.750    0.000    2.500 
#    0.000    1.875    0.000    2.250    0.000    0.000 
#    0.000    0.000    0.000    0.000    0.000    0.000 
#
# Total GULP energy -198318.679897 kJ/mol
# GULP energy per Si atom -12394.917494 kJ/mol
# Density = 1.993751 g / cm^3
# Si number density = 19.982995 Si / 1000 Ang^3
#
#
#
# Elastic Constant Matrix: (Units=GPa)
#
#
# Indices 1 2 3 4 5 6 
#
# 1 57.1359 24.7079 40.3517 4.9753 -26.3326 -4.3521
# 2 24.7079 85.6052 46.2984 -5.6138 -8.2305 -3.4377
# 3 40.3517 46.2984 108.9838 4.1086 -23.9572 8.2484
# 4 4.9753 -5.6138 4.1086 38.9343 -0.2449 -2.0037
# 5 -26.3326 -8.2305 -23.9572 -0.2449 29.7490 -1.3389
# 6 -4.3521 -3.4377 8.2484 -2.0037 -1.3389 27.5007
#
#
#
# Elastic Compliance Matrix: (Units=1/GPa)
#
#
# Indices 1 2 3 4 5 6 
#
# 1 0.037568 -0.004707 -0.006417 -0.004205 0.027122 0.008296
# 2 -0.004707 0.016641 -0.006797 0.003864 -0.004851 0.003419
# 3 -0.006417 -0.006797 0.016149 -0.002173 0.005129 -0.006618
# 4 -0.004205 0.003864 -0.002173 0.027098 -0.004078 0.002245
# 5 0.027122 -0.004851 0.005129 -0.004078 0.060593 0.004800
# 6 0.008296 0.003419 -0.006618 0.002245 0.004800 0.040485
#
#
# Mechanical properties :
#
#
# Convention : Reuss Voigt Hill
#
# Bulk Modulus (GPa) = 28.97325 52.71566 40.84445
# Shear Modulus (GPa) = 20.33496 28.59458 24.46477
#
# Velocity S-wave (km/s) = 3.19347 3.78689 3.50277
# Velocity P-wave (km/s) = 5.30359 6.74968 6.06986
#
# Compressibility (1/GPa) = 0.03451460
#
# Stress axis : x y z
#
# Youngs Moduli (GPa) = 26.61845 60.09392 61.92186
#
# Poissons Ratio (x) = 0.28289 0.39736
# Poissons Ratio (y) = 0.12530 0.42089
# Poissons Ratio (z) = 0.17081 0.40847
#
# Static dielectric constant tensor:
#      x y z
#    x 3.689550 -0.289590 -0.434580 
#    y -0.289590 3.795900 -0.333950 
#    z -0.434580 -0.333950 3.841870 
# 
# 
# High freq. dielectric constant tensor:
#      x y z
#    x 1.768750 -0.031500 -0.033750 
#    y -0.031500 1.769350 -0.024520 
#    z -0.033750 -0.024520 1.774300 
# 
# From -- ./inp_files/216564.got.cif
#   From: 2010.06.25/outbox.cif.g09.slc.cpg/sg2_109_cif.got.tgz:216564.got - 2010.06.27 13:26:56.
