data_PCOD8038453
_publ_section_title
;
Structure prediction by ZEFSAII (Michael W. Deem and Ramdas Pophale) SiO2 
 PCOD8038453
Probable space group: P -1
;
_chemical_formula_sum "Si O2"
_cell_formula_units_Z 12
_cell_length_a 9.392396
_cell_length_b 9.040641
_cell_length_c 11.868662
_cell_angle_alpha 131.854194
_cell_angle_beta 79.467839
_cell_angle_gamma 117.594466
_cell_volume 652.984239
_symmetry_space_group_name_H-M "P -1"
_symmetry_group_IT_number 2
_symmetry_cell_setting 'triclinic'
loop_
_space_group_symop_operation_xyz
x,y,z
-x,-y,-z
loop_
_atom_site_type_symbol
_atom_site_label
_atom_site_fract_x
_atom_site_fract_y
_atom_site_fract_z
Si Si1 0.936443 0.056771 0.377248
Si Si2 0.519376 0.304900 0.458851
Si Si3 0.616069 0.164062 0.162007
Si Si4 0.934090 0.126074 0.152299
Si Si5 0.761848 0.694531 0.389256
Si Si6 0.857620 0.420677 0.573705
O O1 0.933379 0.035616 0.232510
O O2 0.828124 0.177256 0.496141
O O3 0.121009 0.215202 0.473039
O O4 0.859711 0.810850 0.319829
O O5 0.500000 0.500000 0.500000
O O6 0.512286 0.126137 0.274183
O O7 0.375105 0.219044 0.528822
O O8 0.692067 0.409332 0.548213
O O9 0.755632 0.090243 0.126024
O O10 0.691118 0.426414 0.249323
O O11 0.500000 0.000000 0.000000
O O12 0.066307 0.386589 0.245600
O O13 0.000000 0.000000 0.000000
O O14 0.000000 0.500000 0.500000
#
# Coordination Sequence:
#
# PCOD8038453 Si02
#       6
#     2   2   2   2   2   2
#     4  10  20  41  61  83 115 150 197 245 278 335
#     4  10  19  34  59  84 110 150 194 237 279 334
#     4  11  22  37  56  86 119 150 188 237 286 348
#     4  11  22  36  59  84 113 158 193 228 287 344
#     4  10  22  38  62  87 114 149 193 244 291 328
#     4  10  17  36  59  79 111 149 198 235 269 336
#
# _framework density 18.377165000000002
#
# number of rings (size 3 to 8) (size 9 to 14) (size 15 to 20)
#    0.000    1.667    5.000    3.000    7.000    0.667 
#    0.000    3.333    0.000    0.000    0.000    0.000 
#    0.000    0.000    0.000    0.000    0.000    0.000 
#
# Total GULP energy -148661.994849 kJ/mol
# GULP energy per Si atom -12388.499571 kJ/mol
# Density = 1.833534 g / cm^3
# Si number density = 18.377165 Si / 1000 Ang^3
#
#
#
# Elastic Constant Matrix: (Units=GPa)
#
#
# Indices 1 2 3 4 5 6 
#
# 1 161.3870 24.6703 64.3911 -5.3904 6.0092 -4.8368
# 2 24.6703 80.3628 40.3113 2.8031 3.1472 -1.7688
# 3 64.3911 40.3113 147.9097 -0.0017 -0.8482 3.0330
# 4 -5.3904 2.8031 -0.0017 21.8713 -1.9331 1.8245
# 5 6.0092 3.1472 -0.8482 -1.9331 41.5670 0.2196
# 6 -4.8368 -1.7688 3.0330 1.8245 0.2196 19.9885
#
#
#
# Elastic Compliance Matrix: (Units=1/GPa)
#
#
# Indices 1 2 3 4 5 6 
#
# 1 0.007758 -0.000734 -0.003228 0.001732 -0.001063 0.002156
# 2 -0.000734 0.014714 -0.003737 -0.002333 -0.001203 0.001918
# 3 -0.003228 -0.003737 0.009242 -0.000021 0.000950 -0.002523
# 4 0.001732 -0.002333 -0.000021 0.046978 0.002132 -0.004096
# 5 -0.001063 -0.001203 0.000950 0.002132 0.024426 -0.000971
# 6 0.002156 0.001918 -0.002523 -0.004096 -0.000971 0.051487
#
#
# Mechanical properties :
#
#
# Convention : Reuss Voigt Hill
#
# Bulk Modulus (GPa) = 61.28629 72.04499 66.66564
# Shear Modulus (GPa) = 28.49950 34.03782 31.26866
#
# Velocity S-wave (km/s) = 3.94231 4.30836 4.12939
# Velocity P-wave (km/s) = 7.35825 8.00237 7.68706
#
# Compressibility (1/GPa) = 0.01631686
#
# Stress axis : x y z
#
# Youngs Moduli (GPa) = 128.89338 67.96216 108.20531
#
# Poissons Ratio (x) = 0.04988 0.34926
# Poissons Ratio (y) = 0.09460 0.40435
# Poissons Ratio (z) = 0.41604 0.25397
#
# Static dielectric constant tensor:
#      x y z
#    x 4.236620 0.188370 -0.265020 
#    y 0.188370 3.419150 -0.109290 
#    z -0.265020 -0.109290 3.315110 
# 
# 
# High freq. dielectric constant tensor:
#      x y z
#    x 1.735550 -0.009220 0.001790 
#    y -0.009220 1.690350 0.003980 
#    z 0.001790 0.003980 1.700450 
# 
# From -- ./inp_files/145588.got.cif
#   From: 2010.06.25/outbox.cif.g09.slc.cpg/sg2_73_cif.got.tgz:145588.got - 2010.06.27 13:26:56.
