data_PCOD8038481
_publ_section_title
;
Structure prediction by ZEFSAII (Michael W. Deem and Ramdas Pophale) SiO2 
 PCOD8038481
Probable space group: P -1
;
_chemical_formula_sum "Si O2"
_cell_formula_units_Z 16
_cell_length_a 14.000501
_cell_length_b 15.247038
_cell_length_c 9.371690
_cell_angle_alpha 37.329180
_cell_angle_beta 78.289120
_cell_angle_gamma 51.649646
_cell_volume 753.376029
_symmetry_space_group_name_H-M "P -1"
_symmetry_group_IT_number 2
_symmetry_cell_setting 'triclinic'
loop_
_space_group_symop_operation_xyz
x,y,z
-x,-y,-z
loop_
_atom_site_type_symbol
_atom_site_label
_atom_site_fract_x
_atom_site_fract_y
_atom_site_fract_z
Si Si1 0.606185 0.600670 0.096169
Si Si2 0.582067 0.789569 0.346697
Si Si3 0.058352 0.078968 0.746410
Si Si4 0.654626 0.779458 0.653189
Si Si5 0.263771 0.018401 0.560505
Si Si6 0.275694 0.033037 0.209131
Si Si7 0.825892 0.106468 0.755908
Si Si8 0.770350 0.577473 0.309259
O O1 0.631281 0.680084 0.119096
O O2 0.677119 0.362770 0.412637
O O3 0.696932 0.572333 0.970646
O O4 0.426332 0.787149 0.879726
O O5 0.640030 0.793316 0.470455
O O6 0.729133 0.569523 0.493474
O O7 0.454936 0.812781 0.391073
O O8 0.500000 0.000000 0.000000
O O9 0.930428 0.325860 0.539999
O O10 0.131325 0.072188 0.597386
O O11 0.186469 0.901166 0.059057
O O12 0.981395 0.019012 0.790870
O O13 0.500000 0.000000 0.500000
O O14 0.775572 0.767652 0.670164
O O15 0.264106 0.990275 0.428935
O O16 0.168657 0.053867 0.117316
O O17 0.216569 0.264469 0.910958
#
# Coordination Sequence:
#
# PCOD8038481 Si02
#       8
#     2   2   2   2   2   2   2   2
#     4  10  20  42  66  94 127 166 203 256 322 372
#     4  10  19  34  62  99 128 150 201 269 310 355
#     4  10  25  47  60  87 130 174 210 249 317 382
#     4  10  17  36  62  98 126 153 198 264 317 361
#     4  11  21  38  70  95 124 159 212 263 309 373
#     4  11  21  39  65  99 123 155 217 265 308 363
#     4  10  25  45  60  86 133 170 212 253 309 384
#     4  10  22  41  66  94 128 165 206 261 314 368
#
# _framework density 21.237732999999999
#
# number of rings (size 3 to 8) (size 9 to 14) (size 15 to 20)
#    0.000    1.750    3.750    2.250    5.250    2.500 
#    4.500    0.000    0.000    0.000    0.000    0.000 
#    0.000    0.000    0.000    0.000    0.000    0.000 
#
# Total GULP energy -198307.655908 kJ/mol
# GULP energy per Si atom -12394.228494 kJ/mol
# Density = 2.118939 g / cm^3
# Si number density = 21.237733 Si / 1000 Ang^3
#
#
#
# Elastic Constant Matrix: (Units=GPa)
#
#
# Indices 1 2 3 4 5 6 
#
# 1 136.2100 60.5543 13.6534 9.3017 -9.8440 6.3729
# 2 60.5543 138.8846 36.0284 37.6827 -1.1122 -14.1153
# 3 13.6534 36.0284 64.8365 5.2130 -4.3217 -3.1715
# 4 9.3017 37.6827 5.2130 28.5967 0.8186 -2.8432
# 5 -9.8440 -1.1122 -4.3217 0.8186 27.5759 7.1479
# 6 6.3729 -14.1153 -3.1715 -2.8432 7.1479 43.5516
#
#
#
# Elastic Compliance Matrix: (Units=1/GPa)
#
#
# Indices 1 2 3 4 5 6 
#
# 1 0.010222 -0.006229 0.001080 0.004171 0.004452 -0.003894
# 2 -0.006229 0.017326 -0.006758 -0.018942 -0.003410 0.005358
# 3 0.001080 -0.006758 0.018710 0.004933 0.003207 -0.001190
# 4 0.004171 -0.018942 0.004933 0.057389 0.000501 -0.002726
# 5 0.004452 -0.003410 0.003207 0.000501 0.040304 -0.008105
# 6 -0.003894 0.005358 -0.001190 -0.002726 -0.008105 0.026333
#
#
# Mechanical properties :
#
#
# Convention : Reuss Voigt Hill
#
# Bulk Modulus (GPa) = 44.55692 62.26703 53.41197
# Shear Modulus (GPa) = 24.80412 35.25784 30.03098
#
# Velocity S-wave (km/s) = 3.42120 4.07892 3.76445
# Velocity P-wave (km/s) = 6.05242 7.18095 6.64070
#
# Compressibility (1/GPa) = 0.02244320
#
# Stress axis : x y z
#
# Youngs Moduli (GPa) = 97.83269 57.71725 53.44621
#
# Poissons Ratio (x) = 0.35950 -0.05770
# Poissons Ratio (y) = 0.60936 0.36120
# Poissons Ratio (z) = -0.10562 0.39007
#
# Static dielectric constant tensor:
#      x y z
#    x 3.939570 -0.108220 -0.172410 
#    y -0.108220 4.101950 0.313480 
#    z -0.172410 0.313480 3.934720 
# 
# 
# High freq. dielectric constant tensor:
#      x y z
#    x 1.831070 0.001840 -0.005960 
#    y 0.001840 1.821960 0.026200 
#    z -0.005960 0.026200 1.825760 
# 
# From -- ./inp_files/314482.got.cif
#   From: 2010.06.25/outbox.cif.g09.slc.cpg/sg2_158_cif.got.tgz:314482.got - 2010.06.27 13:26:56.
