data_PCOD8038539
_publ_section_title
;
Structure prediction by ZEFSAII (Michael W. Deem and Ramdas Pophale) SiO2 
 PCOD8038539
Probable space group: P -1
;
_chemical_formula_sum "Si O2"
_cell_formula_units_Z 16
_cell_length_a 7.927913
_cell_length_b 12.072370
_cell_length_c 14.239573
_cell_angle_alpha 118.390756
_cell_angle_beta 143.291773
_cell_angle_gamma 62.843066
_cell_volume 709.277552
_symmetry_space_group_name_H-M "P -1"
_symmetry_group_IT_number 2
_symmetry_cell_setting 'triclinic'
loop_
_space_group_symop_operation_xyz
x,y,z
-x,-y,-z
loop_
_atom_site_type_symbol
_atom_site_label
_atom_site_fract_x
_atom_site_fract_y
_atom_site_fract_z
Si Si1 0.171935 0.741289 0.404354
Si Si2 0.435442 0.892835 0.733550
Si Si3 0.832313 0.645147 0.851453
Si Si4 0.405971 0.447990 0.579010
Si Si5 0.574488 0.067608 0.705059
Si Si6 0.596934 0.351306 0.815814
Si Si7 0.926471 0.023059 0.667796
Si Si8 0.897166 0.518962 0.254854
O O1 0.207478 0.828563 0.544776
O O2 0.462130 0.640321 0.484166
O O3 0.109246 0.828683 0.319625
O O4 0.926527 0.653911 0.273237
O O5 0.693551 0.791791 0.845486
O O6 0.582931 0.990451 0.774988
O O7 0.252683 0.960795 0.766365
O O8 0.585643 0.561649 0.728153
O O9 0.012358 0.602055 0.819896
O O10 0.070157 0.630240 0.034361
O O11 0.435698 0.358575 0.647083
O O12 0.086282 0.502887 0.428993
O O13 0.569939 0.213485 0.790603
O O14 0.852328 0.018940 0.744036
O O15 0.289214 0.052375 0.515033
O O16 0.432493 0.464518 0.853937
#
# Coordination Sequence:
#
# PCOD8038539 Si02
#       8
#     2   2   2   2   2   2   2   2
#     4  10  17  37  62  87 118 153 211 257 303 357
#     4  11  20  39  63  89 125 166 206 251 319 367
#     4  11  24  41  60  90 129 165 198 253 322 387
#     4  11  21  40  65  86 121 160 210 255 301 373
#     4  10  22  37  61  93 126 160 210 267 305 366
#     4  12  24  40  60  92 131 156 201 266 323 360
#     4  10  20  36  63  95 121 163 212 264 304 367
#     4  11  21  39  66  92 114 166 213 253 308 373
#
# _framework density 22.558164000000001
#
# number of rings (size 3 to 8) (size 9 to 14) (size 15 to 20)
#    0.000    1.250    3.750    4.875    0.000    0.500 
#    2.250    0.625    0.000    0.000    0.000    0.000 
#    0.000    0.000    0.000    0.000    0.000    0.000 
#
# Total GULP energy -198355.995364 kJ/mol
# GULP energy per Si atom -12397.249710 kJ/mol
# Density = 2.250682 g / cm^3
# Si number density = 22.558164 Si / 1000 Ang^3
#
#
#
# Elastic Constant Matrix: (Units=GPa)
#
#
# Indices 1 2 3 4 5 6 
#
# 1 109.2588 41.0252 13.7531 -19.8059 17.6165 -15.3903
# 2 41.0252 119.9414 29.8368 -8.3086 17.7291 -7.6210
# 3 13.7531 29.8368 52.4859 -13.7492 12.2600 -2.4302
# 4 -19.8059 -8.3086 -13.7492 21.6997 -9.6143 4.9455
# 5 17.6165 17.7291 12.2600 -9.6143 21.4024 -3.8808
# 6 -15.3903 -7.6210 -2.4302 4.9455 -3.8808 33.0947
#
#
#
# Elastic Compliance Matrix: (Units=1/GPa)
#
#
# Indices 1 2 3 4 5 6 
#
# 1 0.013063 -0.003505 0.002156 0.009238 -0.004292 0.003542
# 2 -0.003505 0.011433 -0.005558 -0.004934 -0.005493 0.000688
# 3 0.002156 -0.005558 0.026815 0.014299 -0.006323 -0.001186
# 4 0.009238 -0.004934 0.014299 0.071303 0.019570 -0.004150
# 5 -0.004292 -0.005493 -0.006323 0.019570 0.067448 0.001260
# 6 0.003542 0.000688 -0.001186 -0.004150 0.001260 0.032703
#
#
# Mechanical properties :
#
#
# Convention : Reuss Voigt Hill
#
# Bulk Modulus (GPa) = 26.66913 50.10180 38.38546
# Shear Modulus (GPa) = 20.07400 28.37743 24.22571
#
# Velocity S-wave (km/s) = 2.98632 3.55063 3.28063
# Velocity P-wave (km/s) = 4.87225 6.25041 5.60386
#
# Compressibility (1/GPa) = 0.03749654
#
# Stress axis : x y z
#
# Youngs Moduli (GPa) = 76.55303 87.46698 37.29206
#
# Poissons Ratio (x) = 0.30658 -0.08041
# Poissons Ratio (y) = 0.26832 0.20728
# Poissons Ratio (z) = -0.16506 0.48617
#
# Static dielectric constant tensor:
#      x y z
#    x 4.093250 -0.049220 0.130410 
#    y -0.049220 4.095000 -0.055200 
#    z 0.130410 -0.055200 3.683190 
# 
# 
# High freq. dielectric constant tensor:
#      x y z
#    x 1.884390 -0.009470 0.011080 
#    y -0.009470 1.896380 -0.001920 
#    z 0.011080 -0.001920 1.856870 
# 
# From -- ./inp_files/297763.got.cif
#   From: 2010.06.25/outbox.cif.g09.slc.cpg/sg2_149_cif.got.tgz:297763.got - 2010.06.27 13:26:56.
