data_PCOD8038233
_publ_section_title
;
Structure prediction by ZEFSAII (Michael W. Deem and Ramdas Pophale) SiO2 
 PCOD8038233
Probable space group: P -1
;
_chemical_formula_sum "Si O2"
_cell_formula_units_Z 16
_cell_length_a 13.835817
_cell_length_b 8.745496
_cell_length_c 9.513873
_cell_angle_alpha 138.385312
_cell_angle_beta 99.679669
_cell_angle_gamma 86.885970
_cell_volume 749.147325
_symmetry_space_group_name_H-M "P -1"
_symmetry_group_IT_number 2
_symmetry_cell_setting 'triclinic'
loop_
_space_group_symop_operation_xyz
x,y,z
-x,-y,-z
loop_
_atom_site_type_symbol
_atom_site_label
_atom_site_fract_x
_atom_site_fract_y
_atom_site_fract_z
Si Si1 0.969513 0.192503 0.324906
Si Si2 0.829386 0.250639 0.549267
Si Si3 0.087929 0.272619 0.147556
Si Si4 0.583795 0.731500 0.425640
Si Si5 0.630376 0.214128 0.621069
Si Si6 0.859637 0.838845 0.460618
Si Si7 0.294612 0.575927 0.926833
Si Si8 0.251161 0.068552 0.224738
O O1 0.014833 0.343002 0.305279
O O2 0.038369 0.236936 0.509301
O O3 0.859561 0.241056 0.382602
O O4 0.970887 0.923667 0.095862
O O5 0.878867 0.504039 0.786706
O O6 0.712065 0.229506 0.527905
O O7 0.879057 0.045954 0.496392
O O8 0.187101 0.183693 0.173412
O O9 0.467186 0.689816 0.399726
O O10 0.617208 0.506866 0.201797
O O11 0.641914 0.782295 0.622948
O O12 0.606948 0.947232 0.473673
O O13 0.668304 0.371499 0.870247
O O14 0.799012 0.616773 0.221787
O O15 0.799308 0.940362 0.641270
O O16 0.263001 0.806135 0.002291
#
# Coordination Sequence:
#
# PCOD8038233 Si02
#       8
#     2   2   2   2   2   2   2   2
#     4  10  24  41  57  82 114 160 196 230 285 345
#     4  12  22  38  59  89 118 148 187 250 288 329
#     4  10  24  41  59  81 117 156 198 231 281 348
#     4   9  18  35  60  87 118 147 190 229 287 350
#     4  10  20  34  57  92 118 147 182 240 293 335
#     4  10  21  37  59  89 116 145 192 243 288 333
#     4  10  17  34  60  85 118 151 188 230 287 343
#     4   9  19  38  59  85 115 155 192 232 280 340
#
# _framework density 21.357614000000002
#
# number of rings (size 3 to 8) (size 9 to 14) (size 15 to 20)
#    0.000    2.000    3.750    1.125    1.750    6.500 
#    0.000    0.625    0.000    1.500    0.000    0.000 
#    0.000    0.000    0.000    0.000    0.000    0.000 
#
# Total GULP energy -198350.323946 kJ/mol
# GULP energy per Si atom -12396.895247 kJ/mol
# Density = 2.130900 g / cm^3
# Si number density = 21.357614 Si / 1000 Ang^3
#
#
#
# Elastic Constant Matrix: (Units=GPa)
#
#
# Indices 1 2 3 4 5 6 
#
# 1 132.0160 36.2957 44.8775 -2.3621 -2.0213 9.8538
# 2 36.2957 64.5592 28.6442 14.5635 3.0489 5.5455
# 3 44.8775 28.6442 87.4049 10.0402 0.4231 -3.5874
# 4 -2.3621 14.5635 10.0402 22.5386 -4.0740 -0.1320
# 5 -2.0213 3.0489 0.4231 -4.0740 35.1149 -1.4250
# 6 9.8538 5.5455 -3.5874 -0.1320 -1.4250 31.9388
#
#
#
# Elastic Compliance Matrix: (Units=1/GPa)
#
#
# Indices 1 2 3 4 5 6 
#
# 1 0.011135 -0.005590 -0.004848 0.007267 0.001910 -0.002894
# 2 -0.005590 0.024069 -0.003350 -0.015439 -0.004288 -0.003086
# 3 -0.004848 -0.003350 0.015818 -0.005487 -0.000661 0.003802
# 4 0.007267 -0.015439 -0.005487 0.059126 0.008703 0.000455
# 5 0.001910 -0.004288 -0.000661 0.008703 0.030037 0.001457
# 6 -0.002894 -0.003086 0.003802 0.000455 0.001457 0.033233
#
#
# Mechanical properties :
#
#
# Convention : Reuss Voigt Hill
#
# Bulk Modulus (GPa) = 42.65240 55.95719 49.30479
# Shear Modulus (GPa) = 23.94526 29.52930 26.73728
#
# Velocity S-wave (km/s) = 3.35200 3.72238 3.54204
# Velocity P-wave (km/s) = 5.91567 6.68819 6.31375
#
# Compressibility (1/GPa) = 0.02344534
#
# Stress axis : x y z
#
# Youngs Moduli (GPa) = 89.80589 41.54665 63.22074
#
# Poissons Ratio (x) = 0.23225 0.30650
# Poissons Ratio (y) = 0.50203 0.21179
# Poissons Ratio (z) = 0.43538 0.13918
#
# Static dielectric constant tensor:
#      x y z
#    x 4.326710 -0.053820 0.103160 
#    y -0.053820 3.461930 0.165550 
#    z 0.103160 0.165550 3.925370 
# 
# 
# High freq. dielectric constant tensor:
#      x y z
#    x 1.844470 -0.005410 -0.005170 
#    y -0.005410 1.804480 0.022570 
#    z -0.005170 0.022570 1.842410 
# 
# From -- ./inp_files/52475.got.cif
#   From: 2010.06.25/outbox.cif.g09.slc.cpg/sg2_27_cif.got.tgz:52475.got - 2010.06.27 13:26:56.
