data_PCOD8038428
_publ_section_title
;
Structure prediction by ZEFSAII (Michael W. Deem and Ramdas Pophale) SiO2 
 PCOD8038428
Probable space group: P -1
;
_chemical_formula_sum "Si O2"
_cell_formula_units_Z 16
_cell_length_a 9.298618
_cell_length_b 16.446222
_cell_length_c 11.584636
_cell_angle_alpha 44.064361
_cell_angle_beta 47.716164
_cell_angle_gamma 33.063386
_cell_volume 660.447706
_symmetry_space_group_name_H-M "P -1"
_symmetry_group_IT_number 2
_symmetry_cell_setting 'triclinic'
loop_
_space_group_symop_operation_xyz
x,y,z
-x,-y,-z
loop_
_atom_site_type_symbol
_atom_site_label
_atom_site_fract_x
_atom_site_fract_y
_atom_site_fract_z
Si Si1 0.598685 0.638204 0.664136
Si Si2 0.984637 0.144164 0.721921
Si Si3 0.713249 0.453583 0.129075
Si Si4 0.708698 0.886939 0.604895
Si Si5 0.429920 0.781456 0.841967
Si Si6 0.902792 0.656520 0.161939
Si Si7 0.409128 0.422995 0.694576
Si Si8 0.316362 0.161879 0.693341
O O1 0.414791 0.621088 0.715624
O O2 0.415738 0.780112 0.712595
O O3 0.703772 0.690176 0.464671
O O4 0.842974 0.475661 0.761971
O O5 0.667083 0.254869 0.789603
O O6 0.018212 0.180426 0.533195
O O7 0.080322 0.198622 0.709832
O O8 0.144344 0.956994 0.853407
O O9 0.791209 0.458162 0.213154
O O10 0.481456 0.633212 0.018422
O O11 0.987132 0.337317 0.024886
O O12 0.685020 0.756750 0.768667
O O13 0.500000 0.000000 0.500000
O O14 0.610464 0.991203 0.670066
O O15 0.731965 0.610325 0.279009
O O16 0.732248 0.825659 0.153750
O O17 0.500000 0.500000 0.500000
#
# Coordination Sequence:
#
# PCOD8038428 Si02
#       8
#     2   2   2   2   2   2   2   2
#     4  11  18  36  64  93 121 156 208 257 295 353
#     4  10  19  38  67  95 121 154 206 260 295 358
#     4  11  25  40  62  90 124 164 202 258 307 353
#     4   8  15  32  61  91 119 148 197 256 296 341
#     4   9  17  35  64  95 119 153 204 257 308 342
#     4  11  23  37  57  87 128 158 196 249 305 364
#     4  12  26  42  60  89 124 168 207 241 310 381
#     4  10  17  35  66  95 114 154 212 257 295 345
#
# _framework density 24.225992000000002
#
# number of rings (size 3 to 8) (size 9 to 14) (size 15 to 20)
#    0.000    2.000    3.750    4.500    1.750    0.500 
#    0.000    1.875    0.000    9.000    0.000    0.000 
#    0.000    0.000    0.000    0.000    0.000    0.000 
#
# Total GULP energy -198273.056073 kJ/mol
# GULP energy per Si atom -12392.066005 kJ/mol
# Density = 2.417085 g / cm^3
# Si number density = 24.225992 Si / 1000 Ang^3
#
#
#
# Elastic Constant Matrix: (Units=GPa)
#
#
# Indices 1 2 3 4 5 6 
#
# 1 100.6040 45.1102 14.9239 14.9518 -9.4784 28.2655
# 2 45.1102 91.7164 31.7253 28.3868 3.1455 44.0929
# 3 14.9239 31.7253 51.5874 12.8291 0.7209 12.6872
# 4 14.9518 28.3868 12.8291 44.3918 12.2742 8.6958
# 5 -9.4784 3.1455 0.7209 12.2742 32.9061 6.7774
# 6 28.2655 44.0929 12.6872 8.6958 6.7774 37.4876
#
#
#
# Elastic Compliance Matrix: (Units=1/GPa)
#
#
# Indices 1 2 3 4 5 6 
#
# 1 0.014767 -0.001452 0.000018 -0.004340 0.008046 -0.009881
# 2 -0.001452 0.038356 -0.009676 -0.016483 0.010262 -0.038776
# 3 0.000018 -0.009676 0.024964 -0.001776 0.000373 0.003263
# 4 -0.004340 -0.016483 -0.001776 0.036185 -0.016821 0.017908
# 5 0.008046 0.010262 0.000373 -0.016821 0.042534 -0.022051
# 6 -0.009881 -0.038776 0.003263 0.017908 -0.022051 0.078462
#
#
# Mechanical properties :
#
#
# Convention : Reuss Voigt Hill
#
# Bulk Modulus (GPa) = 17.89975 47.49183 32.69579
# Shear Modulus (GPa) = 18.10868 33.10035 25.60451
#
# Velocity S-wave (km/s) = 2.73699 3.70038 3.25453
# Velocity P-wave (km/s) = 4.17048 6.15657 5.25814
#
# Compressibility (1/GPa) = 0.05586670
#
# Stress axis : x y z
#
# Youngs Moduli (GPa) = 67.71646 26.07164 40.05818
#
# Poissons Ratio (x) = 0.03786 -0.00071
# Poissons Ratio (y) = 0.09833 0.38759
# Poissons Ratio (z) = -0.00119 0.25226
#
# Static dielectric constant tensor:
#      x y z
#    x 4.166950 0.235380 -0.203890 
#    y 0.235380 4.997860 0.829010 
#    z -0.203890 0.829010 4.995690 
# 
# 
# High freq. dielectric constant tensor:
#      x y z
#    x 1.932650 0.026860 -0.007720 
#    y 0.026860 1.966730 0.020930 
#    z -0.007720 0.020930 1.956800 
# 
# From -- ./inp_files/398535.got.cif
#   From: 2010.06.25/outbox.cif.g09.slc.cpg/sg2_200_cif.got.tgz:398535.got - 2010.06.27 13:26:56.
