data_PCOD8038654
_publ_section_title
;
Structure prediction by ZEFSAII (Michael W. Deem and Ramdas Pophale) SiO2 
 PCOD8038654
Probable space group: P -1
;
_chemical_formula_sum "Si O2"
_cell_formula_units_Z 16
_cell_length_a 8.854888
_cell_length_b 30.523478
_cell_length_c 16.044622
_cell_angle_alpha 19.384354
_cell_angle_beta 125.681940
_cell_angle_gamma 134.009201
_cell_volume 986.849334
_symmetry_space_group_name_H-M "P -1"
_symmetry_group_IT_number 2
_symmetry_cell_setting 'triclinic'
loop_
_space_group_symop_operation_xyz
x,y,z
-x,-y,-z
loop_
_atom_site_type_symbol
_atom_site_label
_atom_site_fract_x
_atom_site_fract_y
_atom_site_fract_z
Si Si1 0.895407 0.304360 0.554543
Si Si2 0.118818 0.252114 0.576283
Si Si3 0.470226 0.482669 0.155621
Si Si4 0.236782 0.741226 0.132300
Si Si5 0.492141 0.285404 0.375319
Si Si6 0.698007 0.058572 0.067749
Si Si7 0.680192 0.950972 0.953096
Si Si8 0.114420 0.490090 0.679616
O O1 0.724898 0.310583 0.427534
O O2 0.975783 0.442058 0.401652
O O3 0.090506 0.320679 0.531011
O O4 0.793532 0.139609 0.864670
O O5 0.263609 0.402131 0.295911
O O6 0.244403 0.163929 0.788846
O O7 0.883943 0.125502 0.684270
O O8 0.411692 0.357371 0.289253
O O9 0.700571 0.535929 0.177945
O O10 0.488669 0.636578 0.848050
O O11 0.155894 0.831701 0.003619
O O12 0.499268 0.864775 0.974298
O O13 0.217931 0.601190 0.433241
O O14 0.094484 0.677236 0.117337
O O15 0.307688 0.101434 0.641550
O O16 0.453687 0.032766 0.042176
#
# Coordination Sequence:
#
# PCOD8038654 Si02
#       8
#     2   2   2   2   2   2   2   2
#     4  10  18  28  50  73  96 126 155 200 233 281
#     4  11  19  29  46  77 103 119 147 197 257 275
#     4  10  21  32  47  71 102 126 153 197 237 288
#     4   8  15  31  53  68  88 126 169 190 230 274
#     4  10  19  33  48  69  95 130 165 186 235 285
#     4   9  17  32  50  70  92 125 167 193 227 279
#     4   9  18  29  48  72  95 123 151 198 238 276
#     4   9  16  32  52  66  92 131 161 194 227 279
#
# _framework density 16.213214000000001
#
# number of rings (size 3 to 8) (size 9 to 14) (size 15 to 20)
#    0.750    1.750    2.500    1.125    3.500    0.500 
#    0.000    1.250    0.000    0.000    0.000    8.750 
#    0.000    0.000    0.000    0.000    0.000    0.000 
#
# Total GULP energy -198217.439348 kJ/mol
# GULP energy per Si atom -12388.589959 kJ/mol
# Density = 1.617631 g / cm^3
# Si number density = 16.213214 Si / 1000 Ang^3
#
#
#
# Elastic Constant Matrix: (Units=GPa)
#
#
# Indices 1 2 3 4 5 6 
#
# 1 77.8202 28.3323 46.1527 -0.1081 -13.4151 -8.1970
# 2 28.3323 112.3109 56.1349 -16.0606 -5.6392 -0.3508
# 3 46.1527 56.1349 102.4237 6.1463 -0.4390 -5.0710
# 4 -0.1081 -16.0606 6.1463 20.3055 -1.1000 -4.0441
# 5 -13.4151 -5.6392 -0.4390 -1.1000 22.6754 -4.9189
# 6 -8.1970 -0.3508 -5.0710 -4.0441 -4.9189 12.9570
#
#
#
# Elastic Compliance Matrix: (Units=1/GPa)
#
#
# Indices 1 2 3 4 5 6 
#
# 1 0.025125 0.002477 -0.012154 0.011400 0.020706 0.022624
# 2 0.002477 0.016880 -0.011125 0.018415 0.007719 0.006348
# 3 -0.012154 -0.011125 0.021884 -0.018130 -0.012550 -0.009849
# 4 0.011400 0.018415 -0.018130 0.077116 0.021869 0.032987
# 5 0.020706 0.007719 -0.012550 0.021869 0.067989 0.041033
# 6 0.022624 0.006348 -0.009849 0.032987 0.041033 0.113682
#
#
# Mechanical properties :
#
#
# Convention : Reuss Voigt Hill
#
# Bulk Modulus (GPa) = 44.87465 61.53271 53.20368
# Shear Modulus (GPa) = 13.45137 21.98323 17.71730
#
# Velocity S-wave (km/s) = 2.88350 3.68623 3.30929
# Velocity P-wave (km/s) = 6.23089 7.49348 6.89116
#
# Compressibility (1/GPa) = 0.02228430
#
# Stress axis : x y z
#
# Youngs Moduli (GPa) = 39.80128 59.24051 45.69496
#
# Poissons Ratio (x) = -0.14676 0.55539
# Poissons Ratio (y) = -0.09860 0.50838
# Poissons Ratio (z) = 0.48376 0.65908
#
# Static dielectric constant tensor:
#      x y z
#    x 2.950730 -0.057100 0.063920 
#    y -0.057100 3.074300 -0.197630 
#    z 0.063920 -0.197630 3.043580 
# 
# 
# High freq. dielectric constant tensor:
#      x y z
#    x 1.609160 -0.007440 0.008330 
#    y -0.007440 1.605220 -0.014400 
#    z 0.008330 -0.014400 1.609410 
# 
# From -- ./inp_files/509090.got.cif
#   From: 2010.06.25/outbox.cif.g09.slc.cpg/sg2_255_cif.got.tgz:509090.got - 2010.06.27 13:26:56.
