data_PCOD8038269
_publ_section_title
;
Structure prediction by ZEFSAII (Michael W. Deem and Ramdas Pophale) SiO2 
 PCOD8038269
Probable space group: P -1
;
_chemical_formula_sum "Si O2"
_cell_formula_units_Z 16
_cell_length_a 9.000000
_cell_length_b 12.000000
_cell_length_c 15.000000
_cell_angle_alpha 120.000000
_cell_angle_beta 110.000000
_cell_angle_gamma 120.000000
_cell_volume 745.925389
_symmetry_space_group_name_H-M "P -1"
_symmetry_group_IT_number 2
_symmetry_cell_setting 'triclinic'
loop_
_space_group_symop_operation_xyz
x,y,z
-x,-y,-z
loop_
_atom_site_type_symbol
_atom_site_label
_atom_site_fract_x
_atom_site_fract_y
_atom_site_fract_z
Si Si1 0.048517 0.046151 0.747001
Si Si2 0.514622 0.950980 0.386746
Si Si3 0.567073 0.296549 0.057879
Si Si4 0.107368 0.229260 0.650173
Si Si5 0.763346 0.057195 0.809428
Si Si6 0.932487 0.539942 0.847785
Si Si7 0.678346 0.821940 0.854618
Si Si8 0.551518 0.610492 0.379203
O O1 0.094219 0.127933 0.690584
O O2 0.997908 0.130121 0.836912
O O3 0.309886 0.132529 0.867628
O O4 0.749990 0.770893 0.569715
O O5 0.472846 0.037200 0.340288
O O6 0.247490 0.679296 0.217894
O O7 0.500000 0.000000 0.500000
O O8 0.810870 0.077888 0.487209
O O9 0.717441 0.533071 0.184844
O O10 0.429749 0.177565 0.078672
O O11 0.804068 0.348241 0.105415
O O12 0.269266 0.251692 0.619707
O O13 0.609546 0.870468 0.778462
O O14 0.946189 0.287149 0.984581
O O15 0.721584 0.478347 0.713666
O O16 0.517317 0.584405 0.705796
O O17 0.000000 0.000000 0.000000
#
# Coordination Sequence:
#
# PCOD8038269 Si02
#       8
#     2   2   2   2   2   2   2   2
#     4  12  23  43  70 104 135 179 229 278 342 406
#     4  12  23  43  69 107 138 170 220 292 340 402
#     4  11  25  42  69 101 139 178 227 280 336 405
#     4  11  23  43  69  99 144 175 222 278 351 403
#     4  12  25  43  71  96 138 182 224 275 339 403
#     4  12  24  43  71 104 138 177 224 282 350 391
#     4  11  23  51  68  95 137 186 231 273 331 412
#     4  11  25  44  73  98 137 186 224 281 335 405
#
# _framework density 21.449867000000001
#
# number of rings (size 3 to 8) (size 9 to 14) (size 15 to 20)
#    0.000    0.500    6.250    1.875    1.750    2.000 
#    0.000    2.500    0.000    0.000    0.000    0.000 
#    0.000    0.000    0.000    0.000    0.000    0.000 
#
# Total GULP energy -198349.868227 kJ/mol
# GULP energy per Si atom -12396.866764 kJ/mol
# Density = 2.140105 g / cm^3
# Si number density = 21.449867 Si / 1000 Ang^3
#
#
#
# Elastic Constant Matrix: (Units=GPa)
#
#
# Indices 1 2 3 4 5 6 
#
# 1 150.7020 38.8472 77.8494 -9.4249 26.6270 1.5309
# 2 38.8472 137.6670 51.2201 -19.5532 13.8903 -12.4448
# 3 77.8494 51.2201 131.7052 -20.3681 19.1120 5.2768
# 4 -9.4249 -19.5532 -20.3681 18.1945 -8.1204 19.2302
# 5 26.6270 13.8903 19.1120 -8.1204 53.0938 -4.2293
# 6 1.5309 -12.4448 5.2768 19.2302 -4.2293 21.8461
#
#
#
# Elastic Compliance Matrix: (Units=1/GPa)
#
#
# Indices 1 2 3 4 5 6 
#
# 1 0.009577 -0.000772 -0.002814 0.011110 -0.002745 -0.010742
# 2 -0.000772 0.009254 -0.002599 0.003874 -0.000308 0.002484
# 3 -0.002814 -0.002599 -0.000373 -0.058494 -0.002757 0.049763
# 4 0.011110 0.003874 -0.058494 -0.267472 -0.006545 0.249734
# 5 -0.002745 -0.000308 -0.002757 -0.006545 0.021122 0.010533
# 6 -0.010742 0.002484 0.049763 0.249734 0.010533 -0.181869
#
#
# Mechanical properties :
#
#
# Convention : Reuss Voigt Hill
#
# Bulk Modulus (GPa) = 164.20798 83.98971 124.09885
# Shear Modulus (GPa) = -12.64663 35.43739 11.39538
#
# Velocity S-wave (km/s) = -2.43078 4.06902 2.30740
# Velocity P-wave (km/s) = 8.29712 7.83053 8.06720
#
# Compressibility (1/GPa) = 0.00608984
#
# Stress axis : x y z
#
# Youngs Moduli (GPa) = 104.41622 108.05754 -2680.09580
#
# Poissons Ratio (x) = 0.08338 -7.54192
# Poissons Ratio (y) = 0.08057 -6.96427
# Poissons Ratio (z) = 0.29383 0.28079
#
# Static dielectric constant tensor:
#      x y z
#    x 4.478270 -0.123260 0.134740 
#    y -0.123260 3.866300 -0.183240 
#    z 0.134740 -0.183240 4.093870 
# 
# 
# High freq. dielectric constant tensor:
#      x y z
#    x 1.860950 -0.002520 0.005090 
#    y -0.002520 1.832170 0.000000 
#    z 0.005090 0.000000 1.863070 
# 
# From -- ./inp_files/262060.got.cif
#   From: 2010.06.25/outbox.ucp.g09.slc.cvg/sg2_132_cif.got.tgz:262060.got - 2010.06.28 11:54:26.
