data_PCOD8038076
_publ_section_title
;
Structure prediction by ZEFSAII (Michael W. Deem and Ramdas Pophale) SiO2 
 PCOD8038076
Probable space group: P -1
;
_chemical_formula_sum "Si O2"
_cell_formula_units_Z 16
_cell_length_a 13.739689
_cell_length_b 14.081286
_cell_length_c 9.257116
_cell_angle_alpha 103.298424
_cell_angle_beta 114.533251
_cell_angle_gamma 28.441314
_cell_volume 737.291697
_symmetry_space_group_name_H-M "P -1"
_symmetry_group_IT_number 2
_symmetry_cell_setting 'triclinic'
loop_
_space_group_symop_operation_xyz
x,y,z
-x,-y,-z
loop_
_atom_site_type_symbol
_atom_site_label
_atom_site_fract_x
_atom_site_fract_y
_atom_site_fract_z
Si Si1 0.714487 0.435917 0.706959
Si Si2 0.082075 0.629557 0.920723
Si Si3 0.377374 0.098544 0.228727
Si Si4 0.848940 0.915812 0.626216
Si Si5 0.636609 0.760696 0.460948
Si Si6 0.999529 0.668991 0.379373
Si Si7 0.805001 0.152350 0.552679
Si Si8 0.799511 0.672646 0.055008
O O1 0.836490 0.405181 0.653861
O O2 0.791595 0.262529 0.672710
O O3 0.441003 0.671382 0.609385
O O4 0.784632 0.407797 0.901460
O O5 0.230686 0.408737 0.916025
O O6 0.827989 0.813312 0.892650
O O7 0.056926 0.706130 0.779250
O O8 0.286151 0.243439 0.349349
O O9 0.612062 0.855242 0.342589
O O10 0.420952 0.118862 0.109658
O O11 0.845540 0.865700 0.449781
O O12 0.607608 0.092519 0.616070
O O13 0.878287 0.007525 0.656858
O O14 0.836459 0.521606 0.472649
O O15 0.837252 0.726264 0.213530
O O16 0.000000 0.000000 0.500000
O O17 0.000000 0.500000 0.000000
#
# Coordination Sequence:
#
# PCOD8038076 Si02
#       8
#     2   2   2   2   2   2   2   2
#     4  11  22  41  72  85 115 168 196 250 322 349
#     4  10  20  39  60  94 126 158 202 248 297 359
#     4   9  17  33  59  85 123 166 197 236 283 358
#     4  11  25  38  61  94 124 156 206 257 293 357
#     4  10  19  36  58  87 128 164 198 241 297 351
#     4  12  20  38  65  88 124 165 197 242 306 359
#     4  11  24  43  66  94 115 150 213 259 303 368
#     4  10  17  33  61  90 124 162 199 236 288 366
#
# _framework density 21.701044
#
# number of rings (size 3 to 8) (size 9 to 14) (size 15 to 20)
#    0.000    1.500    7.500    0.000    0.000    1.000 
#    0.000    5.000    0.000    0.000    0.000    0.000 
#    0.000    0.000    0.000    0.000    0.000    0.000 
#
# Total GULP energy -198352.837888 kJ/mol
# GULP energy per Si atom -12397.052368 kJ/mol
# Density = 2.165165 g / cm^3
# Si number density = 21.701044 Si / 1000 Ang^3
#
#
#
# Elastic Constant Matrix: (Units=GPa)
#
#
# Indices 1 2 3 4 5 6 
#
# 1 88.5734 46.1184 53.2227 -10.2146 -7.3852 41.1211
# 2 46.1184 85.8081 43.5002 -7.3976 -10.0911 27.2628
# 3 53.2227 43.5002 136.5931 -16.6023 1.5692 33.3342
# 4 -10.2146 -7.3976 -16.6023 28.0339 11.9862 -4.6738
# 5 -7.3852 -10.0911 1.5692 11.9862 33.9543 -4.0586
# 6 41.1211 27.2628 33.3342 -4.6738 -4.0586 41.9595
#
#
#
# Elastic Compliance Matrix: (Units=1/GPa)
#
#
# Indices 1 2 3 4 5 6 
#
# 1 0.024743 -0.005760 -0.003254 0.002240 0.000928 -0.017581
# 2 -0.005760 0.017582 -0.002766 -0.001456 0.004216 -0.003335
# 3 -0.003254 -0.002766 0.011147 0.006053 -0.004617 -0.003642
# 4 0.002240 -0.001456 0.006053 0.046514 -0.016946 -0.002516
# 5 0.000928 0.004216 -0.004617 -0.016946 0.037310 0.001741
# 6 -0.017581 -0.003335 -0.003642 -0.002516 0.001741 0.046011
#
#
# Mechanical properties :
#
#
# Convention : Reuss Voigt Hill
#
# Bulk Modulus (GPa) = 33.43307 66.29523 49.86415
# Shear Modulus (GPa) = 23.05866 31.99842 27.52854
#
# Velocity S-wave (km/s) = 3.26323 3.84410 3.56551
# Velocity P-wave (km/s) = 5.44407 7.09355 6.32283
#
# Compressibility (1/GPa) = 0.02991050
#
# Stress axis : x y z
#
# Youngs Moduli (GPa) = 40.41601 56.87569 89.70640
#
# Poissons Ratio (x) = 0.32763 0.29193
# Poissons Ratio (y) = 0.23281 0.24815
# Poissons Ratio (z) = 0.13152 0.15733
#
# Static dielectric constant tensor:
#      x y z
#    x 4.067010 0.470940 -0.255200 
#    y 0.470940 4.122480 -0.428200 
#    z -0.255200 -0.428200 4.114280 
# 
# 
# High freq. dielectric constant tensor:
#      x y z
#    x 1.839470 0.016600 -0.011530 
#    y 0.016600 1.859340 -0.013350 
#    z -0.011530 -0.013350 1.851920 
# 
# From -- ./inp_files/315667.got.cif
#   From: 2010.06.25/outbox.cif.g09.slc.cpg/sg2_158_cif.got.tgz:315667.got - 2010.06.27 13:26:56.
