data_PCOD8038030
_publ_section_title
;
Structure prediction by ZEFSAII (Michael W. Deem and Ramdas Pophale) SiO2 
 PCOD8038030
Probable space group: P -1
;
_chemical_formula_sum "Si O2"
_cell_formula_units_Z 16
_cell_length_a 27.000000
_cell_length_b 9.000000
_cell_length_c 27.000000
_cell_angle_alpha 140.000000
_cell_angle_beta 10.000000
_cell_angle_gamma 140.000000
_cell_volume 728.340053
_symmetry_space_group_name_H-M "P -1"
_symmetry_group_IT_number 2
_symmetry_cell_setting 'triclinic'
loop_
_space_group_symop_operation_xyz
x,y,z
-x,-y,-z
loop_
_atom_site_type_symbol
_atom_site_label
_atom_site_fract_x
_atom_site_fract_y
_atom_site_fract_z
Si Si1 0.272891 0.821417 0.306727
Si Si2 0.210895 0.333656 0.189943
Si Si3 0.566817 0.108070 0.534431
Si Si4 0.096617 0.093910 0.068502
Si Si5 0.291490 0.497189 0.045288
Si Si6 0.003904 0.604485 0.077394
Si Si7 0.478116 0.364851 0.592534
Si Si8 0.160360 0.175115 0.426228
O O1 0.225691 0.595213 0.261585
O O2 0.032960 0.835352 0.587372
O O3 0.295810 0.042498 0.304208
O O4 0.534053 0.809992 0.082951
O O5 0.175972 0.357302 0.171974
O O6 0.533729 0.324850 0.585782
O O7 0.809233 0.192600 0.357203
O O8 0.658028 0.883749 0.358218
O O9 0.271504 0.017568 0.829455
O O10 0.308186 0.297960 0.937443
O O11 0.002797 0.881820 0.144160
O O12 0.071593 0.667542 0.284393
O O13 0.591402 0.652362 0.800479
O O14 0.754089 0.470331 0.319555
O O15 0.000000 0.500000 0.000000
O O16 0.272282 0.561660 0.835852
O O17 0.000000 0.000000 0.500000
#
# Coordination Sequence:
#
# PCOD8038030 Si02
#       8
#     2   2   2   2   2   2   2   2
#     4  10  21  37  64  93 118 153 202 264 301 361
#     4  10  21  38  62  92 124 154 199 251 320 362
#     4  11  22  41  64  94 128 167 209 263 322 363
#     4  12  25  42  63  90 134 171 204 258 326 382
#     4  12  26  43  62  94 131 168 205 259 327 382
#     4  12  21  39  65  99 123 165 219 261 306 368
#     4  11  22  38  66  98 124 160 221 272 301 363
#     4  12  24  42  68  97 121 162 221 262 305 376
#
# _framework density 21.967760999999999
#
# number of rings (size 3 to 8) (size 9 to 14) (size 15 to 20)
#    0.000    0.750    3.750    4.500    3.500    2.000 
#    0.000    7.500    0.000    0.000    0.000    0.000 
#    0.000    0.000    0.000    0.000    0.000    0.000 
#
# Total GULP energy -198297.602013 kJ/mol
# GULP energy per Si atom -12393.600126 kJ/mol
# Density = 2.191776 g / cm^3
# Si number density = 21.967761 Si / 1000 Ang^3
#
#
#
# Elastic Constant Matrix: (Units=GPa)
#
#
# Indices 1 2 3 4 5 6 
#
# 1 109.7280 62.5304 42.6808 -2.1575 -15.8354 -33.7477
# 2 62.5304 100.9890 33.6416 -5.9896 -12.9669 -15.1769
# 3 42.6808 33.6416 116.2289 -10.4009 -20.8034 -11.6588
# 4 -2.1575 -5.9896 -10.4009 34.0918 -14.5392 -0.2698
# 5 -15.8354 -12.9669 -20.8034 -14.5392 37.6314 4.5818
# 6 -33.7477 -15.1769 -11.6588 -0.2698 4.5818 36.9345
#
#
#
# Elastic Compliance Matrix: (Units=1/GPa)
#
#
# Indices 1 2 3 4 5 6 
#
# 1 0.019721 -0.009026 -0.003035 -0.000413 0.001752 0.013132
# 2 -0.009026 0.015946 -0.000744 0.003173 0.002785 -0.002252
# 3 -0.003035 -0.000744 0.011847 0.006514 0.007560 -0.000230
# 4 -0.000413 0.003173 0.006514 0.040401 0.020033 0.000793
# 5 0.001752 0.002785 0.007560 0.020033 0.040154 0.000297
# 6 0.013132 -0.002252 -0.000230 0.000793 0.000297 0.038045
#
#
# Mechanical properties :
#
#
# Convention : Reuss Voigt Hill
#
# Bulk Modulus (GPa) = 45.65657 67.18349 56.42003
# Shear Modulus (GPa) = 25.12225 34.27109 29.69667
#
# Velocity S-wave (km/s) = 3.38538 3.95405 3.68071
# Velocity P-wave (km/s) = 6.00913 7.17601 6.61834
#
# Compressibility (1/GPa) = 0.02190265
#
# Stress axis : x y z
#
# Youngs Moduli (GPa) = 50.70630 62.71139 84.41116
#
# Poissons Ratio (x) = 0.56602 0.25623
# Poissons Ratio (y) = 0.45767 0.06284
# Poissons Ratio (z) = 0.15392 0.04669
#
# Static dielectric constant tensor:
#      x y z
#    x 3.914110 -0.355950 -0.062660 
#    y -0.355950 3.978700 -0.023910 
#    z -0.062660 -0.023910 3.935890 
# 
# 
# High freq. dielectric constant tensor:
#      x y z
#    x 1.856510 -0.031930 -0.008670 
#    y -0.031930 1.850580 -0.007160 
#    z -0.008670 -0.007160 1.860510 
# 
# From -- ./inp_files/358276.got.cif
#   From: 2010.06.25/outbox.ucp.g09.slc.cvg/sg2_180_cif.got.tgz:358276.got - 2010.06.28 11:54:26.
