data_PCOD8038006
_publ_section_title
;
Structure prediction by ZEFSAII (Michael W. Deem and Ramdas Pophale) SiO2 
 PCOD8038006
Probable space group: P -1
;
_chemical_formula_sum "Si O2"
_cell_formula_units_Z 16
_cell_length_a 9.561638
_cell_length_b 9.261859
_cell_length_c 19.882693
_cell_angle_alpha 87.687123
_cell_angle_beta 57.205262
_cell_angle_gamma 132.852068
_cell_volume 812.117103
_symmetry_space_group_name_H-M "P -1"
_symmetry_group_IT_number 2
_symmetry_cell_setting 'triclinic'
loop_
_space_group_symop_operation_xyz
x,y,z
-x,-y,-z
loop_
_atom_site_type_symbol
_atom_site_label
_atom_site_fract_x
_atom_site_fract_y
_atom_site_fract_z
Si Si1 0.688930 0.380529 0.940793
Si Si2 0.205274 0.776352 0.625575
Si Si3 0.439704 0.674090 0.251300
Si Si4 0.112417 0.923393 0.763991
Si Si5 0.188248 0.000668 0.972711
Si Si6 0.375110 0.521801 0.808466
Si Si7 0.078484 0.436722 0.765003
Si Si8 0.719049 0.907816 0.826460
O O1 0.923168 0.681347 0.866520
O O2 0.835156 0.337313 0.878580
O O3 0.391885 0.198415 0.978192
O O4 0.585770 0.293918 0.046323
O O5 0.174033 0.897492 0.676207
O O6 0.235522 0.660566 0.668512
O O7 0.917706 0.554255 0.655038
O O8 0.500000 0.000000 0.500000
O O9 0.501128 0.550694 0.223665
O O10 0.567229 0.811894 0.288169
O O11 0.597467 0.888028 0.147977
O O12 0.928708 0.936660 0.802933
O O13 0.951952 0.706914 0.064154
O O14 0.000000 0.000000 0.000000
O O15 0.339732 0.557118 0.741535
O O16 0.616524 0.795999 0.779712
O O17 0.909785 0.193050 0.769760
#
# Coordination Sequence:
#
# PCOD8038006 Si02
#       8
#     2   2   2   2   2   2   2   2
#     4  11  21  36  57  94 139 170 204 249 296 368
#     4  11  26  48  69  90 119 157 213 277 325 365
#     4  11  20  40  66  92 126 166 213 251 299 383
#     4  11  21  39  68  91 123 171 212 248 306 379
#     4  10  17  33  57  91 129 171 203 237 287 374
#     4  11  22  36  62  94 133 169 205 244 305 376
#     4  11  24  41  59  93 132 157 208 269 313 356
#     4  12  21  37  63  92 133 174 202 244 309 372
#
# _framework density 19.701591000000001
#
# number of rings (size 3 to 8) (size 9 to 14) (size 15 to 20)
#    0.000    1.000    6.250    3.000    0.000    3.000 
#    0.000    1.250    0.000    0.000    0.000    0.000 
#    0.000    0.000    0.000    0.000    0.000    0.000 
#
# Total GULP energy -198421.671761 kJ/mol
# GULP energy per Si atom -12401.354485 kJ/mol
# Density = 1.965675 g / cm^3
# Si number density = 19.701591 Si / 1000 Ang^3
#
#
#
# Elastic Constant Matrix: (Units=GPa)
#
#
# Indices 1 2 3 4 5 6 
#
# 1 85.4030 36.6657 24.0400 -13.4322 3.6524 12.8723
# 2 36.6657 112.1213 25.2599 -14.4337 1.6037 11.7325
# 3 24.0400 25.2599 83.3208 -6.7354 2.2298 7.2639
# 4 -13.4322 -14.4337 -6.7354 17.1462 5.6530 -6.8509
# 5 3.6524 1.6037 2.2298 5.6530 19.4454 -6.5077
# 6 12.8723 11.7325 7.2639 -6.8509 -6.5077 39.8002
#
#
#
# Elastic Compliance Matrix: (Units=1/GPa)
#
#
# Indices 1 2 3 4 5 6 
#
# 1 0.015992 -0.002975 -0.002462 0.009899 -0.006422 -0.003192
# 2 -0.002975 0.011362 -0.001851 0.006843 -0.002589 -0.001295
# 3 -0.002462 -0.001851 0.013585 0.002038 -0.001903 -0.001098
# 4 0.009899 0.006843 0.002038 0.082757 -0.025198 0.004534
# 5 -0.006422 -0.002589 -0.001903 -0.025198 0.063478 0.009229
# 6 -0.003192 -0.001295 -0.001098 0.004534 0.009229 0.029030
#
#
# Mechanical properties :
#
#
# Convention : Reuss Voigt Hill
#
# Bulk Modulus (GPa) = 37.93131 50.30849 44.11990
# Shear Modulus (GPa) = 20.87100 28.27033 24.57066
#
# Velocity S-wave (km/s) = 3.25831 3.79215 3.53532
# Velocity P-wave (km/s) = 5.78361 6.69063 6.25359
#
# Compressibility (1/GPa) = 0.02636344
#
# Stress axis : x y z
#
# Youngs Moduli (GPa) = 62.53134 88.01081 73.61257
#
# Poissons Ratio (x) = 0.26182 0.18122
# Poissons Ratio (y) = 0.18602 0.13625
# Poissons Ratio (z) = 0.15394 0.16290
#
# Static dielectric constant tensor:
#      x y z
#    x 3.690490 0.048340 -0.016840 
#    y 0.048340 3.722140 -0.053300 
#    z -0.016840 -0.053300 3.367750 
# 
# 
# High freq. dielectric constant tensor:
#      x y z
#    x 1.778020 0.008680 -0.004080 
#    y 0.008680 1.775530 -0.009100 
#    z -0.004080 -0.009100 1.721460 
# 
# From -- ./inp_files/188862.got.cif
#   From: 2010.06.25/outbox.cif.g09.slc.cpg/sg2_95_cif.got.tgz:188862.got - 2010.06.27 13:26:56.
