data_PCOD8038108
_publ_section_title
;
Structure prediction by ZEFSAII (Michael W. Deem and Ramdas Pophale) SiO2 
 PCOD8038108
Probable space group: P -1
;
_chemical_formula_sum "Si O2"
_cell_formula_units_Z 16
_cell_length_a 15.000000
_cell_length_b 12.000000
_cell_length_c 18.000000
_cell_angle_alpha 50.000000
_cell_angle_beta 30.000000
_cell_angle_gamma 30.000000
_cell_volume 731.734496
_symmetry_space_group_name_H-M "P -1"
_symmetry_group_IT_number 2
_symmetry_cell_setting 'triclinic'
loop_
_space_group_symop_operation_xyz
x,y,z
-x,-y,-z
loop_
_atom_site_type_symbol
_atom_site_label
_atom_site_fract_x
_atom_site_fract_y
_atom_site_fract_z
Si Si1 0.577988 0.645240 0.166458
Si Si2 0.590378 0.104137 0.407254
Si Si3 0.134325 0.642775 0.778148
Si Si4 0.741356 0.295642 0.853106
Si Si5 0.277641 0.562819 0.352945
Si Si6 0.425700 0.392850 0.531725
Si Si7 0.131296 0.155596 0.344158
Si Si8 0.497229 0.838038 0.992507
O O1 0.855382 0.434669 0.113435
O O2 0.476809 0.557519 0.247106
O O3 0.665173 0.681021 0.015170
O O4 0.328905 0.888170 0.292847
O O5 0.443635 0.301491 0.364250
O O6 0.451043 0.229663 0.535376
O O7 0.500000 0.000000 0.500000
O O8 0.946632 0.901582 0.241846
O O9 0.329884 0.418675 0.674268
O O10 0.258829 0.726786 0.648994
O O11 0.786280 0.872193 0.904949
O O12 0.756558 0.396145 0.728617
O O13 0.645623 0.199205 0.935651
O O14 0.500000 0.500000 0.000000
O O15 0.947920 0.790308 0.533579
O O16 0.176097 0.662054 0.559089
O O17 0.273549 0.220098 0.196945
#
# Coordination Sequence:
#
# PCOD8038108 Si02
#       8
#     2   2   2   2   2   2   2   2
#     4  11  21  38  68  95 136 179 213 263 338 403
#     4  11  24  46  69  97 136 174 228 285 324 388
#     4  11  21  39  66  95 136 175 219 262 334 408
#     4  11  26  46  72  95 128 182 227 277 341 391
#     4  10  24  44  69  98 131 176 231 268 333 410
#     4  10  22  39  65  98 133 172 221 270 326 397
#     4  11  22  39  65  99 138 174 213 275 330 398
#     4  11  24  43  61  98 145 171 215 282 335 391
#
# _framework density 21.865853999999999
#
# number of rings (size 3 to 8) (size 9 to 14) (size 15 to 20)
#    0.000    1.250    5.000    0.750    5.250    1.500 
#    0.000    0.000    0.000    0.000    0.000    0.000 
#    0.000    0.000    0.000    0.000    0.000    0.000 
#
# Total GULP energy -198336.282898 kJ/mol
# GULP energy per Si atom -12396.017681 kJ/mol
# Density = 2.181609 g / cm^3
# Si number density = 21.865854 Si / 1000 Ang^3
#
#
#
# Elastic Constant Matrix: (Units=GPa)
#
#
# Indices 1 2 3 4 5 6 
#
# 1 85.5284 19.3018 20.6419 -8.9722 20.7313 11.5544
# 2 19.3018 73.7542 2.8138 -7.4166 5.6987 11.4874
# 3 20.6419 2.8138 69.2194 -5.6639 19.0920 0.9894
# 4 -8.9722 -7.4166 -5.6639 23.7885 1.4804 3.3861
# 5 20.7313 5.6987 19.0920 1.4804 37.9451 -5.0704
# 6 11.5544 11.4874 0.9894 3.3861 -5.0704 36.4345
#
#
#
# Elastic Compliance Matrix: (Units=1/GPa)
#
#
# Indices 1 2 3 4 5 6 
#
# 1 0.016207 -0.001842 -0.001692 0.006590 -0.008833 -0.006355
# 2 -0.001842 0.015574 0.001220 0.005378 -0.002859 -0.005257
# 3 -0.001692 0.001220 0.017696 0.004772 -0.008612 -0.001971
# 4 0.006590 0.005378 0.004772 0.049371 -0.010058 -0.009903
# 5 -0.008833 -0.002859 -0.008612 -0.010058 0.037686 0.010116
# 6 -0.006355 -0.005257 -0.001971 -0.009903 0.010116 0.033501
#
#
# Mechanical properties :
#
#
# Convention : Reuss Voigt Hill
#
# Bulk Modulus (GPa) = 22.29701 34.89078 28.59390
# Shear Modulus (GPa) = 26.36957 32.01657 29.19307
#
# Velocity S-wave (km/s) = 3.47648 3.83067 3.65786
# Velocity P-wave (km/s) = 5.13165 5.96295 5.56285
#
# Compressibility (1/GPa) = 0.04484905
#
# Stress axis : x y z
#
# Youngs Moduli (GPa) = 61.70252 64.20756 56.51085
#
# Poissons Ratio (x) = 0.11827 0.09561
# Poissons Ratio (y) = 0.11365 -0.06893
# Poissons Ratio (z) = 0.10439 -0.07832
#
# Static dielectric constant tensor:
#      x y z
#    x 4.112390 -0.137350 0.137620 
#    y -0.137350 3.969330 -0.040990 
#    z 0.137620 -0.040990 4.099380 
# 
# 
# High freq. dielectric constant tensor:
#      x y z
#    x 1.864840 -0.007490 -0.000040 
#    y -0.007490 1.853340 -0.005110 
#    z -0.000040 -0.005110 1.856950 
# 
# From -- ./inp_files/225818.got.cif
#   From: 2010.06.25/outbox.ucp.g09.slc.cvg/sg2_113_cif.got.tgz:225818.got - 2010.06.28 11:54:26.
