data_PCOD8038700
_publ_section_title
;
Structure prediction by ZEFSAII (Michael W. Deem and Ramdas Pophale) SiO2 
 PCOD8038700
Probable space group: P -1
;
_chemical_formula_sum "Si O2"
_cell_formula_units_Z 16
_cell_length_a 11.145690
_cell_length_b 13.898174
_cell_length_c 23.561130
_cell_angle_alpha 34.073164
_cell_angle_beta 121.691143
_cell_angle_gamma 146.395725
_cell_volume 959.174502
_symmetry_space_group_name_H-M "P -1"
_symmetry_group_IT_number 2
_symmetry_cell_setting 'triclinic'
loop_
_space_group_symop_operation_xyz
x,y,z
-x,-y,-z
loop_
_atom_site_type_symbol
_atom_site_label
_atom_site_fract_x
_atom_site_fract_y
_atom_site_fract_z
Si Si1 0.633034 0.663222 0.209285
Si Si2 0.780198 0.095579 0.784912
Si Si3 0.895033 0.854116 0.983361
Si Si4 0.834263 0.092123 0.143964
Si Si5 0.444512 0.213880 0.231222
Si Si6 0.352070 0.764223 0.920869
Si Si7 0.351842 0.706206 0.640721
Si Si8 0.714785 0.598069 0.842795
O O1 0.631389 0.454736 0.311762
O O2 0.370901 0.464474 0.212855
O O3 0.660936 0.776814 0.222154
O O4 0.868302 0.971461 0.079766
O O5 0.053457 0.455084 0.694692
O O6 0.764986 0.884553 0.905681
O O7 0.756559 0.082171 0.716525
O O8 0.547199 0.965066 0.818656
O O9 0.687464 0.493472 0.113893
O O10 0.000000 0.000000 0.000000
O O11 0.645502 0.042146 0.147137
O O12 0.982688 0.140352 0.207763
O O13 0.056891 0.409309 0.005016
O O14 0.523253 0.178930 0.321800
O O15 0.332159 0.278963 0.192700
O O16 0.448128 0.723170 0.011872
O O17 0.500000 0.000000 0.500000
#
# Coordination Sequence:
#
# PCOD8038700 Si02
#       8
#     2   2   2   2   2   2   2   2
#     4  10  18  29  52  69  97 135 160 191 252 297
#     4  11  19  31  51  72 103 136 156 202 251 297
#     4  11  15  28  46  79 105 124 155 194 249 310
#     4   9  18  31  43  71 106 135 157 191 234 291
#     4  11  19  29  53  76  99 131 160 195 258 310
#     4   9  18  31  44  72 111 128 156 196 231 297
#     4  10  23  37  49  74 100 124 171 217 247 293
#     4   9  16  28  42  70 102 125 156 187 228 293
#
# _framework density 16.681011000000002
#
# number of rings (size 3 to 8) (size 9 to 14) (size 15 to 20)
#    0.750    1.250    5.000    2.625    0.000    1.000 
#    0.000    0.000    0.000    0.750    0.000    4.375 
#    0.000    0.000    0.000    0.000    0.000    0.000 
#
# Total GULP energy -198247.213380 kJ/mol
# GULP energy per Si atom -12390.450836 kJ/mol
# Density = 1.664304 g / cm^3
# Si number density = 16.681011 Si / 1000 Ang^3
#
#
#
# Elastic Constant Matrix: (Units=GPa)
#
#
# Indices 1 2 3 4 5 6 
#
# 1 82.5073 55.1765 26.0813 1.4368 9.5031 3.1891
# 2 55.1765 113.6331 29.6093 4.9780 6.1488 -6.0642
# 3 26.0813 29.6093 72.7442 8.0783 -2.2579 -0.7392
# 4 1.4368 4.9780 8.0783 12.8595 -2.3902 1.9346
# 5 9.5031 6.1488 -2.2579 -2.3902 13.3350 -4.1863
# 6 3.1891 -6.0642 -0.7392 1.9346 -4.1863 18.7500
#
#
#
# Elastic Compliance Matrix: (Units=1/GPa)
#
#
# Indices 1 2 3 4 5 6 
#
# 1 0.021986 -0.009252 -0.005034 0.003089 -0.015030 -0.010605
# 2 -0.009252 0.014281 -0.001939 -0.004097 0.001074 0.006778
# 3 -0.005034 -0.001939 0.017585 -0.008958 0.006918 0.003391
# 4 0.003089 -0.004097 -0.008958 0.088034 0.011192 -0.008788
# 5 -0.015030 0.001074 0.006918 0.011192 0.095728 0.023395
# 6 -0.010605 0.006778 0.003391 -0.008788 0.023395 0.063593
#
#
# Mechanical properties :
#
#
# Convention : Reuss Voigt Hill
#
# Bulk Modulus (GPa) = 46.72373 54.51318 50.61845
# Shear Modulus (GPa) = 14.67178 19.52339 17.09759
#
# Velocity S-wave (km/s) = 2.96894 3.42482 3.20499
# Velocity P-wave (km/s) = 6.31060 6.95628 6.64130
#
# Compressibility (1/GPa) = 0.02140240
#
# Stress axis : x y z
#
# Youngs Moduli (GPa) = 45.48389 70.02377 56.86734
#
# Poissons Ratio (x) = 0.64785 0.28628
# Poissons Ratio (y) = 0.42081 0.11024
# Poissons Ratio (z) = 0.22897 0.13574
#
# Static dielectric constant tensor:
#      x y z
#    x 5.130130 0.335240 -1.216970 
#    y 0.335240 3.442310 -0.186680 
#    z -1.216970 -0.186680 3.470870 
# 
# 
# High freq. dielectric constant tensor:
#      x y z
#    x 1.620980 0.005460 0.010270 
#    y 0.005460 1.655810 -0.001000 
#    z 0.010270 -0.001000 1.588710 
# 
# From -- ./inp_files/396328.got.cif
#   From: 2010.06.25/outbox.cif.g09.slc.cpg/sg2_199_cif.got.tgz:396328.got - 2010.06.27 13:26:56.
