data_PCOD8038575
_publ_section_title
;
Structure prediction by ZEFSAII (Michael W. Deem and Ramdas Pophale) SiO2 
 PCOD8038575
Probable space group: P -1
;
_chemical_formula_sum "Si O2"
_cell_formula_units_Z 14
_cell_length_a 9.958269
_cell_length_b 11.125872
_cell_length_c 8.666363
_cell_angle_alpha 110.776097
_cell_angle_beta 113.228516
_cell_angle_gamma 61.037097
_cell_volume 755.821485
_symmetry_space_group_name_H-M "P -1"
_symmetry_group_IT_number 2
_symmetry_cell_setting 'triclinic'
loop_
_space_group_symop_operation_xyz
x,y,z
-x,-y,-z
loop_
_atom_site_type_symbol
_atom_site_label
_atom_site_fract_x
_atom_site_fract_y
_atom_site_fract_z
Si Si1 0.060420 0.207332 0.981836
Si Si2 0.469467 0.496581 0.734075
Si Si3 0.795760 0.050661 0.873053
Si Si4 0.105867 0.888715 0.375860
Si Si5 0.595478 0.914571 0.858401
Si Si6 0.745949 0.361136 0.034622
Si Si7 0.557382 0.281190 0.422099
O O1 0.998369 0.193147 0.776306
O O2 0.235953 0.208760 0.060704
O O3 0.926694 0.343919 0.066902
O O4 0.064904 0.068161 0.015145
O O5 0.313932 0.547902 0.796635
O O6 0.457121 0.378470 0.561735
O O7 0.473894 0.628423 0.705151
O O8 0.631613 0.436711 0.876349
O O9 0.836183 0.038935 0.703916
O O10 0.637215 0.017596 0.809553
O O11 0.747749 0.206839 0.987439
O O12 0.256282 0.777404 0.482035
O O13 0.000000 0.000000 0.500000
O O14 0.495680 0.846148 0.686825
O O15 0.500000 0.000000 0.000000
#
# Coordination Sequence:
#
# PCOD8038575 Si02
#       7
#     2   2   2   2   2   2   2
#     4   9  20  36  57  83 108 144 188 234 278 339
#     4  10  22  34  59  77 115 155 190 232 262 336
#     4   9  20  35  60  83 111 142 187 235 284 338
#     4  11  20  33  59  87 113 140 185 242 286 325
#     4  10  21  36  59  83 117 148 177 237 301 329
#     4  10  17  38  59  82 103 154 197 221 279 335
#     4  11  22  37  52  88 116 141 192 233 280 328
#
# _framework density 18.522891999999999
#
# number of rings (size 3 to 8) (size 9 to 14) (size 15 to 20)
#    0.857    1.143    2.857    3.429    4.000    0.571 
#    0.000    1.429    0.000    0.000    0.000    0.000 
#    0.000    0.000    0.000    0.000    0.000    0.000 
#
# Total GULP energy -173497.647117 kJ/mol
# GULP energy per Si atom -12392.689080 kJ/mol
# Density = 1.848073 g / cm^3
# Si number density = 18.522892 Si / 1000 Ang^3
#
#
#
# Elastic Constant Matrix: (Units=GPa)
#
#
# Indices 1 2 3 4 5 6 
#
# 1 69.0102 21.4877 36.7295 7.7081 -10.7233 -24.2298
# 2 21.4877 81.6270 35.1257 -5.6658 -4.9379 -23.7642
# 3 36.7295 35.1257 95.1520 5.1822 -11.5315 -13.5353
# 4 7.7081 -5.6658 5.1822 29.3651 -8.7985 -1.5150
# 5 -10.7233 -4.9379 -11.5315 -8.7985 32.3911 5.6198
# 6 -24.2298 -23.7642 -13.5353 -1.5150 5.6198 36.3168
#
#
#
# Elastic Compliance Matrix: (Units=1/GPa)
#
#
# Indices 1 2 3 4 5 6 
#
# 1 0.023196 0.000436 -0.006853 -0.003495 0.002148 0.012729
# 2 0.000436 0.017803 -0.005526 0.004963 0.000502 0.010010
# 3 -0.006853 -0.005526 0.015139 -0.001366 0.002424 -0.002978
# 4 -0.003495 0.004963 -0.001366 0.039085 0.009635 0.000546
# 5 0.002148 0.000502 0.002424 0.009635 0.035563 -0.002436
# 6 0.012729 0.010010 -0.002978 0.000546 -0.002436 0.041868
#
#
# Mechanical properties :
#
#
# Convention : Reuss Voigt Hill
#
# Bulk Modulus (GPa) = 31.00595 48.05277 39.52936
# Shear Modulus (GPa) = 24.12067 29.77771 26.94919
#
# Velocity S-wave (km/s) = 3.61253 4.01386 3.81847
# Velocity P-wave (km/s) = 5.84603 6.89058 6.38969
#
# Compressibility (1/GPa) = 0.03225187
#
# Stress axis : x y z
#
# Youngs Moduli (GPa) = 43.11164 56.16999 66.05266
#
# Poissons Ratio (x) = -0.02450 0.45269
# Poissons Ratio (y) = -0.01880 0.36500
# Poissons Ratio (z) = 0.29546 0.31039
#
# Static dielectric constant tensor:
#      x y z
#    x 3.315160 -0.302030 -0.131550 
#    y -0.302030 3.453230 -0.034490 
#    z -0.131550 -0.034490 3.394340 
# 
# 
# High freq. dielectric constant tensor:
#      x y z
#    x 1.705120 -0.029110 -0.012240 
#    y -0.029110 1.715340 -0.006960 
#    z -0.012240 -0.006960 1.717350 
# 
# From -- ./inp_files/249988.got.cif
#   From: 2010.06.25/outbox.cif.g09.slc.cpg/sg2_125_cif.got.tgz:249988.got - 2010.06.27 13:26:56.
