data_PCOD8038011
_publ_section_title
;
Structure prediction by ZEFSAII (Michael W. Deem and Ramdas Pophale) SiO2 
 PCOD8038011
Probable space group: P -1
;
_chemical_formula_sum "Si O2"
_cell_formula_units_Z 16
_cell_length_a 12.133250
_cell_length_b 15.433159
_cell_length_c 8.800911
_cell_angle_alpha 142.391924
_cell_angle_beta 102.225048
_cell_angle_gamma 100.161535
_cell_volume 802.731910
_symmetry_space_group_name_H-M "P -1"
_symmetry_group_IT_number 2
_symmetry_cell_setting 'triclinic'
loop_
_space_group_symop_operation_xyz
x,y,z
-x,-y,-z
loop_
_atom_site_type_symbol
_atom_site_label
_atom_site_fract_x
_atom_site_fract_y
_atom_site_fract_z
Si Si1 0.408680 0.376574 0.667016
Si Si2 0.341197 0.539127 0.299617
Si Si3 0.837332 0.345208 0.730910
Si Si4 0.849707 0.367348 0.099315
Si Si5 0.272926 0.484193 0.543102
Si Si6 0.034402 0.746876 0.569523
Si Si7 0.181386 0.214529 0.599312
Si Si8 0.034807 0.833073 0.004633
O O1 0.502173 0.330683 0.538438
O O2 0.367500 0.471481 0.672349
O O3 0.273015 0.217664 0.490921
O O4 0.500000 0.500000 0.000000
O O5 0.250364 0.605464 0.316873
O O6 0.353205 0.548151 0.496898
O O7 0.272193 0.342971 0.943139
O O8 0.836795 0.197908 0.427555
O O9 0.776844 0.285419 0.800286
O O10 0.000000 0.500000 0.000000
O O11 0.748646 0.372865 0.196261
O O12 0.981696 0.565177 0.387878
O O13 0.894064 0.248385 0.009275
O O14 0.129923 0.297004 0.212121
O O15 0.909453 0.720993 0.399868
O O16 0.080216 0.881807 0.907822
O O17 0.086115 0.015458 0.353998
#
# Coordination Sequence:
#
# PCOD8038011 Si02
#       8
#     2   2   2   2   2   2   2   2
#     4  10  21  38  58  79 112 156 197 231 272 341
#     4  11  21  36  60  85 113 150 198 234 271 341
#     4  10  17  33  58  81 109 143 193 235 276 327
#     4  10  18  34  54  83 113 148 185 232 283 335
#     4  11  20  36  58  87 113 148 196 234 282 333
#     4  10  18  34  56  79 111 151 190 228 278 338
#     4  11  21  38  54  87 118 154 182 232 296 332
#     4  11  22  32  57  89 123 144 181 241 294 336
#
# _framework density 19.931933999999998
#
# number of rings (size 3 to 8) (size 9 to 14) (size 15 to 20)
#    0.000    1.500    5.000    5.250    0.000    0.500 
#    0.000    0.000    0.000    9.750    0.000    0.000 
#    0.000    0.000    0.000    0.000    0.000    0.000 
#
# Total GULP energy -198256.518680 kJ/mol
# GULP energy per Si atom -12391.032418 kJ/mol
# Density = 1.988657 g / cm^3
# Si number density = 19.931934 Si / 1000 Ang^3
#
#
#
# Elastic Constant Matrix: (Units=GPa)
#
#
# Indices 1 2 3 4 5 6 
#
# 1 128.6411 36.5205 20.2742 -3.2450 -8.3528 5.8311
# 2 36.5205 80.0010 20.2911 -20.2654 0.8475 -3.0023
# 3 20.2742 20.2911 33.3665 -6.2893 -6.9113 4.2696
# 4 -3.2450 -20.2654 -6.2893 28.3880 2.2460 -6.1084
# 5 -8.3528 0.8475 -6.9113 2.2460 21.9750 -16.6894
# 6 5.8311 -3.0023 4.2696 -6.1084 -16.6894 37.0258
#
#
#
# Elastic Compliance Matrix: (Units=1/GPa)
#
#
# Indices 1 2 3 4 5 6 
#
# 1 0.009661 -0.004492 -0.003106 -0.003187 0.002486 -0.000933
# 2 -0.004492 0.020166 -0.008270 0.013165 -0.003465 0.003906
# 3 -0.003106 -0.008270 0.039617 0.001777 0.012213 0.001048
# 4 -0.003187 0.013165 0.001777 0.046628 0.001448 0.009710
# 5 0.002486 -0.003465 0.012213 0.001448 0.074321 0.031658
# 6 -0.000933 0.003906 0.001048 0.009710 0.031658 0.043223
#
#
# Mechanical properties :
#
#
# Convention : Reuss Voigt Hill
#
# Bulk Modulus (GPa) = 26.51844 44.02002 35.26923
# Shear Modulus (GPa) = 17.99064 28.47262 23.23163
#
# Velocity S-wave (km/s) = 3.00760 3.78364 3.41772
# Velocity P-wave (km/s) = 5.03927 6.42036 5.77128
#
# Compressibility (1/GPa) = 0.03770960
#
# Stress axis : x y z
#
# Youngs Moduli (GPa) = 103.50419 49.58813 25.24158
#
# Poissons Ratio (x) = 0.22273 0.07839
# Poissons Ratio (y) = 0.46490 0.20876
# Poissons Ratio (z) = 0.32143 0.41012
#
# Static dielectric constant tensor:
#      x y z
#    x 4.218530 0.274560 -0.397880 
#    y 0.274560 3.607060 -0.471740 
#    z -0.397880 -0.471740 3.681310 
# 
# 
# High freq. dielectric constant tensor:
#      x y z
#    x 1.785830 -0.006350 -0.024100 
#    y -0.006350 1.769070 -0.038500 
#    z -0.024100 -0.038500 1.744700 
# 
# From -- ./inp_files/257590.got.cif
#   From: 2010.06.25/outbox.cif.g09.slc.cpg/sg2_129_cif.got.tgz:257590.got - 2010.06.27 13:26:56.
