data_PCOD8038798
_publ_section_title
;
Structure prediction by ZEFSAII (Michael W. Deem and Ramdas Pophale) SiO2 
 PCOD8038798
Probable space group: P -1
;
_chemical_formula_sum "Si O2"
_cell_formula_units_Z 16
_cell_length_a 23.292494
_cell_length_b 10.192276
_cell_length_c 9.363774
_cell_angle_alpha 104.584998
_cell_angle_beta 125.623140
_cell_angle_gamma 122.167613
_cell_volume 882.832009
_symmetry_space_group_name_H-M "P -1"
_symmetry_group_IT_number 2
_symmetry_cell_setting 'triclinic'
loop_
_space_group_symop_operation_xyz
x,y,z
-x,-y,-z
loop_
_atom_site_type_symbol
_atom_site_label
_atom_site_fract_x
_atom_site_fract_y
_atom_site_fract_z
Si Si1 0.543932 0.269895 0.194457
Si Si2 0.845833 0.825453 0.136408
Si Si3 0.084289 0.261521 0.024240
Si Si4 0.187538 0.288071 0.451463
Si Si5 0.345131 0.834101 0.568381
Si Si6 0.453539 0.574469 0.477839
Si Si7 0.393487 0.944961 0.345667
Si Si8 0.152078 0.385595 0.698015
O O1 0.655783 0.501573 0.298191
O O2 0.589849 0.209452 0.328810
O O3 0.518172 0.342752 0.293365
O O4 0.400863 0.017487 0.828911
O O5 0.821123 0.721099 0.228408
O O6 0.863109 0.716123 0.040866
O O7 0.712436 0.692538 0.864035
O O8 0.987176 0.150669 0.416413
O O9 0.122520 0.215151 0.185287
O O10 0.175095 0.548181 0.257513
O O11 0.914884 0.999686 0.710051
O O12 0.189297 0.423940 0.595008
O O13 0.379244 0.951829 0.495212
O O14 0.500000 0.500000 0.500000
O O15 0.544663 0.819751 0.573720
O O16 0.500000 0.000000 0.500000
O O17 0.247226 0.661253 0.979859
#
# Coordination Sequence:
#
# PCOD8038798 Si02
#       8
#     2   2   2   2   2   2   2   2
#     4  10  19  33  51  83 111 140 182 228 279 324
#     4  10  18  35  52  82 117 141 180 230 277 324
#     4   9  15  29  46  80 115 135 164 227 287 317
#     4   9  17  25  48  80 115 136 167 222 288 319
#     4  10  18  30  55  82 112 129 181 244 270 313
#     4  12  25  40  55  77 118 157 184 223 278 339
#     4  12  19  35  57  86 109 144 191 233 274 323
#     4  10  19  29  58  89 110 136 180 240 280 315
#
# _framework density 18.123493
#
# number of rings (size 3 to 8) (size 9 to 14) (size 15 to 20)
#    0.000    1.750    6.250    0.750    3.500    0.000 
#    0.000    1.250    0.000    0.000    0.000    1.750 
#    0.000    0.000    0.000    0.000    0.000    0.000 
#
# Total GULP energy -198227.325579 kJ/mol
# GULP energy per Si atom -12389.207849 kJ/mol
# Density = 1.808224 g / cm^3
# Si number density = 18.123493 Si / 1000 Ang^3
#
#
#
# Elastic Constant Matrix: (Units=GPa)
#
#
# Indices 1 2 3 4 5 6 
#
# 1 76.2751 45.7170 43.7635 11.8339 -3.5329 3.8376
# 2 45.7170 84.5005 45.3713 20.6503 5.5041 11.5239
# 3 43.7635 45.3713 134.5321 26.9166 -3.4697 4.3113
# 4 11.8339 20.6503 26.9166 22.7724 8.4694 0.9646
# 5 -3.5329 5.5041 -3.4697 8.4694 22.1861 1.3337
# 6 3.8376 11.5239 4.3113 0.9646 1.3337 23.6771
#
#
#
# Elastic Compliance Matrix: (Units=1/GPa)
#
#
# Indices 1 2 3 4 5 6 
#
# 1 0.021433 -0.010437 -0.003461 0.000406 0.005190 0.001928
# 2 -0.010437 0.022551 -0.001648 -0.011790 -0.002511 -0.008362
# 3 -0.003461 -0.001648 0.012001 -0.013431 0.006902 -0.000664
# 4 0.000406 -0.011790 -0.013431 0.081358 -0.030561 0.006525
# 5 0.005190 -0.002511 0.006902 -0.030561 0.059447 -0.002979
# 6 0.001928 -0.008362 -0.000664 0.006525 -0.002979 0.046016
#
#
# Mechanical properties :
#
#
# Convention : Reuss Voigt Hill
#
# Bulk Modulus (GPa) = 40.17381 62.77906 51.47643
# Shear Modulus (GPa) = 17.71814 24.42417 21.07116
#
# Velocity S-wave (km/s) = 3.13011 3.67502 3.41345
# Velocity P-wave (km/s) = 5.93955 7.26103 6.63328
#
# Compressibility (1/GPa) = 0.02489184
#
# Stress axis : x y z
#
# Youngs Moduli (GPa) = 46.65797 44.34336 83.32328
#
# Poissons Ratio (x) = 0.46283 0.28840
# Poissons Ratio (y) = 0.48699 0.13733
# Poissons Ratio (z) = 0.16149 0.07308
#
# Static dielectric constant tensor:
#      x y z
#    x 3.036780 0.500140 -0.063570 
#    y 0.500140 2.742950 0.214850 
#    z -0.063570 0.214850 3.848220 
# 
# 
# High freq. dielectric constant tensor:
#      x y z
#    x 1.651400 0.065920 -0.019590 
#    y 0.065920 1.675500 0.018070 
#    z -0.019590 0.018070 1.731210 
# 
# From -- ./inp_files/252389.got.cif
#   From: 2010.06.25/outbox.cif.g09.slc.cpg/sg2_127_cif.got.tgz:252389.got - 2010.06.27 13:26:56.
