data_PCOD8038484
_publ_section_title
;
Structure prediction by ZEFSAII (Michael W. Deem and Ramdas Pophale) SiO2 
 PCOD8038484
Probable space group: P -1
;
_chemical_formula_sum "Si O2"
_cell_formula_units_Z 16
_cell_length_a 8.995941
_cell_length_b 11.821240
_cell_length_c 12.945107
_cell_angle_alpha 127.126604
_cell_angle_beta 90.058421
_cell_angle_gamma 126.686099
_cell_volume 725.878423
_symmetry_space_group_name_H-M "P -1"
_symmetry_group_IT_number 2
_symmetry_cell_setting 'triclinic'
loop_
_space_group_symop_operation_xyz
x,y,z
-x,-y,-z
loop_
_atom_site_type_symbol
_atom_site_label
_atom_site_fract_x
_atom_site_fract_y
_atom_site_fract_z
Si Si1 0.230766 0.687077 0.664689
Si Si2 0.236084 0.902587 0.378779
Si Si3 0.160680 0.567725 0.830233
Si Si4 0.423100 0.487026 0.743099
Si Si5 0.596032 0.704218 0.666511
Si Si6 0.585531 0.128558 0.824919
Si Si7 0.414312 0.212065 0.721393
Si Si8 0.075628 0.063694 0.378230
O O1 0.179551 0.657299 0.769740
O O2 0.414022 0.697838 0.647220
O O3 0.000000 0.500000 0.500000
O O4 0.343344 0.916997 0.758307
O O5 0.359721 0.958236 0.302640
O O6 0.095351 0.666135 0.285829
O O7 0.409907 0.078976 0.564653
O O8 0.073216 0.921182 0.370445
O O9 0.330412 0.557461 0.841545
O O10 0.223168 0.725594 0.006437
O O11 0.627385 0.687754 0.779476
O O12 0.505524 0.423249 0.786796
O O13 0.226830 0.290592 0.559061
O O14 0.500000 0.500000 0.500000
O O15 0.832882 0.907538 0.721545
O O16 0.578766 0.275454 0.846471
O O17 0.176129 0.060814 0.694179
#
# Coordination Sequence:
#
# PCOD8038484 Si02
#       8
#     2   2   2   2   2   2   2   2
#     4  11  24  42  65  92 121 156 208 255 298 362
#     4  11  20  41  61  89 120 164 210 250 303 353
#     4  11  22  42  63  85 129 166 197 241 318 372
#     4   9  18  35  60  87 114 158 205 249 293 350
#     4   9  19  34  62  90 115 150 199 256 304 339
#     4  12  26  38  60  93 129 162 195 252 315 365
#     4  11  21  37  63  92 119 156 214 259 289 349
#     4  10  17  36  63  87 118 157 209 258 290 352
#
# _framework density 22.042261
#
# number of rings (size 3 to 8) (size 9 to 14) (size 15 to 20)
#    0.000    1.500    3.750    2.625    3.500    0.500 
#    0.000    0.000    0.000    3.000    0.000    0.000 
#    0.000    0.000    0.000    0.000    0.000    0.000 
#
# Total GULP energy -198340.224906 kJ/mol
# GULP energy per Si atom -12396.264057 kJ/mol
# Density = 2.199209 g / cm^3
# Si number density = 22.042261 Si / 1000 Ang^3
#
#
#
# Elastic Constant Matrix: (Units=GPa)
#
#
# Indices 1 2 3 4 5 6 
#
# 1 44.1401 21.2614 22.0794 -18.3692 -2.1578 -3.8655
# 2 21.2614 133.2003 34.5528 -20.5069 -1.7202 -1.1742
# 3 22.0794 34.5528 78.4050 -20.4372 3.0159 0.8285
# 4 -18.3692 -20.5069 -20.4372 29.1737 -1.5579 -2.4563
# 5 -2.1578 -1.7202 3.0159 -1.5579 17.6489 -6.7583
# 6 -3.8655 -1.1742 0.8285 -2.4563 -6.7583 36.7208
#
#
#
# Elastic Compliance Matrix: (Units=1/GPa)
#
#
# Indices 1 2 3 4 5 6 
#
# 1 0.034314 -0.001235 -0.004723 0.018466 0.009030 0.006576
# 2 -0.001235 0.009030 -0.002711 0.003838 0.001844 0.000816
# 3 -0.004723 -0.002711 0.017229 0.006897 -0.003628 -0.001179
# 4 0.018466 0.003838 0.006897 0.054524 0.009031 0.007220
# 5 0.009030 0.001844 -0.003628 0.009031 0.064561 0.013578
# 6 0.006576 0.000816 -0.001179 0.007220 0.013578 0.030959
#
#
# Mechanical properties :
#
#
# Convention : Reuss Voigt Hill
#
# Bulk Modulus (GPa) = 23.12870 45.72584 34.42727
# Shear Modulus (GPa) = 20.63004 28.56545 24.59774
#
# Velocity S-wave (km/s) = 3.06262 3.60382 3.34419
# Velocity P-wave (km/s) = 4.79811 6.17304 5.52848
#
# Compressibility (1/GPa) = 0.04323633
#
# Stress axis : x y z
#
# Youngs Moduli (GPa) = 29.14256 110.74663 58.04272
#
# Poissons Ratio (x) = 0.13674 0.27411
# Poissons Ratio (y) = 0.03598 0.15734
# Poissons Ratio (z) = 0.13763 0.30021
#
# Static dielectric constant tensor:
#      x y z
#    x 3.748760 0.158090 -0.334230 
#    y 0.158090 4.557610 -0.285280 
#    z -0.334230 -0.285280 3.588240 
# 
# 
# High freq. dielectric constant tensor:
#      x y z
#    x 1.850790 -0.003010 -0.025100 
#    y -0.003010 1.892920 -0.017040 
#    z -0.025100 -0.017040 1.829660 
# 
# From -- ./inp_files/345549.got.cif
#   From: 2010.06.25/outbox.cif.g09.slc.cpg/sg2_173_cif.got.tgz:345549.got - 2010.06.27 13:26:56.
