data_PCOD8038041
_publ_section_title
;
Structure prediction by ZEFSAII (Michael W. Deem and Ramdas Pophale) SiO2 
 PCOD8038041
Probable space group: P -1
;
_chemical_formula_sum "Si O2"
_cell_formula_units_Z 16
_cell_length_a 10.315612
_cell_length_b 10.946797
_cell_length_c 8.891026
_cell_angle_alpha 92.565209
_cell_angle_beta 65.792127
_cell_angle_gamma 120.731182
_cell_volume 769.539785
_symmetry_space_group_name_H-M "P -1"
_symmetry_group_IT_number 2
_symmetry_cell_setting 'triclinic'
loop_
_space_group_symop_operation_xyz
x,y,z
-x,-y,-z
loop_
_atom_site_type_symbol
_atom_site_label
_atom_site_fract_x
_atom_site_fract_y
_atom_site_fract_z
Si Si1 0.790640 0.783132 0.548849
Si Si2 0.760483 0.737595 0.223534
Si Si3 0.576602 0.126235 0.846652
Si Si4 0.020648 0.693030 0.959460
Si Si5 0.784186 0.993449 0.071987
Si Si6 0.755962 0.395385 0.981102
Si Si7 0.831408 0.050315 0.697162
Si Si8 0.500155 0.531384 0.827952
O O1 0.720220 0.758837 0.412561
O O2 0.689810 0.633492 0.681593
O O3 0.986460 0.839390 0.454896
O O4 0.753453 0.892061 0.656746
O O5 0.842552 0.888862 0.099846
O O6 0.582061 0.619226 0.229627
O O7 0.891581 0.684921 0.148219
O O8 0.419929 0.093846 0.815293
O O9 0.718150 0.110817 0.695866
O O10 0.672070 0.292129 0.871012
O O11 0.500000 0.000000 0.000000
O O12 0.159676 0.667755 0.959646
O O13 0.126707 0.859819 0.858640
O O14 0.903882 0.566775 0.884390
O O15 0.839964 0.039608 0.873936
O O16 0.605497 0.392427 0.143062
O O17 0.500000 0.500000 0.000000
#
# Coordination Sequence:
#
# PCOD8038041 Si02
#       8
#     2   2   2   2   2   2   2   2
#     4  11  22  37  58  87 122 158 196 240 307 347
#     4  11  22  38  60  90 124 154 196 247 298 353
#     4  10  17  33  59  85 116 156 201 244 287 348
#     4  10  20  33  58  90 120 153 193 250 292 351
#     4  11  20  37  65  90 119 156 206 242 291 353
#     4  10  19  35  57  89 116 149 203 245 297 343
#     4  10  21  36  59  88 117 160 196 243 290 356
#     4  11  23  40  63  88 117 155 203 249 295 357
#
# _framework density 20.791647999999999
#
# number of rings (size 3 to 8) (size 9 to 14) (size 15 to 20)
#    0.000    1.500    3.750    3.750    0.000    0.000 
#    2.250    0.625    0.000    8.250    0.000    0.000 
#    0.000    0.000    0.000    0.000    0.000    0.000 
#
# Total GULP energy -198270.399645 kJ/mol
# GULP energy per Si atom -12391.899978 kJ/mol
# Density = 2.074433 g / cm^3
# Si number density = 20.791648 Si / 1000 Ang^3
#
#
#
# Elastic Constant Matrix: (Units=GPa)
#
#
# Indices 1 2 3 4 5 6 
#
# 1 60.8373 29.4400 26.2231 -6.5107 -11.1740 -4.4106
# 2 29.4400 184.3134 42.7288 -3.1996 -8.3607 19.5546
# 3 26.2231 42.7288 72.3802 -12.3749 -3.5792 2.5216
# 4 -6.5107 -3.1996 -12.3749 30.2641 2.1718 -2.9964
# 5 -11.1740 -8.3607 -3.5792 2.1718 23.1173 3.5431
# 6 -4.4106 19.5546 2.5216 -2.9964 3.5431 37.2956
#
#
#
# Elastic Compliance Matrix: (Units=1/GPa)
#
#
# Indices 1 2 3 4 5 6 
#
# 1 0.022054 -0.002048 -0.006195 0.001744 0.008267 0.003455
# 2 -0.002048 0.007032 -0.003461 -0.001636 0.001783 -0.003996
# 3 -0.006195 -0.003461 0.019064 0.006285 -0.001959 0.000484
# 4 0.001744 -0.001636 0.006285 0.036393 -0.002781 0.003827
# 5 0.008267 0.001783 -0.001959 -0.002781 0.048571 -0.004663
# 6 0.003455 -0.003996 0.000484 0.003827 -0.004663 0.030034
#
#
# Mechanical properties :
#
#
# Convention : Reuss Voigt Hill
#
# Bulk Modulus (GPa) = 40.41671 57.14607 48.78139
# Shear Modulus (GPa) = 25.66693 32.74467 29.20580
#
# Velocity S-wave (km/s) = 3.51733 3.97280 3.75198
# Velocity P-wave (km/s) = 5.99805 6.97058 6.50252
#
# Compressibility (1/GPa) = 0.02474224
#
# Stress axis : x y z
#
# Youngs Moduli (GPa) = 45.34355 142.21715 52.45376
#
# Poissons Ratio (x) = 0.29125 0.32493
# Poissons Ratio (y) = 0.09286 0.18156
# Poissons Ratio (z) = 0.28088 0.49226
#
# Static dielectric constant tensor:
#      x y z
#    x 4.073920 0.203960 -0.417910 
#    y 0.203960 4.355500 0.078170 
#    z -0.417910 0.078170 3.371470 
# 
# 
# High freq. dielectric constant tensor:
#      x y z
#    x 1.818340 0.013640 -0.031320 
#    y 0.013640 1.848150 0.003550 
#    z -0.031320 0.003550 1.754740 
# 
# From -- ./inp_files/262683.got.cif
#   From: 2010.06.25/outbox.cif.g09.slc.cpg/sg2_132_cif.got.tgz:262683.got - 2010.06.27 13:26:56.
