data_PCOD8038218
_publ_section_title
;
Structure prediction by ZEFSAII (Michael W. Deem and Ramdas Pophale) SiO2 
 PCOD8038218
Probable space group: P -1
;
_chemical_formula_sum "Si O2"
_cell_formula_units_Z 14
_cell_length_a 24.000000
_cell_length_b 30.000000
_cell_length_c 15.000000
_cell_angle_alpha 160.000000
_cell_angle_beta 20.000000
_cell_angle_gamma 170.000000
_cell_volume 622.618477
_symmetry_space_group_name_H-M "P -1"
_symmetry_group_IT_number 2
_symmetry_cell_setting 'triclinic'
loop_
_space_group_symop_operation_xyz
x,y,z
-x,-y,-z
loop_
_atom_site_type_symbol
_atom_site_label
_atom_site_fract_x
_atom_site_fract_y
_atom_site_fract_z
Si Si1 0.098712 0.609171 0.411116
Si Si2 0.179593 0.730295 0.314453
Si Si3 0.712378 0.557458 0.995865
Si Si4 0.524113 0.155888 0.211167
Si Si5 0.719470 0.750027 0.195155
Si Si6 0.207742 0.862963 0.967158
Si Si7 0.729016 0.929707 0.158798
O O1 0.228831 0.726892 0.337814
O O2 0.396417 0.771822 0.331865
O O3 0.941937 0.631025 0.725494
O O4 0.824112 0.304885 0.259858
O O5 0.899860 0.441354 0.151758
O O6 0.063528 0.801735 0.610215
O O7 0.512287 0.931879 0.141959
O O8 0.359053 0.239688 0.950687
O O9 0.692325 0.683267 0.213597
O O10 0.873875 0.686094 0.092710
O O11 0.420457 0.201632 0.518462
O O12 0.288269 0.008209 0.203324
O O13 0.500000 0.000000 0.000000
O O14 0.500000 0.500000 0.000000
O O15 0.087147 0.007756 0.084243
#
# Coordination Sequence:
#
# PCOD8038218 Si02
#       7
#     2   2   2   2   2   2   2
#     4  11  19  38  70 102 136 168 219 277 324 400
#     4  12  20  39  70  98 129 176 224 269 325 395
#     4  11  22  41  69 103 137 166 221 280 328 395
#     4  12  27  48  65  93 141 184 220 271 335 400
#     4  12  26  45  67  98 137 174 223 283 327 389
#     4  11  23  41  67 100 133 175 224 268 332 401
#     4  11  21  38  69 106 127 169 224 274 334 380
#
# _framework density 22.485679999999999
#
# number of rings (size 3 to 8) (size 9 to 14) (size 15 to 20)
#    0.000    0.571    7.143    2.571    0.000    1.143 
#    5.143    2.857    0.000    0.000    0.000    0.000 
#    0.000    0.000    0.000    0.000    0.000    0.000 
#
# Total GULP energy -173532.125499 kJ/mol
# GULP energy per Si atom -12395.151821 kJ/mol
# Density = 2.243450 g / cm^3
# Si number density = 22.485680 Si / 1000 Ang^3
#
#
#
# Elastic Constant Matrix: (Units=GPa)
#
#
# Indices 1 2 3 4 5 6 
#
# 1 85.2879 26.5861 38.4465 6.5908 -0.4923 -25.2574
# 2 26.5861 98.1386 41.5227 12.2013 -4.2659 -34.1151
# 3 38.4465 41.5227 92.9942 15.0203 -16.1235 -8.7154
# 4 6.5908 12.2013 15.0203 26.9399 -0.4811 3.2681
# 5 -0.4923 -4.2659 -16.1235 -0.4811 32.7717 12.1689
# 6 -25.2574 -34.1151 -8.7154 3.2681 12.1689 49.5710
#
#
#
# Elastic Compliance Matrix: (Units=1/GPa)
#
#
# Indices 1 2 3 4 5 6 
#
# 1 0.018518 0.002848 -0.008815 -0.002510 -0.008189 0.012021
# 2 0.002848 0.018654 -0.008319 -0.006463 -0.007304 0.015045
# 3 -0.008815 -0.008319 0.019936 -0.003834 0.012032 -0.009413
# 4 -0.002510 -0.006463 -0.003834 0.043997 0.001468 -0.009662
# 5 -0.008189 -0.007304 0.012032 0.001468 0.041864 -0.017457
# 6 0.012021 0.015045 -0.009413 -0.009662 -0.017457 0.039920
#
#
# Mechanical properties :
#
#
# Convention : Reuss Voigt Hill
#
# Bulk Modulus (GPa) = 35.04490 54.39237 44.71864
# Shear Modulus (GPa) = 22.62737 33.18086 27.90412
#
# Velocity S-wave (km/s) = 3.17567 3.84558 3.52657
# Velocity P-wave (km/s) = 5.39127 6.63025 6.04260
#
# Compressibility (1/GPa) = 0.02853482
#
# Stress axis : x y z
#
# Youngs Moduli (GPa) = 54.00286 53.60754 50.16164
#
# Poissons Ratio (x) = -0.15268 0.44218
# Poissons Ratio (y) = -0.15381 0.41730
# Poissons Ratio (z) = 0.47604 0.44597
#
# Static dielectric constant tensor:
#      x y z
#    x 4.393480 -0.210040 -0.131740 
#    y -0.210040 4.552150 0.353910 
#    z -0.131740 0.353910 3.921270 
# 
# 
# High freq. dielectric constant tensor:
#      x y z
#    x 1.887390 -0.018640 -0.010050 
#    y -0.018640 1.899440 0.010840 
#    z -0.010050 0.010840 1.853170 
# 
# From -- ./inp_files/226601.got.cif
#   From: 2010.06.25/outbox.ucp.g09.slc.cvg/sg2_114_cif.got.tgz:226601.got - 2010.06.28 11:54:26.
