data_PCOD8038821
_publ_section_title
;
Structure prediction by ZEFSAII (Michael W. Deem and Ramdas Pophale) SiO2 
 PCOD8038821
Probable space group: P -1
;
_chemical_formula_sum "Si O2"
_cell_formula_units_Z 16
_cell_length_a 9.483734
_cell_length_b 10.549132
_cell_length_c 20.658881
_cell_angle_alpha 30.872348
_cell_angle_beta 53.271807
_cell_angle_gamma 66.216852
_cell_volume 819.029203
_symmetry_space_group_name_H-M "P -1"
_symmetry_group_IT_number 2
_symmetry_cell_setting 'triclinic'
loop_
_space_group_symop_operation_xyz
x,y,z
-x,-y,-z
loop_
_atom_site_type_symbol
_atom_site_label
_atom_site_fract_x
_atom_site_fract_y
_atom_site_fract_z
Si Si1 0.131636 0.268862 0.160682
Si Si2 0.778984 0.971906 0.441456
Si Si3 0.436998 0.293736 0.916374
Si Si4 0.473451 0.881087 0.658657
Si Si5 0.430153 0.019952 0.171012
Si Si6 0.245103 0.607070 0.313430
Si Si7 0.291884 0.874173 0.842691
Si Si8 0.051345 0.996261 0.167200
O O1 0.292375 0.145691 0.193951
O O2 0.047960 0.152350 0.166066
O O3 0.203351 0.571957 0.002406
O O4 0.969166 0.192049 0.291738
O O5 0.684473 0.988014 0.530129
O O6 0.817589 0.697062 0.538670
O O7 0.649307 0.002199 0.405674
O O8 0.418595 0.578549 0.800391
O O9 0.592808 0.266733 0.836547
O O10 0.486031 0.199761 0.013942
O O11 0.236348 0.133940 0.017030
O O12 0.439687 0.956943 0.708002
O O13 0.606573 0.024098 0.163173
O O14 0.329157 0.726053 0.307444
O O15 0.065775 0.707409 0.304163
O O16 0.130340 0.013908 0.818651
#
# Coordination Sequence:
#
# PCOD8038821 Si02
#       8
#     2   2   2   2   2   2   2   2
#     4  10  19  34  57  83 107 141 190 226 268 320
#     4  10  20  35  59  84 106 146 187 228 260 329
#     4   9  17  36  59  80 106 144 189 230 261 320
#     4  10  19  33  58  84 110 138 181 233 277 305
#     4  10  21  33  58  83 112 146 177 228 281 323
#     4   9  20  38  56  79 114 147 188 215 271 332
#     4  12  20  35  56  89 113 135 182 237 279 316
#     4  10  18  30  57  82 106 143 185 227 262 317
#
# _framework density 19.535322000000001
#
# number of rings (size 3 to 8) (size 9 to 14) (size 15 to 20)
#    0.000    2.250    3.750    3.000    0.000    2.000 
#    0.000    3.750    0.000    0.000    0.000    0.000 
#    0.000    0.000    0.000    0.000    0.000    0.000 
#
# Total GULP energy -198304.648010 kJ/mol
# GULP energy per Si atom -12394.040501 kJ/mol
# Density = 1.949086 g / cm^3
# Si number density = 19.535322 Si / 1000 Ang^3
#
#
#
# Elastic Constant Matrix: (Units=GPa)
#
#
# Indices 1 2 3 4 5 6 
#
# 1 129.8420 40.8280 24.3990 -2.5391 10.8408 -17.3370
# 2 40.8280 75.9477 26.1692 4.3992 3.2308 -16.9490
# 3 24.3990 26.1692 72.8162 16.3903 -0.9106 0.0260
# 4 -2.5391 4.3992 16.3903 15.3909 -7.0266 0.6239
# 5 10.8408 3.2308 -0.9106 -7.0266 16.3897 1.2313
# 6 -17.3370 -16.9490 0.0260 0.6239 1.2313 16.1025
#
#
#
# Elastic Compliance Matrix: (Units=1/GPa)
#
#
# Indices 1 2 3 4 5 6 
#
# 1 0.011032 -0.002429 -0.003578 0.002978 -0.006470 0.009707
# 2 -0.002429 0.021780 -0.006293 -0.003578 -0.006142 0.020928
# 3 -0.003578 -0.006293 0.022765 -0.025024 -0.005169 -0.009148
# 4 0.002978 -0.003578 -0.025024 0.115095 0.047335 -0.008598
# 5 -0.006470 -0.006142 -0.005169 0.047335 0.088163 -0.021998
# 6 0.009707 0.020928 -0.009148 -0.008598 -0.021998 0.096612
#
#
# Mechanical properties :
#
#
# Convention : Reuss Voigt Hill
#
# Bulk Modulus (GPa) = 32.28134 51.26647 41.77390
# Shear Modulus (GPa) = 12.80827 22.05725 17.43276
#
# Velocity S-wave (km/s) = 2.56334 3.36385 2.99050
# Velocity P-wave (km/s) = 5.03204 6.43329 5.77532
#
# Compressibility (1/GPa) = 0.03097765
#
# Stress axis : x y z
#
# Youngs Moduli (GPa) = 90.64270 45.91391 43.92706
#
# Poissons Ratio (x) = 0.11151 0.15719
# Poissons Ratio (y) = 0.22015 0.27641
# Poissons Ratio (z) = 0.32436 0.28892
#
# Static dielectric constant tensor:
#      x y z
#    x 3.354960 -0.377130 -0.011000 
#    y -0.377130 3.656190 0.186260 
#    z -0.011000 0.186260 3.739900 
# 
# 
# High freq. dielectric constant tensor:
#      x y z
#    x 1.730880 -0.035530 0.004800 
#    y -0.035530 1.756940 0.003890 
#    z 0.004800 0.003890 1.764830 
# 
# From -- ./inp_files/446343.got.cif
#   From: 2010.06.25/outbox.cif.g09.slc.cpg/sg2_224_cif.got.tgz:446343.got - 2010.06.27 13:26:56.
