data_PCOD8038946
_publ_section_title
;
Structure prediction by ZEFSAII (Michael W. Deem and Ramdas Pophale) SiO2 
 PCOD8038946
Probable space group: P -1
;
_chemical_formula_sum "Si O2"
_cell_formula_units_Z 16
_cell_length_a 13.906254
_cell_length_b 15.913225
_cell_length_c 9.572429
_cell_angle_alpha 79.967715
_cell_angle_beta 53.619612
_cell_angle_gamma 35.743452
_cell_volume 754.319420
_symmetry_space_group_name_H-M "P -1"
_symmetry_group_IT_number 2
_symmetry_cell_setting 'triclinic'
loop_
_space_group_symop_operation_xyz
x,y,z
-x,-y,-z
loop_
_atom_site_type_symbol
_atom_site_label
_atom_site_fract_x
_atom_site_fract_y
_atom_site_fract_z
Si Si1 0.421937 0.405041 0.857256
Si Si2 0.595433 0.468840 0.614722
Si Si3 0.257211 0.771769 0.623125
Si Si4 0.460313 0.033622 0.805113
Si Si5 0.912523 0.622085 0.157806
Si Si6 0.742287 0.682686 0.578185
Si Si7 0.313544 0.860776 0.054760
Si Si8 0.833807 0.876863 0.736642
O O1 0.408140 0.518133 0.839798
O O2 0.597165 0.264804 0.611255
O O3 0.562180 0.293380 0.914817
O O4 0.141380 0.537844 0.044981
O O5 0.420163 0.663324 0.661261
O O6 0.741329 0.329714 0.395637
O O7 0.855701 0.333045 0.516633
O O8 0.955831 0.998049 0.833219
O O9 0.319840 0.168964 0.757657
O O10 0.636733 0.844131 0.652146
O O11 0.657954 0.974580 0.722983
O O12 0.236709 0.146810 0.075678
O O13 0.807919 0.631549 0.373193
O O14 0.000000 0.500000 0.000000
O O15 0.000000 0.500000 0.500000
O O16 0.517723 0.757415 0.788730
O O17 0.241556 0.980717 0.190677
#
# Coordination Sequence:
#
# PCOD8038946 Si02
#       8
#     2   2   2   2   2   2   2   2
#     4  10  18  31  56  87 119 151 198 244 299 350
#     4   8  16  29  50  87 117 150 196 247 285 351
#     4   8  16  28  50  86 111 150 198 238 287 352
#     4  10  22  37  62  88 122 165 195 244 311 353
#     4  12  25  40  62  94 120 156 211 253 297 365
#     4  11  24  42  58  87 126 163 199 253 305 358
#     4  10  18  33  56  85 119 157 196 244 299 357
#     4   9  18  33  59  90 121 149 201 245 297 363
#
# _framework density 21.211171
#
# number of rings (size 3 to 8) (size 9 to 14) (size 15 to 20)
#    0.750    1.500    1.250    2.250    7.000    0.000 
#    0.000    0.000    0.000    1.500    0.000    0.000 
#    0.000    0.000    0.000    0.000    0.000    0.000 
#
# Total GULP energy -198278.540391 kJ/mol
# GULP energy per Si atom -12392.408774 kJ/mol
# Density = 2.116289 g / cm^3
# Si number density = 21.211171 Si / 1000 Ang^3
#
#
#
# Elastic Constant Matrix: (Units=GPa)
#
#
# Indices 1 2 3 4 5 6 
#
# 1 39.4570 27.2413 24.9352 4.1433 -13.3428 -9.3132
# 2 27.2413 168.4057 63.9420 -3.3340 -9.6669 -24.0531
# 3 24.9352 63.9420 111.2643 -10.5831 -16.9099 -9.4331
# 4 4.1433 -3.3340 -10.5831 33.6723 -1.4667 -7.7603
# 5 -13.3428 -9.6669 -16.9099 -1.4667 29.7181 9.2893
# 6 -9.3132 -24.0531 -9.4331 -7.7603 9.2893 24.7084
#
#
#
# Elastic Compliance Matrix: (Units=1/GPa)
#
#
# Indices 1 2 3 4 5 6 
#
# 1 0.035343 -0.002955 -0.004774 -0.004991 0.011036 0.002906
# 2 -0.002955 0.008938 -0.004145 0.001577 -0.003096 0.007664
# 3 -0.004774 -0.004145 0.013482 0.004368 0.004738 -0.001097
# 4 -0.004991 0.001577 0.004368 0.034725 -0.001531 0.012803
# 5 0.011036 -0.003096 0.004738 -0.001531 0.044697 -0.014330
# 6 0.002906 0.007664 -0.001097 0.012803 -0.014330 0.058018
#
#
# Mechanical properties :
#
#
# Convention : Reuss Voigt Hill
#
# Bulk Modulus (GPa) = 29.39794 61.26265 45.33029
# Shear Modulus (GPa) = 21.71183 31.15366 26.43275
#
# Velocity S-wave (km/s) = 3.20285 3.83657 3.53394
# Velocity P-wave (km/s) = 5.25047 6.96926 6.17001
#
# Compressibility (1/GPa) = 0.03401599
#
# Stress axis : x y z
#
# Youngs Moduli (GPa) = 28.29424 111.88201 74.17238
#
# Poissons Ratio (x) = 0.33059 0.35407
# Poissons Ratio (y) = 0.08360 0.30745
# Poissons Ratio (z) = 0.13507 0.46375
#
# Static dielectric constant tensor:
#      x y z
#    x 3.506010 -0.199770 -0.338040 
#    y -0.199770 4.020570 0.014960 
#    z -0.338040 0.014960 3.738630 
# 
# 
# High freq. dielectric constant tensor:
#      x y z
#    x 1.799180 -0.015540 -0.029310 
#    y -0.015540 1.845060 0.000950 
#    z -0.029310 0.000950 1.812010 
# 
# From -- ./inp_files/317631.got.cif
#   From: 2010.06.25/outbox.cif.g09.slc.cpg/sg2_159_cif.got.tgz:317631.got - 2010.06.27 13:26:56.
