data_PCOD8038306
_publ_section_title
;
Structure prediction by ZEFSAII (Michael W. Deem and Ramdas Pophale) SiO2 
 PCOD8038306
Probable space group: P -1
;
_chemical_formula_sum "Si O2"
_cell_formula_units_Z 16
_cell_length_a 18.000000
_cell_length_b 18.000000
_cell_length_c 9.000000
_cell_angle_alpha 30.000000
_cell_angle_beta 140.000000
_cell_angle_gamma 150.000000
_cell_volume 727.497153
_symmetry_space_group_name_H-M "P -1"
_symmetry_group_IT_number 2
_symmetry_cell_setting 'triclinic'
loop_
_space_group_symop_operation_xyz
x,y,z
-x,-y,-z
loop_
_atom_site_type_symbol
_atom_site_label
_atom_site_fract_x
_atom_site_fract_y
_atom_site_fract_z
Si Si1 0.717429 0.340981 0.288310
Si Si2 0.558725 0.681747 0.012185
Si Si3 0.059725 0.288669 0.846066
Si Si4 0.744136 0.824199 0.765821
Si Si5 0.224217 0.596714 0.075991
Si Si6 0.051202 0.747741 0.582024
Si Si7 0.533545 0.715726 0.379651
Si Si8 0.261405 0.990043 0.074360
O O1 0.863601 0.511027 0.303471
O O2 0.695791 0.147759 0.608434
O O3 0.577708 0.312489 0.197943
O O4 0.744530 0.402000 0.052300
O O5 0.508916 0.492124 0.350143
O O6 0.620571 0.679199 0.950632
O O7 0.701476 0.885684 0.937757
O O8 0.003067 0.311038 0.567130
O O9 0.917415 0.128607 0.010228
O O10 0.179501 0.255886 0.057109
O O11 0.647853 0.835417 0.480162
O O12 0.878927 0.034639 0.663771
O O13 0.382657 0.684422 0.240959
O O14 0.088941 0.380830 0.297505
O O15 0.177884 0.724457 0.836206
O O16 0.626642 0.849316 0.151454
#
# Coordination Sequence:
#
# PCOD8038306 Si02
#       8
#     2   2   2   2   2   2   2   2
#     4  12  26  47  76 103 145 188 239 297 354 426
#     4  12  25  49  72 104 145 189 240 294 355 423
#     4  12  26  47  73 103 145 190 240 293 353 428
#     4  12  27  47  71 106 143 196 237 289 362 423
#     4  11  26  46  72 105 147 185 238 298 355 421
#     4  11  26  46  72 106 143 192 236 294 356 425
#     4  12  28  45  71 110 143 186 238 296 354 421
#     4  12  27  45  75 105 140 192 241 291 361 417
#
# _framework density 21.993213000000001
#
# number of rings (size 3 to 8) (size 9 to 14) (size 15 to 20)
#    0.000    0.250    5.000    2.625    7.000    2.000 
#    0.000    0.000    0.000    0.000    0.000    0.000 
#    0.000    0.000    0.000    0.000    0.000    0.000 
#
# Total GULP energy -198333.957466 kJ/mol
# GULP energy per Si atom -12395.872342 kJ/mol
# Density = 2.194316 g / cm^3
# Si number density = 21.993213 Si / 1000 Ang^3
#
#
#
# Elastic Constant Matrix: (Units=GPa)
#
#
# Indices 1 2 3 4 5 6 
#
# 1 120.5381 19.9638 39.5344 -0.8865 -3.8386 59.3409
# 2 19.9638 93.8945 35.6028 -5.5258 -16.1008 21.3544
# 3 39.5344 35.6028 102.4344 -9.9011 -1.0429 18.4745
# 4 -0.8865 -5.5258 -9.9011 43.5002 15.6369 4.5530
# 5 -3.8386 -16.1008 -1.0429 15.6369 5.6565 1.2573
# 6 59.3409 21.3544 18.4745 4.5530 1.2573 44.1474
#
#
#
# Elastic Compliance Matrix: (Units=1/GPa)
#
#
# Indices 1 2 3 4 5 6 
#
# 1 0.020892 -0.004682 -0.000390 0.018067 -0.043325 -0.026284
# 2 -0.004682 0.001263 0.002003 0.020725 -0.057471 0.004344
# 3 -0.000390 0.002003 0.009598 -0.007529 0.029021 -0.004511
# 4 0.018067 0.020725 -0.007529 -0.002136 0.083173 -0.033307
# 5 -0.043325 -0.057471 0.029021 0.083173 -0.256915 0.072629
# 6 -0.026284 0.004344 -0.004511 -0.033307 0.072629 0.059134
#
#
# Mechanical properties :
#
#
# Convention : Reuss Voigt Hill
#
# Bulk Modulus (GPa) = 39.04132 56.34101 47.69117
# Shear Modulus (GPa) = -32.57632 33.44522 0.43445
#
# Velocity S-wave (km/s) = -3.85281 3.90385 0.44494
# Velocity P-wave (km/s) = 1.41496 6.78183 4.68994
#
# Compressibility (1/GPa) = 0.02561389
#
# Stress axis : x y z
#
# Youngs Moduli (GPa) = 47.86464 791.61004 104.18693
#
# Poissons Ratio (x) = 3.70663 0.04066
# Poissons Ratio (y) = 0.22412 -0.20867
# Poissons Ratio (z) = 0.01868 -1.58543
#
# Static dielectric constant tensor:
#      x y z
#    x 4.302760 0.236740 0.010260 
#    y 0.236740 4.211190 -0.048380 
#    z 0.010260 -0.048380 3.953520 
# 
# 
# High freq. dielectric constant tensor:
#      x y z
#    x 1.896040 0.023160 0.004040 
#    y 0.023160 1.881460 -0.012420 
#    z 0.004040 -0.012420 1.864210 
# 
# From -- ./inp_files/263516.got.cif
#   From: 2010.06.25/outbox.ucp.g09.slc.cvg/sg2_132_cif.got.tgz:263516.got - 2010.06.28 11:54:26.
