data_PCOD8038889
_publ_section_title
;
Structure prediction by ZEFSAII (Michael W. Deem and Ramdas Pophale) SiO2 
 PCOD8038889
Probable space group: P -1
;
_chemical_formula_sum "Si O2"
_cell_formula_units_Z 14
_cell_length_a 16.142721
_cell_length_b 13.441196
_cell_length_c 6.434855
_cell_angle_alpha 49.657757
_cell_angle_beta 118.994539
_cell_angle_gamma 135.825112
_cell_volume 741.029545
_symmetry_space_group_name_H-M "P -1"
_symmetry_group_IT_number 2
_symmetry_cell_setting 'triclinic'
loop_
_space_group_symop_operation_xyz
x,y,z
-x,-y,-z
loop_
_atom_site_type_symbol
_atom_site_label
_atom_site_fract_x
_atom_site_fract_y
_atom_site_fract_z
Si Si1 0.930221 0.395807 0.253903
Si Si2 0.067195 0.967582 0.962610
Si Si3 0.408667 0.260127 0.057971
Si Si4 0.743468 0.823899 0.399008
Si Si5 0.900426 0.607439 0.225005
Si Si6 0.237927 0.971250 0.480159
Si Si7 0.331263 0.434820 0.003527
O O1 0.884626 0.483288 0.202986
O O2 0.809311 0.215466 0.293879
O O3 0.026248 0.387395 0.499700
O O4 0.000000 0.500000 0.000000
O O5 0.136244 0.105923 0.680790
O O6 0.164085 0.971092 0.203932
O O7 0.974232 0.792311 0.975103
O O8 0.000000 0.000000 0.000000
O O9 0.350641 0.341927 0.977588
O O10 0.371248 0.102860 0.368355
O O11 0.363840 0.216718 0.824473
O O12 0.550511 0.382384 0.064400
O O13 0.705419 0.661730 0.692083
O O14 0.774951 0.967275 0.399911
O O15 0.770948 0.550670 0.215770
#
# Coordination Sequence:
#
# PCOD8038889 Si02
#       7
#     2   2   2   2   2   2   2
#     4  10  21  37  54  73 100 137 179 218 255 301
#     4  10  19  31  49  79 109 131 163 211 262 314
#     4   9  19  35  54  79 109 134 168 212 258 309
#     4  10  18  31  53  77 105 139 168 202 258 315
#     4  10  21  35  52  76 104 136 172 212 260 302
#     4   9  19  33  51  73 100 136 173 213 256 300
#     4  10  20  34  54  80 107 137 169 210 258 311
#
# _framework density 18.892634000000001
#
# number of rings (size 3 to 8) (size 9 to 14) (size 15 to 20)
#    0.000    2.286    0.000    3.857    0.000    6.857 
#    0.000    0.714    0.000    1.714    0.000    0.000 
#    0.000    0.000    0.000    0.000    0.000    0.000 
#
# Total GULP energy -173519.874074 kJ/mol
# GULP energy per Si atom -12394.276720 kJ/mol
# Density = 1.884963 g / cm^3
# Si number density = 18.892634 Si / 1000 Ang^3
#
#
#
# Elastic Constant Matrix: (Units=GPa)
#
#
# Indices 1 2 3 4 5 6 
#
# 1 88.9434 57.1909 35.8727 -9.5074 -9.4947 15.2945
# 2 57.1909 147.0353 43.8325 -24.6902 -16.2378 10.0531
# 3 35.8727 43.8325 65.7627 -17.6254 -23.6418 2.8173
# 4 -9.5074 -24.6902 -17.6254 34.1809 4.9006 -4.7613
# 5 -9.4947 -16.2378 -23.6418 4.9006 28.0276 -1.2205
# 6 15.2945 10.0531 2.8173 -4.7613 -1.2205 27.9843
#
#
#
# Elastic Compliance Matrix: (Units=1/GPa)
#
#
# Indices 1 2 3 4 5 6 
#
# 1 0.018703 -0.005122 -0.008749 -0.003627 -0.003738 -0.008281
# 2 -0.005122 0.010446 -0.002377 0.004702 0.001496 0.000151
# 3 -0.008749 -0.002377 0.031391 0.009778 0.020647 0.005040
# 4 -0.003627 0.004702 0.009778 0.036981 0.003527 0.005755
# 5 -0.003738 0.001496 0.020647 0.003527 0.052180 0.002303
# 6 -0.008281 0.000151 0.005040 0.005755 0.002303 0.040778
#
#
# Mechanical properties :
#
#
# Convention : Reuss Voigt Hill
#
# Bulk Modulus (GPa) = 35.65998 63.94818 49.80408
# Shear Modulus (GPa) = 21.52176 29.02824 25.27500
#
# Velocity S-wave (km/s) = 3.37881 3.92405 3.66159
# Velocity P-wave (km/s) = 5.84276 7.37920 6.65547
#
# Compressibility (1/GPa) = 0.02804264
#
# Stress axis : x y z
#
# Youngs Moduli (GPa) = 53.46872 95.72613 31.85663
#
# Poissons Ratio (x) = 0.49031 0.27872
# Poissons Ratio (y) = 0.27387 0.07573
# Poissons Ratio (z) = 0.46781 0.22757
#
# Static dielectric constant tensor:
#      x y z
#    x 3.289070 0.176160 -0.207670 
#    y 0.176160 4.136060 -0.221380 
#    z -0.207670 -0.221380 3.446370 
# 
# 
# High freq. dielectric constant tensor:
#      x y z
#    x 1.708100 0.009780 -0.025360 
#    y 0.009780 1.754750 -0.001760 
#    z -0.025360 -0.001760 1.723880 
# 
# From -- ./inp_files/62309.got.cif
#   From: 2010.06.25/outbox.cif.g09.slc.cpg/sg2_32_cif.got.tgz:62309.got - 2010.06.27 13:26:56.
