data_PCOD8038351
_publ_section_title
;
Structure prediction by ZEFSAII (Michael W. Deem and Ramdas Pophale) SiO2 
 PCOD8038351
Probable space group: P -1
;
_chemical_formula_sum "Si O2"
_cell_formula_units_Z 16
_cell_length_a 20.666895
_cell_length_b 8.631437
_cell_length_c 15.006499
_cell_angle_alpha 50.554536
_cell_angle_beta 157.177144
_cell_angle_gamma 128.147411
_cell_volume 797.222071
_symmetry_space_group_name_H-M "P -1"
_symmetry_group_IT_number 2
_symmetry_cell_setting 'triclinic'
loop_
_space_group_symop_operation_xyz
x,y,z
-x,-y,-z
loop_
_atom_site_type_symbol
_atom_site_label
_atom_site_fract_x
_atom_site_fract_y
_atom_site_fract_z
Si Si1 0.825731 0.420397 0.848203
Si Si2 0.964933 0.782181 0.679280
Si Si3 0.926089 0.847309 0.115577
Si Si4 0.666830 0.084684 0.635254
Si Si5 0.770068 0.838245 0.585278
Si Si6 0.150215 0.504404 0.517861
Si Si7 0.569921 0.159099 0.286002
Si Si8 0.820806 0.825697 0.192407
O O1 0.737114 0.266917 0.721081
O O2 0.727277 0.620402 0.660155
O O3 0.871893 0.316157 0.037484
O O4 0.000000 0.500000 0.000000
O O5 0.815945 0.810535 0.549965
O O6 0.863343 0.653022 0.522127
O O7 0.049612 0.993698 0.669043
O O8 0.841296 0.833386 0.109898
O O9 0.997485 0.638843 0.260578
O O10 0.068794 0.032273 0.215915
O O11 0.784750 0.901708 0.846996
O O12 0.638610 0.156886 0.474116
O O13 0.500000 0.000000 0.500000
O O14 0.610965 0.963699 0.352274
O O15 0.330840 0.637865 0.703167
O O16 0.127803 0.383882 0.626460
O O17 0.371133 0.158370 0.029069
#
# Coordination Sequence:
#
# PCOD8038351 Si02
#       8
#     2   2   2   2   2   2   2   2
#     4  10  17  35  58  80 115 153 184 231 290 341
#     4  10  20  39  58  83 116 157 199 234 285 346
#     4  10  21  39  61  88 116 153 198 238 290 346
#     4  12  21  38  60  88 123 151 182 247 301 344
#     4   9  20  36  60  86 118 154 190 238 288 353
#     4  11  24  37  65  86 112 159 205 235 280 347
#     4  11  23  37  61  91 119 148 196 241 295 344
#     4  11  21  44  57  84 123 156 191 246 288 336
#
# _framework density 20.069690999999999
#
# number of rings (size 3 to 8) (size 9 to 14) (size 15 to 20)
#    0.000    1.500    5.000    2.625    1.750    1.000 
#    2.250    1.875    0.000    0.000    0.000    0.000 
#    0.000    0.000    0.000    0.000    0.000    0.000 
#
# Total GULP energy -198286.926807 kJ/mol
# GULP energy per Si atom -12392.932925 kJ/mol
# Density = 2.002401 g / cm^3
# Si number density = 20.069691 Si / 1000 Ang^3
#
#
#
# Elastic Constant Matrix: (Units=GPa)
#
#
# Indices 1 2 3 4 5 6 
#
# 1 41.0716 27.2939 8.3365 -1.3020 7.5502 0.5906
# 2 27.2939 98.4768 11.3313 -0.7978 -0.7628 13.2772
# 3 8.3365 11.3313 43.2078 -0.2286 4.5917 1.9141
# 4 -1.3020 -0.7978 -0.2286 24.4560 7.8107 -8.3281
# 5 7.5502 -0.7628 4.5917 7.8107 30.0250 0.1011
# 6 0.5906 13.2772 1.9141 -8.3281 0.1011 30.6410
#
#
#
# Elastic Compliance Matrix: (Units=1/GPa)
#
#
# Indices 1 2 3 4 5 6 
#
# 1 0.033319 -0.009651 -0.003061 0.006457 -0.009854 0.005518
# 2 -0.009651 0.013967 -0.001952 -0.003673 0.004058 -0.006756
# 3 -0.003061 -0.001952 0.024617 0.000926 -0.003284 -0.000370
# 4 0.006457 -0.003673 0.000926 0.051227 -0.015236 0.015383
# 5 -0.009854 0.004058 -0.003284 -0.015236 0.040371 -0.005638
# 6 0.005518 -0.006756 -0.000370 0.015383 -0.005638 0.039680
#
#
# Mechanical properties :
#
#
# Convention : Reuss Voigt Hill
#
# Bulk Modulus (GPa) = 23.48784 30.74218 27.11501
# Shear Modulus (GPa) = 20.26760 26.07739 23.17250
#
# Velocity S-wave (km/s) = 3.18128 3.60855 3.40163
# Velocity P-wave (km/s) = 5.02221 5.71954 5.38218
#
# Compressibility (1/GPa) = 0.04257522
#
# Stress axis : x y z
#
# Youngs Moduli (GPa) = 30.01295 71.59946 40.62266
#
# Poissons Ratio (x) = 0.69097 0.12434
# Poissons Ratio (y) = 0.28964 0.07930
# Poissons Ratio (z) = 0.09186 0.13978
#
# Static dielectric constant tensor:
#      x y z
#    x 3.629740 -0.242090 0.322220 
#    y -0.242090 7.264270 -2.342760 
#    z 0.322220 -2.342760 4.843250 
# 
# 
# High freq. dielectric constant tensor:
#      x y z
#    x 1.773830 0.008760 0.002740 
#    y 0.008760 1.799590 -0.009560 
#    z 0.002740 -0.009560 1.766830 
# 
# From -- ./inp_files/180079.got.cif
#   From: 2010.06.25/outbox.cif.g09.slc.cpg/sg2_91_cif.got.tgz:180079.got - 2010.06.27 13:26:56.
