data_PCOD8038989
_publ_section_title
;
Structure prediction by ZEFSAII (Michael W. Deem and Ramdas Pophale) SiO2 
 PCOD8038989
Probable space group: P -1
;
_chemical_formula_sum "Si O2"
_cell_formula_units_Z 16
_cell_length_a 12.430817
_cell_length_b 16.398918
_cell_length_c 13.939493
_cell_angle_alpha 16.803300
_cell_angle_beta 75.709245
_cell_angle_gamma 74.810971
_cell_volume 792.690305
_symmetry_space_group_name_H-M "P -1"
_symmetry_group_IT_number 2
_symmetry_cell_setting 'triclinic'
loop_
_space_group_symop_operation_xyz
x,y,z
-x,-y,-z
loop_
_atom_site_type_symbol
_atom_site_label
_atom_site_fract_x
_atom_site_fract_y
_atom_site_fract_z
Si Si1 0.565412 0.632592 0.251855
Si Si2 0.663370 0.182558 0.405792
Si Si3 0.052681 0.908184 0.359124
Si Si4 0.660629 0.559030 0.802303
Si Si5 0.305228 0.844285 0.352059
Si Si6 0.089384 0.530038 0.169670
Si Si7 0.098809 0.788195 0.686452
Si Si8 0.462507 0.843426 0.846892
O O1 0.500000 0.500000 0.500000
O O2 0.663448 0.411405 0.439239
O O3 0.476194 0.728124 0.081540
O O4 0.624138 0.896948 0.982275
O O5 0.658269 0.271477 0.419152
O O6 0.789588 0.044584 0.516551
O O7 0.577997 0.951986 0.660209
O O8 0.647148 0.453003 0.034064
O O9 0.174867 0.954265 0.239677
O O10 0.079413 0.701155 0.678835
O O11 0.978713 0.742774 0.486558
O O12 0.981378 0.200668 0.072169
O O13 0.781979 0.496855 0.793864
O O14 0.632984 0.896168 0.428278
O O15 0.570170 0.410921 0.926338
O O16 0.103235 0.528601 0.051874
O O17 0.000000 0.000000 0.500000
#
# Coordination Sequence:
#
# PCOD8038989 Si02
#       8
#     2   2   2   2   2   2   2   2
#     4  11  23  41  61  84 108 135 179 236 287 334
#     4   9  19  33  52  79 117 151 183 220 260 320
#     4  10  18  32  51  76 108 140 179 225 264 312
#     4  11  22  35  53  80 116 156 189 214 255 318
#     4  10  21  36  58  87 112 142 180 226 282 329
#     4  10  19  31  48  74 107 149 184 215 254 307
#     4   8  16  29  46  71 105 146 186 219 256 302
#     4  11  22  37  54  79 108 147 188 227 270 322
#
# _framework density 20.184428
#
# number of rings (size 3 to 8) (size 9 to 14) (size 15 to 20)
#    0.000    2.000    0.000    4.500    0.000    3.000 
#    0.000   12.500    0.000    0.000    0.000   17.500 
#    0.000    0.000    0.000    0.000    0.000    0.000 
#
# Total GULP energy -198250.162101 kJ/mol
# GULP energy per Si atom -12390.635131 kJ/mol
# Density = 2.013849 g / cm^3
# Si number density = 20.184428 Si / 1000 Ang^3
#
#
#
# Elastic Constant Matrix: (Units=GPa)
#
#
# Indices 1 2 3 4 5 6 
#
# 1 127.9590 21.8863 27.6199 5.5645 -11.2058 -9.0463
# 2 21.8863 47.0084 28.6992 0.0767 -2.0842 -9.5361
# 3 27.6199 28.6992 80.4749 4.8091 -5.7489 -4.1769
# 4 5.5645 0.0767 4.8091 30.3687 0.5851 -6.3420
# 5 -11.2058 -2.0842 -5.7489 0.5851 23.1285 -10.9871
# 6 -9.0463 -9.5361 -4.1769 -6.3420 -10.9871 26.9287
#
#
#
# Elastic Compliance Matrix: (Units=1/GPa)
#
#
# Indices 1 2 3 4 5 6 
#
# 1 0.009439 -0.002133 -0.001775 -0.000626 0.006081 0.004474
# 2 -0.002133 0.030611 -0.009492 0.004141 0.004756 0.011567
# 3 -0.001775 -0.009492 0.016649 -0.002575 0.001919 -0.001199
# 4 -0.000626 0.004141 -0.002575 0.035610 0.003622 0.010721
# 5 0.006081 0.004756 0.001919 0.003622 0.061170 0.029835
# 6 0.004474 0.011567 -0.001199 0.010721 0.029835 0.057246
#
#
# Mechanical properties :
#
#
# Convention : Reuss Voigt Hill
#
# Bulk Modulus (GPa) = 33.44478 45.76144 39.60311
# Shear Modulus (GPa) = 20.20269 27.90097 24.05183
#
# Velocity S-wave (km/s) = 3.16714 3.72197 3.45571
# Velocity P-wave (km/s) = 5.47539 6.41807 5.96538
#
# Compressibility (1/GPa) = 0.02990004
#
# Stress axis : x y z
#
# Youngs Moduli (GPa) = 105.94383 32.66758 60.06294
#
# Poissons Ratio (x) = 0.06967 0.10661
# Poissons Ratio (y) = 0.22595 0.57012
# Poissons Ratio (z) = 0.18804 0.31008
#
# Static dielectric constant tensor:
#      x y z
#    x 4.403600 0.645080 0.562940 
#    y 0.645080 4.450400 1.200070 
#    z 0.562940 1.200070 4.452980 
# 
# 
# High freq. dielectric constant tensor:
#      x y z
#    x 1.814160 -0.010330 -0.008930 
#    y -0.010330 1.753020 -0.023770 
#    z -0.008930 -0.023770 1.760800 
# 
# From -- ./inp_files/80193.got.cif
#   From: 2010.06.25/outbox.cif.g09.slc.cpg/sg2_41_cif.got.tgz:80193.got - 2010.06.27 13:26:56.
