data_PCOD8038515
_publ_section_title
;
Structure prediction by ZEFSAII (Michael W. Deem and Ramdas Pophale) SiO2 
 PCOD8038515
Probable space group: P -1
;
_chemical_formula_sum "Si O2"
_cell_formula_units_Z 16
_cell_length_a 11.442061
_cell_length_b 26.027173
_cell_length_c 8.680948
_cell_angle_alpha 149.677950
_cell_angle_beta 40.840511
_cell_angle_gamma 146.469953
_cell_volume 714.582029
_symmetry_space_group_name_H-M "P -1"
_symmetry_group_IT_number 2
_symmetry_cell_setting 'triclinic'
loop_
_space_group_symop_operation_xyz
x,y,z
-x,-y,-z
loop_
_atom_site_type_symbol
_atom_site_label
_atom_site_fract_x
_atom_site_fract_y
_atom_site_fract_z
Si Si1 0.831535 0.063425 0.674462
Si Si2 0.575483 0.522225 0.806905
Si Si3 0.447001 0.693287 0.241200
Si Si4 0.050888 0.700840 0.705723
Si Si5 0.484652 0.897950 0.355884
Si Si6 0.077400 0.827119 0.700636
Si Si7 0.224233 0.069694 0.303628
Si Si8 0.382196 0.269493 0.179774
O O1 0.055167 0.095476 0.459176
O O2 0.619183 0.960418 0.537697
O O3 0.854768 0.014676 0.686270
O O4 0.823639 0.183586 0.005300
O O5 0.503183 0.400054 0.472752
O O6 0.831949 0.599333 0.742094
O O7 0.500000 0.500000 0.000000
O O8 0.467368 0.583547 0.988516
O O9 0.198573 0.650299 0.384033
O O10 0.564687 0.802256 0.530740
O O11 0.540028 0.730321 0.071890
O O12 0.991266 0.749618 0.742384
O O13 0.235187 0.797216 0.381779
O O14 0.500000 0.000000 0.500000
O O15 0.571396 0.818364 0.992663
O O16 0.869824 0.789000 0.710463
O O17 0.236068 0.976262 0.935613
#
# Coordination Sequence:
#
# PCOD8038515 Si02
#       8
#     2   2   2   2   2   2   2   2
#     4  10  18  38  65 103 138 170 221 274 345 412
#     4  12  30  48  67  99 139 186 239 294 355 405
#     4  12  22  44  76 105 134 182 235 294 337 417
#     4  11  23  41  77 102 132 181 236 288 344 409
#     4  12  26  42  66 108 147 180 221 286 357 420
#     4  11  22  41  71 107 137 181 227 284 350 417
#     4  10  17  36  73 101 134 172 220 283 337 410
#     4  12  25  47  71  99 141 186 242 284 341 421
#
# _framework density 22.390711
#
# number of rings (size 3 to 8) (size 9 to 14) (size 15 to 20)
#    0.000    0.750    6.250    1.875    0.000    7.500 
#    0.000    0.000    0.000    0.000    0.000    0.000 
#    0.000    0.000    0.000    0.000    0.000    0.000 
#
# Total GULP energy -198238.213486 kJ/mol
# GULP energy per Si atom -12389.888343 kJ/mol
# Density = 2.233975 g / cm^3
# Si number density = 22.390711 Si / 1000 Ang^3
#
#
#
# Elastic Constant Matrix: (Units=GPa)
#
#
# Indices 1 2 3 4 5 6 
#
# 1 82.2962 46.0692 45.8456 -2.5440 -33.3292 15.7362
# 2 46.0692 111.1804 49.9823 0.0004 -11.0134 21.5749
# 3 45.8456 49.9823 111.8182 21.5679 -19.3187 22.8539
# 4 -2.5440 0.0004 21.5679 40.9386 2.4966 -11.6772
# 5 -33.3292 -11.0134 -19.3187 2.4966 34.1983 -5.0893
# 6 15.7362 21.5749 22.8539 -11.6772 -5.0893 32.4376
#
#
#
# Elastic Compliance Matrix: (Units=1/GPa)
#
#
# Indices 1 2 3 4 5 6 
#
# 1 0.027907 -0.007023 -0.004801 0.002612 0.021868 -0.001113
# 2 -0.007023 0.013701 -0.003424 0.000567 -0.004984 -0.003871
# 3 -0.004801 -0.003424 0.018342 -0.013812 0.003697 -0.012709
# 4 0.002612 0.000567 -0.013812 0.038169 -0.004722 0.021086
# 5 0.021868 -0.004984 0.003697 -0.004722 0.050842 -0.003621
# 6 -0.001113 -0.003871 -0.012709 0.021086 -0.003621 0.049920
#
#
# Mechanical properties :
#
#
# Convention : Reuss Voigt Hill
#
# Bulk Modulus (GPa) = 33.95095 65.45435 49.70265
# Shear Modulus (GPa) = 20.90329 32.40808 26.65568
#
# Velocity S-wave (km/s) = 3.05875 3.80858 3.45408
# Velocity P-wave (km/s) = 5.26028 6.97400 6.17686
#
# Compressibility (1/GPa) = 0.02945425
#
# Stress axis : x y z
#
# Youngs Moduli (GPa) = 35.83312 72.98489 54.51826
#
# Poissons Ratio (x) = 0.51259 0.26174
# Poissons Ratio (y) = 0.25166 0.18668
# Poissons Ratio (z) = 0.17203 0.24992
#
# Static dielectric constant tensor:
#      x y z
#    x 3.624520 -0.180090 -0.218670 
#    y -0.180090 3.624160 0.045890 
#    z -0.218670 0.045890 4.380750 
# 
# 
# High freq. dielectric constant tensor:
#      x y z
#    x 1.875910 0.015310 -0.023680 
#    y 0.015310 1.868390 -0.002740 
#    z -0.023680 -0.002740 1.889530 
# 
# From -- ./inp_files/285869.got.cif
#   From: 2010.06.25/outbox.cif.g09.slc.cpg/sg2_143_cif.got.tgz:285869.got - 2010.06.27 13:26:56.
