data_PCOD8038765
_publ_section_title
;
Structure prediction by ZEFSAII (Michael W. Deem and Ramdas Pophale) SiO2 
 PCOD8038765
Probable space group: P -1
;
_chemical_formula_sum "Si O2"
_cell_formula_units_Z 16
_cell_length_a 18.387941
_cell_length_b 8.954650
_cell_length_c 11.619230
_cell_angle_alpha 78.338768
_cell_angle_beta 113.772778
_cell_angle_gamma 148.067736
_cell_volume 886.487372
_symmetry_space_group_name_H-M "P -1"
_symmetry_group_IT_number 2
_symmetry_cell_setting 'triclinic'
loop_
_space_group_symop_operation_xyz
x,y,z
-x,-y,-z
loop_
_atom_site_type_symbol
_atom_site_label
_atom_site_fract_x
_atom_site_fract_y
_atom_site_fract_z
Si Si1 0.233615 0.923452 0.127655
Si Si2 0.807099 0.825501 0.828658
Si Si3 0.488018 0.125445 0.320259
Si Si4 0.028545 0.223390 0.404436
Si Si5 0.968407 0.277758 0.148480
Si Si6 0.113929 0.191591 0.902004
Si Si7 0.794295 0.585264 0.319430
Si Si8 0.690974 0.447152 0.611274
O O1 0.114463 0.598413 0.138229
O O2 0.227640 0.054685 0.191147
O O3 0.403552 0.131999 0.207920
O O4 0.188750 0.904580 0.972141
O O5 0.713440 0.620310 0.689296
O O6 0.766659 0.655872 0.942934
O O7 0.990121 0.109333 0.881859
O O8 0.616886 0.282472 0.288100
O O9 0.562022 0.293244 0.463598
O O10 0.365579 0.791589 0.315877
O O11 0.106395 0.384241 0.554510
O O12 0.153667 0.334925 0.391599
O O13 0.982124 0.302714 0.293560
O O14 0.872208 0.868992 0.372714
O O15 0.973258 0.106650 0.144847
O O16 0.199610 0.413218 0.815039
#
# Coordination Sequence:
#
# PCOD8038765 Si02
#       8
#     2   2   2   2   2   2   2   2
#     4  10  19  29  49  80 104 129 165 206 256 293
#     4  10  18  30  52  74 103 132 165 210 244 299
#     4  10  20  32  51  79 100 130 168 210 249 294
#     4   9  15  30  54  76  93 126 176 213 232 280
#     4   9  16  31  51  73  99 129 173 209 230 288
#     4   9  17  32  52  77  96 130 177 205 242 289
#     4   9  17  29  53  79  96 125 172 215 239 286
#     4  10  18  33  54  74  99 134 172 208 241 289
#
# _framework density 18.048763999999998
#
# number of rings (size 3 to 8) (size 9 to 14) (size 15 to 20)
#    0.000    2.500    3.750    0.000    0.000    0.500 
#    0.000    6.250    0.000    3.750    0.000    0.000 
#    0.000    0.000    0.000    0.000    0.000    0.000 
#
# Total GULP energy -198219.151518 kJ/mol
# GULP energy per Si atom -12388.696970 kJ/mol
# Density = 1.800768 g / cm^3
# Si number density = 18.048764 Si / 1000 Ang^3
#
#
#
# Elastic Constant Matrix: (Units=GPa)
#
#
# Indices 1 2 3 4 5 6 
#
# 1 42.6488 14.0145 29.5153 -2.7178 10.5143 0.0790
# 2 14.0145 53.4098 20.8412 -9.6468 -0.5254 3.8286
# 3 29.5153 20.8412 121.9286 -18.9373 11.2007 0.1345
# 4 -2.7178 -9.6468 -18.9373 31.4524 2.1583 -2.8220
# 5 10.5143 -0.5254 11.2007 2.1583 31.8896 -0.5431
# 6 0.0790 3.8286 0.1345 -2.8220 -0.5431 14.9047
#
#
#
# Elastic Compliance Matrix: (Units=1/GPa)
#
#
# Indices 1 2 3 4 5 6 
#
# 1 0.031730 -0.006473 -0.006181 -0.002328 -0.008226 0.000810
# 2 -0.006473 0.022311 -0.001778 0.004603 0.002735 -0.004710
# 3 -0.006181 -0.001778 0.011126 0.005903 -0.002274 0.001424
# 4 -0.002328 0.004603 0.005903 0.037322 -0.003659 0.005710
# 5 -0.008226 0.002735 -0.002274 -0.003659 0.035161 -0.000050
# 6 0.000810 -0.004710 0.001424 0.005710 -0.000050 0.069365
#
#
# Mechanical properties :
#
#
# Convention : Reuss Voigt Hill
#
# Bulk Modulus (GPa) = 27.54605 38.52546 33.03575
# Shear Modulus (GPa) = 20.16274 25.89041 23.02657
#
# Velocity S-wave (km/s) = 3.34597 3.79155 3.57571
# Velocity P-wave (km/s) = 5.49750 6.36862 5.94903
#
# Compressibility (1/GPa) = 0.03630285
#
# Stress axis : x y z
#
# Youngs Moduli (GPa) = 31.51542 44.82015 89.87995
#
# Poissons Ratio (x) = 0.29014 0.55558
# Poissons Ratio (y) = 0.20401 0.15978
# Poissons Ratio (z) = 0.19481 0.07968
#
# Static dielectric constant tensor:
#      x y z
#    x 2.882640 0.015160 0.136220 
#    y 0.015160 3.156900 -0.223570 
#    z 0.136220 -0.223570 4.140690 
# 
# 
# High freq. dielectric constant tensor:
#      x y z
#    x 1.643300 0.003290 0.013920 
#    y 0.003290 1.680220 -0.010190 
#    z 0.013920 -0.010190 1.728730 
# 
# From -- ./inp_files/238949.got.cif
#   From: 2010.06.25/outbox.cif.g09.slc.cpg/sg2_120_cif.got.tgz:238949.got - 2010.06.27 13:26:56.
