data_PCOD8038931
_publ_section_title
;
Structure prediction by ZEFSAII (Michael W. Deem and Ramdas Pophale) SiO2 
 PCOD8038931
Probable space group: P -1
;
_chemical_formula_sum "Si O2"
_cell_formula_units_Z 16
_cell_length_a 11.867264
_cell_length_b 11.790793
_cell_length_c 19.674411
_cell_angle_alpha 142.450180
_cell_angle_beta 29.856999
_cell_angle_gamma 125.920331
_cell_volume 787.687217
_symmetry_space_group_name_H-M "P -1"
_symmetry_group_IT_number 2
_symmetry_cell_setting 'triclinic'
loop_
_space_group_symop_operation_xyz
x,y,z
-x,-y,-z
loop_
_atom_site_type_symbol
_atom_site_label
_atom_site_fract_x
_atom_site_fract_y
_atom_site_fract_z
Si Si1 0.374083 0.666188 0.053625
Si Si2 0.154782 0.206458 0.903294
Si Si3 0.227789 0.350033 0.065248
Si Si4 0.380580 0.690354 0.321984
Si Si5 0.336521 0.461514 0.666166
Si Si6 0.380451 0.863719 0.537019
Si Si7 0.745975 0.612853 0.478536
Si Si8 0.050163 0.067992 0.432350
O O1 0.243436 0.531768 0.096416
O O2 0.179248 0.869852 0.226173
O O3 0.535509 0.738705 0.056667
O O4 0.542369 0.543921 0.846258
O O5 0.374088 0.261971 0.784242
O O6 0.166352 0.999770 0.762951
O O7 0.195656 0.180897 0.951687
O O8 0.903138 0.377233 0.102494
O O9 0.994742 0.432315 0.274041
O O10 0.274366 0.745919 0.480341
O O11 0.195840 0.808311 0.417086
O O12 0.415135 0.287475 0.596635
O O13 0.534721 0.567713 0.606819
O O14 0.301251 0.365369 0.567425
O O15 0.500000 0.000000 0.500000
O O16 0.772265 0.806400 0.591526
O O17 0.000000 0.000000 0.500000
#
# Coordination Sequence:
#
# PCOD8038931 Si02
#       8
#     2   2   2   2   2   2   2   2
#     4  10  18  31  55  88 120 148 183 250 297 344
#     4   9  20  36  60  87 117 156 199 245 291 353
#     4   9  16  33  54  87 121 144 190 241 305 338
#     4  10  22  36  55  93 119 147 199 247 303 338
#     4  10  23  42  58  86 126 160 196 240 297 357
#     4  10  23  39  63  85 116 162 203 247 286 350
#     4  10  21  39  60  88 126 159 189 245 303 351
#     4  12  21  33  62  91 119 152 196 250 294 351
#
# _framework density 20.312631
#
# number of rings (size 3 to 8) (size 9 to 14) (size 15 to 20)
#    0.000    2.000    2.500    1.500    5.250    3.000 
#    2.250    2.500    0.000    1.500    0.000    0.000 
#    0.000    0.000    0.000    0.000    0.000    0.000 
#
# Total GULP energy -198266.595349 kJ/mol
# GULP energy per Si atom -12391.662209 kJ/mol
# Density = 2.026640 g / cm^3
# Si number density = 20.312631 Si / 1000 Ang^3
#
#
#
# Elastic Constant Matrix: (Units=GPa)
#
#
# Indices 1 2 3 4 5 6 
#
# 1 92.3758 33.7617 70.8331 5.3157 14.2109 3.8047
# 2 33.7617 54.5788 39.4350 -1.1825 -5.9317 5.7573
# 3 70.8331 39.4350 164.8169 21.7081 16.1784 8.8222
# 4 5.3157 -1.1825 21.7081 21.1497 12.7313 -4.1499
# 5 14.2109 -5.9317 16.1784 12.7313 39.1884 6.3490
# 6 3.8047 5.7573 8.8222 -4.1499 6.3490 17.0022
#
#
#
# Elastic Compliance Matrix: (Units=1/GPa)
#
#
# Indices 1 2 3 4 5 6 
#
# 1 0.020490 -0.009194 -0.007339 0.009798 -0.010368 0.008599
# 2 -0.009194 0.028641 -0.003227 -0.001608 0.011234 -0.010554
# 3 -0.007339 -0.003227 0.011976 -0.014089 0.003115 -0.008081
# 4 0.009798 -0.001608 -0.014089 0.086221 -0.032270 0.038758
# 5 -0.010368 0.011234 0.003115 -0.032270 0.044655 -0.027652
# 6 0.008599 -0.010554 -0.008081 0.038758 -0.027652 0.084444
#
#
# Mechanical properties :
#
#
# Convention : Reuss Voigt Hill
#
# Bulk Modulus (GPa) = 46.32647 66.64792 56.48720
# Shear Modulus (GPa) = 15.47299 26.65085 21.06192
#
# Velocity S-wave (km/s) = 2.76296 3.62613 3.22357
# Velocity P-wave (km/s) = 5.74760 7.10029 6.45945
#
# Compressibility (1/GPa) = 0.02158593
#
# Stress axis : x y z
#
# Youngs Moduli (GPa) = 48.80360 34.91554 83.49852
#
# Poissons Ratio (x) = 0.32100 0.61283
# Poissons Ratio (y) = 0.44869 0.26949
# Poissons Ratio (z) = 0.35819 0.11269
#
# Static dielectric constant tensor:
#      x y z
#    x 4.312890 0.284190 0.493680 
#    y 0.284190 3.233270 0.128820 
#    z 0.493680 0.128820 4.332880 
# 
# 
# High freq. dielectric constant tensor:
#      x y z
#    x 1.793660 0.022600 0.007700 
#    y 0.022600 1.735500 0.007980 
#    z 0.007700 0.007980 1.811790 
# 
# From -- ./inp_files/595120.got.cif
#   From: 2010.06.25/outbox.cif.g09.slc.cpg/sg2_298_cif.got.tgz:595120.got - 2010.06.27 13:26:56.
