data_PCOD8038091
_publ_section_title
;
Structure prediction by ZEFSAII (Michael W. Deem and Ramdas Pophale) SiO2 
 PCOD8038091
Probable space group: P -1
;
_chemical_formula_sum "Si O2"
_cell_formula_units_Z 16
_cell_length_a 28.275289
_cell_length_b 15.258464
_cell_length_c 9.470254
_cell_angle_alpha 132.046864
_cell_angle_beta 151.873971
_cell_angle_gamma 28.721444
_cell_volume 822.987847
_symmetry_space_group_name_H-M "P -1"
_symmetry_group_IT_number 2
_symmetry_cell_setting 'triclinic'
loop_
_space_group_symop_operation_xyz
x,y,z
-x,-y,-z
loop_
_atom_site_type_symbol
_atom_site_label
_atom_site_fract_x
_atom_site_fract_y
_atom_site_fract_z
Si Si1 0.724715 0.636279 0.886962
Si Si2 0.461901 0.965213 0.218482
Si Si3 0.401687 0.780967 0.185676
Si Si4 0.092468 0.703992 0.792736
Si Si5 0.927653 0.750879 0.147427
Si Si6 0.284303 0.888107 0.692785
Si Si7 0.840142 0.577447 0.821105
Si Si8 0.580886 0.440229 0.496431
O O1 0.576471 0.684838 0.511239
O O2 0.837653 0.545319 0.944222
O O3 0.639279 0.842494 0.938734
O O4 0.846270 0.472741 0.155481
O O5 0.652345 0.742225 0.424618
O O6 0.500000 0.000000 0.500000
O O7 0.337579 0.973871 0.922909
O O8 0.436192 0.644341 0.240774
O O9 0.340437 0.781210 0.877300
O O10 0.254443 0.009690 0.107269
O O11 0.046115 0.717287 0.524313
O O12 0.241992 0.657196 0.134037
O O13 0.924627 0.918584 0.663244
O O14 0.024613 0.639269 0.133747
O O15 0.898015 0.656823 0.047955
O O16 0.376315 0.728601 0.638114
O O17 0.500000 0.500000 0.500000
#
# Coordination Sequence:
#
# PCOD8038091 Si02
#       8
#     2   2   2   2   2   2   2   2
#     4  10  18  35  60  89 114 154 186 236 280 349
#     4  10  17  33  63  89 115 143 195 233 279 345
#     4  10  19  40  62  82 111 154 203 232 281 347
#     4  10  23  39  59  84 121 147 194 240 290 336
#     4  10  21  36  58  90 120 155 179 244 290 339
#     4  11  21  39  64  85 111 158 198 235 279 343
#     4  10  19  33  60  90 124 144 196 227 288 351
#     4  11  26  41  58  83 120 153 193 246 294 337
#
# _framework density 19.441355999999999
#
# number of rings (size 3 to 8) (size 9 to 14) (size 15 to 20)
#    0.000    1.750    3.750    3.000    1.750    3.000 
#    0.000    4.375    0.000    0.000    0.000    0.000 
#    0.000    0.000    0.000    0.000    0.000    0.000 
#
# Total GULP energy -198393.499458 kJ/mol
# GULP energy per Si atom -12399.593716 kJ/mol
# Density = 1.939711 g / cm^3
# Si number density = 19.441356 Si / 1000 Ang^3
#
#
#
# Elastic Constant Matrix: (Units=GPa)
#
#
# Indices 1 2 3 4 5 6 
#
# 1 89.8002 44.6907 29.6272 -1.8179 9.0380 0.5688
# 2 44.6907 115.3589 35.6242 -1.3694 -0.5368 -10.0898
# 3 29.6272 35.6242 79.0563 -8.3221 2.8061 1.9636
# 4 -1.8179 -1.3694 -8.3221 27.5512 -0.3402 1.0101
# 5 9.0380 -0.5368 2.8061 -0.3402 19.8919 -6.5967
# 6 0.5688 -10.0898 1.9636 1.0101 -6.5967 34.9457
#
#
#
# Elastic Compliance Matrix: (Units=1/GPa)
#
#
# Indices 1 2 3 4 5 6 
#
# 1 0.015663 -0.005428 -0.003083 -0.000150 -0.007869 -0.003130
# 2 -0.005428 0.012436 -0.003978 -0.001059 0.004960 0.004870
# 3 -0.003083 -0.003978 0.016200 0.004561 -0.001732 -0.002468
# 4 -0.000150 -0.001059 0.004561 0.037669 -0.000540 -0.001750
# 5 -0.007869 0.004960 -0.001732 -0.000540 0.058429 0.012703
# 6 -0.003130 0.004870 -0.002468 -0.001750 0.012703 0.032660
#
#
# Mechanical properties :
#
#
# Convention : Reuss Voigt Hill
#
# Bulk Modulus (GPa) = 51.75591 56.01105 53.88348
# Shear Modulus (GPa) = 24.45279 28.09597 26.27438
#
# Velocity S-wave (km/s) = 3.55036 3.80566 3.68022
# Velocity P-wave (km/s) = 6.59440 6.94143 6.77014
#
# Compressibility (1/GPa) = 0.01932146
#
# Stress axis : x y z
#
# Youngs Moduli (GPa) = 63.84458 80.40862 61.72803
#
# Poissons Ratio (x) = 0.43647 0.19028
# Poissons Ratio (y) = 0.34656 0.24557
# Poissons Ratio (z) = 0.19681 0.31989
#
# Static dielectric constant tensor:
#      x y z
#    x 3.438040 0.049350 0.056240 
#    y 0.049350 3.849230 -0.329190 
#    z 0.056240 -0.329190 3.594720 
# 
# 
# High freq. dielectric constant tensor:
#      x y z
#    x 1.741510 0.002830 0.011160 
#    y 0.002830 1.762190 -0.013330 
#    z 0.011160 -0.013330 1.756880 
# 
# From -- ./inp_files/277466.got.cif
#   From: 2010.06.25/outbox.cif.g09.slc.cpg/sg2_139_cif.got.tgz:277466.got - 2010.06.27 13:26:56.
