data_PCOD8038990
_publ_section_title
;
Structure prediction by ZEFSAII (Michael W. Deem and Ramdas Pophale) SiO2 
 PCOD8038990
Probable space group: P -1
;
_chemical_formula_sum "Si O2"
_cell_formula_units_Z 16
_cell_length_a 8.429842
_cell_length_b 11.998451
_cell_length_c 10.527777
_cell_angle_alpha 71.137323
_cell_angle_beta 111.876093
_cell_angle_gamma 62.153591
_cell_volume 694.939682
_symmetry_space_group_name_H-M "P -1"
_symmetry_group_IT_number 2
_symmetry_cell_setting 'triclinic'
loop_
_space_group_symop_operation_xyz
x,y,z
-x,-y,-z
loop_
_atom_site_type_symbol
_atom_site_label
_atom_site_fract_x
_atom_site_fract_y
_atom_site_fract_z
Si Si1 0.166312 0.747544 0.780481
Si Si2 0.683604 0.555699 0.978171
Si Si3 0.817319 0.248935 0.668218
Si Si4 0.199660 0.004848 0.232656
Si Si5 0.656049 0.823884 0.827891
Si Si6 0.142912 0.115112 0.586957
Si Si7 0.316557 0.233182 0.428507
Si Si8 0.336780 0.482028 0.307134
O O1 0.423542 0.672009 0.905272
O O2 0.039162 0.865345 0.816649
O O3 0.050573 0.849249 0.578846
O O4 0.158832 0.605923 0.832635
O O5 0.772466 0.650877 0.983470
O O6 0.687208 0.504638 0.855501
O O7 0.602527 0.375008 0.465490
O O8 0.820432 0.341268 0.748999
O O9 0.046935 0.158392 0.685371
O O10 0.809553 0.123362 0.781330
O O11 0.252571 0.091901 0.118802
O O12 0.407752 0.907976 0.431243
O O13 0.741745 0.791666 0.718666
O O14 0.381574 0.932364 0.721276
O O15 0.195403 0.221802 0.512319
O O16 0.241021 0.402807 0.360404
#
# Coordination Sequence:
#
# PCOD8038990 Si02
#       8
#     2   2   2   2   2   2   2   2
#     4  11  20  33  51  84 105 130 167 207 274 304
#     4  10  22  34  52  76 111 134 161 217 256 310
#     4  10  20  31  55  75 100 142 174 208 246 297
#     4  10  18  32  51  78 104 131 173 209 254 307
#     4  10  18  33  52  79 107 129 166 219 261 297
#     4  11  18  31  54  83 104 130 167 216 257 304
#     4   9  17  31  51  77 107 127 166 219 254 298
#     4   9  19  36  48  73 107 138 175 203 250 298
#
# _framework density 23.023579999999999
#
# number of rings (size 3 to 8) (size 9 to 14) (size 15 to 20)
#    0.000    2.000    3.750    1.500    0.000    2.000 
#    0.000    0.625    0.000    0.000    0.000    3.500 
#    0.000    0.000    0.000    0.000    0.000    0.000 
#
# Total GULP energy -198251.317285 kJ/mol
# GULP energy per Si atom -12390.707330 kJ/mol
# Density = 2.297118 g / cm^3
# Si number density = 23.023580 Si / 1000 Ang^3
#
#
#
# Elastic Constant Matrix: (Units=GPa)
#
#
# Indices 1 2 3 4 5 6 
#
# 1 79.8585 48.7771 16.3953 -21.0341 -20.2641 8.1013
# 2 48.7771 112.6349 23.9113 -34.7315 -12.5028 17.7478
# 3 16.3953 23.9113 40.7317 -15.8618 -11.7028 -1.0250
# 4 -21.0341 -34.7315 -15.8618 22.2932 5.0493 -8.9429
# 5 -20.2641 -12.5028 -11.7028 5.0493 28.5507 -18.6149
# 6 8.1013 17.7478 -1.0250 -8.9429 -18.6149 38.4308
#
#
#
# Elastic Compliance Matrix: (Units=1/GPa)
#
#
# Indices 1 2 3 4 5 6 
#
# 1 0.024154 -0.005515 0.008756 0.020663 0.023811 0.014031
# 2 -0.005515 0.018630 -0.000613 0.022568 -0.002099 -0.003223
# 3 0.008756 -0.000613 0.051020 0.046682 0.037350 0.028752
# 4 0.020663 0.022568 0.046682 0.138778 0.045854 0.040971
# 5 0.023811 -0.002099 0.037350 0.045854 0.092331 0.052340
# 6 0.014031 -0.003223 0.028752 0.040971 0.052340 0.060204
#
#
# Mechanical properties :
#
#
# Convention : Reuss Voigt Hill
#
# Bulk Modulus (GPa) = 10.09477 45.71027 27.90252
# Shear Modulus (GPa) = 12.11000 27.46438 19.78719
#
# Velocity S-wave (km/s) = 2.29592 3.45756 2.93479
# Velocity P-wave (km/s) = 3.37970 5.98635 4.86101
#
# Compressibility (1/GPa) = 0.09906122
#
# Stress axis : x y z
#
# Youngs Moduli (GPa) = 41.40051 53.67559 19.60026
#
# Poissons Ratio (x) = 0.29602 -0.17162
# Poissons Ratio (y) = 0.22832 0.01201
# Poissons Ratio (z) = -0.36251 0.03289
#
# Static dielectric constant tensor:
#      x y z
#    x 4.325840 0.251580 -0.100060 
#    y 0.251580 4.017640 -0.529870 
#    z -0.100060 -0.529870 3.988620 
# 
# 
# High freq. dielectric constant tensor:
#      x y z
#    x 1.922730 0.011140 0.003050 
#    y 0.011140 1.884850 -0.049970 
#    z 0.003050 -0.049970 1.887680 
# 
# From -- ./inp_files/185889.got.cif
#   From: 2010.06.25/outbox.cif.g09.slc.cpg/sg2_93_cif.got.tgz:185889.got - 2010.06.27 13:26:56.
