data_PCOD8038002
_publ_section_title
;
Structure prediction by ZEFSAII (Michael W. Deem and Ramdas Pophale) SiO2 
 PCOD8038002
Probable space group: P -1
;
_chemical_formula_sum "Si O2"
_cell_formula_units_Z 16
_cell_length_a 11.194140
_cell_length_b 12.019692
_cell_length_c 15.883019
_cell_angle_alpha 152.025608
_cell_angle_beta 69.219449
_cell_angle_gamma 125.350958
_cell_volume 746.381570
_symmetry_space_group_name_H-M "P -1"
_symmetry_group_IT_number 2
_symmetry_cell_setting 'triclinic'
loop_
_space_group_symop_operation_xyz
x,y,z
-x,-y,-z
loop_
_atom_site_type_symbol
_atom_site_label
_atom_site_fract_x
_atom_site_fract_y
_atom_site_fract_z
Si Si1 0.758365 0.606192 0.703169
Si Si2 0.437335 0.762107 0.658409
Si Si3 0.156489 0.095033 0.571825
Si Si4 0.260756 0.016453 0.915825
Si Si5 0.946122 0.705367 0.138613
Si Si6 0.927073 0.379524 0.590968
Si Si7 0.086269 0.027872 0.819743
Si Si8 0.712604 0.781809 0.552228
O O1 0.652691 0.422686 0.526843
O O2 0.787863 0.413344 0.627476
O O3 0.930461 0.895876 0.826014
O O4 0.679106 0.733685 0.860570
O O5 0.405568 0.999221 0.847348
O O6 0.626799 0.928132 0.704769
O O7 0.385248 0.552596 0.612905
O O8 0.293549 0.221619 0.551074
O O9 0.189948 0.349119 0.799201
O O10 0.128488 0.815585 0.440715
O O11 0.000000 0.000000 0.500000
O O12 0.100918 0.695927 0.770395
O O13 0.232442 0.135321 0.917081
O O14 0.881686 0.690792 0.051301
O O15 0.108082 0.040914 0.337784
O O16 0.000000 0.500000 0.000000
O O17 0.942294 0.221024 0.402640
#
# Coordination Sequence:
#
# PCOD8038002 Si02
#       8
#     2   2   2   2   2   2   2   2
#     4  11  20  33  57  89 111 149 192 235 287 327
#     4  11  21  42  57  80 125 149 192 230 275 357
#     4   9  19  35  57  80 105 153 190 220 292 327
#     4  11  20  32  59  90 111 148 187 240 292 326
#     4  10  20  35  60  87 114 141 192 245 276 335
#     4  10  17  33  58  82 118 144 189 244 280 336
#     4  10  17  33  57  83 119 145 186 239 295 319
#     4  10  22  40  59  78 114 164 181 227 295 331
#
# _framework density 21.436758000000001
#
# number of rings (size 3 to 8) (size 9 to 14) (size 15 to 20)
#    0.000    1.750    3.750    3.750    0.000    5.000 
#    2.250    1.875    0.000    1.500    0.000    0.000 
#    0.000    0.000    0.000    0.000    0.000    0.000 
#
# Total GULP energy -198294.963944 kJ/mol
# GULP energy per Si atom -12393.435247 kJ/mol
# Density = 2.138797 g / cm^3
# Si number density = 21.436758 Si / 1000 Ang^3
#
#
#
# Elastic Constant Matrix: (Units=GPa)
#
#
# Indices 1 2 3 4 5 6 
#
# 1 83.8208 47.6328 28.3540 -18.6668 -28.3833 -17.0341
# 2 47.6328 126.2766 35.4130 -26.9126 -19.0092 -29.2311
# 3 28.3540 35.4130 86.8705 -25.0135 -34.0115 -8.8924
# 4 -18.6668 -26.9126 -25.0135 24.5304 5.2425 -6.3186
# 5 -28.3833 -19.0092 -34.0115 5.2425 35.5349 1.6466
# 6 -17.0341 -29.2311 -8.8924 -6.3186 1.6466 43.5795
#
#
#
# Elastic Compliance Matrix: (Units=1/GPa)
#
#
# Indices 1 2 3 4 5 6 
#
# 1 0.029672 0.003074 0.016376 0.040969 0.033971 0.021658
# 2 0.003074 0.018011 0.009006 0.033074 0.014933 0.019351
# 3 0.016376 0.009006 0.041879 0.062158 0.047504 0.028204
# 4 0.040969 0.033074 0.062158 0.173082 0.080996 0.072916
# 5 0.033971 0.014933 0.047504 0.080996 0.094876 0.041147
# 6 0.021658 0.019351 0.028204 0.072916 0.041147 0.059164
#
#
# Mechanical properties :
#
#
# Convention : Reuss Voigt Hill
#
# Bulk Modulus (GPa) = 6.82723 57.75195 32.28959
# Shear Modulus (GPa) = 12.23700 33.10019 22.66859
#
# Velocity S-wave (km/s) = 2.39182 3.93375 3.25539
# Velocity P-wave (km/s) = 3.28930 6.90157 5.40607
#
# Compressibility (1/GPa) = 0.14647232
#
# Stress axis : x y z
#
# Youngs Moduli (GPa) = 33.70133 55.52295 23.87844
#
# Poissons Ratio (x) = -0.17065 -0.39104
# Poissons Ratio (y) = -0.10358 -0.21504
# Poissons Ratio (z) = -0.55190 -0.50002
#
# Static dielectric constant tensor:
#      x y z
#    x 4.130380 -0.159200 -0.359020 
#    y -0.159200 4.251730 -0.557680 
#    z -0.359020 -0.557680 3.942520 
# 
# 
# High freq. dielectric constant tensor:
#      x y z
#    x 1.842740 -0.023250 -0.026670 
#    y -0.023250 1.831400 -0.030100 
#    z -0.026670 -0.030100 1.819970 
# 
# From -- ./inp_files/256803.got.cif
#   From: 2010.06.25/outbox.cif.g09.slc.cpg/sg2_129_cif.got.tgz:256803.got - 2010.06.27 13:26:56.
