data_PCOD8038960
_publ_section_title
;
Structure prediction by ZEFSAII (Michael W. Deem and Ramdas Pophale) SiO2 
 PCOD8038960
Probable space group: P -1
;
_chemical_formula_sum "Si O2"
_cell_formula_units_Z 14
_cell_length_a 7.534007
_cell_length_b 7.580048
_cell_length_c 15.535399
_cell_angle_alpha 112.834537
_cell_angle_beta 93.128276
_cell_angle_gamma 122.323265
_cell_volume 650.671136
_symmetry_space_group_name_H-M "P -1"
_symmetry_group_IT_number 2
_symmetry_cell_setting 'triclinic'
loop_
_space_group_symop_operation_xyz
x,y,z
-x,-y,-z
loop_
_atom_site_type_symbol
_atom_site_label
_atom_site_fract_x
_atom_site_fract_y
_atom_site_fract_z
Si Si1 0.393208 0.360295 0.093613
Si Si2 0.897724 0.070128 0.736819
Si Si3 0.372154 0.948170 0.074456
Si Si4 0.326716 0.226608 0.691860
Si Si5 0.833362 0.568274 0.037860
Si Si6 0.490154 0.436675 0.389402
Si Si7 0.454454 0.933937 0.713264
O O1 0.486462 0.579014 0.201734
O O2 0.588655 0.413876 0.045985
O O3 0.297111 0.121804 0.103265
O O4 0.189939 0.328739 0.031781
O O5 0.091333 0.179572 0.692294
O O6 0.986009 0.205291 0.856083
O O7 0.707175 0.100501 0.710517
O O8 0.766287 0.779943 0.687047
O O9 0.532445 0.013044 0.173490
O O10 0.151385 0.661744 0.017971
O O11 0.500000 0.000000 0.000000
O O12 0.406473 0.318659 0.614531
O O13 0.302158 0.984904 0.666741
O O14 0.500000 0.500000 0.500000
O O15 0.641126 0.343993 0.356773
#
# Coordination Sequence:
#
# PCOD8038960 Si02
#       7
#     2   2   2   2   2   2   2
#     4   9  16  30  54  86 120 169 197 240 305 359
#     4   9  23  42  62  98 125 165 221 250 314 389
#     4  10  18  31  58  89 128 172 202 242 312 362
#     4  11  20  43  69  85 134 168 198 273 319 362
#     4   9  17  31  53  83 128 159 202 246 292 372
#     4  10  24  47  66  93 127 157 218 277 313 378
#     4  10  22  42  60  97 127 162 218 256 309 384
#
# _framework density 21.516245000000001
#
# number of rings (size 3 to 8) (size 9 to 14) (size 15 to 20)
#    0.857    1.429    2.857    0.000    2.000    1.714 
#    5.143    2.143    0.000    0.000    0.000    0.000 
#    0.000    0.000    0.000    0.000    0.000    0.000 
#
# Total GULP energy -173436.391943 kJ/mol
# GULP energy per Si atom -12388.313710 kJ/mol
# Density = 2.146727 g / cm^3
# Si number density = 21.516245 Si / 1000 Ang^3
#
#
#
# Elastic Constant Matrix: (Units=GPa)
#
#
# Indices 1 2 3 4 5 6 
#
# 1 61.6147 26.9787 23.8661 -7.2747 -0.8223 -6.3461
# 2 26.9787 108.6140 38.1117 -11.9338 0.0831 -18.7488
# 3 23.8661 38.1117 104.2502 -13.4743 -14.0680 -2.8322
# 4 -7.2747 -11.9338 -13.4743 36.6741 2.6709 1.6833
# 5 -0.8223 0.0831 -14.0680 2.6709 18.5632 -3.3603
# 6 -6.3461 -18.7488 -2.8322 1.6833 -3.3603 37.4696
#
#
#
# Elastic Compliance Matrix: (Units=1/GPa)
#
#
# Indices 1 2 3 4 5 6 
#
# 1 0.019180 -0.003274 -0.003161 0.001638 -0.001557 0.001158
# 2 -0.003274 0.012420 -0.003721 0.001966 -0.002384 0.005077
# 3 -0.003161 -0.003721 0.013240 0.002368 0.009451 -0.000655
# 4 0.001638 0.001966 0.002368 0.029279 -0.002370 -0.000088
# 5 -0.001557 -0.002384 0.009451 -0.002370 0.062210 0.004943
# 6 0.001158 0.005077 -0.000655 -0.000088 0.004943 0.029822
#
#
# Mechanical properties :
#
#
# Convention : Reuss Voigt Hill
#
# Bulk Modulus (GPa) = 40.76915 50.26579 45.51747
# Shear Modulus (GPa) = 25.68882 30.90954 28.29918
#
# Velocity S-wave (km/s) = 3.45907 3.79432 3.63057
# Velocity P-wave (km/s) = 5.91124 6.52750 6.22700
#
# Compressibility (1/GPa) = 0.02452835
#
# Stress axis : x y z
#
# Youngs Moduli (GPa) = 52.13861 80.51666 75.52962
#
# Poissons Ratio (x) = 0.26360 0.23875
# Poissons Ratio (y) = 0.17069 0.28102
# Poissons Ratio (z) = 0.16481 0.29958
#
# Static dielectric constant tensor:
#      x y z
#    x 3.888320 -0.142030 -0.228620 
#    y -0.142030 4.291660 0.066090 
#    z -0.228620 0.066090 3.647880 
# 
# 
# High freq. dielectric constant tensor:
#      x y z
#    x 1.833100 0.001290 -0.021510 
#    y 0.001290 1.851760 0.003800 
#    z -0.021510 0.003800 1.826890 
# 
# From -- ./inp_files/491275.got.cif
#   From: 2010.06.25/outbox.cif.g09.slc.cpg/sg2_246_cif.got.tgz:491275.got - 2010.06.27 13:26:56.
