data_PCOD8038307
_publ_section_title
;
Structure prediction by ZEFSAII (Michael W. Deem and Ramdas Pophale) SiO2 
 PCOD8038307
Probable space group: P -1
;
_chemical_formula_sum "Si O2"
_cell_formula_units_Z 14
_cell_length_a 12.665033
_cell_length_b 12.063158
_cell_length_c 7.380589
_cell_angle_alpha 86.819227
_cell_angle_beta 132.364887
_cell_angle_gamma 119.872806
_cell_volume 649.735020
_symmetry_space_group_name_H-M "P -1"
_symmetry_group_IT_number 2
_symmetry_cell_setting 'triclinic'
loop_
_space_group_symop_operation_xyz
x,y,z
-x,-y,-z
loop_
_atom_site_type_symbol
_atom_site_label
_atom_site_fract_x
_atom_site_fract_y
_atom_site_fract_z
Si Si1 0.485309 0.202829 0.668067
Si Si2 0.628614 0.302503 0.199358
Si Si3 0.120667 0.569768 0.845248
Si Si4 0.813692 0.590134 0.505690
Si Si5 0.680905 0.661680 0.670753
Si Si6 0.361897 0.925841 0.679696
Si Si7 0.053999 0.291137 0.738229
O O1 0.362378 0.229045 0.413130
O O2 0.419597 0.042470 0.580671
O O3 0.473008 0.224266 0.870332
O O4 0.694620 0.317381 0.835648
O O5 0.829880 0.389251 0.318416
O O6 0.630800 0.422817 0.291044
O O7 0.617817 0.195232 0.341145
O O8 0.061537 0.415409 0.829897
O O9 0.977758 0.588566 0.755277
O O10 0.785740 0.670721 0.613060
O O11 0.857873 0.671161 0.361339
O O12 0.500000 0.500000 0.500000
O O13 0.818119 0.726341 0.992074
O O14 0.153534 0.853497 0.499518
O O15 0.500000 0.000000 0.000000
#
# Coordination Sequence:
#
# PCOD8038307 Si02
#       7
#     2   2   2   2   2   2   2
#     4   9  20  35  56  88 129 158 192 244 303 360
#     4   8  15  31  61  87 113 148 204 241 294 339
#     4   9  16  35  62  90 112 149 207 251 284 347
#     4  11  19  36  67  89 115 155 206 257 294 344
#     4  12  25  39  56  92 129 158 198 248 303 358
#     4  10  17  34  65  91 119 160 194 251 307 345
#     4  11  20  38  64  91 120 156 203 244 303 356
#
# _framework density 21.547246999999999
#
# number of rings (size 3 to 8) (size 9 to 14) (size 15 to 20)
#    0.857    1.143    4.286    0.857    0.000    3.429 
#    0.000    0.714    0.000   11.143    0.000    0.000 
#    0.000    0.000    0.000    0.000    0.000    0.000 
#
# Total GULP energy -173471.046093 kJ/mol
# GULP energy per Si atom -12390.789007 kJ/mol
# Density = 2.149820 g / cm^3
# Si number density = 21.547247 Si / 1000 Ang^3
#
#
#
# Elastic Constant Matrix: (Units=GPa)
#
#
# Indices 1 2 3 4 5 6 
#
# 1 41.4270 2.1802 23.3795 -2.4428 1.0296 5.6000
# 2 2.1802 115.0926 49.7975 -9.9495 12.2621 8.4804
# 3 23.3795 49.7975 125.3730 -16.6014 22.1092 8.0521
# 4 -2.4428 -9.9495 -16.6014 40.0828 -0.3906 6.3452
# 5 1.0296 12.2621 22.1092 -0.3906 17.0533 0.6545
# 6 5.6000 8.4804 8.0521 6.3452 0.6545 11.4791
#
#
#
# Elastic Compliance Matrix: (Units=1/GPa)
#
#
# Indices 1 2 3 4 5 6 
#
# 1 0.029377 0.002819 -0.006353 0.002023 0.004995 -0.013361
# 2 0.002819 0.011415 -0.003508 0.002905 -0.003427 -0.008758
# 3 -0.006353 -0.003508 0.014454 0.005636 -0.015447 -0.006682
# 4 0.002023 0.002905 0.005636 0.031892 -0.007856 -0.024267
# 5 0.004995 -0.003427 -0.015447 -0.007856 0.080239 0.010698
# 6 -0.013361 -0.008758 -0.006682 -0.024267 0.010698 0.117593
#
#
# Mechanical properties :
#
#
# Convention : Reuss Voigt Hill
#
# Bulk Modulus (GPa) = 24.29404 48.06743 36.18073
# Shear Modulus (GPa) = 15.98601 27.49208 21.73905
#
# Velocity S-wave (km/s) = 2.72675 3.57585 3.17977
# Velocity P-wave (km/s) = 4.60573 6.27736 5.50536
#
# Compressibility (1/GPa) = 0.04116237
#
# Stress axis : x y z
#
# Youngs Moduli (GPa) = 34.04029 87.60641 69.18582
#
# Poissons Ratio (x) = -0.24700 0.43953
# Poissons Ratio (y) = -0.09597 0.24271
# Poissons Ratio (z) = 0.21625 0.30733
#
# Static dielectric constant tensor:
#      x y z
#    x 3.268470 0.034130 0.165960 
#    y 0.034130 4.140580 0.026150 
#    z 0.165960 0.026150 3.877030 
# 
# 
# High freq. dielectric constant tensor:
#      x y z
#    x 1.791980 0.002960 0.012850 
#    y 0.002960 1.845090 -0.007170 
#    z 0.012850 -0.007170 1.847550 
# 
# From -- ./inp_files/305203.got.cif
#   From: 2010.06.25/outbox.cif.g09.slc.cpg/sg2_153_cif.got.tgz:305203.got - 2010.06.27 13:26:56.
