data_PCOD8038867
_publ_section_title
;
Structure prediction by ZEFSAII (Michael W. Deem and Ramdas Pophale) SiO2 
 PCOD8038867
Probable space group: P -1
;
_chemical_formula_sum "Si O2"
_cell_formula_units_Z 14
_cell_length_a 12.562420
_cell_length_b 11.942067
_cell_length_c 8.599103
_cell_angle_alpha 77.414021
_cell_angle_beta 91.977459
_cell_angle_gamma 38.768320
_cell_volume 742.976361
_symmetry_space_group_name_H-M "P -1"
_symmetry_group_IT_number 2
_symmetry_cell_setting 'triclinic'
loop_
_space_group_symop_operation_xyz
x,y,z
-x,-y,-z
loop_
_atom_site_type_symbol
_atom_site_label
_atom_site_fract_x
_atom_site_fract_y
_atom_site_fract_z
Si Si1 0.682753 0.021195 0.992905
Si Si2 0.961089 0.165374 0.949736
Si Si3 0.414388 0.254833 0.166563
Si Si4 0.873144 0.374814 0.175387
Si Si5 0.566703 0.572776 0.304147
Si Si6 0.412918 0.462310 0.322694
Si Si7 0.838930 0.712718 0.855054
O O1 0.567835 0.218650 0.840069
O O2 0.720529 0.879119 0.930112
O O3 0.586066 0.063032 0.133753
O O4 0.872355 0.909318 0.088126
O O5 0.798234 0.338299 0.775746
O O6 0.926263 0.224458 0.110776
O O7 0.000000 0.000000 0.000000
O O8 0.481641 0.294137 0.276585
O O9 0.308919 0.240835 0.252950
O O10 0.269548 0.424399 0.984161
O O11 0.775139 0.413747 0.313517
O O12 0.057733 0.285545 0.252922
O O13 0.515803 0.488928 0.268673
O O14 0.547918 0.600457 0.478532
O O15 0.000000 0.500000 0.000000
#
# Coordination Sequence:
#
# PCOD8038867 Si02
#       7
#     2   2   2   2   2   2   2
#     4  10  19  32  57  81 103 135 176 218 255 314
#     4  10  18  31  51  79 103 132 175 212 253 304
#     4   9  18  32  55  78 102 137 179 215 254 307
#     4   8  18  31  53  74 104 139 169 215 260 306
#     4  10  20  36  52  77 108 143 175 207 268 308
#     4  10  21  35  52  76 113 141 168 218 258 312
#     4   9  17  34  54  81 105 131 173 223 264 300
#
# _framework density 18.843129999999999
#
# number of rings (size 3 to 8) (size 9 to 14) (size 15 to 20)
#    0.000    2.571    1.429    1.286    2.000    1.714 
#    0.000    5.000    0.000    0.000    0.000    0.000 
#    0.000    0.000    0.000    0.000    0.000    0.000 
#
# Total GULP energy -173475.913298 kJ/mol
# GULP energy per Si atom -12391.136664 kJ/mol
# Density = 1.880024 g / cm^3
# Si number density = 18.843130 Si / 1000 Ang^3
#
#
#
# Elastic Constant Matrix: (Units=GPa)
#
#
# Indices 1 2 3 4 5 6 
#
# 1 140.1775 57.2653 29.6535 18.2179 0.5141 -4.1987
# 2 57.2653 103.6518 13.8975 20.4849 -2.6257 -6.1469
# 3 29.6535 13.8975 41.1480 6.0380 -0.2504 -5.1964
# 4 18.2179 20.4849 6.0380 18.4868 -1.3909 -0.8121
# 5 0.5141 -2.6257 -0.2504 -1.3909 16.9628 8.9470
# 6 -4.1987 -6.1469 -5.1964 -0.8121 8.9470 30.1548
#
#
#
# Elastic Compliance Matrix: (Units=1/GPa)
#
#
# Indices 1 2 3 4 5 6 
#
# 1 0.010622 -0.004388 -0.005623 -0.003874 -0.001356 -0.000087
# 2 -0.004388 0.014473 0.000236 -0.011675 0.000391 0.001949
# 3 -0.005623 0.000236 0.029516 -0.004318 -0.002306 0.004919
# 4 -0.003874 -0.011675 -0.004318 0.072558 0.006043 -0.003502
# 5 -0.001356 0.000391 -0.002306 0.006043 0.070773 -0.021342
# 6 -0.000087 0.001949 0.004919 -0.003502 -0.021342 0.040633
#
#
# Mechanical properties :
#
#
# Convention : Reuss Voigt Hill
#
# Bulk Modulus (GPa) = 28.52252 54.06775 41.29513
# Shear Modulus (GPa) = 18.53131 25.39829 21.96480
#
# Velocity S-wave (km/s) = 3.13941 3.67533 3.41789
# Velocity P-wave (km/s) = 5.32079 6.83862 6.12689
#
# Compressibility (1/GPa) = 0.03506002
#
# Stress axis : x y z
#
# Youngs Moduli (GPa) = 94.14456 69.09233 33.87975
#
# Poissons Ratio (x) = 0.30320 0.19052
# Poissons Ratio (y) = 0.41313 -0.00799
# Poissons Ratio (z) = 0.52941 -0.01630
#
# Static dielectric constant tensor:
#      x y z
#    x 4.149610 -0.179320 -0.089640 
#    y -0.179320 3.679170 0.117800 
#    z -0.089640 0.117800 2.953120 
# 
# 
# High freq. dielectric constant tensor:
#      x y z
#    x 1.758110 -0.003280 0.002090 
#    y -0.003280 1.743000 0.008960 
#    z 0.002090 0.008960 1.672610 
# 
# From -- ./inp_files/168896.got.cif
#   From: 2010.06.25/outbox.cif.g09.slc.cpg/sg2_85_cif.got.tgz:168896.got - 2010.06.27 13:26:56.
