data_PCOD8038279
_publ_section_title
;
Structure prediction by ZEFSAII (Michael W. Deem and Ramdas Pophale) SiO2 
 PCOD8038279
Probable space group: P -1
;
_chemical_formula_sum "Si O2"
_cell_formula_units_Z 16
_cell_length_a 9.000000
_cell_length_b 9.000000
_cell_length_c 21.000000
_cell_angle_alpha 120.000000
_cell_angle_beta 50.000000
_cell_angle_gamma 80.000000
_cell_volume 751.240448
_symmetry_space_group_name_H-M "P -1"
_symmetry_group_IT_number 2
_symmetry_cell_setting 'triclinic'
loop_
_space_group_symop_operation_xyz
x,y,z
-x,-y,-z
loop_
_atom_site_type_symbol
_atom_site_label
_atom_site_fract_x
_atom_site_fract_y
_atom_site_fract_z
Si Si1 0.251573 0.612103 0.831567
Si Si2 0.737253 0.168864 0.790280
Si Si3 0.887894 0.286297 0.890972
Si Si4 0.857889 0.220193 0.636082
Si Si5 0.797201 0.689456 0.426864
Si Si6 0.773569 0.017119 0.141664
Si Si7 0.774617 0.721348 0.295303
Si Si8 0.136264 0.313300 0.361503
O O1 0.517823 0.477886 0.775629
O O2 0.176016 0.812623 0.845200
O O3 0.346215 0.378380 0.718396
O O4 0.973888 0.770031 0.987327
O O5 0.852931 0.141617 0.823430
O O6 0.918473 0.140329 0.677101
O O7 0.780761 0.941881 0.710795
O O8 0.405503 0.457739 0.938376
O O9 0.960566 0.395844 0.847257
O O10 0.143174 0.082252 0.829009
O O11 0.015313 0.287913 0.587937
O O12 0.000000 0.000000 0.500000
O O13 0.886069 0.603787 0.310502
O O14 0.905369 0.468218 0.398091
O O15 0.457692 0.968584 0.580134
O O16 0.448202 0.197709 0.246090
O O17 0.000000 0.500000 0.500000
#
# Coordination Sequence:
#
# PCOD8038279 Si02
#       8
#     2   2   2   2   2   2   2   2
#     4  11  24  41  67  96 128 171 217 269 325 385
#     4  11  26  43  68  98 130 178 215 269 332 388
#     4  11  24  46  66  96 135 171 220 268 328 398
#     4  12  21  43  69  93 130 174 221 267 323 391
#     4  11  24  43  63  96 132 166 223 264 323 397
#     4  11  25  42  64  99 130 168 220 269 325 387
#     4  11  24  43  67  94 128 176 213 268 328 388
#     4  12  26  44  65  98 133 173 219 273 329 385
#
# _framework density 21.298107999999999
#
# number of rings (size 3 to 8) (size 9 to 14) (size 15 to 20)
#    0.000    0.750    5.000    2.250    3.500    1.000 
#    0.000    2.500    0.000    0.000    0.000    0.000 
#    0.000    0.000    0.000    0.000    0.000    0.000 
#
# Total GULP energy -198221.253469 kJ/mol
# GULP energy per Si atom -12388.828342 kJ/mol
# Density = 2.124963 g / cm^3
# Si number density = 21.298108 Si / 1000 Ang^3
#
#
#
# Elastic Constant Matrix: (Units=GPa)
#
#
# Indices 1 2 3 4 5 6 
#
# 1 80.8161 25.4151 17.8904 7.1958 7.5750 -16.5552
# 2 25.4151 82.9870 25.1572 1.6264 15.9505 -24.8274
# 3 17.8904 25.1572 100.5421 4.1741 7.7686 -8.1991
# 4 7.1958 1.6264 4.1741 32.6373 -1.4220 1.5467
# 5 7.5750 15.9505 7.7686 -1.4220 39.3465 6.1739
# 6 -16.5552 -24.8274 -8.1991 1.5467 6.1739 50.1136
#
#
#
# Elastic Compliance Matrix: (Units=1/GPa)
#
#
# Indices 1 2 3 4 5 6 
#
# 1 0.014733 -0.002450 -0.001388 -0.003229 -0.002283 0.003807
# 2 -0.002450 0.017573 -0.002669 -0.000718 -0.007470 0.008402
# 3 -0.001388 -0.002669 0.010984 -0.001012 -0.000881 0.000156
# 4 -0.003229 -0.000718 -0.001012 0.031773 0.002716 -0.002903
# 5 -0.002283 -0.007470 -0.000881 0.002716 0.030479 -0.008438
# 6 0.003807 0.008402 0.000156 -0.002903 -0.008438 0.026530
#
#
# Mechanical properties :
#
#
# Convention : Reuss Voigt Hill
#
# Bulk Modulus (GPa) = 33.02946 44.58560 38.80753
# Shear Modulus (GPa) = 32.22146 37.47831 34.84989
#
# Velocity S-wave (km/s) = 3.89379 4.19943 4.04950
# Velocity P-wave (km/s) = 5.97974 6.67032 6.33445
#
# Compressibility (1/GPa) = 0.03027600
#
# Stress axis : x y z
#
# Youngs Moduli (GPa) = 67.87552 56.90529 91.04531
#
# Poissons Ratio (x) = 0.13943 0.12633
# Poissons Ratio (y) = 0.16632 0.24299
# Poissons Ratio (z) = 0.09418 0.15187
#
# Static dielectric constant tensor:
#      x y z
#    x 3.861300 -0.103830 0.085880 
#    y -0.103830 4.966830 0.765850 
#    z 0.085880 0.765850 4.391220 
# 
# 
# High freq. dielectric constant tensor:
#      x y z
#    x 1.839360 -0.015760 0.007330 
#    y -0.015760 1.837290 0.003380 
#    z 0.007330 0.003380 1.849850 
# 
# From -- ./inp_files/185054.got.cif
#   From: 2010.06.25/outbox.ucp.g09.slc.cvg/sg2_93_cif.got.tgz:185054.got - 2010.06.28 11:54:26.
