data_PCOD8038277
_publ_section_title
;
Structure prediction by ZEFSAII (Michael W. Deem and Ramdas Pophale) SiO2 
 PCOD8038277
Probable space group: P -1
;
_chemical_formula_sum "Si O2"
_cell_formula_units_Z 16
_cell_length_a 11.314719
_cell_length_b 20.622192
_cell_length_c 11.977470
_cell_angle_alpha 152.072376
_cell_angle_beta 135.222425
_cell_angle_gamma 62.478889
_cell_volume 798.186476
_symmetry_space_group_name_H-M "P -1"
_symmetry_group_IT_number 2
_symmetry_cell_setting 'triclinic'
loop_
_space_group_symop_operation_xyz
x,y,z
-x,-y,-z
loop_
_atom_site_type_symbol
_atom_site_label
_atom_site_fract_x
_atom_site_fract_y
_atom_site_fract_z
Si Si1 0.800791 0.589288 0.435335
Si Si2 0.938316 0.084771 0.997230
Si Si3 0.708121 0.826909 0.274473
Si Si4 0.998632 0.567747 0.750070
Si Si5 0.780445 0.416229 0.687775
Si Si6 0.510111 0.482613 0.714413
Si Si7 0.698729 0.231514 0.143087
Si Si8 0.197527 0.334841 0.086435
O O1 0.808367 0.448981 0.153031
O O2 0.587565 0.536858 0.258691
O O3 0.958486 0.625783 0.693916
O O4 0.873126 0.746187 0.647690
O O5 0.867672 0.981115 0.680096
O O6 0.765680 0.106265 0.964306
O O7 0.000000 0.000000 0.000000
O O8 0.639767 0.671804 0.069770
O O9 0.528285 0.850344 0.158819
O O10 0.812870 0.816282 0.213927
O O11 0.815203 0.394795 0.398670
O O12 0.009050 0.692420 0.043205
O O13 0.642443 0.395716 0.670465
O O14 0.731457 0.261388 0.345176
O O15 0.724405 0.523613 0.735718
O O16 0.000000 0.500000 0.000000
O O17 0.342687 0.391007 0.372530
#
# Coordination Sequence:
#
# PCOD8038277 Si02
#       8
#     2   2   2   2   2   2   2   2
#     4   9  17  35  58  78 116 147 176 234 284 323
#     4  11  26  37  52  78 118 155 184 223 284 346
#     4  11  18  35  58  83 105 149 190 229 276 331
#     4   8  15  30  59  86 103 138 183 234 277 307
#     4  10  18  28  56  91 114 139 180 231 285 322
#     4  10  17  34  62  86 109 136 188 243 273 320
#     4  10  18  36  57  80 112 145 189 234 267 332
#     4   9  16  31  56  85 111 131 183 238 271 323
#
# _framework density 20.045441
#
# number of rings (size 3 to 8) (size 9 to 14) (size 15 to 20)
#    0.000    2.250    5.000    1.125    3.500    0.000 
#    0.000    3.125    0.000    0.750    0.000    0.000 
#    0.000    0.000    0.000    0.000    0.000    0.000 
#
# Total GULP energy -198219.651486 kJ/mol
# GULP energy per Si atom -12388.728218 kJ/mol
# Density = 1.999982 g / cm^3
# Si number density = 20.045441 Si / 1000 Ang^3
#
#
#
# Elastic Constant Matrix: (Units=GPa)
#
#
# Indices 1 2 3 4 5 6 
#
# 1 188.6216 40.0041 27.3422 2.6968 -10.1963 -36.9400
# 2 40.0041 69.4120 13.5006 5.9240 -0.6920 -11.2066
# 3 27.3422 13.5006 40.7218 -7.0604 -9.5762 -15.1584
# 4 2.6968 5.9240 -7.0604 18.1897 -4.5876 0.3917
# 5 -10.1963 -0.6920 -9.5762 -4.5876 25.2640 8.3042
# 6 -36.9400 -11.2066 -15.1584 0.3917 8.3042 26.7869
#
#
#
# Elastic Compliance Matrix: (Units=1/GPa)
#
#
# Indices 1 2 3 4 5 6 
#
# 1 0.007837 -0.002693 -0.001308 -0.001147 -0.000623 0.009150
# 2 -0.002693 0.018298 -0.006368 -0.009446 -0.005424 0.002157
# 3 -0.001308 -0.006368 0.039240 0.020637 0.013571 0.013228
# 4 -0.001147 -0.009446 0.020637 0.071425 0.020481 -0.001249
# 5 -0.000623 -0.005424 0.013571 0.020481 0.051940 -0.011850
# 6 0.009150 0.002157 0.013228 -0.001249 -0.011850 0.062030
#
#
# Mechanical properties :
#
#
# Convention : Reuss Voigt Hill
#
# Bulk Modulus (GPa) = 22.40388 51.16103 36.78246
# Shear Modulus (GPa) = 17.45872 28.57534 23.01703
#
# Velocity S-wave (km/s) = 2.95440 3.77971 3.39225
# Velocity P-wave (km/s) = 4.77899 6.68029 5.80797
#
# Compressibility (1/GPa) = 0.04463512
#
# Stress axis : x y z
#
# Youngs Moduli (GPa) = 127.59522 54.65087 25.48407
#
# Poissons Ratio (x) = 0.14720 0.03334
# Poissons Ratio (y) = 0.34366 0.16229
# Poissons Ratio (z) = 0.16694 0.34804
#
# Static dielectric constant tensor:
#      x y z
#    x 4.661250 -0.301300 -0.335060 
#    y -0.301300 3.363240 -0.011640 
#    z -0.335060 -0.011640 3.128550 
# 
# 
# High freq. dielectric constant tensor:
#      x y z
#    x 1.818230 -0.022960 -0.024870 
#    y -0.022960 1.753590 -0.011370 
#    z -0.024870 -0.011370 1.724500 
# 
# From -- ./inp_files/244148.got.cif
#   From: 2010.06.25/outbox.cif.g09.slc.cpg/sg2_123_cif.got.tgz:244148.got - 2010.06.27 13:26:56.
