data_PCOD8038304
_publ_section_title
;
Structure prediction by ZEFSAII (Michael W. Deem and Ramdas Pophale) SiO2 
 PCOD8038304
Probable space group: P -1
;
_chemical_formula_sum "Si O2"
_cell_formula_units_Z 16
_cell_length_a 15.000000
_cell_length_b 15.000000
_cell_length_c 9.000000
_cell_angle_alpha 140.000000
_cell_angle_beta 80.000000
_cell_angle_gamma 130.000000
_cell_volume 759.999475
_symmetry_space_group_name_H-M "P -1"
_symmetry_group_IT_number 2
_symmetry_cell_setting 'triclinic'
loop_
_space_group_symop_operation_xyz
x,y,z
-x,-y,-z
loop_
_atom_site_type_symbol
_atom_site_label
_atom_site_fract_x
_atom_site_fract_y
_atom_site_fract_z
Si Si1 0.645108 0.098142 0.274947
Si Si2 0.614449 0.749893 0.861559
Si Si3 0.614828 0.748957 0.210053
Si Si4 0.861130 0.421674 0.879855
Si Si5 0.039675 0.907591 0.453847
Si Si6 0.136162 0.576757 0.625678
Si Si7 0.038402 0.899154 0.794070
Si Si8 0.643563 0.084519 0.758814
O O1 0.779869 0.240259 0.537816
O O2 0.728112 0.282991 0.353440
O O3 0.503415 0.014897 0.265064
O O4 0.586678 0.871254 0.959414
O O5 0.500000 0.500000 0.500000
O O6 0.581811 0.710845 0.996252
O O7 0.786546 0.918958 0.988498
O O8 0.786588 0.914320 0.406098
O O9 0.587026 0.866661 0.436738
O O10 0.500000 0.500000 0.000000
O O11 0.725349 0.276412 0.852453
O O12 0.000000 0.500000 0.000000
O O13 0.927035 0.649397 0.094188
O O14 0.009168 0.874300 0.595561
O O15 0.000000 0.000000 0.500000
O O16 0.000000 0.500000 0.500000
O O17 0.071896 0.352563 0.421878
O O18 0.222468 0.772023 0.976152
O O19 0.000000 0.000000 0.000000
#
# Coordination Sequence:
#
# PCOD8038304 Si02
#       8
#     2   2   2   2   2   2   2   2
#     4  12  27  44  74 111 142 190 245 296 369 426
#     4  11  26  47  69 103 149 191 234 293 364 434
#     4  11  27  45  70 104 147 188 236 295 366 426
#     4  12  22  47  76 102 142 188 247 301 350 424
#     4  11  26  45  73 105 141 188 241 299 358 425
#     4  12  26  47  76 104 143 192 246 297 361 430
#     4  11  26  47  70 105 142 189 242 296 357 430
#     4  12  26  46  74 107 147 186 244 307 354 432
#
# _framework density 21.052645999999999
#
# number of rings (size 3 to 8) (size 9 to 14) (size 15 to 20)
#    0.000    0.500    5.000    2.250    7.000    2.000 
#    0.000    0.000    0.000    0.000    0.000    0.000 
#    0.000    0.000    0.000    0.000    0.000    0.000 
#
# Total GULP energy -198412.236196 kJ/mol
# GULP energy per Si atom -12400.764762 kJ/mol
# Density = 2.100473 g / cm^3
# Si number density = 21.052646 Si / 1000 Ang^3
#
#
#
# Elastic Constant Matrix: (Units=GPa)
#
#
# Indices 1 2 3 4 5 6 
#
# 1 145.2051 60.4891 67.7350 16.2279 -27.7569 0.2720
# 2 60.4891 167.7923 61.7690 35.3687 -14.9623 2.5172
# 3 67.7350 61.7690 173.9825 18.0106 -13.4137 -0.7336
# 4 16.2279 35.3687 18.0106 45.4231 -6.3469 -1.7592
# 5 -27.7569 -14.9623 -13.4137 -6.3469 35.3265 -2.5471
# 6 0.2720 2.5172 -0.7336 -1.7592 -2.5471 41.4373
#
#
#
# Elastic Compliance Matrix: (Units=1/GPa)
#
#
# Indices 1 2 3 4 5 6 
#
# 1 0.010228 -0.002128 -0.002750 -0.000038 0.006112 0.000388
# 2 -0.002128 0.008448 -0.001616 -0.005162 0.000313 -0.000728
# 3 -0.002750 -0.001616 0.007458 -0.000727 -0.000128 0.000209
# 4 -0.000038 -0.005162 -0.000727 0.026737 0.002426 0.001585
# 5 0.006112 0.000313 -0.000128 0.002426 0.033782 0.002118
# 6 0.000388 -0.000728 0.000209 0.001585 0.002118 0.024376
#
#
# Mechanical properties :
#
#
# Convention : Reuss Voigt Hill
#
# Bulk Modulus (GPa) = 76.05599 96.32955 86.19277
# Shear Modulus (GPa) = 38.94156 44.23650 41.58903
#
# Velocity S-wave (km/s) = 4.30551 4.58889 4.44946
# Velocity P-wave (km/s) = 7.80522 8.59844 8.21141
#
# Compressibility (1/GPa) = 0.01314821
#
# Stress axis : x y z
#
# Youngs Moduli (GPa) = 97.77392 118.36428 134.08367
#
# Poissons Ratio (x) = 0.25184 0.36869
# Poissons Ratio (y) = 0.20803 0.21664
# Poissons Ratio (z) = 0.26885 0.19124
#
# Static dielectric constant tensor:
#      x y z
#    x 3.817510 -0.027400 -0.002500 
#    y -0.027400 4.339270 0.095890 
#    z -0.002500 0.095890 4.232500 
# 
# 
# High freq. dielectric constant tensor:
#      x y z
#    x 1.831700 0.004200 0.001190 
#    y 0.004200 1.852270 0.012540 
#    z 0.001190 0.012540 1.848410 
# 
# From -- ./inp_files/243965.got.cif
#   From: 2010.06.25/outbox.ucp.g09.slc.cvg/sg2_122_cif.got.tgz:243965.got - 2010.06.28 11:54:26.
