data_PCOD8038372
_publ_section_title
;
Structure prediction by ZEFSAII (Michael W. Deem and Ramdas Pophale) SiO2 
 PCOD8038372
Probable space group: P -1
;
_chemical_formula_sum "Si O2"
_cell_formula_units_Z 16
_cell_length_a 23.904830
_cell_length_b 22.397294
_cell_length_c 9.134783
_cell_angle_alpha 138.880200
_cell_angle_beta 149.335876
_cell_angle_gamma 19.983879
_cell_volume 808.825956
_symmetry_space_group_name_H-M "P -1"
_symmetry_group_IT_number 2
_symmetry_cell_setting 'triclinic'
loop_
_space_group_symop_operation_xyz
x,y,z
-x,-y,-z
loop_
_atom_site_type_symbol
_atom_site_label
_atom_site_fract_x
_atom_site_fract_y
_atom_site_fract_z
Si Si1 0.299310 0.198972 0.985581
Si Si2 0.291679 0.704377 0.839912
Si Si3 0.451898 0.501550 0.233602
Si Si4 0.703957 0.866980 0.821777
Si Si5 0.139580 0.065439 0.587003
Si Si6 0.390967 0.731766 0.374558
Si Si7 0.901403 0.368934 0.421538
Si Si8 0.197658 0.476470 0.208437
O O1 0.061996 0.328539 0.636121
O O2 0.325269 0.171936 0.169231
O O3 0.299708 0.302166 0.124552
O O4 0.500000 0.000000 0.000000
O O5 0.336940 0.686771 0.735286
O O6 0.062576 0.814351 0.538389
O O7 0.500000 0.500000 0.000000
O O8 0.278647 0.807406 0.097823
O O9 0.500000 0.500000 0.500000
O O10 0.351821 0.659923 0.217790
O O11 0.283332 0.537099 0.931021
O O12 0.500000 0.000000 0.500000
O O13 0.704556 0.974337 0.052430
O O14 0.944335 0.662587 0.920001
O O15 0.053665 0.173628 0.445445
O O16 0.275475 0.880213 0.503987
O O17 0.648914 0.575388 0.651517
O O18 0.788271 0.489900 0.536779
#
# Coordination Sequence:
#
# PCOD8038372 Si02
#       8
#     2   2   2   2   2   2   2   2
#     4  10  21  40  61  89 119 157 215 248 290 367
#     4  10  17  35  60  82 108 153 195 233 287 358
#     4  11  22  38  55  89 122 150 194 245 309 360
#     4  10  21  39  60  88 126 157 201 258 308 355
#     4  10  19  35  61  89 115 150 207 244 291 359
#     4  11  20  36  65  87 113 154 207 246 290 366
#     4  10  18  36  60  83 115 157 195 245 291 360
#     4  10  19  39  67  87 112 170 209 240 300 365
#
# _framework density 19.781758
#
# number of rings (size 3 to 8) (size 9 to 14) (size 15 to 20)
#    0.000    2.000    3.750    5.625    0.000    0.000 
#    9.000    1.875    0.000    0.000    0.000    0.000 
#    0.000    0.000    0.000    0.000    0.000    0.000 
#
# Total GULP energy -198229.428426 kJ/mol
# GULP energy per Si atom -12389.339277 kJ/mol
# Density = 1.973673 g / cm^3
# Si number density = 19.781758 Si / 1000 Ang^3
#
#
#
# Elastic Constant Matrix: (Units=GPa)
#
#
# Indices 1 2 3 4 5 6 
#
# 1 51.4380 11.9817 35.6026 0.9853 1.0036 -14.9055
# 2 11.9817 97.4762 33.3641 15.2534 -1.0367 -9.9392
# 3 35.6026 33.3641 144.3934 1.1431 -5.8115 -8.9769
# 4 0.9853 15.2534 1.1431 24.8254 -0.9105 6.3373
# 5 1.0036 -1.0367 -5.8115 -0.9105 29.7983 4.3127
# 6 -14.9055 -9.9392 -8.9769 6.3373 4.3127 28.3001
#
#
#
# Elastic Compliance Matrix: (Units=1/GPa)
#
#
# Indices 1 2 3 4 5 6 
#
# 1 0.028195 0.001082 -0.006400 -0.005515 -0.004517 0.015124
# 2 0.001082 0.013343 -0.002908 -0.009886 -0.001420 0.006764
# 3 -0.006400 -0.002908 0.009102 0.002312 0.002304 -0.002374
# 4 -0.005515 -0.009886 0.002312 0.051168 0.004429 -0.017777
# 5 -0.004517 -0.001420 0.002304 0.004429 0.035483 -0.008547
# 6 0.015124 0.006764 -0.002374 -0.017777 -0.008547 0.050207
#
#
# Mechanical properties :
#
#
# Convention : Reuss Voigt Hill
#
# Bulk Modulus (GPa) = 29.25024 50.57826 39.91425
# Shear Modulus (GPa) = 23.21838 30.74202 26.98020
#
# Velocity S-wave (km/s) = 3.42969 3.94643 3.69710
# Velocity P-wave (km/s) = 5.52288 6.81098 6.20047
#
# Compressibility (1/GPa) = 0.03418775
#
# Stress axis : x y z
#
# Youngs Moduli (GPa) = 35.46766 74.94618 109.86190
#
# Poissons Ratio (x) = -0.08109 0.70309
# Poissons Ratio (y) = -0.03837 0.31951
# Poissons Ratio (z) = 0.22699 0.21796
#
# Static dielectric constant tensor:
#      x y z
#    x 3.853870 -0.488500 0.159310 
#    y -0.488500 3.849530 0.343010 
#    z 0.159310 0.343010 3.871440 
# 
# 
# High freq. dielectric constant tensor:
#      x y z
#    x 1.739910 -0.024540 0.033430 
#    y -0.024540 1.769200 0.015470 
#    z 0.033430 0.015470 1.772610 
# 
# From -- ./inp_files/355582.got.cif
#   From: 2010.06.25/outbox.cif.g09.slc.cpg/sg2_178_cif.got.tgz:355582.got - 2010.06.27 13:26:56.
