data_PCOD8038418
_publ_section_title
;
Structure prediction by ZEFSAII (Michael W. Deem and Ramdas Pophale) SiO2 
 PCOD8038418
Probable space group: P -1
;
_chemical_formula_sum "Si O2"
_cell_formula_units_Z 16
_cell_length_a 17.973701
_cell_length_b 8.852006
_cell_length_c 8.340794
_cell_angle_alpha 133.333857
_cell_angle_beta 96.608662
_cell_angle_gamma 111.035036
_cell_volume 762.659288
_symmetry_space_group_name_H-M "P -1"
_symmetry_group_IT_number 2
_symmetry_cell_setting 'triclinic'
loop_
_space_group_symop_operation_xyz
x,y,z
-x,-y,-z
loop_
_atom_site_type_symbol
_atom_site_label
_atom_site_fract_x
_atom_site_fract_y
_atom_site_fract_z
Si Si1 0.802686 0.845562 0.972376
Si Si2 0.385454 0.631137 0.267812
Si Si3 0.504384 0.479658 0.296968
Si Si4 0.155317 0.206864 0.410482
Si Si5 0.958860 0.812167 0.004715
Si Si6 0.167128 0.638069 0.562514
Si Si7 0.327211 0.345834 0.741629
Si Si8 0.356805 0.994003 0.703274
O O1 0.875634 0.814897 0.061726
O O2 0.837668 0.137902 0.214999
O O3 0.698642 0.638581 0.863978
O O4 0.803672 0.807595 0.756562
O O5 0.481313 0.664499 0.348354
O O6 0.399199 0.886809 0.520689
O O7 0.368861 0.600028 0.049206
O O8 0.500000 0.500000 0.500000
O O9 0.608594 0.582411 0.346550
O O10 0.432463 0.186564 0.996604
O O11 0.150856 0.451355 0.571674
O O12 0.222777 0.240873 0.592085
O O13 0.050601 0.937093 0.231813
O O14 0.912117 0.521978 0.713843
O O15 0.000000 0.000000 0.000000
O O16 0.267880 0.747062 0.591610
O O17 0.322570 0.128474 0.685656
#
# Coordination Sequence:
#
# PCOD8038418 Si02
#       8
#     2   2   2   2   2   2   2   2
#     4  10  17  35  65  85 119 158 203 252 293 354
#     4  11  21  41  63  88 123 162 197 245 303 363
#     4  11  25  42  64  93 121 152 202 251 299 360
#     4  10  22  38  57  92 127 153 206 255 290 352
#     4   8  18  33  57  92 122 151 204 251 295 352
#     4  10  18  35  66  87 113 163 203 243 304 351
#     4  11  25  41  59  90 128 157 198 250 300 359
#     4  11  22  41  67  87 120 165 198 240 312 357
#
# _framework density 20.979225
#
# number of rings (size 3 to 8) (size 9 to 14) (size 15 to 20)
#    0.000    2.000    5.000    2.250    0.000    8.000 
#    0.000    1.250    0.000    0.000    0.000    0.000 
#    0.000    0.000    0.000    0.000    0.000    0.000 
#
# Total GULP energy -198296.122257 kJ/mol
# GULP energy per Si atom -12393.507641 kJ/mol
# Density = 2.093148 g / cm^3
# Si number density = 20.979225 Si / 1000 Ang^3
#
#
#
# Elastic Constant Matrix: (Units=GPa)
#
#
# Indices 1 2 3 4 5 6 
#
# 1 79.5162 9.2409 53.4996 -12.1255 3.0453 -12.6184
# 2 9.2409 34.0563 37.5538 0.2316 0.1503 -7.7239
# 3 53.4996 37.5538 138.5824 -5.1672 -4.5678 -24.1538
# 4 -12.1255 0.2316 -5.1672 35.2272 -1.1167 2.0656
# 5 3.0453 0.1503 -4.5678 -1.1167 51.4444 -2.0399
# 6 -12.6184 -7.7239 -24.1538 2.0656 -2.0399 26.2328
#
#
#
# Elastic Compliance Matrix: (Units=1/GPa)
#
#
# Indices 1 2 3 4 5 6 
#
# 1 0.018473 0.003939 -0.007627 0.005017 -0.001574 0.002506
# 2 0.003939 0.043031 -0.012783 -0.001009 -0.001406 0.002764
# 3 -0.007627 -0.012783 0.014780 -0.000683 0.002040 0.006388
# 4 0.005017 -0.001009 -0.000683 0.030079 0.000264 -0.000861
# 5 -0.001574 -0.001406 0.002040 0.000264 0.019811 0.002227
# 6 0.002506 0.002764 0.006388 -0.000861 0.002227 0.046262
#
#
# Mechanical properties :
#
#
# Convention : Reuss Voigt Hill
#
# Bulk Modulus (GPa) = 23.07347 50.30486 36.68916
# Shear Modulus (GPa) = 22.74540 32.70490 27.72515
#
# Velocity S-wave (km/s) = 3.29627 3.95260 3.63926
# Velocity P-wave (km/s) = 5.05068 6.69785 5.93172
#
# Compressibility (1/GPa) = 0.04333982
#
# Stress axis : x y z
#
# Youngs Moduli (GPa) = 54.13407 23.23927 67.66127
#
# Poissons Ratio (x) = -0.09153 0.51604
# Poissons Ratio (y) = -0.21322 0.86494
# Poissons Ratio (z) = 0.41287 0.29708
#
# Static dielectric constant tensor:
#      x y z
#    x 4.397530 0.141050 0.282690 
#    y 0.141050 3.401300 0.141680 
#    z 0.282690 0.141680 4.169910 
# 
# 
# High freq. dielectric constant tensor:
#      x y z
#    x 1.833580 0.013140 -0.001020 
#    y 0.013140 1.784140 0.014640 
#    z -0.001020 0.014640 1.830890 
# 
# From -- ./inp_files/329610.got.cif
#   From: 2010.06.25/outbox.cif.g09.slc.cpg/sg2_165_cif.got.tgz:329610.got - 2010.06.27 13:26:56.
