data_PCOD8038993
_publ_section_title
;
Structure prediction by ZEFSAII (Michael W. Deem and Ramdas Pophale) SiO2 
 PCOD8038993
Probable space group: P -1
;
_chemical_formula_sum "Si O2"
_cell_formula_units_Z 16
_cell_length_a 18.624309
_cell_length_b 8.823401
_cell_length_c 12.166382
_cell_angle_alpha 65.090282
_cell_angle_beta 45.442726
_cell_angle_gamma 100.760090
_cell_volume 860.224333
_symmetry_space_group_name_H-M "P -1"
_symmetry_group_IT_number 2
_symmetry_cell_setting 'triclinic'
loop_
_space_group_symop_operation_xyz
x,y,z
-x,-y,-z
loop_
_atom_site_type_symbol
_atom_site_label
_atom_site_fract_x
_atom_site_fract_y
_atom_site_fract_z
Si Si1 0.064783 0.953132 0.032125
Si Si2 0.753891 0.283532 0.346424
Si Si3 0.355685 0.487932 0.580945
Si Si4 0.113080 0.384868 0.233266
Si Si5 0.990012 0.487117 0.846723
Si Si6 0.544406 0.179136 0.297658
Si Si7 0.060144 0.994070 0.274799
Si Si8 0.395905 0.406979 0.794724
O O1 0.031932 0.731054 0.091244
O O2 0.003297 0.913770 0.234107
O O3 0.244360 0.196037 0.766867
O O4 0.000000 0.000000 0.000000
O O5 0.732029 0.446894 0.361828
O O6 0.847972 0.294966 0.332688
O O7 0.584556 0.002632 0.600940
O O8 0.851395 0.392297 0.096350
O O9 0.415007 0.545168 0.623301
O O10 0.497834 0.626934 0.305488
O O11 0.009397 0.413029 0.299422
O O12 0.080428 0.209903 0.225774
O O13 0.286964 0.661400 0.972067
O O14 0.062002 0.256291 0.445949
O O15 0.552324 0.390238 0.235750
O O16 0.500000 0.000000 0.500000
O O17 0.227312 0.123318 0.074706
#
# Coordination Sequence:
#
# PCOD8038993 Si02
#       8
#     2   2   2   2   2   2   2   2
#     4  11  21  34  56  85 118 148 190 237 290 342
#     4  11  21  33  52  85 119 143 191 242 294 335
#     4  10  18  32  51  81 112 144 184 242 287 337
#     4  10  21  39  64  82 116 155 199 234 287 345
#     4  11  22  34  56  85 116 156 185 243 292 346
#     4  11  18  32  56  87 112 145 191 247 282 341
#     4   9  21  40  60  85 112 154 196 241 280 350
#     4   9  18  31  55  80 110 143 191 237 293 330
#
# _framework density 18.599799999999998
#
# number of rings (size 3 to 8) (size 9 to 14) (size 15 to 20)
#    0.000    1.750    3.750    2.250    1.750    1.500 
#    0.000    0.000    2.750    3.750    0.000    0.000 
#    0.000    0.000    0.000    0.000    0.000    0.000 
#
# Total GULP energy -198231.549099 kJ/mol
# GULP energy per Si atom -12389.471819 kJ/mol
# Density = 1.855747 g / cm^3
# Si number density = 18.599800 Si / 1000 Ang^3
#
#
#
# Elastic Constant Matrix: (Units=GPa)
#
#
# Indices 1 2 3 4 5 6 
#
# 1 109.5789 43.3328 52.6515 -1.3337 -9.8901 0.2303
# 2 43.3328 76.9811 33.2886 1.6110 -5.0145 -1.5808
# 3 52.6515 33.2886 112.4680 -4.1005 -6.4336 4.0934
# 4 -1.3337 1.6110 -4.1005 28.0546 3.4796 -8.3587
# 5 -9.8901 -5.0145 -6.4336 3.4796 22.3289 -0.6890
# 6 0.2303 -1.5808 4.0934 -8.3587 -0.6890 30.2225
#
#
#
# Elastic Compliance Matrix: (Units=1/GPa)
#
#
# Indices 1 2 3 4 5 6 
#
# 1 0.013887 -0.005560 -0.004664 -0.000056 0.003577 0.000301
# 2 -0.005560 0.017339 -0.002562 -0.001482 0.000952 0.000908
# 3 -0.004664 -0.002562 0.011960 0.001192 0.000577 -0.001375
# 4 -0.000056 -0.001482 0.001192 0.039800 -0.005888 0.010635
# 5 0.003577 0.000952 0.000577 -0.005888 0.047648 -0.000598
# 6 0.000301 0.000908 -0.001375 0.010635 -0.000598 0.036247
#
#
# Mechanical properties :
#
#
# Convention : Reuss Voigt Hill
#
# Bulk Modulus (GPa) = 56.77140 61.95264 59.36202
# Shear Modulus (GPa) = 25.21119 27.43820 26.32470
#
# Velocity S-wave (km/s) = 3.68564 3.84498 3.76616
# Velocity P-wave (km/s) = 6.97860 7.28645 7.13419
#
# Compressibility (1/GPa) = 0.01761450
#
# Stress axis : x y z
#
# Youngs Moduli (GPa) = 72.01017 57.67213 83.61484
#
# Poissons Ratio (x) = 0.32065 0.38997
# Poissons Ratio (y) = 0.40037 0.21422
# Poissons Ratio (z) = 0.33585 0.14775
#
# Static dielectric constant tensor:
#      x y z
#    x 3.407330 0.072480 -0.313730 
#    y 0.072480 3.719910 -0.035420 
#    z -0.313730 -0.035420 3.339670 
# 
# 
# High freq. dielectric constant tensor:
#      x y z
#    x 1.707640 -0.003690 -0.027920 
#    y -0.003690 1.726550 -0.007130 
#    z -0.027920 -0.007130 1.700010 
# 
# From -- ./inp_files/252580.got.cif
#   From: 2010.06.25/outbox.cif.g09.slc.cpg/sg2_127_cif.got.tgz:252580.got - 2010.06.27 13:26:56.
