data_PCOD8038857
_publ_section_title
;
Structure prediction by ZEFSAII (Michael W. Deem and Ramdas Pophale) SiO2 
 PCOD8038857
Probable space group: P -1
;
_chemical_formula_sum "Si O2"
_cell_formula_units_Z 14
_cell_length_a 11.816005
_cell_length_b 13.289934
_cell_length_c 12.120038
_cell_angle_alpha 57.892580
_cell_angle_beta 155.843240
_cell_angle_gamma 123.953687
_cell_volume 644.726031
_symmetry_space_group_name_H-M "P -1"
_symmetry_group_IT_number 2
_symmetry_cell_setting 'triclinic'
loop_
_space_group_symop_operation_xyz
x,y,z
-x,-y,-z
loop_
_atom_site_type_symbol
_atom_site_label
_atom_site_fract_x
_atom_site_fract_y
_atom_site_fract_z
Si Si1 0.524882 0.902444 0.171424
Si Si2 0.805545 0.506805 0.720861
Si Si3 0.037436 0.768882 0.692176
Si Si4 0.152640 0.225074 0.834665
Si Si5 0.010565 0.412230 0.761589
Si Si6 0.394573 0.462857 0.805763
Si Si7 0.340601 0.885570 0.680863
O O1 0.800795 0.848584 0.430124
O O2 0.555675 0.972989 0.274574
O O3 0.236101 0.799774 0.961082
O O4 0.500000 0.000000 0.000000
O O5 0.500000 0.500000 0.500000
O O6 0.818484 0.396120 0.711389
O O7 0.891089 0.627320 0.650818
O O8 0.000000 0.500000 0.000000
O O9 0.230898 0.798751 0.738370
O O10 0.253342 0.320164 0.767691
O O11 0.067246 0.286620 0.835351
O O12 0.896847 0.123538 0.618814
O O13 0.404728 0.159471 0.126422
O O14 0.846214 0.467885 0.487028
O O15 0.308688 0.499829 0.018486
O O16 0.500000 0.500000 0.000000
#
# Coordination Sequence:
#
# PCOD8038857 Si02
#       7
#     2   2   2   2   2   2   2
#     4  10  20  35  56  85 118 151 184 224 282 351
#     4  12  26  42  60  83 108 154 212 247 279 326
#     4  11  21  38  57  81 119 154 184 241 283 319
#     4  11  19  30  50  81 115 146 171 215 281 352
#     4  11  22  36  52  77 113 148 187 238 281 333
#     4  10  18  31  50  77 112 151 181 208 273 358
#     4  11  20  32  55  88 117 146 178 211 278 365
#
# _framework density 21.714649000000001
#
# number of rings (size 3 to 8) (size 9 to 14) (size 15 to 20)
#    0.000    1.143    0.000   12.000    0.000    0.000 
#    0.000    0.000    0.000    0.000    0.000   20.000 
#    0.000    0.000    0.000    0.000    0.000    0.000 
#
# Total GULP energy -173520.640359 kJ/mol
# GULP energy per Si atom -12394.331454 kJ/mol
# Density = 2.166523 g / cm^3
# Si number density = 21.714649 Si / 1000 Ang^3
#
#
#
# Elastic Constant Matrix: (Units=GPa)
#
#
# Indices 1 2 3 4 5 6 
#
# 1 114.9200 29.0161 34.3565 -3.7358 18.0212 -31.6570
# 2 29.0161 50.5986 24.2379 10.5068 8.9844 -22.8442
# 3 34.3565 24.2379 142.7761 5.0453 24.1623 -21.7882
# 4 -3.7358 10.5068 5.0453 39.1995 -5.7204 0.4704
# 5 18.0212 8.9844 24.1623 -5.7204 34.4343 -4.8148
# 6 -31.6570 -22.8442 -21.7882 0.4704 -4.8148 31.4298
#
#
#
# Elastic Compliance Matrix: (Units=1/GPa)
#
#
# Indices 1 2 3 4 5 6 
#
# 1 0.012969 -0.001805 -0.000483 0.001025 -0.004306 0.010742
# 2 -0.001805 0.034225 -0.000621 -0.010437 -0.006231 0.021829
# 3 -0.000483 -0.000621 0.008901 -0.001885 -0.005527 0.004414
# 4 0.001025 -0.010437 -0.001885 0.029823 0.007462 -0.007163
# 5 -0.004306 -0.006231 -0.005527 0.007462 0.037040 -0.007134
# 6 0.010742 0.021829 0.004414 -0.007163 -0.007134 0.060577
#
#
# Mechanical properties :
#
#
# Convention : Reuss Voigt Hill
#
# Bulk Modulus (GPa) = 19.88959 53.72396 36.80678
# Shear Modulus (GPa) = 24.25873 35.72502 29.99187
#
# Velocity S-wave (km/s) = 3.34602 4.06051 3.72046
# Velocity P-wave (km/s) = 4.90991 6.83946 5.95338
#
# Compressibility (1/GPa) = 0.05027756
#
# Stress axis : x y z
#
# Youngs Moduli (GPa) = 77.10586 29.21868 112.34441
#
# Poissons Ratio (x) = 0.05273 0.05424
# Poissons Ratio (y) = 0.13914 0.06981
# Poissons Ratio (z) = 0.03723 0.01816
#
# Static dielectric constant tensor:
#      x y z
#    x 3.973690 -0.154010 0.484040 
#    y -0.154010 4.269790 0.702380 
#    z 0.484040 0.702380 4.685720 
# 
# 
# High freq. dielectric constant tensor:
#      x y z
#    x 1.821670 -0.046000 0.017310 
#    y -0.046000 1.823400 0.015190 
#    z 0.017310 0.015190 1.883580 
# 
# From -- ./inp_files/433878.got.cif
#   From: 2010.06.25/outbox.cif.g09.slc.cpg/sg2_217_cif.got.tgz:433878.got - 2010.06.27 13:26:56.
