data_PCOD8038265
_publ_section_title
;
Structure prediction by ZEFSAII (Michael W. Deem and Ramdas Pophale) SiO2 
 PCOD8038265
Probable space group: P -1
;
_chemical_formula_sum "Si O2"
_cell_formula_units_Z 16
_cell_length_a 9.000000
_cell_length_b 30.000000
_cell_length_c 12.000000
_cell_angle_alpha 150.000000
_cell_angle_beta 50.000000
_cell_angle_gamma 150.000000
_cell_volume 731.734496
_symmetry_space_group_name_H-M "P -1"
_symmetry_group_IT_number 2
_symmetry_cell_setting 'triclinic'
loop_
_space_group_symop_operation_xyz
x,y,z
-x,-y,-z
loop_
_atom_site_type_symbol
_atom_site_label
_atom_site_fract_x
_atom_site_fract_y
_atom_site_fract_z
Si Si1 0.746167 0.118315 0.973870
Si Si2 0.686967 0.328468 0.172570
Si Si3 0.481652 0.394138 0.231408
Si Si4 0.218850 0.442675 0.778052
Si Si5 0.568821 0.165011 0.373219
Si Si6 0.459165 0.620364 0.445473
Si Si7 0.725849 0.137785 0.770403
Si Si8 0.617733 0.705307 0.300766
O O1 0.604362 0.082618 0.839473
O O2 0.660514 0.994385 0.807223
O O3 0.681910 0.175603 0.216925
O O4 0.121039 0.247714 0.043006
O O5 0.564531 0.342993 0.160862
O O6 0.464209 0.276225 0.273825
O O7 0.072325 0.488931 0.338510
O O8 0.650835 0.209757 0.920730
O O9 0.500000 0.500000 0.500000
O O10 0.709443 0.473611 0.185937
O O11 0.444066 0.438928 0.678108
O O12 0.846177 0.274299 0.572391
O O13 0.278255 0.531085 0.046072
O O14 0.381128 0.189481 0.502656
O O15 0.643954 0.704593 0.420910
O O16 0.096404 0.241484 0.788825
O O17 0.500000 0.000000 0.500000
#
# Coordination Sequence:
#
# PCOD8038265 Si02
#       8
#     2   2   2   2   2   2   2   2
#     4  11  25  49  70 100 139 179 237 285 343 417
#     4  11  24  43  73 101 134 184 229 287 345 403
#     4  12  22  43  75 102 133 175 239 283 339 410
#     4  12  23  44  70 106 136 180 228 292 342 406
#     4  11  26  44  74 101 136 184 230 293 344 404
#     4  11  23  42  71 101 138 175 232 287 340 407
#     4  12  29  47  66  98 145 187 226 282 354 418
#     4  12  26  44  67 103 141 181 234 285 345 415
#
# _framework density 21.865853999999999
#
# number of rings (size 3 to 8) (size 9 to 14) (size 15 to 20)
#    0.000    0.500    5.000    2.250    5.250    1.500 
#    0.000    1.250    0.000    0.000    0.000    0.000 
#    0.000    0.000    0.000    0.000    0.000    0.000 
#
# Total GULP energy -198228.394875 kJ/mol
# GULP energy per Si atom -12389.274680 kJ/mol
# Density = 2.181609 g / cm^3
# Si number density = 21.865854 Si / 1000 Ang^3
#
#
#
# Elastic Constant Matrix: (Units=GPa)
#
#
# Indices 1 2 3 4 5 6 
#
# 1 136.6136 20.1802 52.0794 -27.8708 -20.0868 -21.8642
# 2 20.1802 69.6432 18.3616 -21.1972 -5.2675 -17.6873
# 3 52.0794 18.3616 110.5888 -17.0606 -16.7281 1.5987
# 4 -27.8708 -21.1972 -17.0606 32.8718 4.7399 0.3581
# 5 -20.0868 -5.2675 -16.7281 4.7399 49.5388 -5.6848
# 6 -21.8642 -17.6873 1.5987 0.3581 -5.6848 33.5702
#
#
#
# Elastic Compliance Matrix: (Units=1/GPa)
#
#
# Indices 1 2 3 4 5 6 
#
# 1 0.013178 0.003861 -0.004725 0.010440 0.004478 0.011489
# 2 0.003861 0.022936 -0.002898 0.015928 0.003236 0.015115
# 3 -0.004725 -0.002898 0.012049 0.000252 0.001250 -0.004969
# 4 0.010440 0.015928 0.000252 0.049069 0.003058 0.015174
# 5 0.004478 0.003236 0.001250 0.003058 0.023451 0.008501
# 6 0.011489 0.015115 -0.004969 0.015174 0.008501 0.046749
#
#
# Mechanical properties :
#
#
# Convention : Reuss Voigt Hill
#
# Bulk Modulus (GPa) = 24.60724 55.34311 39.97518
# Shear Modulus (GPa) = 26.52499 38.27780 32.40140
#
# Velocity S-wave (km/s) = 3.48671 4.18853 3.85363
# Velocity P-wave (km/s) = 5.24287 6.98261 6.17432
#
# Compressibility (1/GPa) = 0.04063845
#
# Stress axis : x y z
#
# Youngs Moduli (GPa) = 75.88507 43.59978 82.99625
#
# Poissons Ratio (x) = -0.16836 0.39217
# Poissons Ratio (y) = -0.29302 0.24055
# Poissons Ratio (z) = 0.35857 0.12636
#
# Static dielectric constant tensor:
#      x y z
#    x -3.018760 -6.414360 3.833210 
#    y -6.414360 -1.157800 2.910060 
#    z 3.833210 2.910060 2.368100 
# 
# 
# High freq. dielectric constant tensor:
#      x y z
#    x 1.887390 -0.008210 -0.005310 
#    y -0.008210 1.859570 -0.019020 
#    z -0.005310 -0.019020 1.869070 
# 
# From -- ./inp_files/271941.got.cif
#   From: 2010.06.25/outbox.ucp.g09.slc.cvg/sg2_136_cif.got.tgz:271941.got - 2010.06.28 11:54:26.
