data_PCOD8038664
_publ_section_title
;
Structure prediction by ZEFSAII (Michael W. Deem and Ramdas Pophale) SiO2 
 PCOD8038664
Probable space group: P -1
;
_chemical_formula_sum "Si O2"
_cell_formula_units_Z 16
_cell_length_a 16.712809
_cell_length_b 6.782491
_cell_length_c 18.235562
_cell_angle_alpha 95.567305
_cell_angle_beta 136.919238
_cell_angle_gamma 116.467071
_cell_volume 913.550262
_symmetry_space_group_name_H-M "P -1"
_symmetry_group_IT_number 2
_symmetry_cell_setting 'triclinic'
loop_
_space_group_symop_operation_xyz
x,y,z
-x,-y,-z
loop_
_atom_site_type_symbol
_atom_site_label
_atom_site_fract_x
_atom_site_fract_y
_atom_site_fract_z
Si Si1 0.161429 0.733089 0.171917
Si Si2 0.525525 0.147971 0.652260
Si Si3 0.173319 0.524803 0.318559
Si Si4 0.176088 0.705043 0.678185
Si Si5 0.013005 0.896193 0.429788
Si Si6 0.701376 0.075419 0.376184
Si Si7 0.993873 0.742248 0.655500
Si Si8 0.674529 0.646921 0.662314
O O1 0.341092 0.867242 0.262564
O O2 0.103096 0.556036 0.202811
O O3 0.193111 0.005981 0.214801
O O4 0.000000 0.500000 0.000000
O O5 0.481120 0.152880 0.706688
O O6 0.620151 0.460480 0.692386
O O7 0.345855 0.864496 0.476877
O O8 0.223196 0.365916 0.325286
O O9 0.013208 0.297794 0.263024
O O10 0.172477 0.868941 0.744722
O O11 0.000000 0.500000 0.500000
O O12 0.162366 0.474229 0.700486
O O13 0.342972 0.947796 0.741878
O O14 0.195567 0.001754 0.547591
O O15 0.000000 0.000000 0.500000
O O16 0.005061 0.026059 0.358085
O O17 0.817277 0.411892 0.492525
O O18 0.500000 0.500000 0.500000
#
# Coordination Sequence:
#
# PCOD8038664 Si02
#       8
#     2   2   2   2   2   2   2   2
#     4  11  23  39  55  73 104 139 174 221 265 306
#     4  10  20  33  50  79 105 132 178 215 255 312
#     4  10  20  32  52  78 104 133 175 219 255 309
#     4   8  14  24  35  61  98 133 160 200 247 295
#     4  10  13  22  37  59  96 137 164 192 250 300
#     4   9  17  24  40  66 101 135 162 205 251 297
#     4   9  16  25  40  65 101 133 165 202 249 299
#     4  11  19  34  55  75 101 136 173 209 267 314
#
# _framework density 17.514087
#
# number of rings (size 3 to 8) (size 9 to 14) (size 15 to 20)
#    0.000    2.500    6.250    0.750    1.750    3.000 
#    0.000    0.000    0.000    0.000    0.000    0.875 
#    0.000    3.000    0.000    0.000    0.000    0.000 
#
# Total GULP energy -198252.197589 kJ/mol
# GULP energy per Si atom -12390.762349 kJ/mol
# Density = 1.747422 g / cm^3
# Si number density = 17.514087 Si / 1000 Ang^3
#
#
#
# Elastic Constant Matrix: (Units=GPa)
#
#
# Indices 1 2 3 4 5 6 
#
# 1 156.9587 64.1435 10.9404 -0.3779 -6.2277 24.6795
# 2 64.1435 130.2040 19.7894 4.2631 -12.1795 1.5625
# 3 10.9404 19.7894 46.0900 -3.1412 -14.2836 3.0858
# 4 -0.3779 4.2631 -3.1412 13.6101 -2.5821 -6.7363
# 5 -6.2277 -12.1795 -14.2836 -2.5821 9.0896 1.6090
# 6 24.6795 1.5625 3.0858 -6.7363 1.6090 35.4505
#
#
#
# Elastic Compliance Matrix: (Units=1/GPa)
#
#
# Indices 1 2 3 4 5 6 
#
# 1 0.009218 -0.004300 0.000972 -0.000877 0.003003 -0.006615
# 2 -0.004300 0.010834 -0.000830 -0.000891 0.009664 0.001980
# 3 0.000972 -0.000830 0.051448 0.027019 0.088786 -0.004014
# 4 -0.000877 -0.000891 0.027019 0.099603 0.066442 0.014209
# 5 0.003003 0.009664 0.088786 0.066442 0.285287 -0.010568
# 6 -0.006615 0.001980 -0.004014 0.014209 -0.010568 0.036255
#
#
# Mechanical properties :
#
#
# Convention : Reuss Voigt Hill
#
# Bulk Modulus (GPa) = 15.82652 58.11102 36.96877
# Shear Modulus (GPa) = 9.57815 27.52200 18.55007
#
# Velocity S-wave (km/s) = 2.34109 3.96842 3.25799
# Velocity P-wave (km/s) = 4.04520 7.36542 5.94193
#
# Compressibility (1/GPa) = 0.06318507
#
# Stress axis : x y z
#
# Youngs Moduli (GPa) = 108.48734 92.30302 19.43712
#
# Poissons Ratio (x) = 0.39687 -0.01889
# Poissons Ratio (y) = 0.46646 0.01612
# Poissons Ratio (z) = -0.10544 0.07657
#
# Static dielectric constant tensor:
#      x y z
#    x 3.913380 0.357600 -0.022010 
#    y 0.357600 3.416090 0.089090 
#    z -0.022010 0.089090 2.549860 
# 
# 
# High freq. dielectric constant tensor:
#      x y z
#    x 1.699980 0.003950 -0.007540 
#    y 0.003950 1.696030 0.008570 
#    z -0.007540 0.008570 1.587180 
# 
# From -- ./inp_files/598936.got.cif
#   From: 2010.06.25/outbox.cif.g09.slc.cpg/sg2_300_cif.got.tgz:598936.got - 2010.06.27 13:26:56.
