data_PCOD8038142
_publ_section_title
;
Structure prediction by ZEFSAII (Michael W. Deem and Ramdas Pophale) SiO2 
 PCOD8038142
Probable space group: P -1
;
_chemical_formula_sum "Si O2"
_cell_formula_units_Z 16
_cell_length_a 11.867778
_cell_length_b 20.531352
_cell_length_c 11.799450
_cell_angle_alpha 28.809585
_cell_angle_beta 52.807267
_cell_angle_gamma 36.015054
_cell_volume 757.531384
_symmetry_space_group_name_H-M "P -1"
_symmetry_group_IT_number 2
_symmetry_cell_setting 'triclinic'
loop_
_space_group_symop_operation_xyz
x,y,z
-x,-y,-z
loop_
_atom_site_type_symbol
_atom_site_label
_atom_site_fract_x
_atom_site_fract_y
_atom_site_fract_z
Si Si1 0.952689 0.160043 0.362122
Si Si2 0.707658 0.564082 0.785421
Si Si3 0.682027 0.638862 0.281456
Si Si4 0.113709 0.268730 0.629329
Si Si5 0.587739 0.255165 0.506865
Si Si6 0.445201 0.912805 0.815701
Si Si7 0.275396 0.122896 0.991833
Si Si8 0.627630 0.076003 0.408540
O O1 0.752266 0.261828 0.405422
O O2 0.890723 0.334925 0.059155
O O3 0.000000 0.000000 0.500000
O O4 0.142802 0.058196 0.483101
O O5 0.811522 0.630558 0.583897
O O6 0.590966 0.580825 0.722879
O O7 0.540423 0.704917 0.771246
O O8 0.506936 0.709495 0.366642
O O9 0.773591 0.725356 0.120780
O O10 0.880879 0.404523 0.521577
O O11 0.591155 0.704385 0.110016
O O12 0.117281 0.230642 0.818634
O O13 0.252449 0.071891 0.772389
O O14 0.709984 0.035982 0.717488
O O15 0.371232 0.898270 0.766052
O O16 0.571303 0.961395 0.643646
O O17 0.500000 0.000000 0.000000
#
# Coordination Sequence:
#
# PCOD8038142 Si02
#       8
#     2   2   2   2   2   2   2   2
#     4  12  26  40  62  90 126 171 205 248 306 370
#     4  11  22  40  60  94 124 157 209 253 307 367
#     4  11  21  35  59  94 124 159 198 258 313 358
#     4  11  20  34  65  95 122 158 198 257 316 360
#     4  11  22  37  59  90 129 158 198 249 308 373
#     4  10  21  42  65  91 124 156 208 262 305 357
#     4  10  17  34  55  89 127 151 192 253 308 353
#     4  10  23  43  65  88 121 167 207 257 303 359
#
# _framework density 21.121236
#
# number of rings (size 3 to 8) (size 9 to 14) (size 15 to 20)
#    0.000    1.250    6.250    2.250    1.750    1.000 
#    0.000    4.375    0.000    1.500    0.000    0.000 
#    0.000    0.000    0.000    0.000    0.000    0.000 
#
# Total GULP energy -198394.939523 kJ/mol
# GULP energy per Si atom -12399.683720 kJ/mol
# Density = 2.107316 g / cm^3
# Si number density = 21.121236 Si / 1000 Ang^3
#
#
#
# Elastic Constant Matrix: (Units=GPa)
#
#
# Indices 1 2 3 4 5 6 
#
# 1 86.6763 31.4592 46.3532 1.7265 38.5274 2.8588
# 2 31.4592 41.4860 16.6464 1.8830 19.5502 -0.3051
# 3 46.3532 16.6464 104.7326 -5.6266 37.5644 4.8183
# 4 1.7265 1.8830 -5.6266 32.3007 -2.6292 10.8360
# 5 38.5274 19.5502 37.5644 -2.6292 43.7774 6.1992
# 6 2.8588 -0.3051 4.8183 10.8360 6.1992 26.9905
#
#
#
# Elastic Compliance Matrix: (Units=1/GPa)
#
#
# Indices 1 2 3 4 5 6 
#
# 1 0.022988 -0.009475 -0.004369 -0.003323 -0.012807 0.002514
# 2 -0.009475 0.035459 0.001662 -0.003699 -0.009832 0.004851
# 3 -0.004369 0.001662 0.014696 0.002255 -0.009241 -0.000925
# 4 -0.003323 -0.003699 0.002255 0.038067 0.007344 -0.017062
# 5 -0.012807 -0.009832 -0.009241 0.007344 0.048459 -0.011184
# 6 0.002514 0.004851 -0.000925 -0.017062 -0.011184 0.046422
#
#
# Mechanical properties :
#
#
# Convention : Reuss Voigt Hill
#
# Bulk Modulus (GPa) = 20.50026 46.86805 33.68416
# Shear Modulus (GPa) = 20.26630 29.84279 25.05455
#
# Velocity S-wave (km/s) = 3.10098 3.76297 3.44790
# Velocity P-wave (km/s) = 4.74852 6.41234 5.64210
#
# Compressibility (1/GPa) = 0.04877986
#
# Stress axis : x y z
#
# Youngs Moduli (GPa) = 43.50011 28.20128 68.04686
#
# Poissons Ratio (x) = 0.26720 0.29731
# Poissons Ratio (y) = 0.41215 -0.11310
# Poissons Ratio (z) = 0.19006 -0.04687
#
# Static dielectric constant tensor:
#      x y z
#    x 3.564890 2.985530 1.553390 
#    y 2.985530 -37.854700 -21.298280 
#    z 1.553390 -21.298280 -6.468410 
# 
# 
# High freq. dielectric constant tensor:
#      x y z
#    x 1.794050 -0.016580 0.022720 
#    y -0.016580 1.830090 -0.001510 
#    z 0.022720 -0.001510 1.834100 
# 
# From -- ./inp_files/438335.got.cif
#   From: 2010.06.25/outbox.cif.g09.slc.cpg/sg2_220_cif.got.tgz:438335.got - 2010.06.27 13:26:56.
