data_PCOD8038477
_publ_section_title
;
Structure prediction by ZEFSAII (Michael W. Deem and Ramdas Pophale) SiO2 
 PCOD8038477
Probable space group: P -1
;
_chemical_formula_sum "Si O2"
_cell_formula_units_Z 16
_cell_length_a 12.349132
_cell_length_b 8.281071
_cell_length_c 11.058281
_cell_angle_alpha 53.201404
_cell_angle_beta 112.191202
_cell_angle_gamma 127.573304
_cell_volume 717.565667
_symmetry_space_group_name_H-M "P -1"
_symmetry_group_IT_number 2
_symmetry_cell_setting 'triclinic'
loop_
_space_group_symop_operation_xyz
x,y,z
-x,-y,-z
loop_
_atom_site_type_symbol
_atom_site_label
_atom_site_fract_x
_atom_site_fract_y
_atom_site_fract_z
Si Si1 0.417851 0.235257 0.819144
Si Si2 0.209642 0.123833 0.186311
Si Si3 0.159282 0.144690 0.640797
Si Si4 0.956356 0.635667 0.329107
Si Si5 0.755569 0.435414 0.130527
Si Si6 0.879125 0.710500 0.699042
Si Si7 0.690711 0.241632 0.927220
Si Si8 0.496234 0.653225 0.822737
O O1 0.304367 0.159649 0.700475
O O2 0.559975 0.261367 0.825711
O O3 0.445789 0.485433 0.760531
O O4 0.350381 0.029590 0.988201
O O5 0.197708 0.209287 0.276561
O O6 0.352314 0.125372 0.239190
O O7 0.210836 0.301623 0.006614
O O8 0.089864 0.860103 0.228790
O O9 0.137492 0.281882 0.680427
O O10 0.154867 0.262228 0.462989
O O11 0.041501 0.867616 0.720048
O O12 0.876237 0.466736 0.256534
O O13 0.000000 0.500000 0.500000
O O14 0.615062 0.278821 0.218531
O O15 0.733699 0.290919 0.064487
O O16 0.821573 0.431204 0.819858
O O17 0.500000 0.500000 0.000000
#
# Coordination Sequence:
#
# PCOD8038477 Si02
#       8
#     2   2   2   2   2   2   2   2
#     4  11  20  37  60  90 115 149 193 235 291 336
#     4   9  19  37  62  84 111 152 194 236 283 346
#     4  10  22  37  61  79 115 165 189 230 289 351
#     4  11  23  39  57  86 117 149 198 239 285 339
#     4  10  19  38  62  85 115 153 190 234 292 341
#     4   9  19  40  55  83 119 153 194 232 285 339
#     4  10  22  37  59  94 117 143 192 251 277 331
#     4  10  17  36  62  84 114 153 187 235 285 349
#
# _framework density 22.297611
#
# number of rings (size 3 to 8) (size 9 to 14) (size 15 to 20)
#    0.000    2.000    5.000    0.375    0.000    4.000 
#    4.500    0.625    0.000    0.000    0.000    0.000 
#    0.000    0.000    0.000    0.000    0.000    0.000 
#
# Total GULP energy -198262.334603 kJ/mol
# GULP energy per Si atom -12391.395913 kJ/mol
# Density = 2.224686 g / cm^3
# Si number density = 22.297611 Si / 1000 Ang^3
#
#
#
# Elastic Constant Matrix: (Units=GPa)
#
#
# Indices 1 2 3 4 5 6 
#
# 1 52.9731 34.7289 28.9704 12.9966 -4.1776 24.1403
# 2 34.7289 69.6466 28.1106 14.3651 6.1090 32.4431
# 3 28.9704 28.1106 58.5263 13.5987 2.8929 19.8702
# 4 12.9966 14.3651 13.5987 31.0415 5.1124 9.4574
# 5 -4.1776 6.1090 2.8929 5.1124 27.4244 0.0023
# 6 24.1403 32.4431 19.8702 9.4574 0.0023 30.1407
#
#
#
# Elastic Compliance Matrix: (Units=1/GPa)
#
#
# Indices 1 2 3 4 5 6 
#
# 1 0.037657 -0.008745 -0.009285 -0.005291 0.009651 -0.012966
# 2 -0.008745 0.032921 -0.001624 -0.001291 -0.008251 -0.026955
# 3 -0.009285 -0.001624 0.025791 -0.004185 -0.002993 -0.006505
# 4 -0.005291 -0.001291 -0.004185 0.039279 -0.007399 -0.003939
# 5 0.009651 -0.008251 -0.002993 -0.007399 0.041467 0.005443
# 6 -0.012966 -0.026955 -0.006505 -0.003939 0.005443 0.078101
#
#
# Mechanical properties :
#
#
# Convention : Reuss Voigt Hill
#
# Bulk Modulus (GPa) = 17.52538 40.52955 29.02746
# Shear Modulus (GPa) = 15.94676 23.67706 19.81191
#
# Velocity S-wave (km/s) = 2.67718 3.26216 2.98404
# Velocity P-wave (km/s) = 4.17531 5.69254 4.99191
#
# Compressibility (1/GPa) = 0.05706011
#
# Stress axis : x y z
#
# Youngs Moduli (GPa) = 26.55571 30.37614 38.77284
#
# Poissons Ratio (x) = 0.26563 0.36002
# Poissons Ratio (y) = 0.23222 0.06297
# Poissons Ratio (z) = 0.24658 0.04933
#
# Static dielectric constant tensor:
#      x y z
#    x 3.984100 0.438420 -0.184110 
#    y 0.438420 4.269940 -0.099620 
#    z -0.184110 -0.099620 3.761270 
# 
# 
# High freq. dielectric constant tensor:
#      x y z
#    x 1.863850 0.023530 -0.008090 
#    y 0.023530 1.889370 0.008000 
#    z -0.008090 0.008000 1.848450 
# 
# From -- ./inp_files/419195.got.cif
#   From: 2010.06.25/outbox.cif.g09.slc.cpg/sg2_210_cif.got.tgz:419195.got - 2010.06.27 13:26:56.
