data_PCOD8038820
_publ_section_title
;
Structure prediction by ZEFSAII (Michael W. Deem and Ramdas Pophale) SiO2 
 PCOD8038820
Probable space group: P -1
;
_chemical_formula_sum "Si O2"
_cell_formula_units_Z 16
_cell_length_a 11.860705
_cell_length_b 13.935939
_cell_length_c 8.822151
_cell_angle_alpha 133.133762
_cell_angle_beta 57.152860
_cell_angle_gamma 130.183554
_cell_volume 799.468851
_symmetry_space_group_name_H-M "P -1"
_symmetry_group_IT_number 2
_symmetry_cell_setting 'triclinic'
loop_
_space_group_symop_operation_xyz
x,y,z
-x,-y,-z
loop_
_atom_site_type_symbol
_atom_site_label
_atom_site_fract_x
_atom_site_fract_y
_atom_site_fract_z
Si Si1 0.371129 0.066905 0.506417
Si Si2 0.055757 0.311803 0.712369
Si Si3 0.811566 0.062481 0.785238
Si Si4 0.306980 0.796824 0.477131
Si Si5 0.849187 0.862618 0.095603
Si Si6 0.866798 0.856981 0.745103
Si Si7 0.072112 0.720341 0.821947
Si Si8 0.870042 0.455452 0.859367
O O1 0.549329 0.170203 0.487786
O O2 0.287294 0.166862 0.720678
O O3 0.326009 0.998650 0.298011
O O4 0.328529 0.940193 0.525265
O O5 0.145472 0.294372 0.483397
O O6 0.971492 0.148373 0.673086
O O7 0.927270 0.356748 0.806556
O O8 0.164037 0.435161 0.886212
O O9 0.798858 0.925857 0.746291
O O10 0.804390 0.182146 0.036456
O O11 0.155055 0.743395 0.627457
O O12 0.281597 0.659959 0.237240
O O13 0.779344 0.824288 0.934301
O O14 0.961107 0.035577 0.220170
O O15 0.937570 0.768129 0.966903
O O16 0.996987 0.551120 0.746465
#
# Coordination Sequence:
#
# PCOD8038820 Si02
#       8
#     2   2   2   2   2   2   2   2
#     4  11  22  35  59  79 118 144 177 227 283 335
#     4  10  18  31  55  86 108 138 185 237 270 311
#     4  10  19  32  55  86 109 141 179 230 282 321
#     4  11  22  39  53  83 113 151 179 222 280 330
#     4  10  19  34  55  87 109 143 180 232 276 317
#     4  10  18  30  57  81 115 135 186 233 274 316
#     4  10  22  35  60  83 110 142 189 231 266 318
#     4  10  20  34  56  80 110 147 188 225 265 322
#
# _framework density 20.013287999999999
#
# number of rings (size 3 to 8) (size 9 to 14) (size 15 to 20)
#    0.000    1.750    2.500    3.750    3.500    0.500 
#    0.000    0.625    0.000    0.750    0.000    0.000 
#    0.000    0.000    0.000    0.000    0.000    0.000 
#
# Total GULP energy -198298.490832 kJ/mol
# GULP energy per Si atom -12393.655677 kJ/mol
# Density = 1.996774 g / cm^3
# Si number density = 20.013288 Si / 1000 Ang^3
#
#
#
# Elastic Constant Matrix: (Units=GPa)
#
#
# Indices 1 2 3 4 5 6 
#
# 1 91.2468 21.5010 35.4239 5.0405 18.9703 5.7302
# 2 21.5010 44.2034 28.5459 5.3912 5.3508 -0.5061
# 3 35.4239 28.5459 95.2812 15.5557 17.8417 6.4991
# 4 5.0405 5.3912 15.5557 24.2919 2.8167 10.5505
# 5 18.9703 5.3508 17.8417 2.8167 32.5324 -0.2420
# 6 5.7302 -0.5061 6.4991 10.5505 -0.2420 24.3850
#
#
#
# Elastic Compliance Matrix: (Units=1/GPa)
#
#
# Indices 1 2 3 4 5 6 
#
# 1 0.014668 -0.004789 -0.002939 0.002301 -0.006382 -0.003822
# 2 -0.004789 0.029943 -0.007410 -0.003443 0.002269 0.005234
# 3 -0.002939 -0.007410 0.015990 -0.007066 -0.005231 -0.000719
# 4 0.002301 -0.003443 -0.007066 0.056224 -0.001940 -0.023074
# 5 -0.006382 0.002269 -0.005231 -0.001940 0.037154 0.004149
# 6 -0.003822 0.005234 -0.000719 -0.023074 0.004149 0.052232
#
#
# Mechanical properties :
#
#
# Convention : Reuss Voigt Hill
#
# Bulk Modulus (GPa) = 32.97542 44.63036 38.80289
# Shear Modulus (GPa) = 20.27621 25.92590 23.10105
#
# Velocity S-wave (km/s) = 3.18643 3.60312 3.40116
# Velocity P-wave (km/s) = 5.48182 6.29752 5.90377
#
# Compressibility (1/GPa) = 0.03032562
#
# Stress axis : x y z
#
# Youngs Moduli (GPa) = 68.17455 33.39732 62.53951
#
# Poissons Ratio (x) = 0.15994 0.18378
# Poissons Ratio (y) = 0.32648 0.46341
# Poissons Ratio (z) = 0.20034 0.24747
#
# Static dielectric constant tensor:
#      x y z
#    x 3.477070 -0.161910 0.357310 
#    y -0.161910 3.398870 0.101020 
#    z 0.357310 0.101020 3.948460 
# 
# 
# High freq. dielectric constant tensor:
#      x y z
#    x 1.757450 -0.030430 0.029700 
#    y -0.030430 1.742960 0.009110 
#    z 0.029700 0.009110 1.794600 
# 
# From -- ./inp_files/259492.got.cif
#   From: 2010.06.25/outbox.cif.g09.slc.cpg/sg2_130_cif.got.tgz:259492.got - 2010.06.27 13:26:56.
