data_PCOD8038000
_publ_section_title
;
Structure prediction by ZEFSAII (Michael W. Deem and Ramdas Pophale) SiO2 
 PCOD8038000
Probable space group: P -1
;
_chemical_formula_sum "Si O2"
_cell_formula_units_Z 16
_cell_length_a 12.000000
_cell_length_b 18.000000
_cell_length_c 21.000000
_cell_angle_alpha 20.000000
_cell_angle_beta 40.000000
_cell_angle_gamma 30.000000
_cell_volume 744.844803
_symmetry_space_group_name_H-M "P -1"
_symmetry_group_IT_number 2
_symmetry_cell_setting 'triclinic'
loop_
_space_group_symop_operation_xyz
x,y,z
-x,-y,-z
loop_
_atom_site_type_symbol
_atom_site_label
_atom_site_fract_x
_atom_site_fract_y
_atom_site_fract_z
Si Si1 0.141263 0.640037 0.181843
Si Si2 0.593750 0.308036 0.433106
Si Si3 0.696132 0.710975 0.016931
Si Si4 0.413084 0.562095 0.916260
Si Si5 0.791643 0.688458 0.848283
Si Si6 0.547005 0.658831 0.396561
Si Si7 0.919349 0.212838 0.767379
Si Si8 0.073495 0.214422 0.566673
O O1 0.387854 0.553751 0.130424
O O2 0.031641 0.744763 0.216708
O O3 0.176253 0.356578 0.381640
O O4 0.956704 0.917816 0.991970
O O5 0.663627 0.489682 0.232571
O O6 0.618484 0.259604 0.536946
O O7 0.333486 0.494892 0.374019
O O8 0.741254 0.975212 0.611238
O O9 0.936151 0.582736 0.046705
O O10 0.682372 0.731457 0.930371
O O11 0.512818 0.054871 0.840153
O O12 0.210988 0.909079 0.716472
O O13 0.500000 0.500000 0.000000
O O14 0.315676 0.400519 0.080228
O O15 0.500000 0.500000 0.500000
O O16 0.810349 0.429080 0.487468
O O17 0.090266 0.170297 0.672456
#
# Coordination Sequence:
#
# PCOD8038000 Si02
#       8
#     2   2   2   2   2   2   2   2
#     4  11  23  41  64  89 123 171 215 257 313 374
#     4  10  21  38  65  93 121 164 213 257 318 379
#     4  10  20  42  65  94 121 162 219 260 315 378
#     4  12  25  43  60  91 136 169 211 263 321 377
#     4  10  23  40  63  89 129 166 208 269 312 374
#     4  10  22  40  63  93 129 160 203 267 321 372
#     4  10  22  39  64  92 122 159 216 263 309 372
#     4  11  23  42  63  91 126 167 211 259 319 377
#
# _framework density 21.480985
#
# number of rings (size 3 to 8) (size 9 to 14) (size 15 to 20)
#    0.000    1.500    1.250    3.375    1.750    5.500 
#    4.500    0.000    0.000    0.000    0.000    0.000 
#    0.000    0.000    0.000    0.000    0.000    0.000 
#
# Total GULP energy -198230.439305 kJ/mol
# GULP energy per Si atom -12389.402457 kJ/mol
# Density = 2.143209 g / cm^3
# Si number density = 21.480985 Si / 1000 Ang^3
#
#
#
# Elastic Constant Matrix: (Units=GPa)
#
#
# Indices 1 2 3 4 5 6 
#
# 1 89.3422 13.9306 53.4464 -1.8942 -10.2162 -1.8544
# 2 13.9306 63.3814 37.7078 -7.5303 0.7697 2.2242
# 3 53.4464 37.7078 224.8185 -7.7056 -17.0505 1.1149
# 4 -1.8942 -7.5303 -7.7056 48.5937 -2.8178 -0.3963
# 5 -10.2162 0.7697 -17.0505 -2.8178 38.4596 1.5309
# 6 -1.8544 2.2242 1.1149 -0.3963 1.5309 15.9458
#
#
#
# Elastic Compliance Matrix: (Units=1/GPa)
#
#
# Indices 1 2 3 4 5 6 
#
# 1 0.013368 -0.001368 -0.002784 0.000014 0.002277 0.001722
# 2 -0.001368 0.018074 -0.002748 0.002195 -0.001692 -0.002271
# 3 -0.002784 -0.002748 0.005735 0.000482 0.001914 -0.000513
# 4 0.000014 0.002195 0.000482 0.021096 0.001718 0.000021
# 5 0.002277 -0.001692 0.001914 0.001718 0.027704 -0.002250
# 6 0.001722 -0.002271 -0.000513 0.000021 -0.002250 0.063482
#
#
# Mechanical properties :
#
#
# Convention : Reuss Voigt Hill
#
# Bulk Modulus (GPa) = 42.77786 65.30129 54.03957
# Shear Modulus (GPa) = 29.23097 38.76365 33.99731
#
# Velocity S-wave (km/s) = 3.69288 4.25262 3.98259
# Velocity P-wave (km/s) = 6.17582 7.38773 6.80879
#
# Compressibility (1/GPa) = 0.02337658
#
# Stress axis : x y z
#
# Youngs Moduli (GPa) = 74.80533 55.32746 174.36893
#
# Poissons Ratio (x) = 0.07571 0.48542
# Poissons Ratio (y) = 0.10236 0.47917
# Poissons Ratio (z) = 0.20825 0.15204
#
# Static dielectric constant tensor:
#      x y z
#    x 3.178360 0.411120 0.094490 
#    y 0.411120 3.815040 -0.078840 
#    z 0.094490 -0.078840 4.612110 
# 
# 
# High freq. dielectric constant tensor:
#      x y z
#    x 1.821280 -0.001340 0.005100 
#    y -0.001340 1.833900 -0.009080 
#    z 0.005100 -0.009080 1.891050 
# 
# From -- ./inp_files/101293.got.cif
#   From: 2010.06.25/outbox.ucp.g09.slc.cvg/sg2_51_cif.got.tgz:101293.got - 2010.06.28 11:54:26.
