data_PCOD8038425
_publ_section_title
;
Structure prediction by ZEFSAII (Michael W. Deem and Ramdas Pophale) SiO2 
 PCOD8038425
Probable space group: P -1
;
_chemical_formula_sum "Si O2"
_cell_formula_units_Z 16
_cell_length_a 21.814437
_cell_length_b 17.053162
_cell_length_c 13.120243
_cell_angle_alpha 39.930056
_cell_angle_beta 153.975259
_cell_angle_gamma 156.680926
_cell_volume 798.401777
_symmetry_space_group_name_H-M "P -1"
_symmetry_group_IT_number 2
_symmetry_cell_setting 'triclinic'
loop_
_space_group_symop_operation_xyz
x,y,z
-x,-y,-z
loop_
_atom_site_type_symbol
_atom_site_label
_atom_site_fract_x
_atom_site_fract_y
_atom_site_fract_z
Si Si1 0.996616 0.505864 0.147623
Si Si2 0.784253 0.764199 0.191631
Si Si3 0.741588 0.156573 0.959861
Si Si4 0.224818 0.245209 0.378146
Si Si5 0.318662 0.559162 0.703356
Si Si6 0.283367 0.519152 0.099602
Si Si7 0.280893 0.666315 0.750724
Si Si8 0.117204 0.213540 0.468836
O O1 0.175724 0.729914 0.138382
O O2 0.169231 0.525723 0.430176
O O3 0.794999 0.301396 0.977387
O O4 0.846695 0.463183 0.055093
O O5 0.797631 0.658669 0.239710
O O6 0.711369 0.662078 0.298935
O O7 0.590378 0.726901 0.902928
O O8 0.041754 0.005368 0.341452
O O9 0.460152 0.911842 0.786199
O O10 0.904208 0.156901 0.226611
O O11 0.136208 0.286346 0.123175
O O12 0.469672 0.350306 0.607792
O O13 0.251629 0.330242 0.445339
O O14 0.337344 0.646659 0.747479
O O15 0.332540 0.599468 0.978887
O O16 0.000000 0.500000 0.500000
O O17 0.000000 0.000000 0.500000
#
# Coordination Sequence:
#
# PCOD8038425 Si02
#       8
#     2   2   2   2   2   2   2   2
#     4  11  24  43  66  94 128 165 212 263 312 376
#     4  10  21  38  64  92 123 163 208 261 310 368
#     4  11  24  42  65  97 124 163 218 262 311 369
#     4  10  21  38  64  92 123 163 208 261 310 368
#     4  11  23  40  62  93 127 164 210 252 318 378
#     4  11  23  40  62  93 127 164 210 252 318 378
#     4  12  25  41  60  93 133 170 203 254 315 381
#     4  10  17  35  66  91 119 156 212 265 308 359
#
# _framework density 20.040036000000001
#
# number of rings (size 3 to 8) (size 9 to 14) (size 15 to 20)
#    0.000    1.250    3.750    3.750    0.000    3.000 
#    0.000    0.625    0.000    0.000    0.000    0.000 
#    0.000    0.000    0.000    0.000    0.000    0.000 
#
# Total GULP energy -198231.432088 kJ/mol
# GULP energy per Si atom -12389.464505 kJ/mol
# Density = 1.999442 g / cm^3
# Si number density = 20.040036 Si / 1000 Ang^3
#
#
#
# Elastic Constant Matrix: (Units=GPa)
#
#
# Indices 1 2 3 4 5 6 
#
# 1 38.7411 29.8664 11.8398 3.5637 -7.1928 -0.1056
# 2 29.8664 100.8555 33.3687 1.9674 -7.9396 3.9147
# 3 11.8398 33.3687 97.6174 0.4098 13.0009 -6.4204
# 4 3.5637 1.9674 0.4098 27.0913 -2.6929 0.3567
# 5 -7.1928 -7.9396 13.0009 -2.6929 29.4062 -2.9420
# 6 -0.1056 3.9147 -6.4204 0.3567 -2.9420 25.4001
#
#
#
# Elastic Compliance Matrix: (Units=1/GPa)
#
#
# Indices 1 2 3 4 5 6 
#
# 1 0.035079 -0.009250 -0.001857 -0.003264 0.006799 0.001935
# 2 -0.009250 0.014514 -0.004493 0.000608 0.003396 -0.003026
# 3 -0.001857 -0.004493 0.013177 -0.000387 -0.007210 0.003186
# 4 -0.003264 0.000608 -0.000387 0.037601 0.002941 -0.000393
# 5 0.006799 0.003396 -0.007210 0.002941 0.040274 0.002306
# 6 0.001935 -0.003026 0.003186 -0.000393 0.002306 0.040922
#
#
# Mechanical properties :
#
#
# Convention : Reuss Voigt Hill
#
# Bulk Modulus (GPa) = 31.67688 43.04041 37.35865
# Shear Modulus (GPa) = 22.39251 27.18880 24.79066
#
# Velocity S-wave (km/s) = 3.34636 3.68737 3.52100
# Velocity P-wave (km/s) = 5.54725 6.29704 5.93400
#
# Compressibility (1/GPa) = 0.03156876
#
# Stress axis : x y z
#
# Youngs Moduli (GPa) = 28.50748 68.90004 75.89179
#
# Poissons Ratio (x) = 0.63729 0.14096
# Poissons Ratio (y) = 0.26368 0.34100
# Poissons Ratio (z) = 0.05295 0.30958
#
# Static dielectric constant tensor:
#      x y z
#    x 4.211280 0.097730 -0.174160 
#    y 0.097730 3.773430 -0.117550 
#    z -0.174160 -0.117550 3.814070 
# 
# 
# High freq. dielectric constant tensor:
#      x y z
#    x 1.775950 -0.004110 0.004100 
#    y -0.004110 1.780650 -0.014280 
#    z 0.004100 -0.014280 1.789720 
# 
# From -- ./inp_files/466069.got.cif
#   From: 2010.06.25/outbox.cif.g09.slc.cpg/sg2_234_cif.got.tgz:466069.got - 2010.06.27 13:26:56.
