data_PCOD8038499
_publ_section_title
;
Structure prediction by ZEFSAII (Michael W. Deem and Ramdas Pophale) SiO2 
 PCOD8038499
Probable space group: P -1
;
_chemical_formula_sum "Si O2"
_cell_formula_units_Z 16
_cell_length_a 14.134186
_cell_length_b 9.422084
_cell_length_c 11.351391
_cell_angle_alpha 54.472143
_cell_angle_beta 48.592789
_cell_angle_gamma 90.427603
_cell_volume 707.557803
_symmetry_space_group_name_H-M "P -1"
_symmetry_group_IT_number 2
_symmetry_cell_setting 'triclinic'
loop_
_space_group_symop_operation_xyz
x,y,z
-x,-y,-z
loop_
_atom_site_type_symbol
_atom_site_label
_atom_site_fract_x
_atom_site_fract_y
_atom_site_fract_z
Si Si1 0.895749 0.156746 0.508502
Si Si2 0.310960 0.550551 0.276734
Si Si3 0.975466 0.171892 0.874502
Si Si4 0.092464 0.499799 0.813466
Si Si5 0.833844 0.239973 0.759753
Si Si6 0.733821 0.692520 0.236178
Si Si7 0.550171 0.584529 0.220705
Si Si8 0.757867 0.664791 0.809012
O O1 0.838927 0.277848 0.426119
O O2 0.821366 0.098068 0.728449
O O3 0.093542 0.329283 0.276916
O O4 0.824458 0.921810 0.619559
O O5 0.313644 0.752782 0.134185
O O6 0.473089 0.675470 0.164629
O O7 0.317069 0.440592 0.206474
O O8 0.153793 0.353465 0.579801
O O9 0.828564 0.122886 0.938889
O O10 0.960814 0.269170 0.959385
O O11 0.906433 0.907420 0.055017
O O12 0.242427 0.495345 0.719283
O O13 0.000000 0.500000 0.000000
O O14 0.000000 0.500000 0.500000
O O15 0.696737 0.756538 0.110862
O O16 0.592752 0.620980 0.479835
O O17 0.619969 0.516448 0.095654
#
# Coordination Sequence:
#
# PCOD8038499 Si02
#       8
#     2   2   2   2   2   2   2   2
#     4  11  21  39  63 100 123 154 215 266 313 351
#     4  11  21  40  69  93 124 161 208 262 317 367
#     4  11  21  41  69  96 117 162 219 257 304 370
#     4  12  24  38  64  96 127 160 212 267 302 358
#     4  10  17  36  65  94 120 151 202 274 311 345
#     4  11  25  43  64  89 128 178 207 248 303 384
#     4  11  24  42  60  92 135 167 205 248 320 375
#     4  11  23  37  67  97 125 160 206 267 312 373
#
# _framework density 22.612991999999998
#
# number of rings (size 3 to 8) (size 9 to 14) (size 15 to 20)
#    0.000    1.000    6.250    2.250    3.500    0.000 
#    0.000    6.875    0.000    9.750    0.000    0.000 
#    0.000    0.000    0.000    0.000    0.000    0.000 
#
# Total GULP energy -198226.017705 kJ/mol
# GULP energy per Si atom -12389.126107 kJ/mol
# Density = 2.256152 g / cm^3
# Si number density = 22.612992 Si / 1000 Ang^3
#
#
#
# Elastic Constant Matrix: (Units=GPa)
#
#
# Indices 1 2 3 4 5 6 
#
# 1 152.6119 52.5904 35.6768 23.2541 -5.0305 9.6653
# 2 52.5904 123.1727 39.7646 29.4943 6.1015 7.9876
# 3 35.6768 39.7646 81.1067 29.3828 10.6876 2.9947
# 4 23.2541 29.4943 29.3828 34.0071 5.4372 7.8166
# 5 -5.0305 6.1015 10.6876 5.4372 29.9256 5.0237
# 6 9.6653 7.9876 2.9947 7.8166 5.0237 37.1549
#
#
#
# Elastic Compliance Matrix: (Units=1/GPa)
#
#
# Indices 1 2 3 4 5 6 
#
# 1 0.008416 -0.002506 -0.002169 -0.001884 0.003299 -0.001525
# 2 -0.002506 0.011408 -0.002149 -0.006140 -0.000827 -0.000224
# 3 -0.002169 -0.002149 0.019847 -0.013683 -0.005030 0.002985
# 4 -0.001884 -0.006140 -0.013683 0.049840 -0.002008 -0.007301
# 5 0.003299 -0.000827 -0.005030 -0.002008 0.037118 -0.004871
# 6 -0.001525 -0.000224 0.002985 -0.007301 -0.004871 0.029313
#
#
# Mechanical properties :
#
#
# Convention : Reuss Voigt Hill
#
# Bulk Modulus (GPa) = 38.42963 68.10611 53.26787
# Shear Modulus (GPa) = 28.04804 35.47481 31.76143
#
# Velocity S-wave (km/s) = 3.52568 3.96508 3.75182
# Velocity P-wave (km/s) = 5.79701 7.15164 6.50966
#
# Compressibility (1/GPa) = 0.02602159
#
# Stress axis : x y z
#
# Youngs Moduli (GPa) = 118.82571 87.65477 50.38631
#
# Poissons Ratio (x) = 0.21970 0.10929
# Poissons Ratio (y) = 0.29783 0.10829
# Poissons Ratio (z) = 0.25773 0.18838
#
# Static dielectric constant tensor:
#      x y z
#    x 5.000190 -0.213690 0.133100 
#    y -0.213690 4.184260 0.203170 
#    z 0.133100 0.203170 3.806190 
# 
# 
# High freq. dielectric constant tensor:
#      x y z
#    x 1.929290 -0.001130 0.010700 
#    y -0.001130 1.889240 0.013720 
#    z 0.010700 0.013720 1.860160 
# 
# From -- ./inp_files/445615.got.cif
#   From: 2010.06.25/outbox.cif.g09.slc.cpg/sg2_223_cif.got.tgz:445615.got - 2010.06.27 13:26:56.
