data_PCOD8038346
_publ_section_title
;
Structure prediction by ZEFSAII (Michael W. Deem and Ramdas Pophale) SiO2 
 PCOD8038346
Probable space group: P -1
;
_chemical_formula_sum "Si O2"
_cell_formula_units_Z 16
_cell_length_a 7.522397
_cell_length_b 14.332983
_cell_length_c 11.457059
_cell_angle_alpha 55.680728
_cell_angle_beta 59.489697
_cell_angle_gamma 55.411212
_cell_volume 807.287922
_symmetry_space_group_name_H-M "P -1"
_symmetry_group_IT_number 2
_symmetry_cell_setting 'triclinic'
loop_
_space_group_symop_operation_xyz
x,y,z
-x,-y,-z
loop_
_atom_site_type_symbol
_atom_site_label
_atom_site_fract_x
_atom_site_fract_y
_atom_site_fract_z
Si Si1 0.230059 0.368213 0.335483
Si Si2 0.746631 0.953169 0.814261
Si Si3 0.691498 0.825037 0.150781
Si Si4 0.858243 0.972271 0.357312
Si Si5 0.995952 0.744688 0.326668
Si Si6 0.389700 0.130015 0.307465
Si Si7 0.238321 0.442095 0.693220
Si Si8 0.598740 0.502167 0.641587
O O1 0.151213 0.309721 0.510839
O O2 0.341766 0.267366 0.270149
O O3 0.406311 0.419953 0.294964
O O4 0.027883 0.482022 0.264606
O O5 0.686957 0.867448 0.802373
O O6 0.553455 0.090697 0.776716
O O7 0.762630 0.895543 0.976663
O O8 0.987820 0.957078 0.701315
O O9 0.876287 0.796938 0.208877
O O10 0.692762 0.697605 0.190642
O O11 0.022325 0.854176 0.313411
O O12 0.749873 0.934540 0.531072
O O13 0.656338 0.055112 0.282059
O O14 0.239376 0.640387 0.294361
O O15 0.349902 0.509547 0.694926
O O16 0.320057 0.440124 0.534747
#
# Coordination Sequence:
#
# PCOD8038346 Si02
#       8
#     2   2   2   2   2   2   2   2
#     4  10  19  34  57  83 114 141 182 240 279 328
#     4  11  24  39  56  85 115 155 191 225 283 343
#     4  11  21  38  59  82 122 149 182 238 282 341
#     4  10  21  38  62  82 111 149 188 241 285 323
#     4  10  17  35  57  85 113 141 181 239 289 323
#     4  10  22  39  58  84 114 147 193 237 275 333
#     4  10  19  33  56  87 112 145 183 235 288 328
#     4  10  18  31  58  87 112 140 189 233 287 335
#
# _framework density 19.819445000000002
#
# number of rings (size 3 to 8) (size 9 to 14) (size 15 to 20)
#    0.000    1.750    3.750    1.875    0.000    2.500 
#    2.250    0.625    0.000    1.500    0.000    0.000 
#    0.000    0.000    0.000    0.000    0.000    0.000 
#
# Total GULP energy -198418.972848 kJ/mol
# GULP energy per Si atom -12401.185803 kJ/mol
# Density = 1.977434 g / cm^3
# Si number density = 19.819445 Si / 1000 Ang^3
#
#
#
# Elastic Constant Matrix: (Units=GPa)
#
#
# Indices 1 2 3 4 5 6 
#
# 1 121.3392 48.2103 20.9365 2.1813 14.7591 13.5474
# 2 48.2103 100.3554 26.7085 -9.3453 5.4437 21.8427
# 3 20.9365 26.7085 42.6159 -7.4159 15.1065 -6.0478
# 4 2.1813 -9.3453 -7.4159 24.5227 1.0850 4.2737
# 5 14.7591 5.4437 15.1065 1.0850 24.9315 1.2856
# 6 13.5474 21.8427 -6.0478 4.2737 1.2856 28.0931
#
#
#
# Elastic Compliance Matrix: (Units=1/GPa)
#
#
# Indices 1 2 3 4 5 6 
#
# 1 0.011104 -0.004533 -0.001809 -0.002794 -0.004284 -0.001599
# 2 -0.004533 0.020078 -0.014517 0.006439 0.007737 -0.017884
# 3 -0.001809 -0.014517 0.046713 0.005966 -0.025482 0.022474
# 4 -0.002794 0.006439 0.005966 0.047127 -0.004937 -0.009318
# 5 -0.004284 0.007737 -0.025482 -0.004937 0.057194 -0.011302
# 6 -0.001599 -0.017884 0.022474 -0.009318 -0.011302 0.057045
#
#
# Mechanical properties :
#
#
# Convention : Reuss Voigt Hill
#
# Bulk Modulus (GPa) = 27.64152 50.66902 39.15527
# Shear Modulus (GPa) = 17.06268 26.73981 21.90125
#
# Velocity S-wave (km/s) = 2.93730 3.67709 3.32782
# Velocity P-wave (km/s) = 5.04783 6.60672 5.87918
#
# Compressibility (1/GPa) = 0.03617746
#
# Stress axis : x y z
#
# Youngs Moduli (GPa) = 90.05553 49.80593 21.40750
#
# Poissons Ratio (x) = 0.22576 0.03873
# Poissons Ratio (y) = 0.40820 0.31077
# Poissons Ratio (z) = 0.16293 0.72302
#
# Static dielectric constant tensor:
#      x y z
#    x 3.616700 0.062270 0.189360 
#    y 0.062270 3.703750 -0.203740 
#    z 0.189360 -0.203740 3.252400 
# 
# 
# High freq. dielectric constant tensor:
#      x y z
#    x 1.780980 0.008510 0.020680 
#    y 0.008510 1.772390 -0.018430 
#    z 0.020680 -0.018430 1.735750 
# 
# From -- ./inp_files/366131.got.cif
#   From: 2010.06.25/outbox.cif.g09.slc.cpg/sg2_184_cif.got.tgz:366131.got - 2010.06.27 13:26:56.
