data_PCOD8038853
_publ_section_title
;
Structure prediction by ZEFSAII (Michael W. Deem and Ramdas Pophale) SiO2 
 PCOD8038853
Probable space group: P -1
;
_chemical_formula_sum "Si O2"
_cell_formula_units_Z 14
_cell_length_a 13.845180
_cell_length_b 18.259624
_cell_length_c 14.171305
_cell_angle_alpha 41.189899
_cell_angle_beta 20.788930
_cell_angle_gamma 49.864632
_cell_volume 810.336154
_symmetry_space_group_name_H-M "P -1"
_symmetry_group_IT_number 2
_symmetry_cell_setting 'triclinic'
loop_
_space_group_symop_operation_xyz
x,y,z
-x,-y,-z
loop_
_atom_site_type_symbol
_atom_site_label
_atom_site_fract_x
_atom_site_fract_y
_atom_site_fract_z
Si Si1 0.282008 0.075030 0.628475
Si Si2 0.282076 0.496522 0.617598
Si Si3 0.359648 0.641723 0.650928
Si Si4 0.468636 0.153908 0.569164
Si Si5 0.901812 0.999384 0.320497
Si Si6 0.378680 0.743737 0.334621
Si Si7 0.934914 0.892540 0.594770
O O1 0.398522 0.176482 0.500307
O O2 0.217385 0.100839 0.553368
O O3 0.500000 0.000000 0.500000
O O4 0.000000 0.000000 0.000000
O O5 0.500000 0.500000 0.500000
O O6 0.437063 0.446578 0.438726
O O7 0.250281 0.625969 0.507274
O O8 0.970920 0.418786 0.998353
O O9 0.412405 0.720396 0.618624
O O10 0.458434 0.718434 0.393160
O O11 0.700560 0.083221 0.435828
O O12 0.201284 0.080790 0.940445
O O13 0.920997 0.932083 0.462696
O O14 0.171788 0.824928 0.450876
O O15 0.647908 0.807184 0.969368
O O16 0.000000 0.000000 0.500000
#
# Coordination Sequence:
#
# PCOD8038853 Si02
#       7
#     2   2   2   2   2   2   2
#     4   8  16  29  47  67  94 124 154 191 236 279
#     4  10  20  34  50  69  93 125 160 198 241 280
#     4  11  19  32  52  73  94 121 157 204 243 274
#     4  10  18  31  50  74  97 121 154 201 242 274
#     4  10  19  32  46  70 102 131 157 186 228 287
#     4  11  21  34  47  67  97 128 157 190 228 279
#     4  12  22  32  47  70  98 132 160 184 220 279
#
# _framework density 17.276782000000001
#
# number of rings (size 3 to 8) (size 9 to 14) (size 15 to 20)
#    0.000    1.714    0.000    8.143    0.000    0.000 
#    0.000    0.000    0.000    0.000    0.000    6.000 
#    0.000    0.000    0.000    0.000    0.000    0.000 
#
# Total GULP energy -173437.112697 kJ/mol
# GULP energy per Si atom -12388.365193 kJ/mol
# Density = 1.723746 g / cm^3
# Si number density = 17.276782 Si / 1000 Ang^3
#
#
#
# Elastic Constant Matrix: (Units=GPa)
#
#
# Indices 1 2 3 4 5 6 
#
# 1 105.5662 45.3399 25.3512 -12.8242 3.0115 24.9345
# 2 45.3399 137.5644 37.5454 5.9049 -2.3012 12.3917
# 3 25.3512 37.5454 104.6515 10.9561 -1.8249 7.0751
# 4 -12.8242 5.9049 10.9561 35.8585 0.7370 -8.7190
# 5 3.0115 -2.3012 -1.8249 0.7370 17.0146 1.1912
# 6 24.9345 12.3917 7.0751 -8.7190 1.1912 28.6922
#
#
#
# Elastic Compliance Matrix: (Units=1/GPa)
#
#
# Indices 1 2 3 4 5 6 
#
# 1 0.014170 -0.003535 -0.002047 0.004168 -0.002763 -0.008902
# 2 -0.003535 0.009254 -0.002087 -0.002491 0.001848 -0.001244
# 3 -0.002047 -0.002087 0.011374 -0.004257 0.001588 -0.001484
# 4 0.004168 -0.002491 -0.004257 0.033295 -0.003587 0.008770
# 5 -0.002763 0.001848 0.001588 -0.003587 0.060004 -0.002370
# 6 -0.008902 -0.001244 -0.001484 0.008770 -0.002370 0.046255
#
#
# Mechanical properties :
#
#
# Convention : Reuss Voigt Hill
#
# Bulk Modulus (GPa) = 51.38589 62.69500 57.04045
# Shear Modulus (GPa) = 25.48735 32.28276 28.88506
#
# Velocity S-wave (km/s) = 3.84505 4.32738 4.09332
# Velocity P-wave (km/s) = 7.03703 7.83171 7.44498
#
# Compressibility (1/GPa) = 0.01946059
#
# Stress axis : x y z
#
# Youngs Moduli (GPa) = 70.57041 108.06433 87.92210
#
# Poissons Ratio (x) = 0.38200 0.17999
# Poissons Ratio (y) = 0.24946 0.18345
# Poissons Ratio (z) = 0.14447 0.22548
#
# Static dielectric constant tensor:
#      x y z
#    x 3.286600 0.442000 -0.083390 
#    y 0.442000 3.721930 0.156180 
#    z -0.083390 0.156180 3.275970 
# 
# 
# High freq. dielectric constant tensor:
#      x y z
#    x 1.647860 0.021280 -0.019010 
#    y 0.021280 1.675580 0.029830 
#    z -0.019010 0.029830 1.673730 
# 
# From -- ./inp_files/93170.got.cif
#   From: 2010.06.25/outbox.cif.g09.slc.cpg/sg2_47_cif.got.tgz:93170.got - 2010.06.27 13:26:56.
