data_PCOD8038382
_publ_section_title
;
Structure prediction by ZEFSAII (Michael W. Deem and Ramdas Pophale) SiO2 
 PCOD8038382
Probable space group: P -1
;
_chemical_formula_sum "Si O2"
_cell_formula_units_Z 16
_cell_length_a 10.934434
_cell_length_b 16.607924
_cell_length_c 16.310342
_cell_angle_alpha 31.659567
_cell_angle_beta 33.521752
_cell_angle_gamma 32.602780
_cell_volume 763.119551
_symmetry_space_group_name_H-M "P -1"
_symmetry_group_IT_number 2
_symmetry_cell_setting 'triclinic'
loop_
_space_group_symop_operation_xyz
x,y,z
-x,-y,-z
loop_
_atom_site_type_symbol
_atom_site_label
_atom_site_fract_x
_atom_site_fract_y
_atom_site_fract_z
Si Si1 0.305530 0.619341 0.356742
Si Si2 0.247777 0.115233 0.816559
Si Si3 0.501739 0.039411 0.341626
Si Si4 0.254238 0.283614 0.402037
Si Si5 0.170625 0.575323 0.298297
Si Si6 0.047557 0.968006 0.626714
Si Si7 0.715956 0.024740 0.902150
Si Si8 0.650291 0.243180 0.500422
O O1 0.325060 0.608084 0.255891
O O2 0.352578 0.774357 0.229457
O O3 0.537402 0.444503 0.412227
O O4 0.041445 0.635018 0.523068
O O5 0.366838 0.956931 0.821132
O O6 0.417799 0.211707 0.633362
O O7 0.974151 0.248700 0.823996
O O8 0.231223 0.049129 0.972216
O O9 0.693952 0.870918 0.429424
O O10 0.427943 0.212110 0.286262
O O11 0.242333 0.038605 0.472061
O O12 0.334819 0.422791 0.274573
O O13 0.000000 0.500000 0.500000
O O14 0.968135 0.916776 0.801807
O O15 0.793739 0.126059 0.598394
O O16 0.157755 0.808329 0.639650
O O17 0.500000 0.000000 0.000000
#
# Coordination Sequence:
#
# PCOD8038382 Si02
#       8
#     2   2   2   2   2   2   2   2
#     4  11  21  40  64  96 119 165 207 260 310 370
#     4  11  20  37  64  90 126 165 197 256 316 364
#     4  10  19  35  61  96 121 158 206 255 303 368
#     4  10  18  34  65  96 120 149 208 265 300 353
#     4  10  17  35  60  95 117 152 206 260 299 362
#     4  10  21  39  62  93 121 164 210 256 305 363
#     4  12  26  42  57  89 136 169 204 250 321 372
#     4  10  20  39  70  88 116 162 223 256 294 364
#
# _framework density 20.966570999999998
#
# number of rings (size 3 to 8) (size 9 to 14) (size 15 to 20)
#    0.000    1.500    7.500    0.750    0.000    1.000 
#    2.250    1.875    0.000    2.250    0.000    0.000 
#    0.000    0.000    0.000    0.000    0.000    0.000 
#
# Total GULP energy -198318.608524 kJ/mol
# GULP energy per Si atom -12394.913033 kJ/mol
# Density = 2.091885 g / cm^3
# Si number density = 20.966571 Si / 1000 Ang^3
#
#
#
# Elastic Constant Matrix: (Units=GPa)
#
#
# Indices 1 2 3 4 5 6 
#
# 1 71.1820 36.6249 19.7167 7.5259 13.5732 15.9010
# 2 36.6249 132.7676 36.5891 3.6910 14.3921 16.6381
# 3 19.7167 36.5891 47.5184 5.5190 20.5301 19.1214
# 4 7.5259 3.6910 5.5190 19.2278 11.9732 5.6930
# 5 13.5732 14.3921 20.5301 11.9732 41.6511 2.7990
# 6 15.9010 16.6381 19.1214 5.6930 2.7990 47.9011
#
#
#
# Elastic Compliance Matrix: (Units=1/GPa)
#
#
# Indices 1 2 3 4 5 6 
#
# 1 0.018041 -0.003687 -0.001762 -0.003213 -0.002580 -0.003472
# 2 -0.003687 0.010327 -0.006980 0.000885 0.000801 0.000271
# 3 -0.001762 -0.006980 0.038603 0.004861 -0.016632 -0.012006
# 4 -0.003213 0.000885 0.004861 0.066681 -0.020291 -0.007920
# 5 -0.002580 0.000801 -0.016632 -0.020291 0.038106 0.007402
# 6 -0.003472 0.000271 -0.012006 -0.007920 0.007402 0.027236
#
#
# Mechanical properties :
#
#
# Convention : Reuss Voigt Hill
#
# Bulk Modulus (GPa) = 23.74557 48.59216 36.16887
# Shear Modulus (GPa) = 21.01820 32.32517 26.67168
#
# Velocity S-wave (km/s) = 3.16960 3.93077 3.57053
# Velocity P-wave (km/s) = 4.97446 6.62024 5.85546
#
# Compressibility (1/GPa) = 0.04211312
#
# Stress axis : x y z
#
# Youngs Moduli (GPa) = 55.42977 96.83092 25.90503
#
# Poissons Ratio (x) = 0.35703 0.04563
# Poissons Ratio (y) = 0.20438 0.18082
# Poissons Ratio (z) = 0.09764 0.67589
#
# Static dielectric constant tensor:
#      x y z
#    x 4.212060 0.443820 0.142210 
#    y 0.443820 4.242740 0.123380 
#    z 0.142210 0.123380 3.369750 
# 
# 
# High freq. dielectric constant tensor:
#      x y z
#    x 1.835540 0.014730 0.008420 
#    y 0.014730 1.832250 0.008600 
#    z 0.008420 0.008600 1.764270 
# 
# From -- ./inp_files/245103.got.cif
#   From: 2010.06.25/outbox.cif.g09.slc.cpg/sg2_123_cif.got.tgz:245103.got - 2010.06.27 13:26:56.
