data_PCOD8038329
_publ_section_title
;
Structure prediction by ZEFSAII (Michael W. Deem and Ramdas Pophale) SiO2 
 PCOD8038329
Probable space group: P -1
;
_chemical_formula_sum "Si O2"
_cell_formula_units_Z 16
_cell_length_a 9.184422
_cell_length_b 16.897915
_cell_length_c 14.059070
_cell_angle_alpha 145.864959
_cell_angle_beta 53.414290
_cell_angle_gamma 103.932112
_cell_volume 814.163769
_symmetry_space_group_name_H-M "P -1"
_symmetry_group_IT_number 2
_symmetry_cell_setting 'triclinic'
loop_
_space_group_symop_operation_xyz
x,y,z
-x,-y,-z
loop_
_atom_site_type_symbol
_atom_site_label
_atom_site_fract_x
_atom_site_fract_y
_atom_site_fract_z
Si Si1 0.817888 0.193077 0.959159
Si Si2 0.269341 0.975828 0.650721
Si Si3 0.188817 0.604556 0.575691
Si Si4 0.434754 0.756880 0.706951
Si Si5 0.894997 0.465033 0.253232
Si Si6 0.480774 0.252260 0.008787
Si Si7 0.632835 0.742212 0.147501
Si Si8 0.252763 0.068488 0.956567
O O1 0.631982 0.233638 0.148348
O O2 0.847968 0.347274 0.091650
O O3 0.723676 0.179881 0.882047
O O4 0.047800 0.021276 0.728965
O O5 0.471856 0.792991 0.351127
O O6 0.312499 0.118616 0.751643
O O7 0.241473 0.972639 0.771918
O O8 0.371215 0.643365 0.561971
O O9 0.088615 0.587940 0.695694
O O10 0.292220 0.436222 0.305743
O O11 0.984863 0.764459 0.759448
O O12 0.698369 0.660562 0.505983
O O13 0.324562 0.943414 0.893029
O O14 0.128758 0.434072 0.102446
O O15 0.486741 0.269923 0.910361
O O16 0.428920 0.114232 0.918892
#
# Coordination Sequence:
#
# PCOD8038329 Si02
#       8
#     2   2   2   2   2   2   2   2
#     4  10  18  32  55  79 113 138 176 221 268 320
#     4   9  18  36  53  76 106 147 185 218 252 322
#     4  11  18  34  56  80 110 139 178 218 266 324
#     4  11  20  33  55  86 109 143 174 216 276 325
#     4  10  17  35  55  78 105 148 180 213 257 333
#     4  11  20  33  54  86 109 137 175 232 266 312
#     4   9  19  33  56  77 103 145 190 216 257 310
#     4  11  22  33  55  84 112 138 179 220 273 315
#
# _framework density 19.652066000000001
#
# number of rings (size 3 to 8) (size 9 to 14) (size 15 to 20)
#    0.000    1.750    7.500    1.500    0.000    1.000 
#    0.000    0.625    0.000    0.750    0.000    0.000 
#    0.000    0.000    0.000    0.000    0.000    0.000 
#
# Total GULP energy -198360.081469 kJ/mol
# GULP energy per Si atom -12397.505092 kJ/mol
# Density = 1.960734 g / cm^3
# Si number density = 19.652066 Si / 1000 Ang^3
#
#
#
# Elastic Constant Matrix: (Units=GPa)
#
#
# Indices 1 2 3 4 5 6 
#
# 1 120.7081 16.0626 45.1780 -3.6452 -15.1568 -13.6399
# 2 16.0626 24.4094 18.1160 7.0520 -0.7831 -5.3323
# 3 45.1780 18.1160 92.3771 -4.9233 -22.4431 -1.5614
# 4 -3.6452 7.0520 -4.9233 23.5082 -3.6716 -7.6359
# 5 -15.1568 -0.7831 -22.4431 -3.6716 38.1211 0.8249
# 6 -13.6399 -5.3323 -1.5614 -7.6359 0.8249 13.0232
#
#
#
# Elastic Compliance Matrix: (Units=1/GPa)
#
#
# Indices 1 2 3 4 5 6 
#
# 1 0.012713 -0.004224 -0.003957 0.007948 0.003067 0.015577
# 2 -0.004224 0.061096 -0.013479 -0.021089 -0.010549 0.007278
# 3 -0.003957 -0.013479 0.018072 0.007511 0.009593 -0.003700
# 4 0.007948 -0.021089 0.007511 0.066189 0.012689 0.038595
# 5 0.003067 -0.010549 0.009593 0.012689 0.033989 0.005330
# 6 0.015577 0.007278 -0.003700 0.038595 0.005330 0.117929
#
#
# Mechanical properties :
#
#
# Convention : Reuss Voigt Hill
#
# Bulk Modulus (GPa) = 20.59309 44.02308 32.30809
# Shear Modulus (GPa) = 13.53196 25.47304 19.50250
#
# Velocity S-wave (km/s) = 2.62692 3.60419 3.15364
# Velocity P-wave (km/s) = 4.43876 6.30635 5.45310
#
# Compressibility (1/GPa) = 0.04855998
#
# Stress axis : x y z
#
# Youngs Moduli (GPa) = 78.66065 16.36775 55.33346
#
# Poissons Ratio (x) = 0.06914 0.21896
# Poissons Ratio (y) = 0.33226 0.74586
# Poissons Ratio (z) = 0.31126 0.22063
#
# Static dielectric constant tensor:
#      x y z
#    x 3.757150 -0.040960 -0.177730 
#    y -0.040960 3.120660 -0.215110 
#    z -0.177730 -0.215110 3.764320 
# 
# 
# High freq. dielectric constant tensor:
#      x y z
#    x 1.776220 -0.007810 -0.016770 
#    y -0.007810 1.707670 -0.008730 
#    z -0.016770 -0.008730 1.759630 
# 
# From -- ./inp_files/187437.got.cif
#   From: 2010.06.25/outbox.cif.g09.slc.cpg/sg2_94_cif.got.tgz:187437.got - 2010.06.27 13:26:56.
