data_PCOD8038681
_publ_section_title
;
Structure prediction by ZEFSAII (Michael W. Deem and Ramdas Pophale) SiO2 
 PCOD8038681
Probable space group: P -1
;
_chemical_formula_sum "Si O2"
_cell_formula_units_Z 14
_cell_length_a 10.383175
_cell_length_b 14.698953
_cell_length_c 14.331543
_cell_angle_alpha 20.703506
_cell_angle_beta 107.390034
_cell_angle_gamma 97.861627
_cell_volume 668.581297
_symmetry_space_group_name_H-M "P -1"
_symmetry_group_IT_number 2
_symmetry_cell_setting 'triclinic'
loop_
_space_group_symop_operation_xyz
x,y,z
-x,-y,-z
loop_
_atom_site_type_symbol
_atom_site_label
_atom_site_fract_x
_atom_site_fract_y
_atom_site_fract_z
Si Si1 0.450408 0.125055 0.101737
Si Si2 0.218058 0.195644 0.593701
Si Si3 0.392207 0.640532 0.477679
Si Si4 0.275158 0.677124 0.221179
Si Si5 0.034825 0.495659 0.901736
Si Si6 0.138125 0.924736 0.531699
Si Si7 0.460314 0.800047 0.750470
O O1 0.450417 0.219098 0.117598
O O2 0.616593 0.960923 0.258400
O O3 0.370016 0.914065 0.273547
O O4 0.357673 0.414579 0.747356
O O5 0.194925 0.467826 0.390854
O O6 0.110147 0.304998 0.377412
O O7 0.183766 0.972400 0.863285
O O8 0.278519 0.745200 0.265930
O O9 0.559279 0.482361 0.628993
O O10 0.160994 0.614909 0.794435
O O11 0.000000 0.500000 0.000000
O O12 0.096911 0.159765 0.213211
O O13 0.283534 0.920734 0.618442
O O14 0.000000 0.000000 0.500000
O O15 0.500000 0.000000 0.500000
O O16 0.500000 0.500000 0.000000
#
# Coordination Sequence:
#
# PCOD8038681 Si02
#       7
#     2   2   2   2   2   2   2
#     4  10  19  32  50  72 104 149 187 219 277 339
#     4  10  18  29  49  76 109 144 179 223 280 337
#     4   9  17  29  47  70 103 145 183 220 275 345
#     4   9  17  28  44  73 109 140 175 227 282 331
#     4  10  19  31  50  76 106 142 185 221 263 323
#     4  10  21  37  57  78 109 149 189 229 277 329
#     4  12  25  40  57  83 119 153 193 238 278 328
#
# _framework density 20.939862000000002
#
# number of rings (size 3 to 8) (size 9 to 14) (size 15 to 20)
#    0.000    2.000    0.000    5.143    0.000   10.286 
#    0.000    0.000    0.000    0.000    0.000    0.000 
#    0.000   80.000    0.000    0.000    0.000    0.000 
#
# Total GULP energy -173471.923461 kJ/mol
# GULP energy per Si atom -12390.851676 kJ/mol
# Density = 2.089220 g / cm^3
# Si number density = 20.939862 Si / 1000 Ang^3
#
#
#
# Elastic Constant Matrix: (Units=GPa)
#
#
# Indices 1 2 3 4 5 6 
#
# 1 50.9757 23.6597 27.8261 -5.8628 -16.0998 10.8446
# 2 23.6597 153.8794 79.0053 0.9044 -19.6954 10.4016
# 3 27.8261 79.0053 181.3831 1.2564 -48.3166 12.1963
# 4 -5.8628 0.9044 1.2564 46.7876 12.4901 -7.6910
# 5 -16.0998 -19.6954 -48.3166 12.4901 31.7073 -6.7070
# 6 10.8446 10.4016 12.1963 -7.6910 -6.7070 23.1801
#
#
#
# Elastic Compliance Matrix: (Units=1/GPa)
#
#
# Indices 1 2 3 4 5 6 
#
# 1 0.025501 -0.002228 0.000601 -0.001135 0.011152 -0.008397
# 2 -0.002228 0.008666 -0.003832 -0.000079 -0.001851 -0.001392
# 3 0.000601 -0.003832 0.012009 -0.005203 0.017978 -0.001405
# 4 -0.001135 -0.000079 -0.005203 0.027306 -0.017784 0.007218
# 5 0.011152 -0.001851 0.017978 -0.017784 0.070596 0.000680
# 6 -0.008397 -0.001392 -0.001405 0.007218 0.000680 0.051025
#
#
# Mechanical properties :
#
#
# Convention : Reuss Voigt Hill
#
# Bulk Modulus (GPa) = 28.36092 71.91340 50.13716
# Shear Modulus (GPa) = 22.95963 37.38481 30.17222
#
# Velocity S-wave (km/s) = 3.31487 4.22991 3.80004
# Velocity P-wave (km/s) = 5.31268 7.63372 6.57640
#
# Compressibility (1/GPa) = 0.03525978
#
# Stress axis : x y z
#
# Youngs Moduli (GPa) = 39.21425 115.39124 83.26773
#
# Poissons Ratio (x) = 0.25710 -0.05008
# Poissons Ratio (y) = 0.08737 0.31906
# Poissons Ratio (z) = -0.02359 0.44215
#
# Static dielectric constant tensor:
#      x y z
#    x 2.624810 -1.466130 3.488040 
#    y -1.466130 0.080320 7.953320 
#    z 3.488040 7.953320 -12.985510 
# 
# 
# High freq. dielectric constant tensor:
#      x y z
#    x 1.768390 0.027400 -0.030310 
#    y 0.027400 1.815800 -0.006400 
#    z -0.030310 -0.006400 1.843590 
# 
# From -- ./inp_files/76079.got.cif
#   From: 2010.06.25/outbox.cif.g09.slc.cpg/sg2_39_cif.got.tgz:76079.got - 2010.06.27 13:26:56.
