data_PCOD8038175
_publ_section_title
;
Structure prediction by ZEFSAII (Michael W. Deem and Ramdas Pophale) SiO2 
 PCOD8038175
Probable space group: P -1
;
_chemical_formula_sum "Si O2"
_cell_formula_units_Z 16
_cell_length_a 9.000000
_cell_length_b 9.000000
_cell_length_c 21.000000
_cell_angle_alpha 120.000000
_cell_angle_beta 130.000000
_cell_angle_gamma 100.000000
_cell_volume 751.240448
_symmetry_space_group_name_H-M "P -1"
_symmetry_group_IT_number 2
_symmetry_cell_setting 'triclinic'
loop_
_space_group_symop_operation_xyz
x,y,z
-x,-y,-z
loop_
_atom_site_type_symbol
_atom_site_label
_atom_site_fract_x
_atom_site_fract_y
_atom_site_fract_z
Si Si1 0.665514 0.767197 0.917137
Si Si2 0.975093 0.627342 0.304397
Si Si3 0.371536 0.416290 0.539287
Si Si4 0.741050 0.467583 0.936014
Si Si5 0.091036 0.040550 0.608267
Si Si6 0.488324 0.782030 0.557247
Si Si7 0.957657 0.380657 0.824991
Si Si8 0.821742 0.662911 0.821673
O O1 0.339498 0.614249 0.805140
O O2 0.803939 0.707123 0.986474
O O3 0.664499 0.700242 0.830082
O O4 0.848430 0.060111 0.040524
O O5 0.033235 0.868649 0.374312
O O6 0.222966 0.687883 0.423583
O O7 0.951882 0.555340 0.209711
O O8 0.374660 0.609347 0.551991
O O9 0.334612 0.245142 0.438923
O O10 0.661970 0.554719 0.686987
O O11 0.095629 0.236012 0.472248
O O12 0.428397 0.223821 0.761874
O O13 0.000000 0.500000 0.000000
O O14 0.759251 0.471838 0.019953
O O15 0.000000 0.000000 0.500000
O O16 0.703656 0.074610 0.701894
O O17 0.822771 0.482375 0.821630
#
# Coordination Sequence:
#
# PCOD8038175 Si02
#       8
#     2   2   2   2   2   2   2   2
#     4  10  24  43  63  97 135 175 226 286 349 410
#     4  11  23  42  66 102 132 181 236 281 345 405
#     4  11  22  44  64  98 136 182 222 285 343 405
#     4  11  24  43  67 103 132 182 226 281 345 408
#     4  11  25  44  72 100 142 180 228 280 341 416
#     4  11  24  40  67  99 138 175 233 281 346 404
#     4  12  23  42  70  97 133 180 232 288 334 413
#     4  11  22  43  67  92 136 182 227 281 348 405
#
# _framework density 21.298107999999999
#
# number of rings (size 3 to 8) (size 9 to 14) (size 15 to 20)
#    0.000    1.000    3.750    3.375    1.750    3.500 
#    4.500    1.250    0.000    0.000    0.000    0.000 
#    0.000    0.000    0.000    0.000    0.000    0.000 
#
# Total GULP energy -198240.158555 kJ/mol
# GULP energy per Si atom -12390.009910 kJ/mol
# Density = 2.124963 g / cm^3
# Si number density = 21.298108 Si / 1000 Ang^3
#
#
#
# Elastic Constant Matrix: (Units=GPa)
#
#
# Indices 1 2 3 4 5 6 
#
# 1 35.1754 6.2968 26.2033 8.6164 7.5437 -3.8513
# 2 6.2968 132.0481 61.7591 -0.1697 2.7520 0.1058
# 3 26.2033 61.7591 156.0728 -12.6331 0.5011 4.4005
# 4 8.6164 -0.1697 -12.6331 57.4908 -0.3330 0.9986
# 5 7.5437 2.7520 0.5011 -0.3330 31.1237 -2.4128
# 6 -3.8513 0.1058 4.4005 0.9986 -2.4128 39.3167
#
#
#
# Elastic Compliance Matrix: (Units=1/GPa)
#
#
# Indices 1 2 3 4 5 6 
#
# 1 0.038255 0.002069 -0.007948 -0.007600 -0.009078 0.004267
# 2 0.002069 0.009465 -0.004205 -0.001224 -0.001237 0.000603
# 3 -0.007948 -0.004205 0.009722 0.003358 0.002037 -0.001816
# 4 -0.007600 -0.001224 0.003358 0.019305 0.001988 -0.001485
# 5 -0.009078 -0.001237 0.002037 0.001988 0.034502 0.000953
# 6 0.004267 0.000603 -0.001816 -0.001485 0.000953 0.026150
#
#
# Mechanical properties :
#
#
# Convention : Reuss Voigt Hill
#
# Bulk Modulus (GPa) = 26.82797 56.86830 41.84814
# Shear Modulus (GPa) = 29.41347 40.85537 35.13442
#
# Velocity S-wave (km/s) = 3.72026 4.38455 4.06599
# Velocity P-wave (km/s) = 5.57472 7.23819 6.46022
#
# Compressibility (1/GPa) = 0.03727453
#
# Stress axis : x y z
#
# Youngs Moduli (GPa) = 26.14045 105.65711 102.86022
#
# Poissons Ratio (x) = -0.21860 0.81751
# Poissons Ratio (y) = -0.05408 0.43249
# Poissons Ratio (z) = 0.20776 0.44425
#
# Static dielectric constant tensor:
#      x y z
#    x 3.783380 -0.001690 -0.184840 
#    y -0.001690 4.191000 -0.160260 
#    z -0.184840 -0.160260 4.152860 
# 
# 
# High freq. dielectric constant tensor:
#      x y z
#    x 1.830300 -0.001030 -0.011100 
#    y -0.001030 1.852400 -0.013460 
#    z -0.011100 -0.013460 1.851760 
# 
# From -- ./inp_files/205332.got.cif
#   From: 2010.06.25/outbox.ucp.g09.slc.cvg/sg2_103_cif.got.tgz:205332.got - 2010.06.28 11:54:26.
