data_PCOD8038776
_publ_section_title
;
Structure prediction by ZEFSAII (Michael W. Deem and Ramdas Pophale) SiO2 
 PCOD8038776
Probable space group: P -1
;
_chemical_formula_sum "Si O2"
_cell_formula_units_Z 16
_cell_length_a 11.495272
_cell_length_b 11.063186
_cell_length_c 14.754356
_cell_angle_alpha 123.963303
_cell_angle_beta 111.366233
_cell_angle_gamma 115.494379
_cell_volume 827.916340
_symmetry_space_group_name_H-M "P -1"
_symmetry_group_IT_number 2
_symmetry_cell_setting 'triclinic'
loop_
_space_group_symop_operation_xyz
x,y,z
-x,-y,-z
loop_
_atom_site_type_symbol
_atom_site_label
_atom_site_fract_x
_atom_site_fract_y
_atom_site_fract_z
Si Si1 0.205694 0.857392 0.866962
Si Si2 0.116095 0.488891 0.927887
Si Si3 0.663807 0.046398 0.516100
Si Si4 0.482432 0.927106 0.104755
Si Si5 0.028035 0.732135 0.022996
Si Si6 0.778324 0.873770 0.878904
Si Si7 0.380741 0.580944 0.340388
Si Si8 0.294884 0.706934 0.522108
O O1 0.334072 0.984193 0.861346
O O2 0.954705 0.582545 0.658621
O O3 0.302432 0.825720 0.945595
O O4 0.243579 0.049119 0.005472
O O5 0.908185 0.276766 0.717230
O O6 0.139748 0.681678 0.043977
O O7 0.091353 0.355456 0.950886
O O8 0.344956 0.676691 0.020207
O O9 0.679787 0.109902 0.442696
O O10 0.500000 0.000000 0.500000
O O11 0.559808 0.788579 0.399962
O O12 0.597327 0.166629 0.295935
O O13 0.854624 0.581073 0.828304
O O14 0.219945 0.030473 0.174664
O O15 0.597034 0.571694 0.700723
O O16 0.000000 0.000000 0.000000
O O17 0.423759 0.707207 0.500197
#
# Coordination Sequence:
#
# PCOD8038776 Si02
#       8
#     2   2   2   2   2   2   2   2
#     4  11  21  40  56  85 114 151 191 228 284 334
#     4  11  19  33  53  81 116 140 186 241 280 325
#     4  10  18  31  50  83 115 141 184 234 282 329
#     4  11  23  34  59  86 115 149 185 238 283 334
#     4  10  18  30  53  77 108 145 181 228 282 322
#     4  10  18  36  59  78 117 153 183 229 282 340
#     4  10  19  32  54  84 113 146 180 229 284 339
#     4  11  19  36  56  87 115 142 191 230 288 328
#
# _framework density 19.325624999999999
#
# number of rings (size 3 to 8) (size 9 to 14) (size 15 to 20)
#    0.000    1.500    7.500    1.125    5.250    0.000 
#    0.000    2.500    0.000    7.500    0.000    0.000 
#    0.000    0.000    0.000    0.000    0.000    0.000 
#
# Total GULP energy -198224.142280 kJ/mol
# GULP energy per Si atom -12389.008893 kJ/mol
# Density = 1.928164 g / cm^3
# Si number density = 19.325625 Si / 1000 Ang^3
#
#
#
# Elastic Constant Matrix: (Units=GPa)
#
#
# Indices 1 2 3 4 5 6 
#
# 1 61.8009 41.8299 17.8014 14.2011 -12.8686 11.6594
# 2 41.8299 143.6494 38.9487 30.4457 -16.2514 6.4814
# 3 17.8014 38.9487 72.0048 15.0613 -5.1652 8.1764
# 4 14.2011 30.4457 15.0613 39.5874 -1.2215 -2.8979
# 5 -12.8686 -16.2514 -5.1652 -1.2215 21.9330 3.5808
# 6 11.6594 6.4814 8.1764 -2.8979 3.5808 32.2372
#
#
#
# Elastic Compliance Matrix: (Units=1/GPa)
#
#
# Indices 1 2 3 4 5 6 
#
# 1 0.024996 -0.003882 -0.000751 -0.006033 0.012917 -0.010047
# 2 -0.003882 0.010726 -0.003231 -0.005551 0.004756 -0.000960
# 3 -0.000751 -0.003231 0.017240 -0.004047 0.001653 -0.003999
# 4 -0.006033 -0.005551 -0.004047 0.033587 -0.008080 0.008241
# 5 0.012917 0.004756 0.001653 -0.008080 0.058808 -0.013306
# 6 -0.010047 -0.000960 -0.003999 0.008241 -0.013306 0.038080
#
#
# Mechanical properties :
#
#
# Convention : Reuss Voigt Hill
#
# Bulk Modulus (GPa) = 26.85615 52.73501 39.79558
# Shear Modulus (GPa) = 23.63228 30.67653 27.15440
#
# Velocity S-wave (km/s) = 3.50072 3.98848 3.75253
# Velocity P-wave (km/s) = 5.50153 6.96832 6.27791
#
# Compressibility (1/GPa) = 0.03723542
#
# Stress axis : x y z
#
# Youngs Moduli (GPa) = 40.00651 93.23470 58.00364
#
# Poissons Ratio (x) = 0.36194 0.04353
# Poissons Ratio (y) = 0.15531 0.18739
# Poissons Ratio (z) = 0.03003 0.30121
#
# Static dielectric constant tensor:
#      x y z
#    x -18.434040 12.780490 14.657920 
#    y 12.780490 -2.971260 -8.283090 
#    z 14.657920 -8.283090 -6.441580 
# 
# 
# High freq. dielectric constant tensor:
#      x y z
#    x 1.689570 0.010190 0.009120 
#    y 0.010190 1.767180 0.011090 
#    z 0.009120 0.011090 1.754120 
# 
# From -- ./inp_files/474774.got.cif
#   From: 2010.06.25/outbox.cif.g09.slc.cpg/sg2_238_cif.got.tgz:474774.got - 2010.06.27 13:26:56.
