data_PCOD8038343
_publ_section_title
;
Structure prediction by ZEFSAII (Michael W. Deem and Ramdas Pophale) SiO2 
 PCOD8038343
Probable space group: P -1
;
_chemical_formula_sum "Si O2"
_cell_formula_units_Z 16
_cell_length_a 9.493442
_cell_length_b 16.930962
_cell_length_c 11.128924
_cell_angle_alpha 31.576185
_cell_angle_beta 114.526985
_cell_angle_gamma 106.032850
_cell_volume 840.802356
_symmetry_space_group_name_H-M "P -1"
_symmetry_group_IT_number 2
_symmetry_cell_setting 'triclinic'
loop_
_space_group_symop_operation_xyz
x,y,z
-x,-y,-z
loop_
_atom_site_type_symbol
_atom_site_label
_atom_site_fract_x
_atom_site_fract_y
_atom_site_fract_z
Si Si1 0.707952 0.670646 0.954964
Si Si2 0.821622 0.550827 0.907464
Si Si3 0.648958 0.294896 0.267116
Si Si4 0.636844 0.955254 0.969860
Si Si5 0.279461 0.630077 0.537245
Si Si6 0.568393 0.752078 0.406367
Si Si7 0.079135 0.917107 0.019968
Si Si8 0.236583 0.044351 0.250798
O O1 0.821630 0.634680 0.927722
O O2 0.536359 0.648535 0.877346
O O3 0.714264 0.837504 0.789921
O O4 0.753669 0.543389 0.240605
O O5 0.732833 0.667003 0.627295
O O6 0.737337 0.401820 0.077284
O O7 0.000000 0.500000 0.000000
O O8 0.704884 0.296666 0.421181
O O9 0.689321 0.121487 0.458829
O O10 0.591113 0.802169 0.211129
O O11 0.763706 0.009174 0.038072
O O12 0.699931 0.918055 0.906683
O O13 0.490581 0.094966 0.733082
O O14 0.438809 0.639102 0.507961
O O15 0.128504 0.733746 0.289938
O O16 0.953193 0.943160 0.833723
O O17 0.000000 0.000000 0.000000
#
# Coordination Sequence:
#
# PCOD8038343 Si02
#       8
#     2   2   2   2   2   2   2   2
#     4  11  22  37  59  84 120 151 185 240 279 345
#     4  11  23  36  61  86 110 150 194 236 280 332
#     4  11  19  38  62  83 112 156 191 229 274 349
#     4   9  19  32  60  84 109 149 189 241 272 340
#     4  10  17  35  59  80 109 149 199 224 275 337
#     4  10  17  35  57  84 109 141 203 229 276 329
#     4   9  17  32  54  80 108 144 188 233 273 330
#     4  11  21  35  57  91 113 145 192 232 295 329
#
# _framework density 19.029440999999998
#
# number of rings (size 3 to 8) (size 9 to 14) (size 15 to 20)
#    0.000    1.750    6.250    1.125    1.750    1.500 
#    0.000    1.250    8.250    0.000    0.000    0.000 
#    0.000    0.000    0.000    0.000    0.000    0.000 
#
# Total GULP energy -198359.026805 kJ/mol
# GULP energy per Si atom -12397.439175 kJ/mol
# Density = 1.898613 g / cm^3
# Si number density = 19.029441 Si / 1000 Ang^3
#
#
#
# Elastic Constant Matrix: (Units=GPa)
#
#
# Indices 1 2 3 4 5 6 
#
# 1 103.7543 25.0586 42.8855 0.2953 11.3653 -2.4809
# 2 25.0586 63.9124 8.6130 -18.0874 -4.6880 -4.7120
# 3 42.8855 8.6130 98.9214 -10.8900 1.7681 -6.6274
# 4 0.2953 -18.0874 -10.8900 27.3247 6.2790 2.5864
# 5 11.3653 -4.6880 1.7681 6.2790 35.4543 2.5497
# 6 -2.4809 -4.7120 -6.6274 2.5864 2.5497 16.1179
#
#
#
# Elastic Compliance Matrix: (Units=1/GPa)
#
#
# Indices 1 2 3 4 5 6 
#
# 1 0.014339 -0.006887 -0.006279 -0.006217 -0.004039 -0.000752
# 2 -0.006887 0.022774 0.002937 0.015472 0.002045 0.004000
# 3 -0.006279 0.002937 0.013634 0.006995 0.000170 0.004349
# 4 -0.006217 0.015472 0.006995 0.050992 -0.005276 -0.000905
# 5 -0.004039 0.002045 0.000170 -0.005276 0.030985 -0.004009
# 6 -0.000752 0.004000 0.004349 -0.000905 -0.004009 0.065664
#
#
# Mechanical properties :
#
#
# Convention : Reuss Voigt Hill
#
# Bulk Modulus (GPa) = 33.01467 46.63359 39.82413
# Shear Modulus (GPa) = 21.83961 28.44811 25.14386
#
# Velocity S-wave (km/s) = 3.39141 3.87066 3.63893
# Velocity P-wave (km/s) = 5.72036 6.67347 6.21521
#
# Compressibility (1/GPa) = 0.03028957
#
# Stress axis : x y z
#
# Youngs Moduli (GPa) = 69.73920 43.90928 73.34592
#
# Poissons Ratio (x) = 0.30240 0.46057
# Poissons Ratio (y) = 0.48029 -0.21545
# Poissons Ratio (z) = 0.43792 -0.12898
#
# Static dielectric constant tensor:
#      x y z
#    x 3.672680 0.248450 0.091900 
#    y 0.248450 3.096130 -0.037080 
#    z 0.091900 -0.037080 3.789330 
# 
# 
# High freq. dielectric constant tensor:
#      x y z
#    x 1.735870 0.010570 0.008890 
#    y 0.010570 1.689490 -0.009600 
#    z 0.008890 -0.009600 1.760200 
# 
# From -- ./inp_files/181555.got.cif
#   From: 2010.06.25/outbox.cif.g09.slc.cpg/sg2_91_cif.got.tgz:181555.got - 2010.06.27 13:26:56.
