data_PCOD8038322
_publ_section_title
;
Structure prediction by ZEFSAII (Michael W. Deem and Ramdas Pophale) SiO2 
 PCOD8038322
Probable space group: P -1
;
_chemical_formula_sum "Si O2"
_cell_formula_units_Z 16
_cell_length_a 9.252582
_cell_length_b 9.233173
_cell_length_c 11.802596
_cell_angle_alpha 110.073200
_cell_angle_beta 64.838396
_cell_angle_gamma 92.972767
_cell_volume 851.926870
_symmetry_space_group_name_H-M "P -1"
_symmetry_group_IT_number 2
_symmetry_cell_setting 'triclinic'
loop_
_space_group_symop_operation_xyz
x,y,z
-x,-y,-z
loop_
_atom_site_type_symbol
_atom_site_label
_atom_site_fract_x
_atom_site_fract_y
_atom_site_fract_z
Si Si1 0.232088 0.065745 0.536993
Si Si2 0.527567 0.746004 0.597982
Si Si3 0.350624 0.063571 0.743916
Si Si4 0.467259 0.465257 0.678270
Si Si5 0.930592 0.236527 0.774565
Si Si6 0.910282 0.482301 0.143179
Si Si7 0.015189 0.157900 0.973754
Si Si8 0.648462 0.227059 0.704732
O O1 0.307419 0.171537 0.444166
O O2 0.334620 0.095990 0.623608
O O3 0.042993 0.107709 0.631890
O O4 0.249532 0.884685 0.449341
O O5 0.525920 0.632529 0.676002
O O6 0.502751 0.647004 0.468569
O O7 0.376474 0.877784 0.702400
O O8 0.201123 0.153450 0.881237
O O9 0.498678 0.139259 0.768448
O O10 0.282120 0.479545 0.785381
O O11 0.584599 0.393801 0.718806
O O12 0.752911 0.256413 0.788027
O O13 0.013635 0.395186 0.769046
O O14 0.915425 0.181615 0.895420
O O15 0.000000 0.500000 0.000000
O O16 0.957737 0.302321 0.115391
O O17 0.000000 0.000000 0.000000
#
# Coordination Sequence:
#
# PCOD8038322 Si02
#       8
#     2   2   2   2   2   2   2   2
#     4  10  17  35  53  79 109 150 174 215 261 339
#     4  10  18  30  56  81 107 134 180 226 263 311
#     4  10  18  35  57  81 105 144 186 216 261 330
#     4  11  19  32  54  81 107 140 179 222 269 317
#     4  10  21  35  54  80 109 141 179 222 269 323
#     4  10  20  38  56  75 107 146 186 220 258 325
#     4  10  21  39  60  79 100 143 190 225 263 317
#     4  11  19  33  54  82 110 141 177 219 272 321
#
# _framework density 18.780954999999999
#
# number of rings (size 3 to 8) (size 9 to 14) (size 15 to 20)
#    0.000    1.750    3.750    3.375    0.000    0.000 
#    0.000    9.375    0.000    0.000    0.000    0.000 
#    0.000    0.000    0.000    0.000    0.000    0.000 
#
# Total GULP energy -198282.482932 kJ/mol
# GULP energy per Si atom -12392.655183 kJ/mol
# Density = 1.873821 g / cm^3
# Si number density = 18.780955 Si / 1000 Ang^3
#
#
#
# Elastic Constant Matrix: (Units=GPa)
#
#
# Indices 1 2 3 4 5 6 
#
# 1 120.8271 55.4747 42.5682 -2.2225 -2.3526 -16.3489
# 2 55.4747 151.1697 34.6258 1.1411 0.4754 -15.3120
# 3 42.5682 34.6258 59.4893 9.4892 -9.5208 -9.4446
# 4 -2.2225 1.1411 9.4892 27.3508 -5.3717 -8.6539
# 5 -2.3526 0.4754 -9.5208 -5.3717 13.7051 2.3874
# 6 -16.3489 -15.3120 -9.4446 -8.6539 2.3874 21.1586
#
#
#
# Elastic Compliance Matrix: (Units=1/GPa)
#
#
# Indices 1 2 3 4 5 6 
#
# 1 0.013370 -0.002241 -0.008392 0.006055 -0.002428 0.007713
# 2 -0.002241 0.008638 -0.003549 0.001244 -0.003328 0.003820
# 3 -0.008392 -0.003549 0.028407 -0.007734 0.015611 -0.001298
# 4 0.006055 0.001244 -0.007734 0.048385 0.010986 0.020677
# 5 -0.002428 -0.003328 0.015611 0.010986 0.088300 -0.002786
# 6 0.007713 0.003820 -0.001298 0.020677 -0.002786 0.064178
#
#
# Mechanical properties :
#
#
# Convention : Reuss Voigt Hill
#
# Bulk Modulus (GPa) = 45.35076 66.31374 55.83225
# Shear Modulus (GPa) = 17.42201 25.69738 21.55970
#
# Velocity S-wave (km/s) = 3.04903 3.70302 3.39182
# Velocity P-wave (km/s) = 6.04938 7.32590 6.71803
#
# Compressibility (1/GPa) = 0.02205035
#
# Stress axis : x y z
#
# Youngs Moduli (GPa) = 74.79696 115.76366 35.20286
#
# Poissons Ratio (x) = 0.25939 0.29543
# Poissons Ratio (y) = 0.16760 0.12494
# Poissons Ratio (z) = 0.62772 0.41085
#
# Static dielectric constant tensor:
#      x y z
#    x 3.082500 -0.329430 0.234250 
#    y -0.329430 3.542570 1.281480 
#    z 0.234250 1.281480 1.315380 
# 
# 
# High freq. dielectric constant tensor:
#      x y z
#    x 1.703370 -0.003440 -0.029710 
#    y -0.003440 1.739610 0.021160 
#    z -0.029710 0.021160 1.716500 
# 
# From -- ./inp_files/176399.got.cif
#   From: 2010.06.25/outbox.cif.g09.slc.cpg/sg2_89_cif.got.tgz:176399.got - 2010.06.27 13:26:56.
