data_PCOD8038936
_publ_section_title
;
Structure prediction by ZEFSAII (Michael W. Deem and Ramdas Pophale) SiO2 
 PCOD8038936
Probable space group: P -1
;
_chemical_formula_sum "Si O2"
_cell_formula_units_Z 16
_cell_length_a 8.934415
_cell_length_b 30.769357
_cell_length_c 15.595172
_cell_angle_alpha 160.225130
_cell_angle_beta 134.382832
_cell_angle_gamma 37.069883
_cell_volume 846.103507
_symmetry_space_group_name_H-M "P -1"
_symmetry_group_IT_number 2
_symmetry_cell_setting 'triclinic'
loop_
_space_group_symop_operation_xyz
x,y,z
-x,-y,-z
loop_
_atom_site_type_symbol
_atom_site_label
_atom_site_fract_x
_atom_site_fract_y
_atom_site_fract_z
Si Si1 0.237357 0.541761 0.009754
Si Si2 0.409912 0.537151 0.396463
Si Si3 0.204767 0.714763 0.034763
Si Si4 0.978267 0.026275 0.691773
Si Si5 0.862195 0.774436 0.153845
Si Si6 0.558506 0.274469 0.097873
Si Si7 0.980324 0.355641 0.711473
Si Si8 0.526708 0.766812 0.386472
O O1 0.285954 0.372597 0.730160
O O2 0.500000 0.500000 0.000000
O O3 0.145240 0.652072 0.264465
O O4 0.017552 0.635535 0.026234
O O5 0.391354 0.422676 0.241452
O O6 0.415489 0.668122 0.693176
O O7 0.178420 0.626587 0.402974
O O8 0.675655 0.428708 0.249736
O O9 0.090469 0.881335 0.253242
O O10 0.421747 0.690573 0.141332
O O11 0.986863 0.715570 0.000452
O O12 0.861934 0.924468 0.456597
O O13 0.847512 0.148581 0.944904
O O14 0.289745 0.918789 0.623043
O O15 0.578435 0.814991 0.112357
O O16 0.280824 0.204141 0.534395
O O17 0.000000 0.500000 0.000000
#
# Coordination Sequence:
#
# PCOD8038936 Si02
#       8
#     2   2   2   2   2   2   2   2
#     4  11  18  30  52  83 110 131 171 232 267 298
#     4  10  19  38  54  79 111 141 185 218 269 325
#     4  10  19  34  55  79 113 138 175 225 275 316
#     4  10  21  36  52  79 115 143 175 223 273 320
#     4  11  20  34  54  88 106 139 183 224 272 316
#     4  10  22  34  56  78 110 149 177 225 266 318
#     4  10  18  31  56  78 102 139 179 218 264 322
#     4  10  18  32  51  82 103 141 174 220 270 315
#
# _framework density 18.910216999999999
#
# number of rings (size 3 to 8) (size 9 to 14) (size 15 to 20)
#    0.000    1.750    5.000    3.375    1.750    0.500 
#    2.250    0.625    0.000    0.750    0.000    0.000 
#    0.000    0.000    0.000    0.000    0.000    0.000 
#
# Total GULP energy -198251.722040 kJ/mol
# GULP energy per Si atom -12390.732627 kJ/mol
# Density = 1.886718 g / cm^3
# Si number density = 18.910217 Si / 1000 Ang^3
#
#
#
# Elastic Constant Matrix: (Units=GPa)
#
#
# Indices 1 2 3 4 5 6 
#
# 1 114.5658 34.7250 35.9662 9.2238 -24.1080 -11.0532
# 2 34.7250 58.7095 35.2560 11.1474 -6.8596 -0.6011
# 3 35.9662 35.2560 84.1222 7.2035 -24.1362 -1.8504
# 4 9.2238 11.1474 7.2035 19.1922 1.3906 -3.4332
# 5 -24.1080 -6.8596 -24.1362 1.3906 30.8525 6.5721
# 6 -11.0532 -0.6011 -1.8504 -3.4332 6.5721 30.0946
#
#
#
# Elastic Compliance Matrix: (Units=1/GPa)
#
#
# Indices 1 2 3 4 5 6 
#
# 1 0.012756 -0.005800 -0.000470 -0.002710 0.007899 0.002506
# 2 -0.005800 0.027512 -0.009764 -0.009536 -0.005168 -0.002140
# 3 -0.000470 -0.009764 0.020471 -0.003275 0.014173 -0.002578
# 4 -0.002710 -0.009536 -0.003275 0.062469 -0.011366 0.008222
# 5 0.007899 -0.005168 0.014173 -0.011366 0.050898 -0.008742
# 6 0.002506 -0.002140 -0.002578 0.008222 -0.008742 0.036795
#
#
# Mechanical properties :
#
#
# Convention : Reuss Voigt Hill
#
# Bulk Modulus (GPa) = 34.87736 52.14355 43.51046
# Shear Modulus (GPa) = 19.80015 26.12455 22.96235
#
# Velocity S-wave (km/s) = 3.23934 3.72089 3.48844
# Velocity P-wave (km/s) = 5.69867 6.78927 6.26773
#
# Compressibility (1/GPa) = 0.02867189
#
# Stress axis : x y z
#
# Youngs Moduli (GPa) = 78.39400 36.34820 48.85068
#
# Poissons Ratio (x) = 0.21081 0.02294
# Poissons Ratio (y) = 0.45467 0.47697
# Poissons Ratio (z) = 0.03681 0.35490
#
# Static dielectric constant tensor:
#      x y z
#    x 4.273020 0.273070 -0.431630 
#    y 0.273070 3.724120 0.096930 
#    z -0.431630 0.096930 3.226790 
# 
# 
# High freq. dielectric constant tensor:
#      x y z
#    x 1.754710 0.003000 -0.027790 
#    y 0.003000 1.719200 0.019460 
#    z -0.027790 0.019460 1.695790 
# 
# From -- ./inp_files/260217.got.cif
#   From: 2010.06.25/outbox.cif.g09.slc.cpg/sg2_131_cif.got.tgz:260217.got - 2010.06.27 13:26:56.
