data_PCOD8038462
_publ_section_title
;
Structure prediction by ZEFSAII (Michael W. Deem and Ramdas Pophale) SiO2 
 PCOD8038462
Probable space group: P -1
;
_chemical_formula_sum "Si O2"
_cell_formula_units_Z 16
_cell_length_a 8.561102
_cell_length_b 8.747800
_cell_length_c 14.193783
_cell_angle_alpha 100.040262
_cell_angle_beta 111.211660
_cell_angle_gamma 52.006285
_cell_volume 779.264141
_symmetry_space_group_name_H-M "P -1"
_symmetry_group_IT_number 2
_symmetry_cell_setting 'triclinic'
loop_
_space_group_symop_operation_xyz
x,y,z
-x,-y,-z
loop_
_atom_site_type_symbol
_atom_site_label
_atom_site_fract_x
_atom_site_fract_y
_atom_site_fract_z
Si Si1 0.095719 0.925535 0.296498
Si Si2 0.411384 0.861264 0.685216
Si Si3 0.478563 0.173000 0.906265
Si Si4 0.144580 0.526190 0.753811
Si Si5 0.309758 0.943210 0.873917
Si Si6 0.182521 0.701459 0.603674
Si Si7 0.741660 0.914304 0.764533
Si Si8 0.987413 0.292519 0.626242
O O1 0.164968 0.725257 0.340007
O O2 0.285426 0.916589 0.289213
O O3 0.928952 0.979957 0.182802
O O4 0.002176 0.083329 0.377073
O O5 0.443444 0.810852 0.798659
O O6 0.373680 0.711815 0.615415
O O7 0.610472 0.842033 0.684352
O O8 0.214987 0.086193 0.654070
O O9 0.341101 0.381081 0.848078
O O10 0.321406 0.124643 0.901212
O O11 0.657653 0.002136 0.858855
O O12 0.594340 0.183026 0.023074
O O13 0.241709 0.549836 0.683656
O O14 0.009488 0.451538 0.688551
O O15 0.987589 0.730487 0.796627
O O16 0.108646 0.644146 0.491977
#
# Coordination Sequence:
#
# PCOD8038462 Si02
#       8
#     2   2   2   2   2   2   2   2
#     4   9  17  34  55  83 110 142 181 223 268 320
#     4   9  17  38  56  79 111 145 179 223 268 321
#     4  10  18  37  58  79 109 148 176 219 274 321
#     4  11  20  36  56  84 111 138 181 228 266 320
#     4   8  16  33  61  77 106 148 179 214 271 325
#     4   9  19  33  58  81 107 145 183 220 273 322
#     4  10  21  35  55  81 115 140 179 228 266 313
#     4  10  17  36  60  76 108 151 177 220 277 319
#
# _framework density 20.53219
#
# number of rings (size 3 to 8) (size 9 to 14) (size 15 to 20)
#    0.000    2.750    3.750    1.875    0.000    0.500 
#    2.250   17.500    0.000    0.000    0.000    0.000 
#    0.000    0.000    0.000    0.000    0.000    0.000 
#
# Total GULP energy -198235.292909 kJ/mol
# GULP energy per Si atom -12389.705807 kJ/mol
# Density = 2.048546 g / cm^3
# Si number density = 20.532190 Si / 1000 Ang^3
#
#
#
# Elastic Constant Matrix: (Units=GPa)
#
#
# Indices 1 2 3 4 5 6 
#
# 1 116.0585 15.3089 28.1420 -9.2901 -9.6168 21.1731
# 2 15.3089 61.0293 20.7718 -11.0839 -7.7566 2.8586
# 3 28.1420 20.7718 103.7229 -12.9009 -3.5860 -6.3638
# 4 -9.2901 -11.0839 -12.9009 22.2815 9.4306 -0.0854
# 5 -9.6168 -7.7566 -3.5860 9.4306 16.5741 -2.8890
# 6 21.1731 2.8586 -6.3638 -0.0854 -2.8890 28.7320
#
#
#
# Elastic Compliance Matrix: (Units=1/GPa)
#
#
# Indices 1 2 3 4 5 6 
#
# 1 0.011469 -0.000729 -0.003254 0.001017 0.003506 -0.008744
# 2 -0.000729 0.019222 -0.002884 0.005707 0.004431 -0.001551
# 3 -0.003254 -0.002884 0.011982 0.005354 -0.002808 0.005073
# 4 0.001017 0.005707 0.005354 0.065337 -0.033330 -0.003289
# 5 0.003506 0.004431 -0.002808 -0.033330 0.083613 0.004662
# 6 -0.008744 -0.001551 0.005073 -0.003289 0.004662 0.042985
#
#
# Mechanical properties :
#
#
# Convention : Reuss Voigt Hill
#
# Bulk Modulus (GPa) = 34.55685 45.47288 40.01487
# Shear Modulus (GPa) = 19.38064 27.95673 23.66868
#
# Velocity S-wave (km/s) = 3.07565 3.69400 3.39892
# Velocity P-wave (km/s) = 5.42955 6.35526 5.91055
#
# Compressibility (1/GPa) = 0.02893782
#
# Stress axis : x y z
#
# Youngs Moduli (GPa) = 87.19219 52.02277 83.46126
#
# Poissons Ratio (x) = 0.03794 0.27162
# Poissons Ratio (y) = 0.06359 0.24069
# Poissons Ratio (z) = 0.28376 0.15002
#
# Static dielectric constant tensor:
#      x y z
#    x 4.041930 0.410450 0.037240 
#    y 0.410450 3.370890 -0.035860 
#    z 0.037240 -0.035860 3.697870 
# 
# 
# High freq. dielectric constant tensor:
#      x y z
#    x 1.806610 0.032070 0.002550 
#    y 0.032070 1.766360 -0.002210 
#    z 0.002550 -0.002210 1.791030 
# 
# From -- ./inp_files/495252.got.cif
#   From: 2010.06.25/outbox.cif.g09.slc.cpg/sg2_248_cif.got.tgz:495252.got - 2010.06.27 13:26:56.
