data_PCOD8038139
_publ_section_title
;
Structure prediction by ZEFSAII (Michael W. Deem and Ramdas Pophale) SiO2 
 PCOD8038139
Probable space group: P -1
;
_chemical_formula_sum "Si O2"
_cell_formula_units_Z 16
_cell_length_a 12.154533
_cell_length_b 8.997401
_cell_length_c 21.636832
_cell_angle_alpha 69.183758
_cell_angle_beta 152.995721
_cell_angle_gamma 94.114973
_cell_volume 820.252936
_symmetry_space_group_name_H-M "P -1"
_symmetry_group_IT_number 2
_symmetry_cell_setting 'triclinic'
loop_
_space_group_symop_operation_xyz
x,y,z
-x,-y,-z
loop_
_atom_site_type_symbol
_atom_site_label
_atom_site_fract_x
_atom_site_fract_y
_atom_site_fract_z
Si Si1 0.801486 0.360862 0.460638
Si Si2 0.853770 0.184995 0.640123
Si Si3 0.552474 0.072596 0.676674
Si Si4 0.598754 0.790479 0.281605
Si Si5 0.708479 0.664856 0.798668
Si Si6 0.950296 0.873878 0.120952
Si Si7 0.803887 0.550935 0.724895
Si Si8 0.783786 0.869236 0.617549
O O1 0.886700 0.302990 0.584596
O O2 0.617320 0.593515 0.326162
O O3 0.600699 0.296599 0.338547
O O4 0.100476 0.250156 0.587791
O O5 0.528465 0.326920 0.489679
O O6 0.082597 0.115326 0.822289
O O7 0.936655 0.983662 0.679022
O O8 0.445349 0.119547 0.686228
O O9 0.278185 0.163679 0.478686
O O10 0.762112 0.140715 0.756021
O O11 0.731358 0.843701 0.789396
O O12 0.335448 0.940371 0.081472
O O13 0.719000 0.593586 0.746512
O O14 0.000000 0.500000 0.000000
O O15 0.985226 0.677292 0.147936
O O16 0.972219 0.649580 0.772455
O O17 0.500000 0.000000 0.500000
#
# Coordination Sequence:
#
# PCOD8038139 Si02
#       8
#     2   2   2   2   2   2   2   2
#     4  10  23  45  58  81 120 160 201 229 300 358
#     4  10  19  37  62  85 114 158 195 243 292 343
#     4  12  20  35  60  88 118 148 196 244 290 343
#     4  11  26  40  57  85 121 164 193 239 292 352
#     4  11  20  35  61  87 115 150 191 245 293 345
#     4  12  22  35  61  93 121 146 201 250 285 344
#     4  10  19  33  54  92 122 144 184 243 306 338
#     4  10  17  34  55  87 115 150 189 241 298 342
#
# _framework density 19.506177000000001
#
# number of rings (size 3 to 8) (size 9 to 14) (size 15 to 20)
#    0.000    1.250    6.250    3.750    1.750    1.000 
#    0.000    0.000    0.000    0.750    0.000    0.000 
#    0.000    0.000    0.000    0.000    0.000    0.000 
#
# Total GULP energy -198232.174145 kJ/mol
# GULP energy per Si atom -12389.510884 kJ/mol
# Density = 1.946178 g / cm^3
# Si number density = 19.506177 Si / 1000 Ang^3
#
#
#
# Elastic Constant Matrix: (Units=GPa)
#
#
# Indices 1 2 3 4 5 6 
#
# 1 61.2326 40.6486 78.5781 80.2793 -51.8105 18.7494
# 2 40.6486 106.1692 45.0035 -38.9485 -5.8747 4.1016
# 3 78.5781 45.0035 64.2705 -76.6399 7.9313 -15.7774
# 4 80.2793 -38.9485 -76.6399 -192.6084 90.0394 -59.3216
# 5 -51.8105 -5.8747 7.9313 90.0394 -12.4739 16.6084
# 6 18.7494 4.1016 -15.7774 -59.3216 16.6084 23.6442
#
#
#
# Elastic Compliance Matrix: (Units=1/GPa)
#
#
# Indices 1 2 3 4 5 6 
#
# 1 0.014515 0.000657 -0.007251 0.008637 0.002105 0.003730
# 2 0.000657 0.013986 -0.008157 0.002960 0.002884 -0.002989
# 3 -0.007251 -0.008157 0.022653 -0.005271 0.011560 0.000936
# 4 0.008637 0.002960 -0.005271 0.008280 0.016701 -0.001837
# 5 0.002105 0.002884 0.011560 0.016701 0.052089 0.010857
# 6 0.003730 -0.002989 0.000936 -0.001837 0.010857 0.028244
#
#
# Mechanical properties :
#
#
# Convention : Reuss Voigt Hill
#
# Bulk Modulus (GPa) = 46.18158 62.23700 54.20929
# Shear Modulus (GPa) = 28.33102 -31.79150 -1.73024
#
# Velocity S-wave (km/s) = 3.81519 -4.04148 -0.94284
# Velocity P-wave (km/s) = 6.56767 3.19335 5.16390
#
# Compressibility (1/GPa) = 0.02165365
#
# Stress axis : x y z
#
# Youngs Moduli (GPa) = 68.89577 71.50170 44.14376
#
# Poissons Ratio (x) = -0.04700 0.32008
# Poissons Ratio (y) = -0.04529 0.36006
# Poissons Ratio (z) = 0.49955 0.58321
#
# Static dielectric constant tensor:
#      x y z
#    x 2.943120 -0.106830 0.180290 
#    y -0.106830 3.707520 0.164590 
#    z 0.180290 0.164590 2.863610 
# 
# 
# High freq. dielectric constant tensor:
#      x y z
#    x 1.752110 0.008920 -0.039580 
#    y 0.008920 1.771820 -0.010480 
#    z -0.039580 -0.010480 1.734850 
# 
# From -- ./inp_files/321083.got.cif
#   From: 2010.06.25/outbox.cif.g09.slc.cpg/sg2_161_cif.got.tgz:321083.got - 2010.06.27 13:26:56.
