data_PCOD8038908
_publ_section_title
;
Structure prediction by ZEFSAII (Michael W. Deem and Ramdas Pophale) SiO2 
 PCOD8038908
Probable space group: P -1
;
_chemical_formula_sum "Si O2"
_cell_formula_units_Z 16
_cell_length_a 14.382764
_cell_length_b 24.121865
_cell_length_c 13.179429
_cell_angle_alpha 26.038685
_cell_angle_beta 135.483192
_cell_angle_gamma 151.893722
_cell_volume 872.955355
_symmetry_space_group_name_H-M "P -1"
_symmetry_group_IT_number 2
_symmetry_cell_setting 'triclinic'
loop_
_space_group_symop_operation_xyz
x,y,z
-x,-y,-z
loop_
_atom_site_type_symbol
_atom_site_label
_atom_site_fract_x
_atom_site_fract_y
_atom_site_fract_z
Si Si1 0.167778 0.501023 0.452392
Si Si2 0.719345 0.144227 0.987346
Si Si3 0.094415 0.512209 0.163573
Si Si4 0.411588 0.300311 0.638988
Si Si5 0.386134 0.795637 0.701113
Si Si6 0.540442 0.026731 0.246211
Si Si7 0.409116 0.582524 0.195829
Si Si8 0.170922 0.901689 0.044100
O O1 0.165814 0.633497 0.290889
O O2 0.030169 0.418687 0.379375
O O3 0.402809 0.630383 0.393131
O O4 0.060031 0.313291 0.744093
O O5 0.839864 0.132715 0.029128
O O6 0.683769 0.067632 0.201529
O O7 0.500000 0.000000 0.000000
O O8 0.171229 0.444664 0.274032
O O9 0.864520 0.395336 0.138830
O O10 0.297190 0.761061 0.913369
O O11 0.399070 0.438025 0.373759
O O12 0.432238 0.300032 0.777123
O O13 0.196598 0.069910 0.811472
O O14 0.500000 0.000000 0.500000
O O15 0.427750 0.838880 0.540905
O O16 0.490983 0.744322 0.908566
O O17 0.359330 0.971661 0.138067
#
# Coordination Sequence:
#
# PCOD8038908 Si02
#       8
#     2   2   2   2   2   2   2   2
#     4  10  18  31  54  80 106 133 169 216 261 306
#     4   9  17  31  53  78 109 131 163 220 270 297
#     4  10  19  35  49  75 108 133 168 217 258 298
#     4  10  20  38  48  73 115 135 171 211 251 316
#     4  12  21  33  56  77 102 136 178 216 253 304
#     4  10  19  33  50  80 107 130 167 221 261 300
#     4  10  21  36  51  73 107 146 168 208 260 303
#     4  11  17  33  54  80 105 135 173 213 264 305
#
# _framework density 18.328543
#
# number of rings (size 3 to 8) (size 9 to 14) (size 15 to 20)
#    0.000    1.750    7.500    0.750    0.000    0.000 
#    2.250    1.875    0.000    0.750    0.000    4.375 
#    0.000    0.000    0.000    0.000    0.000    0.000 
#
# Total GULP energy -198217.438777 kJ/mol
# GULP energy per Si atom -12388.589924 kJ/mol
# Density = 1.828683 g / cm^3
# Si number density = 18.328543 Si / 1000 Ang^3
#
#
#
# Elastic Constant Matrix: (Units=GPa)
#
#
# Indices 1 2 3 4 5 6 
#
# 1 70.9192 11.9850 53.9411 -7.6106 9.3260 -14.8211
# 2 11.9850 38.3789 18.4944 -2.8209 2.2634 -4.4215
# 3 53.9411 18.4944 127.9239 -2.8456 3.1077 -7.8800
# 4 -7.6106 -2.8209 -2.8456 27.2343 3.5302 -0.3464
# 5 9.3260 2.2634 3.1077 3.5302 29.0506 -10.1459
# 6 -14.8211 -4.4215 -7.8800 -0.3464 -10.1459 16.0985
#
#
#
# Elastic Compliance Matrix: (Units=1/GPa)
#
#
# Indices 1 2 3 4 5 6 
#
# 1 0.026408 -0.000863 -0.009687 0.006743 -0.001783 0.018355
# 2 -0.000863 0.028779 -0.003403 0.002451 0.000027 0.005513
# 3 -0.009687 -0.003403 0.012123 -0.001989 0.001200 -0.003205
# 4 0.006743 0.002451 -0.001989 0.039448 -0.005869 0.003057
# 5 -0.001783 0.000027 0.001200 -0.005869 0.045094 0.027247
# 6 0.018355 0.005513 -0.003205 0.003057 0.027247 0.096199
#
#
# Mechanical properties :
#
#
# Convention : Reuss Voigt Hill
#
# Bulk Modulus (GPa) = 25.37824 45.11812 35.24818
# Shear Modulus (GPa) = 17.29552 24.66346 20.97949
#
# Velocity S-wave (km/s) = 3.07520 3.67226 3.38692
# Velocity P-wave (km/s) = 5.14641 6.53073 5.87945
#
# Compressibility (1/GPa) = 0.03940384
#
# Stress axis : x y z
#
# Youngs Moduli (GPa) = 37.86712 34.74717 82.48903
#
# Poissons Ratio (x) = 0.03000 0.79904
# Poissons Ratio (y) = 0.03270 0.28072
# Poissons Ratio (z) = 0.36680 0.11825
#
# Static dielectric constant tensor:
#      x y z
#    x 4.265610 -0.427580 -0.336040 
#    y -0.427580 3.234550 -0.045480 
#    z -0.336040 -0.045480 3.492100 
# 
# 
# High freq. dielectric constant tensor:
#      x y z
#    x 1.706470 -0.019200 -0.021130 
#    y -0.019200 1.683450 -0.017460 
#    z -0.021130 -0.017460 1.700990 
# 
# From -- ./inp_files/453923.got.cif
#   From: 2010.06.25/outbox.cif.g09.slc.cpg/sg2_227_cif.got.tgz:453923.got - 2010.06.27 13:26:56.
