data_PCOD8038412
_publ_section_title
;
Structure prediction by ZEFSAII (Michael W. Deem and Ramdas Pophale) SiO2 
 PCOD8038412
Probable space group: P -1
;
_chemical_formula_sum "Si O2"
_cell_formula_units_Z 16
_cell_length_a 8.097164
_cell_length_b 11.528439
_cell_length_c 12.640637
_cell_angle_alpha 56.971983
_cell_angle_beta 120.207231
_cell_angle_gamma 121.809537
_cell_volume 801.203973
_symmetry_space_group_name_H-M "P -1"
_symmetry_group_IT_number 2
_symmetry_cell_setting 'triclinic'
loop_
_space_group_symop_operation_xyz
x,y,z
-x,-y,-z
loop_
_atom_site_type_symbol
_atom_site_label
_atom_site_fract_x
_atom_site_fract_y
_atom_site_fract_z
Si Si1 0.400836 0.622629 0.427408
Si Si2 0.301474 0.125842 0.205797
Si Si3 0.554848 0.915355 0.947828
Si Si4 0.037530 0.405510 0.715568
Si Si5 0.350531 0.130023 0.775283
Si Si6 0.964136 0.140106 0.973842
Si Si7 0.644395 0.299378 0.385617
Si Si8 0.066629 0.828403 0.371941
O O1 0.500000 0.500000 0.500000
O O2 0.162990 0.550773 0.354689
O O3 0.504593 0.762006 0.316805
O O4 0.420912 0.676768 0.528365
O O5 0.420328 0.163821 0.112797
O O6 0.098559 0.170658 0.109759
O O7 0.436817 0.214888 0.300021
O O8 0.225478 0.949424 0.287403
O O9 0.354435 0.962191 0.849859
O O10 0.576651 0.817332 0.105219
O O11 0.722492 0.081779 0.941326
O O12 0.026441 0.329867 0.635585
O O13 0.241724 0.547434 0.714002
O O14 0.051977 0.291345 0.864267
O O15 0.119428 0.120449 0.678759
O O16 0.000000 0.000000 0.000000
O O17 0.792528 0.201182 0.475157
#
# Coordination Sequence:
#
# PCOD8038412 Si02
#       8
#     2   2   2   2   2   2   2   2
#     4  11  22  39  60  85 122 160 197 239 293 363
#     4  11  21  39  61  89 121 156 198 250 300 339
#     4  10  19  36  61  91 116 148 202 255 288 348
#     4  11  20  39  62  87 114 158 211 242 283 353
#     4  11  20  33  63  92 111 150 206 246 292 338
#     4  10  17  35  64  85 111 150 199 251 282 343
#     4  11  25  38  59  89 124 158 198 244 295 356
#     4  11  19  37  61  86 117 162 200 239 284 362
#
# _framework density 19.969946
#
# number of rings (size 3 to 8) (size 9 to 14) (size 15 to 20)
#    0.000    1.250    5.000    4.875    0.000    0.500 
#    0.000    3.750    0.000    1.500    0.000    0.000 
#    0.000    0.000    0.000    0.000    0.000    0.000 
#
# Total GULP energy -198214.481096 kJ/mol
# GULP energy per Si atom -12388.405069 kJ/mol
# Density = 1.992449 g / cm^3
# Si number density = 19.969946 Si / 1000 Ang^3
#
#
#
# Elastic Constant Matrix: (Units=GPa)
#
#
# Indices 1 2 3 4 5 6 
#
# 1 84.7724 31.9580 37.4866 -0.7662 3.4755 1.8056
# 2 31.9580 58.4718 44.0793 5.2560 3.2532 5.5353
# 3 37.4866 44.0793 128.1342 -1.8155 7.4829 3.4852
# 4 -0.7662 5.2560 -1.8155 32.9879 6.9486 -1.5167
# 5 3.4755 3.2532 7.4829 6.9486 45.1180 -3.8634
# 6 1.8056 5.5353 3.4852 -1.5167 -3.8634 20.9598
#
#
#
# Elastic Compliance Matrix: (Units=1/GPa)
#
#
# Indices 1 2 3 4 5 6 
#
# 1 0.015375 -0.007055 -0.002045 0.001514 -0.000493 0.000898
# 2 -0.007055 0.027485 -0.007312 -0.005230 0.000083 -0.005798
# 3 -0.002045 -0.007312 0.011027 0.002036 -0.001444 0.000155
# 4 0.001514 -0.005230 0.002036 0.032429 -0.004869 0.002361
# 5 -0.000493 0.000083 -0.001444 -0.004869 0.023549 0.004249
# 6 0.000898 -0.005798 0.000155 0.002361 0.004249 0.050093
#
#
# Mechanical properties :
#
#
# Convention : Reuss Voigt Hill
#
# Bulk Modulus (GPa) = 47.47913 55.38070 51.42991
# Shear Modulus (GPa) = 25.02447 30.33676 27.68061
#
# Velocity S-wave (km/s) = 3.54376 3.90182 3.72709
# Velocity P-wave (km/s) = 6.36956 6.93478 6.65817
#
# Compressibility (1/GPa) = 0.02106189
#
# Stress axis : x y z
#
# Youngs Moduli (GPa) = 65.03984 36.38341 90.68512
#
# Poissons Ratio (x) = 0.25669 0.18548
# Poissons Ratio (y) = 0.45887 0.66312
# Poissons Ratio (z) = 0.13302 0.26605
#
# Static dielectric constant tensor:
#      x y z
#    x 3.883540 0.322080 0.247030 
#    y 0.322080 3.298640 0.023330 
#    z 0.247030 0.023330 4.045700 
# 
# 
# High freq. dielectric constant tensor:
#      x y z
#    x 1.781560 0.020400 0.010250 
#    y 0.020400 1.725190 -0.016930 
#    z 0.010250 -0.016930 1.803540 
# 
# From -- ./inp_files/500086.got.cif
#   From: 2010.06.25/outbox.cif.g09.slc.cpg/sg2_251_cif.got.tgz:500086.got - 2010.06.27 13:26:56.
