data_PCOD8038647
_publ_section_title
;
Structure prediction by ZEFSAII (Michael W. Deem and Ramdas Pophale) SiO2 
 PCOD8038647
Probable space group: P -1
;
_chemical_formula_sum "Si O2"
_cell_formula_units_Z 16
_cell_length_a 14.453394
_cell_length_b 9.300102
_cell_length_c 9.266693
_cell_angle_alpha 87.020299
_cell_angle_beta 139.425797
_cell_angle_gamma 91.663741
_cell_volume 808.985350
_symmetry_space_group_name_H-M "P -1"
_symmetry_group_IT_number 2
_symmetry_cell_setting 'triclinic'
loop_
_space_group_symop_operation_xyz
x,y,z
-x,-y,-z
loop_
_atom_site_type_symbol
_atom_site_label
_atom_site_fract_x
_atom_site_fract_y
_atom_site_fract_z
Si Si1 0.390503 0.298261 0.911849
Si Si2 0.129135 0.587037 0.211936
Si Si3 0.160891 0.310551 0.422362
Si Si4 0.981316 0.333364 0.472774
Si Si5 0.936837 0.847403 0.966123
Si Si6 0.773893 0.748839 0.023014
Si Si7 0.665832 0.374756 0.091016
Si Si8 0.351054 0.535133 0.245002
O O1 0.355359 0.206837 0.021585
O O2 0.555525 0.289972 0.066479
O O3 0.300237 0.245641 0.670946
O O4 0.331829 0.458538 0.870013
O O5 0.188824 0.482095 0.415198
O O6 0.251498 0.618526 0.237917
O O7 0.000000 0.500000 0.000000
O O8 0.064563 0.740556 0.180486
O O9 0.138527 0.217697 0.259091
O O10 0.024031 0.288776 0.362931
O O11 0.816230 0.294945 0.301803
O O12 0.000000 0.500000 0.500000
O O13 0.081645 0.259607 0.712808
O O14 0.813030 0.865362 0.940798
O O15 0.000000 0.000000 0.000000
O O16 0.734685 0.605068 0.897496
O O17 0.623057 0.366106 0.870983
O O18 0.500000 0.500000 0.500000
#
# Coordination Sequence:
#
# PCOD8038647 Si02
#       8
#     2   2   2   2   2   2   2   2
#     4   9  19  30  49  81 113 144 174 226 286 340
#     4  10  18  31  55  81 108 141 184 227 285 327
#     4  10  18  33  58  82 108 146 179 235 290 333
#     4  11  17  31  55  80 115 139 179 234 282 330
#     4  11  23  36  56  83 115 151 197 236 274 333
#     4  10  20  36  51  80 116 147 178 231 286 326
#     4  10  18  28  47  81 121 139 177 221 293 335
#     4  11  19  30  52  91 119 141 177 234 286 341
#
# _framework density 19.777861000000001
#
# number of rings (size 3 to 8) (size 9 to 14) (size 15 to 20)
#    0.000    1.750    6.250    3.000    0.000    0.000 
#    0.000    2.500    0.000    0.750    0.000    2.625 
#    0.000    0.000    0.000    0.000    0.000    0.000 
#
# Total GULP energy -198241.169246 kJ/mol
# GULP energy per Si atom -12390.073078 kJ/mol
# Density = 1.973285 g / cm^3
# Si number density = 19.777861 Si / 1000 Ang^3
#
#
#
# Elastic Constant Matrix: (Units=GPa)
#
#
# Indices 1 2 3 4 5 6 
#
# 1 179.2416 33.2335 58.4047 8.8645 -2.2267 35.4220
# 2 33.2335 61.1788 14.7749 -4.6099 -9.1295 17.4915
# 3 58.4047 14.7749 82.9862 16.9878 -3.2501 6.2985
# 4 8.8645 -4.6099 16.9878 10.7701 1.6047 -0.5383
# 5 -2.2267 -9.1295 -3.2501 1.6047 36.7785 0.5176
# 6 35.4220 17.4915 6.2985 -0.5383 0.5176 21.9452
#
#
#
# Elastic Compliance Matrix: (Units=1/GPa)
#
#
# Indices 1 2 3 4 5 6 
#
# 1 0.010718 0.000374 -0.006589 0.000896 0.000341 -0.015693
# 2 0.000374 0.025520 -0.007445 0.020684 0.005056 -0.018420
# 3 -0.006589 -0.007445 0.025001 -0.036993 0.001457 0.008451
# 4 0.000896 0.020684 -0.036993 0.159898 -0.005011 -0.003274
# 5 0.000341 0.005056 0.001457 -0.005011 0.028895 -0.005804
# 6 -0.015693 -0.018420 0.008451 -0.003274 -0.005804 0.083211
#
#
# Mechanical properties :
#
#
# Convention : Reuss Voigt Hill
#
# Bulk Modulus (GPa) = 29.48139 59.58140 44.53139
# Shear Modulus (GPa) = 13.44565 28.36500 20.90533
#
# Velocity S-wave (km/s) = 2.61019 3.79116 3.25469
# Velocity P-wave (km/s) = 4.90130 7.02528 6.05712
#
# Compressibility (1/GPa) = 0.03391971
#
# Stress axis : x y z
#
# Youngs Moduli (GPa) = 93.30341 39.18533 39.99843
#
# Poissons Ratio (x) = -0.01467 0.26353
# Poissons Ratio (y) = -0.03492 0.29779
# Poissons Ratio (z) = 0.61474 0.29174
#
# Static dielectric constant tensor:
#      x y z
#    x 0.119740 -1.947250 0.100450 
#    y -1.947250 1.975150 0.075280 
#    z 0.100450 0.075280 3.951970 
# 
# 
# High freq. dielectric constant tensor:
#      x y z
#    x 1.800220 0.016740 -0.015950 
#    y 0.016740 1.686930 0.020680 
#    z -0.015950 0.020680 1.768800 
# 
# From -- ./inp_files/298028.got.cif
#   From: 2010.06.25/outbox.cif.g09.slc.cpg/sg2_150_cif.got.tgz:298028.got - 2010.06.27 13:26:56.
