data_PCOD8038120
_publ_section_title
;
Structure prediction by ZEFSAII (Michael W. Deem and Ramdas Pophale) SiO2 
 PCOD8038120
Probable space group: P -1
;
_chemical_formula_sum "Si O2"
_cell_formula_units_Z 16
_cell_length_a 9.000000
_cell_length_b 12.000000
_cell_length_c 15.000000
_cell_angle_alpha 130.000000
_cell_angle_beta 110.000000
_cell_angle_gamma 110.000000
_cell_volume 728.972637
_symmetry_space_group_name_H-M "P -1"
_symmetry_group_IT_number 2
_symmetry_cell_setting 'triclinic'
loop_
_space_group_symop_operation_xyz
x,y,z
-x,-y,-z
loop_
_atom_site_type_symbol
_atom_site_label
_atom_site_fract_x
_atom_site_fract_y
_atom_site_fract_z
Si Si1 0.438433 0.122992 0.529812
Si Si2 0.523786 0.224014 0.293520
Si Si3 0.376382 0.844415 0.980933
Si Si4 0.500777 0.648690 0.829404
Si Si5 0.061347 0.079092 0.187739
Si Si6 0.088368 0.149943 0.778749
Si Si7 0.568593 0.651771 0.215274
Si Si8 0.180076 0.479634 0.334950
O O1 0.464325 0.214817 0.679315
O O2 0.614697 0.339573 0.607103
O O3 0.500000 0.000000 0.500000
O O4 0.151105 0.923900 0.333903
O O5 0.614104 0.372632 0.297867
O O6 0.275709 0.115518 0.231285
O O7 0.752885 0.388855 0.493510
O O8 0.473009 0.015237 0.168011
O O9 0.468577 0.743851 0.952584
O O10 0.076067 0.636442 0.812464
O O11 0.500000 0.000000 0.000000
O O12 0.361522 0.406159 0.715816
O O13 0.798135 0.838753 0.965162
O O14 0.153025 0.293278 0.268440
O O15 0.002928 0.037505 0.262502
O O16 0.212225 0.175340 0.725917
O O17 0.300204 0.407077 0.996358
#
# Coordination Sequence:
#
# PCOD8038120 Si02
#       8
#     2   2   2   2   2   2   2   2
#     4  12  28  47  67 102 138 174 228 277 332 403
#     4  11  22  39  66  97 137 172 216 280 336 392
#     4  10  23  43  58  99 138 172 220 270 333 399
#     4  10  22  41  70  97 133 179 219 274 330 403
#     4  11  21  42  69 103 133 163 229 273 329 403
#     4  10  24  47  69 104 129 177 232 271 329 404
#     4  10  24  48  73  94 133 185 225 271 338 388
#     4  12  25  41  68 100 134 178 217 274 345 384
#
# _framework density 21.948698
#
# number of rings (size 3 to 8) (size 9 to 14) (size 15 to 20)
#    0.000    1.250    3.750    1.875    7.000    2.500 
#    6.750    0.000    0.000    0.000    0.000    0.000 
#    0.000    0.000    0.000    0.000    0.000    0.000 
#
# Total GULP energy -198223.172811 kJ/mol
# GULP energy per Si atom -12388.948301 kJ/mol
# Density = 2.189874 g / cm^3
# Si number density = 21.948698 Si / 1000 Ang^3
#
#
#
# Elastic Constant Matrix: (Units=GPa)
#
#
# Indices 1 2 3 4 5 6 
#
# 1 92.4460 39.7223 14.6273 16.3760 -19.1692 6.3708
# 2 39.7223 160.2515 19.5824 15.0718 -13.5318 18.8447
# 3 14.6273 19.5824 50.7022 -2.1235 -8.0954 7.9345
# 4 16.3760 15.0718 -2.1235 36.1460 5.3368 -0.1741
# 5 -19.1692 -13.5318 -8.0954 5.3368 31.5623 2.2876
# 6 6.3708 18.8447 7.9345 -0.1741 2.2876 36.4688
#
#
#
# Elastic Compliance Matrix: (Units=1/GPa)
#
#
# Indices 1 2 3 4 5 6 
#
# 1 0.015418 -0.001789 -0.002273 -0.007780 0.009468 -0.001906
# 2 -0.001789 0.007795 -0.001652 -0.002936 0.002584 -0.003532
# 3 -0.002273 -0.001652 0.022271 0.002496 0.003477 -0.003801
# 4 -0.007780 -0.002936 0.002496 0.034255 -0.011368 0.003210
# 5 0.009468 0.002584 0.003477 -0.011368 0.041821 -0.006423
# 6 -0.001906 -0.003532 -0.003801 0.003210 -0.006423 0.030824
#
#
# Mechanical properties :
#
#
# Convention : Reuss Voigt Hill
#
# Bulk Modulus (GPa) = 29.36303 50.14041 39.75172
# Shear Modulus (GPa) = 28.54456 36.13328 32.33892
#
# Velocity S-wave (km/s) = 3.61017 4.06182 3.84264
# Velocity P-wave (km/s) = 5.54841 6.70013 6.15129
#
# Compressibility (1/GPa) = 0.03405643
#
# Stress axis : x y z
#
# Youngs Moduli (GPa) = 64.85918 128.28494 44.90067
#
# Poissons Ratio (x) = 0.22946 0.10207
# Poissons Ratio (y) = 0.11601 0.07419
# Poissons Ratio (z) = 0.14743 0.21195
#
# Static dielectric constant tensor:
#      x y z
#    x 4.126140 0.202090 -0.205470 
#    y 0.202090 4.368950 0.050110 
#    z -0.205470 0.050110 4.203940 
# 
# 
# High freq. dielectric constant tensor:
#      x y z
#    x 1.863760 0.018740 0.004900 
#    y 0.018740 1.879370 0.004650 
#    z 0.004900 0.004650 1.863320 
# 
# From -- ./inp_files/402947.got.cif
#   From: 2010.06.25/outbox.ucp.g09.slc.cvg/sg2_202_cif.got.tgz:402947.got - 2010.06.28 11:54:26.
