data_PCOD8038177
_publ_section_title
;
Structure prediction by ZEFSAII (Michael W. Deem and Ramdas Pophale) SiO2 
 PCOD8038177
Probable space group: P -1
;
_chemical_formula_sum "Si O2"
_cell_formula_units_Z 14
_cell_length_a 12.372881
_cell_length_b 12.459984
_cell_length_c 10.794641
_cell_angle_alpha 129.761693
_cell_angle_beta 35.170027
_cell_angle_gamma 145.103851
_cell_volume 545.976551
_symmetry_space_group_name_H-M "P -1"
_symmetry_group_IT_number 2
_symmetry_cell_setting 'triclinic'
loop_
_space_group_symop_operation_xyz
x,y,z
-x,-y,-z
loop_
_atom_site_type_symbol
_atom_site_label
_atom_site_fract_x
_atom_site_fract_y
_atom_site_fract_z
Si Si1 0.996331 0.215681 0.367483
Si Si2 0.131650 0.419503 0.806697
Si Si3 0.862992 0.865117 0.314789
Si Si4 0.245709 0.831541 0.680166
Si Si5 0.549152 0.803566 0.776046
Si Si6 0.326032 0.557159 0.468861
Si Si7 0.538303 0.982342 0.144871
O O1 0.981294 0.239390 0.251461
O O2 0.745039 0.146256 0.625932
O O3 0.254575 0.419795 0.320750
O O4 0.033659 0.067116 0.237207
O O5 0.002853 0.218059 0.841856
O O6 0.398981 0.581094 0.746180
O O7 0.170725 0.410873 0.619064
O O8 0.000000 0.500000 0.000000
O O9 0.802751 0.901518 0.533385
O O10 0.620949 0.717395 0.344289
O O11 0.222644 0.657784 0.605915
O O12 0.500000 0.000000 0.500000
O O13 0.251419 0.919767 0.869582
O O14 0.398427 0.852377 0.880146
O O15 0.581597 0.864427 0.934058
#
# Coordination Sequence:
#
# PCOD8038177 Si02
#       7
#     2   2   2   2   2   2   2
#     4  10  20  33  58  92 124 164 203 240 293 356
#     4  11  22  37  59  91 122 152 200 255 307 366
#     4  10  21  39  58  88 127 155 194 253 306 353
#     4  10  17  34  57  92 125 162 203 245 283 354
#     4   9  16  32  56  86 117 160 193 237 303 356
#     4  11  19  36  61  91 120 162 201 237 302 356
#     4   9  16  30  55  86 125 158 197 241 293 349
#
# _framework density 25.642126000000001
#
# number of rings (size 3 to 8) (size 9 to 14) (size 15 to 20)
#    0.000    2.000    5.714    3.000    0.000    0.571 
#    0.000    2.857    0.000    1.714    3.714    0.000 
#    0.000    0.000    0.000    0.000    0.000    0.000 
#
# Total GULP energy -173436.009465 kJ/mol
# GULP energy per Si atom -12388.286390 kJ/mol
# Density = 2.558376 g / cm^3
# Si number density = 25.642126 Si / 1000 Ang^3
#
#
#
# Elastic Constant Matrix: (Units=GPa)
#
#
# Indices 1 2 3 4 5 6 
#
# 1 173.2199 77.1729 52.5178 37.4750 18.1391 8.8637
# 2 77.1729 123.3814 12.5749 36.5080 13.0265 -0.7315
# 3 52.5178 12.5749 60.1599 22.8875 3.9863 -2.7004
# 4 37.4750 36.5080 22.8875 37.5953 -2.3845 1.5012
# 5 18.1391 13.0265 3.9863 -2.3845 45.6861 16.3033
# 6 8.8637 -0.7315 -2.7004 1.5012 16.3033 48.9081
#
#
#
# Elastic Compliance Matrix: (Units=1/GPa)
#
#
# Indices 1 2 3 4 5 6 
#
# 1 0.011362 -0.006046 -0.008586 -0.000221 -0.001267 -0.002195
# 2 -0.006046 0.016054 0.008141 -0.014999 -0.005075 0.003938
# 3 -0.008586 0.008141 0.029777 -0.017964 -0.004348 0.005323
# 4 -0.000221 -0.014999 -0.017964 0.053279 0.011028 -0.006488
# 5 -0.001267 -0.005075 -0.004348 0.011028 0.028313 -0.009863
# 6 -0.002195 0.003938 0.005323 -0.006488 -0.009863 0.024684
#
#
# Mechanical properties :
#
#
# Convention : Reuss Voigt Hill
#
# Bulk Modulus (GPa) = 22.61787 71.25470 46.93629
# Shear Modulus (GPa) = 26.15233 40.73759 33.44496
#
# Velocity S-wave (km/s) = 3.19705 3.99017 3.61542
# Velocity P-wave (km/s) = 4.74003 7.00550 5.98101
#
# Compressibility (1/GPa) = 0.04421283
#
# Stress axis : x y z
#
# Youngs Moduli (GPa) = 88.00973 62.28961 33.58286
#
# Poissons Ratio (x) = 0.37660 0.28834
# Poissons Ratio (y) = 0.53210 -0.27341
# Poissons Ratio (z) = 0.75564 -0.50713
#
# Static dielectric constant tensor:
#      x y z
#    x 6.178930 0.398480 0.327820 
#    y 0.398480 5.041430 0.165000 
#    z 0.327820 0.165000 4.387170 
# 
# 
# High freq. dielectric constant tensor:
#      x y z
#    x 2.032090 0.004350 0.001990 
#    y 0.004350 2.030650 0.014570 
#    z 0.001990 0.014570 2.000570 
# 
# From -- ./inp_files/398969.got.cif
#   From: 2010.06.25/outbox.cif.g09.slc.cpg/sg2_200_cif.got.tgz:398969.got - 2010.06.27 13:26:56.
