data_PCOD8038452
_publ_section_title
;
Structure prediction by ZEFSAII (Michael W. Deem and Ramdas Pophale) SiO2 
 PCOD8038452
Probable space group: P -1
;
_chemical_formula_sum "Si O2"
_cell_formula_units_Z 12
_cell_length_a 4.963672
_cell_length_b 12.329088
_cell_length_c 10.490364
_cell_angle_alpha 95.250661
_cell_angle_beta 55.617497
_cell_angle_gamma 67.281147
_cell_volume 446.466346
_symmetry_space_group_name_H-M "P -1"
_symmetry_group_IT_number 2
_symmetry_cell_setting 'triclinic'
loop_
_space_group_symop_operation_xyz
x,y,z
-x,-y,-z
loop_
_atom_site_type_symbol
_atom_site_label
_atom_site_fract_x
_atom_site_fract_y
_atom_site_fract_z
Si Si1 0.522598 0.255863 0.076446
Si Si2 0.750738 0.981898 0.233273
Si Si3 0.906296 0.263484 0.742714
Si Si4 0.449177 0.361459 0.627132
Si Si5 0.814460 0.898222 0.810765
Si Si6 0.538530 0.591108 0.644135
O O1 0.151482 0.239518 0.182072
O O2 0.556508 0.331261 0.192644
O O3 0.908501 0.111818 0.969130
O O4 0.536410 0.314917 0.942173
O O5 0.778493 0.888300 0.331578
O O6 0.333552 0.053026 0.288172
O O7 0.797486 0.099229 0.279980
O O8 0.776525 0.273850 0.632549
O O9 0.075318 0.352151 0.740488
O O10 0.329772 0.509559 0.692486
O O11 0.609390 0.317055 0.434385
O O12 0.500000 0.000000 0.000000
O O13 0.000000 0.500000 0.500000
#
# Coordination Sequence:
#
# PCOD8038452 Si02
#       6
#     2   2   2   2   2   2
#     4   9  22  37  67  98 118 161 213 249 302 363
#     4   9  20  36  61  98 124 149 198 261 310 348
#     4  10  22  39  65  95 118 160 201 266 307 349
#     4  11  23  45  60  86 127 166 201 257 309 361
#     4  10  17  36  58  98 125 153 191 263 302 359
#     4  11  24  47  61  88 124 175 205 246 306 379
#
# _framework density 26.877725999999999
#
# number of rings (size 3 to 8) (size 9 to 14) (size 15 to 20)
#    1.000    1.000    1.667    3.000    0.000    1.333 
#   24.000    0.000    0.000    6.000    0.000    0.000 
#    0.000    0.000    0.000    0.000    0.000    0.000 
#
# Total GULP energy -148721.972124 kJ/mol
# GULP energy per Si atom -12393.497677 kJ/mol
# Density = 2.681655 g / cm^3
# Si number density = 26.877726 Si / 1000 Ang^3
#
#
#
# Elastic Constant Matrix: (Units=GPa)
#
#
# Indices 1 2 3 4 5 6 
#
# 1 141.6516 41.7545 45.3780 -22.4996 23.3552 21.6183
# 2 41.7545 125.4205 61.2188 -29.5827 3.6400 29.5269
# 3 45.3780 61.2188 99.4757 -20.3058 24.0090 4.9490
# 4 -22.4996 -29.5827 -20.3058 48.6238 -2.7145 9.1983
# 5 23.3552 3.6400 24.0090 -2.7145 39.1855 -11.6901
# 6 21.6183 29.5269 4.9490 9.1983 -11.6901 49.7306
#
#
#
# Elastic Compliance Matrix: (Units=1/GPa)
#
#
# Indices 1 2 3 4 5 6 
#
# 1 0.010725 0.000804 -0.002174 0.005591 -0.007017 -0.007607
# 2 0.000804 0.016325 -0.008140 0.008970 0.000391 -0.010800
# 3 -0.002174 -0.008140 0.018177 0.000814 -0.008485 0.001824
# 4 0.005591 0.008970 0.000814 0.031454 -0.007054 -0.015313
# 5 -0.007017 0.000391 -0.008485 -0.007054 0.038562 0.014032
# 6 -0.007607 -0.010800 0.001824 -0.015313 0.014032 0.035777
#
#
# Mechanical properties :
#
#
# Convention : Reuss Voigt Hill
#
# Bulk Modulus (GPa) = 38.15613 73.69447 55.92530
# Shear Modulus (GPa) = 27.96817 42.05443 35.01130
#
# Velocity S-wave (km/s) = 3.22929 3.95987 3.61309
# Velocity P-wave (km/s) = 5.30390 6.95596 6.18533
#
# Compressibility (1/GPa) = 0.02620811
#
# Stress axis : x y z
#
# Youngs Moduli (GPa) = 93.24019 61.25388 55.01485
#
# Poissons Ratio (x) = -0.04923 0.11958
# Poissons Ratio (y) = -0.07494 0.44781
# Poissons Ratio (z) = 0.20267 0.49859
#
# Static dielectric constant tensor:
#      x y z
#    x 5.235010 0.292350 0.190450 
#    y 0.292350 5.194220 -0.242150 
#    z 0.190450 -0.242150 4.705930 
# 
# 
# High freq. dielectric constant tensor:
#      x y z
#    x 2.089110 0.012710 0.013760 
#    y 0.012710 2.089690 -0.006480 
#    z 0.013760 -0.006480 2.074280 
# 
# From -- ./inp_files/130838.got.cif
#   From: 2010.06.25/outbox.cif.g09.slc.cpg/sg2_66_cif.got.tgz:130838.got - 2010.06.27 13:26:56.
