data_PCOD8038157
_publ_section_title
;
Structure prediction by ZEFSAII (Michael W. Deem and Ramdas Pophale) SiO2 
 PCOD8038157
Probable space group: P -1
;
_chemical_formula_sum "Si O2"
_cell_formula_units_Z 16
_cell_length_a 12.227964
_cell_length_b 8.859386
_cell_length_c 11.928758
_cell_angle_alpha 64.809416
_cell_angle_beta 105.359647
_cell_angle_gamma 134.330367
_cell_volume 835.418684
_symmetry_space_group_name_H-M "P -1"
_symmetry_group_IT_number 2
_symmetry_cell_setting 'triclinic'
loop_
_space_group_symop_operation_xyz
x,y,z
-x,-y,-z
loop_
_atom_site_type_symbol
_atom_site_label
_atom_site_fract_x
_atom_site_fract_y
_atom_site_fract_z
Si Si1 0.454674 0.974152 0.623790
Si Si2 0.658615 0.945773 0.805610
Si Si3 0.673192 0.451140 0.161137
Si Si4 0.706315 0.713407 0.722518
Si Si5 0.349865 0.277261 0.775078
Si Si6 0.848560 0.568915 0.946091
Si Si7 0.650488 0.755531 0.458314
Si Si8 0.197465 0.844584 0.993918
O O1 0.609832 0.079139 0.701053
O O2 0.321834 0.710830 0.708443
O O3 0.500000 0.000000 0.500000
O O4 0.395875 0.097500 0.596555
O O5 0.502112 0.698551 0.884450
O O6 0.735103 0.906845 0.743201
O O7 0.781303 0.093205 0.889339
O O8 0.726642 0.658613 0.187062
O O9 0.787521 0.560300 0.053841
O O10 0.530064 0.485388 0.749108
O O11 0.810564 0.667596 0.810593
O O12 0.754213 0.806511 0.577574
O O13 0.269809 0.202569 0.653381
O O14 0.322400 0.067875 0.885467
O O15 0.030087 0.734660 0.946055
O O16 0.771953 0.319243 0.968645
O O17 0.500000 0.500000 0.500000
#
# Coordination Sequence:
#
# PCOD8038157 Si02
#       8
#     2   2   2   2   2   2   2   2
#     4  10  17  34  56  88 117 141 175 230 278 326
#     4   9  20  34  57  88 106 143 181 225 276 326
#     4   9  20  36  59  85 112 142 182 232 275 326
#     4  10  20  36  57  86 115 143 182 228 273 332
#     4  10  20  36  58  86 113 140 190 226 277 329
#     4  11  24  39  54  79 115 148 188 230 279 323
#     4  10  19  32  54  89 116 145 177 225 277 329
#     4  11  24  38  55  81 111 149 188 233 274 330
#
# _framework density 19.152073999999999
#
# number of rings (size 3 to 8) (size 9 to 14) (size 15 to 20)
#    0.750    1.250    1.250    3.000    3.500    5.000 
#    0.000    0.625    0.000    0.750    0.000    0.000 
#    0.000    0.000    0.000    0.000    0.000    0.000 
#
# Total GULP energy -198298.101202 kJ/mol
# GULP energy per Si atom -12393.631325 kJ/mol
# Density = 1.910848 g / cm^3
# Si number density = 19.152074 Si / 1000 Ang^3
#
#
#
# Elastic Constant Matrix: (Units=GPa)
#
#
# Indices 1 2 3 4 5 6 
#
# 1 78.2834 32.5152 45.3827 13.0945 11.2181 -28.7860
# 2 32.5152 74.2828 50.7261 8.4408 1.2981 -31.0499
# 3 45.3827 50.7261 145.9231 23.0781 16.9843 -22.3657
# 4 13.0945 8.4408 23.0781 27.8694 -14.4509 -2.3938
# 5 11.2181 1.2981 16.9843 -14.4509 30.7515 -0.5052
# 6 -28.7860 -31.0499 -22.3657 -2.3938 -0.5052 27.5121
#
#
#
# Elastic Compliance Matrix: (Units=1/GPa)
#
#
# Indices 1 2 3 4 5 6 
#
# 1 0.031304 0.003345 0.001485 -0.026533 -0.024275 0.034981
# 2 0.003345 0.029835 -0.006083 -0.002768 0.000105 0.031987
# 3 0.001485 -0.006083 0.014119 -0.018961 -0.016924 0.004205
# 4 -0.026533 -0.002768 -0.018961 0.095089 0.064348 -0.036845
# 5 -0.024275 0.000105 -0.016924 0.064348 0.080431 -0.031963
# 6 0.034981 0.031987 0.004205 -0.036845 -0.031963 0.108674
#
#
# Mechanical properties :
#
#
# Convention : Reuss Voigt Hill
#
# Bulk Modulus (GPa) = 13.74557 61.74858 37.74707
# Shear Modulus (GPa) = 12.94630 28.55095 20.74863
#
# Velocity S-wave (km/s) = 2.60277 3.86521 3.29502
# Velocity P-wave (km/s) = 4.02805 7.22710 5.85048
#
# Compressibility (1/GPa) = 0.07275072
#
# Stress axis : x y z
#
# Youngs Moduli (GPa) = 31.94490 33.51714 70.82663
#
# Poissons Ratio (x) = -0.11210 -0.10517
# Poissons Ratio (y) = -0.10684 0.43086
# Poissons Ratio (z) = -0.04744 0.20390
#
# Static dielectric constant tensor:
#      x y z
#    x 3.338510 -0.446820 0.030030 
#    y -0.446820 3.475080 0.067730 
#    z 0.030030 0.067730 3.960740 
# 
# 
# High freq. dielectric constant tensor:
#      x y z
#    x 1.721630 -0.035350 0.000510 
#    y -0.035350 1.730610 0.004400 
#    z 0.000510 0.004400 1.759900 
# 
# From -- ./inp_files/419190.got.cif
#   From: 2010.06.25/outbox.cif.g09.slc.cpg/sg2_210_cif.got.tgz:419190.got - 2010.06.27 13:26:56.
