data_PCOD8038457
_publ_section_title
;
Structure prediction by ZEFSAII (Michael W. Deem and Ramdas Pophale) SiO2 
 PCOD8038457
Probable space group: P -1
;
_chemical_formula_sum "Si O2"
_cell_formula_units_Z 14
_cell_length_a 16.850035
_cell_length_b 11.342614
_cell_length_c 20.070501
_cell_angle_alpha 137.850706
_cell_angle_beta 158.037603
_cell_angle_gamma 31.122925
_cell_volume 713.617930
_symmetry_space_group_name_H-M "P -1"
_symmetry_group_IT_number 2
_symmetry_cell_setting 'triclinic'
loop_
_space_group_symop_operation_xyz
x,y,z
-x,-y,-z
loop_
_atom_site_type_symbol
_atom_site_label
_atom_site_fract_x
_atom_site_fract_y
_atom_site_fract_z
Si Si1 0.261863 0.457630 0.217125
Si Si2 0.692667 0.631214 0.349841
Si Si3 0.024654 0.408596 0.639706
Si Si4 0.623926 0.978264 0.362069
Si Si5 0.021242 0.052807 0.733619
Si Si6 0.526004 0.574819 0.980066
Si Si7 0.864333 0.213775 0.532053
O O1 0.375674 0.259751 0.278480
O O2 0.526637 0.357107 0.333009
O O3 0.162850 0.697427 0.268967
O O4 0.000000 0.500000 0.000000
O O5 0.531910 0.539800 0.168795
O O6 0.000000 0.500000 0.500000
O O7 0.744371 0.604034 0.457867
O O8 0.501150 0.897652 0.283139
O O9 0.915005 0.375371 0.607034
O O10 0.259743 0.166429 0.678285
O O11 0.157141 0.519068 0.814485
O O12 0.883836 0.935335 0.582451
O O13 0.034814 0.105764 0.689364
O O14 0.321949 0.857459 0.923885
O O15 0.500000 0.500000 0.000000
O O16 0.000000 0.000000 0.500000
#
# Coordination Sequence:
#
# PCOD8038457 Si02
#       7
#     2   2   2   2   2   2   2
#     4  11  24  40  60  90 123 166 206 245 313 381
#     4  10  18  34  56  90 120 154 205 262 290 352
#     4  11  20  35  58  92 122 154 202 258 306 343
#     4  10  17  36  59  85 120 158 200 254 295 358
#     4  11  22  37  61  91 123 163 203 247 317 372
#     4  12  20  33  61  92 118 161 213 251 295 366
#     4  11  21  40  62  88 129 160 199 261 309 358
#
# _framework density 19.61834
#
# number of rings (size 3 to 8) (size 9 to 14) (size 15 to 20)
#    0.000    1.143    8.571    2.571    0.000    0.571 
#    2.571    0.000    0.000    8.571    0.000    0.000 
#    0.000    0.000    0.000    0.000    0.000    0.000 
#
# Total GULP energy -173451.986233 kJ/mol
# GULP energy per Si atom -12389.427588 kJ/mol
# Density = 1.957369 g / cm^3
# Si number density = 19.618340 Si / 1000 Ang^3
#
#
#
# Elastic Constant Matrix: (Units=GPa)
#
#
# Indices 1 2 3 4 5 6 
#
# 1 120.6469 52.0934 55.6474 -3.3875 -1.7021 28.3082
# 2 52.0934 95.9161 39.8024 12.0861 4.3927 19.3183
# 3 55.6474 39.8024 137.3400 19.1933 -3.0904 13.2762
# 4 -3.3875 12.0861 19.1933 33.0396 8.2445 -4.2455
# 5 -1.7021 4.3927 -3.0904 8.2445 24.0971 3.3130
# 6 28.3082 19.3183 13.2762 -4.2455 3.3130 38.0952
#
#
#
# Elastic Compliance Matrix: (Units=1/GPa)
#
#
# Indices 1 2 3 4 5 6 
#
# 1 0.014076 -0.005371 -0.004288 0.005042 0.000485 -0.005723
# 2 -0.005371 0.015378 -0.001089 -0.005869 -0.000762 -0.004015
# 3 -0.004288 -0.001089 0.010543 -0.007275 0.003886 -0.001085
# 4 0.005042 -0.005869 -0.007275 0.041866 -0.014893 0.007725
# 5 0.000485 -0.000762 0.003886 -0.014893 0.048253 -0.007184
# 6 -0.005723 -0.004015 -0.001085 0.007725 -0.007184 0.034402
#
#
# Mechanical properties :
#
#
# Convention : Reuss Voigt Hill
#
# Bulk Modulus (GPa) = 54.04834 72.10994 63.07914
# Shear Modulus (GPa) = 26.01704 32.80368 29.41036
#
# Velocity S-wave (km/s) = 3.64560 4.09356 3.87606
# Velocity P-wave (km/s) = 6.73277 7.69280 7.22874
#
# Compressibility (1/GPa) = 0.01850196
#
# Stress axis : x y z
#
# Youngs Moduli (GPa) = 71.04058 65.02794 94.84925
#
# Poissons Ratio (x) = 0.34926 0.40667
# Poissons Ratio (y) = 0.38156 0.10332
# Poissons Ratio (z) = 0.30459 0.07084
#
# Static dielectric constant tensor:
#      x y z
#    x 3.239880 0.650900 -0.163320 
#    y 0.650900 3.898510 0.157170 
#    z -0.163320 0.157170 3.879700 
# 
# 
# High freq. dielectric constant tensor:
#      x y z
#    x 1.737950 0.040890 -0.018720 
#    y 0.040890 1.763590 0.015880 
#    z -0.018720 0.015880 1.770090 
# 
# From -- ./inp_files/294248.got.cif
#   From: 2010.06.25/outbox.cif.g09.slc.cpg/sg2_148_cif.got.tgz:294248.got - 2010.06.27 13:26:56.
