data_PCOD8038961
_publ_section_title
;
Structure prediction by ZEFSAII (Michael W. Deem and Ramdas Pophale) SiO2 
 PCOD8038961
Probable space group: P -1
;
_chemical_formula_sum "Si O2"
_cell_formula_units_Z 16
_cell_length_a 20.137102
_cell_length_b 8.464642
_cell_length_c 9.737171
_cell_angle_alpha 83.437185
_cell_angle_beta 49.864024
_cell_angle_gamma 122.711870
_cell_volume 741.785583
_symmetry_space_group_name_H-M "P -1"
_symmetry_group_IT_number 2
_symmetry_cell_setting 'triclinic'
loop_
_space_group_symop_operation_xyz
x,y,z
-x,-y,-z
loop_
_atom_site_type_symbol
_atom_site_label
_atom_site_fract_x
_atom_site_fract_y
_atom_site_fract_z
Si Si1 0.844270 0.618013 0.956252
Si Si2 0.653390 0.780721 0.405586
Si Si3 0.910185 0.181398 0.540348
Si Si4 0.390824 0.913667 0.538688
Si Si5 0.889623 0.500430 0.489211
Si Si6 0.647912 0.190043 0.028288
Si Si7 0.929472 0.016436 0.986824
Si Si8 0.361687 0.195468 0.887495
O O1 0.851261 0.806491 0.986075
O O2 0.013833 0.824741 0.669710
O O3 0.737742 0.442774 0.984345
O O4 0.773090 0.401701 0.193848
O O5 0.621787 0.916596 0.464067
O O6 0.529072 0.489023 0.675102
O O7 0.665338 0.765528 0.228126
O O8 0.810702 0.949419 0.233607
O O9 0.895214 0.323226 0.461479
O O10 0.014044 0.341708 0.518046
O O11 0.748066 0.892343 0.842137
O O12 0.474903 0.986049 0.277821
O O13 0.500000 0.000000 0.500000
O O14 0.722010 0.309642 0.767146
O O15 0.944405 0.682766 0.270384
O O16 0.664944 0.032653 0.072637
O O17 0.000000 0.000000 0.000000
#
# Coordination Sequence:
#
# PCOD8038961 Si02
#       8
#     2   2   2   2   2   2   2   2
#     4  10  20  33  54  80 114 147 189 230 275 334
#     4  11  21  33  55  82 118 152 180 223 284 340
#     4   9  17  33  59  86 112 136 176 247 294 332
#     4  10  18  32  54  89 119 139 173 230 299 342
#     4   9  18  34  56  81 113 147 183 225 292 333
#     4   9  18  32  56  90 116 137 169 243 293 337
#     4  12  26  40  53  75 118 163 196 223 259 337
#     4  10  18  31  58  91 118 137 168 235 307 334
#
# _framework density 21.569572999999998
#
# number of rings (size 3 to 8) (size 9 to 14) (size 15 to 20)
#    0.000    2.000    3.750    2.250    5.250    3.000 
#    0.000    2.500    0.000    9.750    0.000    0.000 
#    0.000    0.000    0.000    0.000    0.000    0.000 
#
# Total GULP energy -198209.329304 kJ/mol
# GULP energy per Si atom -12388.083081 kJ/mol
# Density = 2.152048 g / cm^3
# Si number density = 21.569573 Si / 1000 Ang^3
#
#
#
# Elastic Constant Matrix: (Units=GPa)
#
#
# Indices 1 2 3 4 5 6 
#
# 1 57.8541 10.8012 37.7334 6.8506 -1.2759 -25.4462
# 2 10.8012 50.8985 31.0718 11.0742 -6.2663 -20.7953
# 3 37.7334 31.0718 211.6522 15.6852 -7.1721 -26.0826
# 4 6.8506 11.0742 15.6852 33.9668 -17.7903 -5.2515
# 5 -1.2759 -6.2663 -7.1721 -17.7903 21.6580 3.1197
# 6 -25.4462 -20.7953 -26.0826 -5.2515 3.1197 21.2533
#
#
#
# Elastic Compliance Matrix: (Units=1/GPa)
#
#
# Indices 1 2 3 4 5 6 
#
# 1 0.051030 0.024839 -0.002282 -0.010411 -0.010872 0.081624
# 2 0.024839 0.046120 -0.001859 -0.010818 -0.004868 0.070627
# 3 -0.002282 -0.001859 0.005773 -0.001359 -0.000197 0.002227
# 4 -0.010411 -0.010818 -0.001359 0.056383 0.044618 -0.017334
# 5 -0.010872 -0.004868 -0.000197 0.044618 0.083481 -0.019250
# 6 0.081624 0.070627 0.002227 -0.017334 -0.019250 0.215159
#
#
# Mechanical properties :
#
#
# Convention : Reuss Voigt Hill
#
# Bulk Modulus (GPa) = 6.92905 53.29085 30.10995
# Shear Modulus (GPa) = 10.76064 31.42885 21.09475
#
# Velocity S-wave (km/s) = 2.23599 3.82133 3.13067
# Velocity P-wave (km/s) = 3.14413 6.65058 5.20172
#
# Compressibility (1/GPa) = 0.14431988
#
# Stress axis : x y z
#
# Youngs Moduli (GPa) = 19.59630 21.68241 173.22343
#
# Poissons Ratio (x) = -0.53858 0.39534
# Poissons Ratio (y) = -0.48676 0.32199
# Poissons Ratio (z) = 0.04472 0.04030
#
# Static dielectric constant tensor:
#      x y z
#    x 3.188490 -0.315450 -0.148400 
#    y -0.315450 3.679310 0.197470 
#    z -0.148400 0.197470 5.030400 
# 
# 
# High freq. dielectric constant tensor:
#      x y z
#    x 1.777160 -0.042710 -0.003460 
#    y -0.042710 1.824390 0.008700 
#    z -0.003460 0.008700 1.884960 
# 
# From -- ./inp_files/461072.got.cif
#   From: 2010.06.25/outbox.cif.g09.slc.cpg/sg2_231_cif.got.tgz:461072.got - 2010.06.27 13:26:56.
