data_PCOD8038954
_publ_section_title
;
Structure prediction by ZEFSAII (Michael W. Deem and Ramdas Pophale) SiO2 
 PCOD8038954
Probable space group: P -1
;
_chemical_formula_sum "Si O2"
_cell_formula_units_Z 12
_cell_length_a 8.983533
_cell_length_b 9.239379
_cell_length_c 9.192186
_cell_angle_alpha 108.347895
_cell_angle_beta 114.941118
_cell_angle_gamma 46.767515
_cell_volume 503.656621
_symmetry_space_group_name_H-M "P -1"
_symmetry_group_IT_number 2
_symmetry_cell_setting 'triclinic'
loop_
_space_group_symop_operation_xyz
x,y,z
-x,-y,-z
loop_
_atom_site_type_symbol
_atom_site_label
_atom_site_fract_x
_atom_site_fract_y
_atom_site_fract_z
Si Si1 0.930234 0.809773 0.412752
Si Si2 0.251541 0.802658 0.695503
Si Si3 0.593670 0.798508 0.393419
Si Si4 0.395716 0.876599 0.044706
Si Si5 0.773665 0.713849 0.950188
Si Si6 0.646852 0.566803 0.613882
O O1 0.816292 0.723471 0.390974
O O2 0.030732 0.840508 0.603637
O O3 0.127561 0.652785 0.336719
O O4 0.770271 0.014941 0.324509
O O5 0.431323 0.607344 0.602808
O O6 0.319665 0.775003 0.884884
O O7 0.431102 0.824380 0.213968
O O8 0.633454 0.634353 0.464709
O O9 0.500000 0.000000 0.500000
O O10 0.211399 0.115539 0.027512
O O11 0.630779 0.788933 0.060315
O O12 0.643570 0.714262 0.766109
O O13 0.000000 0.500000 0.000000
#
# Coordination Sequence:
#
# PCOD8038954 Si02
#       6
#     2   2   2   2   2   2
#     4  11  22  38  62  88 114 152 192 236 288 338
#     4  10  22  40  61  84 119 149 190 238 289 339
#     4  12  21  39  60  84 119 153 192 235 285 337
#     4  10  20  36  55  82 115 149 186 236 283 332
#     4  10  18  31  57  85 108 143 196 237 273 329
#     4  11  21  37  62  86 113 152 194 235 282 345
#
# _framework density 23.825755999999998
#
# number of rings (size 3 to 8) (size 9 to 14) (size 15 to 20)
#    0.000    1.333    3.333    5.000    0.000    0.000 
#    0.000    1.667    0.000    0.000    0.000    0.000 
#    0.000    0.000    0.000    0.000    0.000    0.000 
#
# Total GULP energy -148753.944969 kJ/mol
# GULP energy per Si atom -12396.162081 kJ/mol
# Density = 2.377153 g / cm^3
# Si number density = 23.825756 Si / 1000 Ang^3
#
#
#
# Elastic Constant Matrix: (Units=GPa)
#
#
# Indices 1 2 3 4 5 6 
#
# 1 70.3733 19.8074 31.2377 -6.5365 10.4410 -1.8703
# 2 19.8074 116.5936 19.7670 -7.8842 -9.0606 -27.3393
# 3 31.2377 19.7670 160.4733 -7.5166 -3.7227 -3.7022
# 4 -6.5365 -7.8842 -7.5166 26.9394 -2.8804 -0.9118
# 5 10.4410 -9.0606 -3.7227 -2.8804 21.5509 -2.0158
# 6 -1.8703 -27.3393 -3.7022 -0.9118 -2.0158 36.4308
#
#
#
# Elastic Compliance Matrix: (Units=1/GPa)
#
#
# Indices 1 2 3 4 5 6 
#
# 1 0.018601 -0.004135 -0.003402 0.001020 -0.011492 -0.003104
# 2 -0.004135 0.012525 -0.000130 0.003884 0.008678 0.009751
# 3 -0.003402 -0.000130 0.007064 0.001458 0.003070 0.000652
# 4 0.001020 0.003884 0.001458 0.039827 0.007135 0.004507
# 5 -0.011492 0.008678 0.003070 0.007135 0.058002 0.009622
# 6 -0.003104 0.009751 0.000652 0.004507 0.009622 0.035319
#
#
# Mechanical properties :
#
#
# Convention : Reuss Voigt Hill
#
# Bulk Modulus (GPa) = 43.75123 54.34050 49.04587
# Shear Modulus (GPa) = 25.73461 35.42609 30.58035
#
# Velocity S-wave (km/s) = 3.29008 3.86019 3.58648
# Velocity P-wave (km/s) = 5.73024 6.53644 6.14658
#
# Compressibility (1/GPa) = 0.02285650
#
# Stress axis : x y z
#
# Youngs Moduli (GPa) = 53.75982 79.84175 141.55643
#
# Poissons Ratio (x) = 0.33017 0.48157
# Poissons Ratio (y) = 0.22232 0.01835
# Poissons Ratio (z) = 0.18289 0.01035
#
# Static dielectric constant tensor:
#      x y z
#    x 4.160180 -0.106680 0.274490 
#    y -0.106680 4.295670 0.341370 
#    z 0.274490 0.341370 4.597580 
# 
# 
# High freq. dielectric constant tensor:
#      x y z
#    x 1.909410 -0.018830 0.025450 
#    y -0.018830 1.953090 0.020190 
#    z 0.025450 0.020190 1.967410 
# 
# From -- ./inp_files/148781.got.cif
#   From: 2010.06.25/outbox.cif.g09.slc.cpg/sg2_75_cif.got.tgz:148781.got - 2010.06.27 13:26:56.
