data_PCOD8038185
_publ_section_title
;
Structure prediction by ZEFSAII (Michael W. Deem and Ramdas Pophale) SiO2 
 PCOD8038185
Probable space group: P -1
;
_chemical_formula_sum "Si O2"
_cell_formula_units_Z 16
_cell_length_a 15.726748
_cell_length_b 11.759541
_cell_length_c 9.719805
_cell_angle_alpha 80.636932
_cell_angle_beta 143.354286
_cell_angle_gamma 117.372466
_cell_volume 877.724134
_symmetry_space_group_name_H-M "P -1"
_symmetry_group_IT_number 2
_symmetry_cell_setting 'triclinic'
loop_
_space_group_symop_operation_xyz
x,y,z
-x,-y,-z
loop_
_atom_site_type_symbol
_atom_site_label
_atom_site_fract_x
_atom_site_fract_y
_atom_site_fract_z
Si Si1 0.651351 0.649060 0.306046
Si Si2 0.051285 0.368542 0.333748
Si Si3 0.214564 0.679805 0.523809
Si Si4 0.373361 0.326778 0.032127
Si Si5 0.334052 0.839711 0.162273
Si Si6 0.377322 0.690993 0.011314
Si Si7 0.898902 0.622446 0.279425
Si Si8 0.492735 0.848271 0.645697
O O1 0.836542 0.682189 0.584942
O O2 0.533255 0.482827 0.184417
O O3 0.685423 0.726598 0.188525
O O4 0.556118 0.701426 0.265944
O O5 0.131869 0.529775 0.375348
O O6 0.044317 0.352047 0.493069
O O7 0.865293 0.273031 0.044177
O O8 0.353075 0.708745 0.815391
O O9 0.320710 0.793878 0.521817
O O10 0.068387 0.698860 0.390044
O O11 0.424021 0.237417 0.199786
O O12 0.217955 0.318616 0.914944
O O13 0.445909 0.830891 0.427997
O O14 0.368316 0.991329 0.169002
O O15 0.389410 0.810116 0.094723
O O16 0.210355 0.541146 0.867849
#
# Coordination Sequence:
#
# PCOD8038185 Si02
#       8
#     2   2   2   2   2   2   2   2
#     4   9  16  30  60  87 104 134 178 239 272 307
#     4  10  17  34  58  85 111 137 179 230 276 313
#     4  11  17  34  61  85 103 139 190 228 262 320
#     4   9  16  34  54  82 114 140 174 221 282 323
#     4  11  24  39  52  76 120 151 174 223 272 326
#     4  10  17  34  58  85 111 137 179 230 276 313
#     4   9  17  30  60  89 109 129 174 245 282 296
#     4  11  24  39  53  76 115 157 179 208 278 335
#
# _framework density 18.228961000000002
#
# number of rings (size 3 to 8) (size 9 to 14) (size 15 to 20)
#    0.000    2.000    5.000    2.250    0.000    1.000 
#    0.000    7.500    0.000    3.000    0.000    0.000 
#    0.000    0.000    0.000    0.000    0.000    0.000 
#
# Total GULP energy -198299.948088 kJ/mol
# GULP energy per Si atom -12393.746755 kJ/mol
# Density = 1.818747 g / cm^3
# Si number density = 18.228961 Si / 1000 Ang^3
#
#
#
# Elastic Constant Matrix: (Units=GPa)
#
#
# Indices 1 2 3 4 5 6 
#
# 1 56.0261 21.4387 22.2209 3.5778 16.6913 -9.2212
# 2 21.4387 74.9161 45.1758 -9.1499 3.5086 -3.5374
# 3 22.2209 45.1758 65.3382 6.7113 4.6273 -19.1122
# 4 3.5778 -9.1499 6.7113 23.1076 -7.3248 2.4615
# 5 16.6913 3.5086 4.6273 -7.3248 19.8503 -7.8779
# 6 -9.2212 -3.5374 -19.1122 2.4615 -7.8779 21.8409
#
#
#
# Elastic Compliance Matrix: (Units=1/GPa)
#
#
# Indices 1 2 3 4 5 6 
#
# 1 0.033303 -0.012857 0.004000 -0.022354 -0.032408 0.006308
# 2 -0.012857 0.044668 -0.041525 0.039721 0.013738 -0.034052
# 3 0.004000 -0.041525 0.062880 -0.042685 -0.005468 0.052826
# 4 -0.022354 0.039721 -0.042685 0.091797 0.041404 -0.035768
# 5 -0.032408 0.013738 -0.005468 0.041404 0.097396 0.014222
# 6 0.006308 -0.034052 0.052826 -0.035768 0.014222 0.098320
#
#
# Mechanical properties :
#
#
# Convention : Reuss Voigt Hill
#
# Bulk Modulus (GPa) = 24.94622 41.55014 33.24818
# Shear Modulus (GPa) = 9.21674 20.12274 14.66974
#
# Velocity S-wave (km/s) = 2.25102 3.32609 2.83989
# Velocity P-wave (km/s) = 4.52446 6.13135 5.38814
#
# Compressibility (1/GPa) = 0.04008623
#
# Stress axis : x y z
#
# Youngs Moduli (GPa) = 30.02743 22.38738 15.90336
#
# Poissons Ratio (x) = 0.28783 -0.06361
# Poissons Ratio (y) = 0.38606 0.66039
# Poissons Ratio (z) = -0.12011 0.92964
#
# Static dielectric constant tensor:
#      x y z
#    x 3.346970 -0.093310 0.295080 
#    y -0.093310 3.112160 -0.048490 
#    z 0.295080 -0.048490 3.250710 
# 
# 
# High freq. dielectric constant tensor:
#      x y z
#    x 1.705200 -0.009520 0.026870 
#    y -0.009520 1.677830 -0.006750 
#    z 0.026870 -0.006750 1.688310 
# 
# From -- ./inp_files/306685.got.cif
#   From: 2010.06.25/outbox.cif.g09.slc.cpg/sg2_154_cif.got.tgz:306685.got - 2010.06.27 13:26:56.
