data_PCOD8038043
_publ_section_title
;
Structure prediction by ZEFSAII (Michael W. Deem and Ramdas Pophale) SiO2 
 PCOD8038043
Probable space group: P -1
;
_chemical_formula_sum "Si O2"
_cell_formula_units_Z 14
_cell_length_a 11.412564
_cell_length_b 10.983335
_cell_length_c 10.035059
_cell_angle_alpha 36.664992
_cell_angle_beta 99.174325
_cell_angle_gamma 90.889850
_cell_volume 727.918134
_symmetry_space_group_name_H-M "P -1"
_symmetry_group_IT_number 2
_symmetry_cell_setting 'triclinic'
loop_
_space_group_symop_operation_xyz
x,y,z
-x,-y,-z
loop_
_atom_site_type_symbol
_atom_site_label
_atom_site_fract_x
_atom_site_fract_y
_atom_site_fract_z
Si Si1 0.888737 0.458189 0.842865
Si Si2 0.395435 0.367042 0.751613
Si Si3 0.961179 0.233306 0.326420
Si Si4 0.990444 0.762479 0.200423
Si Si5 0.260538 0.021502 0.041065
Si Si6 0.813153 0.291698 0.506036
Si Si7 0.653755 0.392990 0.737153
O O1 0.746615 0.482476 0.768990
O O2 0.925099 0.683386 0.662585
O O3 0.971733 0.329237 0.857104
O O4 0.911182 0.353158 0.081150
O O5 0.301078 0.521309 0.689084
O O6 0.532919 0.374181 0.813418
O O7 0.378888 0.438936 0.532766
O O8 0.377908 0.128464 0.977407
O O9 0.855706 0.252343 0.398690
O O10 0.000000 0.000000 0.500000
O O11 0.079663 0.642867 0.436851
O O12 0.847234 0.780731 0.188924
O O13 0.000000 0.000000 0.000000
O O14 0.229078 0.917018 0.265583
O O15 0.281015 0.835085 0.101571
#
# Coordination Sequence:
#
# PCOD8038043 Si02
#       7
#     2   2   2   2   2   2   2
#     4  11  22  40  56  85 120 152 189 235 288 340
#     4  10  20  35  58  85 115 152 187 235 282 336
#     4  11  25  38  58  83 118 155 190 235 290 345
#     4  10  17  33  59  86 115 141 183 239 288 336
#     4  10  19  32  57  86 118 145 183 237 288 337
#     4  10  21  37  56  87 115 143 195 237 287 338
#     4  10  21  36  55  86 118 148 192 230 282 343
#
# _framework density 19.232931000000001
#
# number of rings (size 3 to 8) (size 9 to 14) (size 15 to 20)
#    0.000    1.714    4.286    3.000    2.000    2.286 
#    0.000    0.714    0.000    1.714    0.000    0.000 
#    0.000    0.000    0.000    0.000    0.000    0.000 
#
# Total GULP energy -173533.224238 kJ/mol
# GULP energy per Si atom -12395.230303 kJ/mol
# Density = 1.918916 g / cm^3
# Si number density = 19.232931 Si / 1000 Ang^3
#
#
#
# Elastic Constant Matrix: (Units=GPa)
#
#
# Indices 1 2 3 4 5 6 
#
# 1 146.2816 63.8667 39.5422 -1.9991 -1.6572 7.9244
# 2 63.8667 118.3331 43.5703 0.4450 -7.8558 -1.6086
# 3 39.5422 43.5703 60.0098 -7.2421 -9.7985 -0.1430
# 4 -1.9991 0.4450 -7.2421 26.4317 2.0079 -8.7114
# 5 -1.6572 -7.8558 -9.7985 2.0079 29.1258 -1.5528
# 6 7.9244 -1.6086 -0.1430 -8.7114 -1.5528 34.9307
#
#
#
# Elastic Compliance Matrix: (Units=1/GPa)
#
#
# Indices 1 2 3 4 5 6 
#
# 1 0.009759 -0.003952 -0.004011 -0.001058 -0.001935 -0.002762
# 2 -0.003952 0.013312 -0.007138 -0.002248 0.001171 0.000972
# 3 -0.004011 -0.007138 0.026445 0.007517 0.006377 0.002848
# 4 -0.001058 -0.002248 0.007517 0.043516 -0.000551 0.010995
# 5 -0.001935 0.001171 0.006377 -0.000551 0.036830 0.002019
# 6 -0.002762 0.000972 0.002848 0.010995 0.002019 0.032143
#
#
# Mechanical properties :
#
#
# Convention : Reuss Voigt Hill
#
# Bulk Modulus (GPa) = 51.78110 68.73147 60.25629
# Shear Modulus (GPa) = 25.17030 29.94066 27.55548
#
# Velocity S-wave (km/s) = 3.62153 3.94983 3.78924
# Velocity P-wave (km/s) = 6.66850 7.52433 7.10930
#
# Compressibility (1/GPa) = 0.01931207
#
# Stress axis : x y z
#
# Youngs Moduli (GPa) = 102.46665 75.12227 37.81439
#
# Poissons Ratio (x) = 0.29691 0.15168
# Poissons Ratio (y) = 0.40499 0.26993
# Poissons Ratio (z) = 0.41101 0.53625
#
# Static dielectric constant tensor:
#      x y z
#    x 4.675130 -0.111260 -0.002150 
#    y -0.111260 3.477880 -0.171550 
#    z -0.002150 -0.171550 3.549080 
# 
# 
# High freq. dielectric constant tensor:
#      x y z
#    x 1.760440 -0.001490 -0.015400 
#    y -0.001490 1.730270 -0.023940 
#    z -0.015400 -0.023940 1.740960 
# 
# From -- ./inp_files/225140.got.cif
#   From: 2010.06.25/outbox.cif.g09.slc.cpg/sg2_113_cif.got.tgz:225140.got - 2010.06.27 13:26:56.
