data_PCOD8038995
_publ_section_title
;
Structure prediction by ZEFSAII (Michael W. Deem and Ramdas Pophale) SiO2 
 PCOD8038995
Probable space group: P -1
;
_chemical_formula_sum "Si O2"
_cell_formula_units_Z 16
_cell_length_a 11.709125
_cell_length_b 11.398347
_cell_length_c 15.325351
_cell_angle_alpha 38.834521
_cell_angle_beta 55.202125
_cell_angle_gamma 85.126285
_cell_volume 753.913835
_symmetry_space_group_name_H-M "P -1"
_symmetry_group_IT_number 2
_symmetry_cell_setting 'triclinic'
loop_
_space_group_symop_operation_xyz
x,y,z
-x,-y,-z
loop_
_atom_site_type_symbol
_atom_site_label
_atom_site_fract_x
_atom_site_fract_y
_atom_site_fract_z
Si Si1 0.850840 0.579006 0.148057
Si Si2 0.835817 0.894824 0.346540
Si Si3 0.279123 0.844372 0.667716
Si Si4 0.884435 0.723710 0.597902
Si Si5 0.557114 0.696639 0.435277
Si Si6 0.814492 0.278381 0.974093
Si Si7 0.718484 0.779341 0.806432
Si Si8 0.485103 0.758196 0.795006
O O1 0.848169 0.456692 0.128520
O O2 0.632936 0.392114 0.386829
O O3 0.973715 0.581984 0.165939
O O4 0.941949 0.874025 0.920083
O O5 0.808782 0.725918 0.535599
O O6 0.681275 0.697967 0.453138
O O7 0.809016 0.095323 0.258855
O O8 0.500000 0.000000 0.500000
O O9 0.308207 0.992730 0.480488
O O10 0.838537 0.459675 0.783314
O O11 0.799322 0.765770 0.688817
O O12 0.118073 0.971083 0.351229
O O13 0.500000 0.500000 0.500000
O O14 0.691280 0.983460 0.165853
O O15 0.684931 0.244296 0.130121
O O16 0.546357 0.762735 0.865439
O O17 0.611218 0.508606 0.060862
#
# Coordination Sequence:
#
# PCOD8038995 Si02
#       8
#     2   2   2   2   2   2   2   2
#     4  11  23  41  62  91 125 163 200 254 312 369
#     4  11  24  38  60  98 128 163 199 251 310 370
#     4  12  20  33  56  90 134 162 197 242 301 370
#     4  10  20  35  55  90 131 160 206 240 303 368
#     4  11  25  48  69  85 113 162 218 265 309 357
#     4  10  22  39  63  92 119 164 210 248 303 369
#     4   9  19  30  52  82 129 179 189 231 287 369
#     4  10  18  32  51  85 127 169 205 224 287 365
#
# _framework density 21.222583
#
# number of rings (size 3 to 8) (size 9 to 14) (size 15 to 20)
#    0.000    1.500    3.750    1.875    5.250    2.000 
#    0.000    0.625    0.000    1.500    0.000    0.000 
#    0.000    0.000    0.000    0.000    0.000    0.000 
#
# Total GULP energy -198213.077407 kJ/mol
# GULP energy per Si atom -12388.317338 kJ/mol
# Density = 2.117428 g / cm^3
# Si number density = 21.222583 Si / 1000 Ang^3
#
#
#
# Elastic Constant Matrix: (Units=GPa)
#
#
# Indices 1 2 3 4 5 6 
#
# 1 90.1626 14.9744 27.3237 -12.7024 6.9423 16.9900
# 2 14.9744 73.6929 11.9814 -20.4334 -2.7145 19.5913
# 3 27.3237 11.9814 77.2479 -19.4261 -1.0821 12.8615
# 4 -12.7024 -20.4334 -19.4261 24.8945 2.6690 -5.1757
# 5 6.9423 -2.7145 -1.0821 2.6690 40.1914 -3.3871
# 6 16.9900 19.5913 12.8615 -5.1757 -3.3871 22.2710
#
#
#
# Elastic Compliance Matrix: (Units=1/GPa)
#
#
# Indices 1 2 3 4 5 6 
#
# 1 0.014519 0.001418 -0.002455 0.004904 -0.003674 -0.010325
# 2 0.001418 0.022924 0.003839 0.018670 -0.001464 -0.019349
# 3 -0.002455 0.003839 0.018299 0.014403 -0.000523 -0.008804
# 4 0.004904 0.018670 0.014403 0.066909 -0.004793 -0.013662
# 5 -0.003674 -0.001464 -0.000523 -0.004793 0.026335 0.007283
# 6 -0.010325 -0.019349 -0.008804 -0.013662 0.007283 0.072816
#
#
# Mechanical properties :
#
#
# Convention : Reuss Voigt Hill
#
# Bulk Modulus (GPa) = 16.30083 38.85139 27.57611
# Shear Modulus (GPa) = 21.12868 29.92628 25.52748
#
# Velocity S-wave (km/s) = 3.15870 3.75922 3.47197
# Velocity P-wave (km/s) = 4.58265 6.09826 5.39395
#
# Compressibility (1/GPa) = 0.06134655
#
# Stress axis : x y z
#
# Youngs Moduli (GPa) = 68.87585 43.62219 54.64864
#
# Poissons Ratio (x) = -0.06187 0.13414
# Poissons Ratio (y) = -0.09769 -0.20977
# Poissons Ratio (z) = 0.16906 -0.16745
#
# Static dielectric constant tensor:
#      x y z
#    x 7.168080 0.920510 9.022110 
#    y 0.920510 3.492090 2.455990 
#    z 9.022110 2.455990 30.154160 
# 
# 
# High freq. dielectric constant tensor:
#      x y z
#    x 1.847460 0.003110 -0.008340 
#    y 0.003110 1.748840 -0.018850 
#    z -0.008340 -0.018850 1.861040 
# 
# From -- ./inp_files/519529.got.cif
#   From: 2010.06.25/outbox.cif.g09.slc.cpg/sg2_260_cif.got.tgz:519529.got - 2010.06.27 13:26:56.
