data_PCOD8038260
_publ_section_title
;
Structure prediction by ZEFSAII (Michael W. Deem and Ramdas Pophale) SiO2 
 PCOD8038260
Probable space group: P -1
;
_chemical_formula_sum "Si O2"
_cell_formula_units_Z 14
_cell_length_a 12.000000
_cell_length_b 15.000000
_cell_length_c 21.000000
_cell_angle_alpha 20.000000
_cell_angle_beta 150.000000
_cell_angle_gamma 140.000000
_cell_volume 620.704002
_symmetry_space_group_name_H-M "P -1"
_symmetry_group_IT_number 2
_symmetry_cell_setting 'triclinic'
loop_
_space_group_symop_operation_xyz
x,y,z
-x,-y,-z
loop_
_atom_site_type_symbol
_atom_site_label
_atom_site_fract_x
_atom_site_fract_y
_atom_site_fract_z
Si Si1 0.102732 0.698171 0.671309
Si Si2 0.270551 0.388674 0.090104
Si Si3 0.912991 0.844617 0.005942
Si Si4 0.357489 0.737193 0.223995
Si Si5 0.544749 0.983333 0.406649
Si Si6 0.340084 0.868887 0.874771
Si Si7 0.788980 0.384995 0.900966
O O1 0.314459 0.817166 0.682939
O O2 0.143420 0.549803 0.858117
O O3 0.087047 0.465600 0.767789
O O4 0.861909 0.929881 0.401276
O O5 0.446579 0.101339 0.348080
O O6 0.406950 0.574819 0.070377
O O7 0.065219 0.325641 0.071338
O O8 0.657287 0.015870 0.744149
O O9 0.086644 0.829917 0.043186
O O10 0.000000 0.000000 0.000000
O O11 0.500000 0.500000 0.500000
O O12 0.365052 0.627344 0.229435
O O13 0.445120 0.004904 0.096689
O O14 0.699615 0.677217 0.695125
O O15 0.245247 0.845512 0.914074
#
# Coordination Sequence:
#
# PCOD8038260 Si02
#       7
#     2   2   2   2   2   2   2
#     4  11  23  43  69 102 134 176 229 288 327 395
#     4  11  23  45  68  99 134 176 232 273 335 394
#     4  11  23  41  68 104 134 174 231 283 331 395
#     4  12  24  45  71  97 134 180 223 279 335 400
#     4  11  25  42  71 100 136 176 227 287 330 398
#     4  12  26  42  69 102 134 182 223 276 343 403
#     4  12  25  47  66  99 143 177 223 277 340 408
#
# _framework density 22.555033999999999
#
# number of rings (size 3 to 8) (size 9 to 14) (size 15 to 20)
#    0.000    0.571    5.714    3.857    6.000    0.571 
#    0.000    0.714    0.000    0.000    0.000    0.000 
#    0.000    0.000    0.000    0.000    0.000    0.000 
#
# Total GULP energy -173591.669816 kJ/mol
# GULP energy per Si atom -12399.404987 kJ/mol
# Density = 2.250370 g / cm^3
# Si number density = 22.555034 Si / 1000 Ang^3
#
#
#
# Elastic Constant Matrix: (Units=GPa)
#
#
# Indices 1 2 3 4 5 6 
#
# 1 68.2932 41.8771 30.7479 -4.6108 6.9161 7.4908
# 2 41.8771 181.8081 0.8343 -14.3233 4.8848 4.7257
# 3 30.7479 0.8343 -48.3942 -1.1201 14.2478 0.4478
# 4 -4.6108 -14.3233 -1.1201 30.6058 -0.4565 7.6675
# 5 6.9161 4.8848 14.2478 -0.4565 38.8244 -1.0830
# 6 7.4908 4.7257 0.4478 7.6675 -1.0830 51.0123
#
#
#
# Elastic Compliance Matrix: (Units=1/GPa)
#
#
# Indices 1 2 3 4 5 6 
#
# 1 0.013974 -0.002950 0.007344 0.001463 -0.004856 -0.002166
# 2 -0.002950 0.006399 -0.001721 0.002626 0.000368 -0.000531
# 3 0.007344 -0.001721 -0.014766 -0.000001 0.004308 -0.000698
# 4 0.001463 0.002626 -0.000001 0.035574 -0.000335 -0.005812
# 5 -0.004856 0.000368 0.004308 -0.000335 0.025025 0.001223
# 6 -0.002166 -0.000531 -0.000698 -0.005812 0.001223 0.020876
#
#
# Mechanical properties :
#
#
# Convention : Reuss Voigt Hill
#
# Bulk Modulus (GPa) = 91.31796 38.73619 65.02707
# Shear Modulus (GPa) = 58.55654 32.63838 45.59746
#
# Velocity S-wave (km/s) = 5.10078 3.80814 4.50111
# Velocity P-wave (km/s) = 8.67556 6.04544 7.47705
#
# Compressibility (1/GPa) = 0.01095075
#
# Stress axis : x y z
#
# Youngs Moduli (GPa) = 71.56352 156.28619 -67.72512
#
# Poissons Ratio (x) = 0.46108 0.49736
# Poissons Ratio (y) = 0.21113 -0.11658
# Poissons Ratio (z) = -0.52555 0.26903
#
# Static dielectric constant tensor:
#      x y z
#    x 4.138120 -0.083880 0.170280 
#    y -0.083880 4.503680 -0.225040 
#    z 0.170280 -0.225040 3.982090 
# 
# 
# High freq. dielectric constant tensor:
#      x y z
#    x 1.880960 -0.001530 0.003850 
#    y -0.001530 1.919160 -0.005690 
#    z 0.003850 -0.005690 1.877810 
# 
# From -- ./inp_files/154795.got.cif
#   From: 2010.06.25/outbox.ucp.g09.slc.cvg/sg2_78_cif.got.tgz:154795.got - 2010.06.28 11:54:26.
