data_PCOD8038868
_publ_section_title
;
Structure prediction by ZEFSAII (Michael W. Deem and Ramdas Pophale) SiO2 
 PCOD8038868
Probable space group: P -1
;
_chemical_formula_sum "Si O2"
_cell_formula_units_Z 16
_cell_length_a 17.420387
_cell_length_b 10.512865
_cell_length_c 11.738596
_cell_angle_alpha 112.878374
_cell_angle_beta 148.061252
_cell_angle_gamma 84.792646
_cell_volume 912.981079
_symmetry_space_group_name_H-M "P -1"
_symmetry_group_IT_number 2
_symmetry_cell_setting 'triclinic'
loop_
_space_group_symop_operation_xyz
x,y,z
-x,-y,-z
loop_
_atom_site_type_symbol
_atom_site_label
_atom_site_fract_x
_atom_site_fract_y
_atom_site_fract_z
Si Si1 0.004276 0.656327 0.104764
Si Si2 0.506537 0.919811 0.151408
Si Si3 0.669823 0.241018 0.343219
Si Si4 0.164954 0.994822 0.063313
Si Si5 0.488630 0.304993 0.527604
Si Si6 0.370324 0.855711 0.210218
Si Si7 0.358848 0.535809 0.445233
Si Si8 0.853046 0.014273 0.698838
O O1 0.138722 0.726756 0.401993
O O2 0.069721 0.795610 0.141572
O O3 0.000000 0.500000 0.000000
O O4 0.813880 0.604383 0.876195
O O5 0.412301 0.886462 0.141041
O O6 0.543702 0.088290 0.205620
O O7 0.680480 0.918940 0.380469
O O8 0.388063 0.779810 0.867586
O O9 0.667543 0.393171 0.446436
O O10 0.191112 0.846068 0.006317
O O11 0.188164 0.034374 0.239683
O O12 0.980733 0.962300 0.786178
O O13 0.307580 0.151401 0.237645
O O14 0.614536 0.293698 0.774976
O O15 0.476242 0.461190 0.597220
O O16 0.563348 0.325620 0.502240
O O17 0.500000 0.000000 0.500000
#
# Coordination Sequence:
#
# PCOD8038868 Si02
#       8
#     2   2   2   2   2   2   2   2
#     4   9  18  30  51  76 101 131 169 212 254 303
#     4  10  18  33  55  76 107 133 173 217 253 311
#     4   9  19  32  53  77 102 138 172 207 263 307
#     4  10  19  30  51  80 104 129 171 224 258 291
#     4  10  19  31  52  78 103 133 170 219 256 306
#     4  10  18  31  52  76  99 134 171 213 260 295
#     4  10  19  33  52  78 105 135 172 210 258 310
#     4  10  18  31  51  79 106 127 171 220 259 296
#
# _framework density 17.525006000000001
#
# number of rings (size 3 to 8) (size 9 to 14) (size 15 to 20)
#    0.000    2.250    3.750    1.500    3.500    0.000 
#    0.000    0.625    5.500    3.750    0.000    0.000 
#    0.000    0.000    0.000    0.000    0.000    0.000 
#
# Total GULP energy -198249.102686 kJ/mol
# GULP energy per Si atom -12390.568918 kJ/mol
# Density = 1.748512 g / cm^3
# Si number density = 17.525006 Si / 1000 Ang^3
#
#
#
# Elastic Constant Matrix: (Units=GPa)
#
#
# Indices 1 2 3 4 5 6 
#
# 1 98.9313 35.1866 49.4911 -12.9704 0.5434 -1.9205
# 2 35.1866 82.1890 28.6211 -16.5921 1.8654 -3.9576
# 3 49.4911 28.6211 94.4226 -10.7933 -2.4471 -3.1349
# 4 -12.9704 -16.5921 -10.7933 23.3495 -0.2021 7.9697
# 5 0.5434 1.8654 -2.4471 -0.2021 26.4330 -4.5825
# 6 -1.9205 -3.9576 -3.1349 7.9697 -4.5825 27.2193
#
#
#
# Elastic Compliance Matrix: (Units=1/GPa)
#
#
# Indices 1 2 3 4 5 6 
#
# 1 0.015027 -0.003559 -0.006491 0.003255 -0.000860 -0.001303
# 2 -0.003559 0.016199 -0.002097 0.008883 -0.001364 -0.000968
# 3 -0.006491 -0.002097 0.014876 0.001520 0.001811 0.000810
# 4 0.003255 0.008883 0.001520 0.056894 -0.002794 -0.015432
# 5 -0.000860 -0.001364 0.001811 -0.002794 0.039374 0.007396
# 6 -0.001303 -0.000968 0.000810 -0.015432 0.007396 0.042363
#
#
# Mechanical properties :
#
#
# Convention : Reuss Voigt Hill
#
# Bulk Modulus (GPa) = 45.85438 55.79340 50.82389
# Shear Modulus (GPa) = 23.11652 26.21662 24.66657
#
# Velocity S-wave (km/s) = 3.63583 3.87195 3.75575
# Velocity P-wave (km/s) = 6.62175 7.20381 6.91890
#
# Compressibility (1/GPa) = 0.02180817
#
# Stress axis : x y z
#
# Youngs Moduli (GPa) = 66.54557 61.73391 67.22208
#
# Poissons Ratio (x) = 0.21972 0.43635
# Poissons Ratio (y) = 0.23684 0.14094
# Poissons Ratio (z) = 0.43195 0.12944
#
# Static dielectric constant tensor:
#      x y z
#    x 3.250360 -0.143860 0.374270 
#    y -0.143860 3.613420 -0.345790 
#    z 0.374270 -0.345790 3.432810 
# 
# 
# High freq. dielectric constant tensor:
#      x y z
#    x 1.659590 0.001390 0.027260 
#    y 0.001390 1.684520 -0.018710 
#    z 0.027260 -0.018710 1.651910 
# 
# From -- ./inp_files/422180.got.cif
#   From: 2010.06.25/outbox.cif.g09.slc.cpg/sg2_212_cif.got.tgz:422180.got - 2010.06.27 13:26:56.
