data_PCOD8038290
_publ_section_title
;
Structure prediction by ZEFSAII (Michael W. Deem and Ramdas Pophale) SiO2 
 PCOD8038290
Probable space group: P -1
;
_chemical_formula_sum "Si O2"
_cell_formula_units_Z 14
_cell_length_a 9.281066
_cell_length_b 9.607547
_cell_length_c 11.491718
_cell_angle_alpha 114.952977
_cell_angle_beta 58.664699
_cell_angle_gamma 82.996407
_cell_volume 712.297188
_symmetry_space_group_name_H-M "P -1"
_symmetry_group_IT_number 2
_symmetry_cell_setting 'triclinic'
loop_
_space_group_symop_operation_xyz
x,y,z
-x,-y,-z
loop_
_atom_site_type_symbol
_atom_site_label
_atom_site_fract_x
_atom_site_fract_y
_atom_site_fract_z
Si Si1 0.704722 0.911827 0.236249
Si Si2 0.042393 0.290249 0.737293
Si Si3 0.907308 0.670421 0.854437
Si Si4 0.409681 0.196576 0.144394
Si Si5 0.315014 0.069607 0.360575
Si Si6 0.937578 0.095176 0.180109
Si Si7 0.757381 0.154095 0.871496
O O1 0.801418 0.778563 0.251952
O O2 0.480059 0.985225 0.357606
O O3 0.752313 0.075460 0.289192
O O4 0.777813 0.815358 0.049695
O O5 0.122196 0.183219 0.548261
O O6 0.995445 0.486056 0.809242
O O7 0.849986 0.280982 0.849461
O O8 0.778958 0.680673 0.801078
O O9 0.081722 0.712408 0.757665
O O10 0.362013 0.196201 0.300924
O O11 0.571440 0.257505 0.066733
O O12 0.500000 0.000000 0.000000
O O13 0.295531 0.915470 0.248371
O O14 0.098221 0.010886 0.179176
O O15 0.000000 0.000000 0.000000
#
# Coordination Sequence:
#
# PCOD8038290 Si02
#       7
#     2   2   2   2   2   2   2
#     4  10  20  38  60  79 111 159 194 223 274 354
#     4  11  25  34  57  91 121 144 180 244 300 317
#     4  11  19  37  59  87 115 143 193 244 278 327
#     4  10  17  34  63  81 105 150 198 225 268 333
#     4  11  20  39  61  83 115 152 194 228 278 347
#     4   9  17  32  60  83 102 146 197 228 263 334
#     4  10  19  38  59  84 110 154 197 221 273 353
#
# _framework density 19.654717999999999
#
# number of rings (size 3 to 8) (size 9 to 14) (size 15 to 20)
#    0.000    1.714    5.714    2.143    0.000    1.143 
#    0.000    0.714    0.000    0.000    0.000    0.000 
#    0.000    0.000    0.000    0.000    0.000    0.000 
#
# Total GULP energy -173518.809205 kJ/mol
# GULP energy per Si atom -12394.200658 kJ/mol
# Density = 1.960998 g / cm^3
# Si number density = 19.654718 Si / 1000 Ang^3
#
#
#
# Elastic Constant Matrix: (Units=GPa)
#
#
# Indices 1 2 3 4 5 6 
#
# 1 117.6098 57.0896 13.6549 -4.2643 -8.6417 -1.0727
# 2 57.0896 145.4692 17.0352 -4.0636 -11.3504 12.2613
# 3 13.6549 17.0352 25.5595 -5.5944 -8.3519 -0.5227
# 4 -4.2643 -4.0636 -5.5944 15.9055 -1.0298 7.5397
# 5 -8.6417 -11.3504 -8.3519 -1.0298 17.8926 -5.2632
# 6 -1.0727 12.2613 -0.5227 7.5397 -5.2632 25.0985
#
#
#
# Elastic Compliance Matrix: (Units=1/GPa)
#
#
# Indices 1 2 3 4 5 6 
#
# 1 0.010961 -0.004097 -0.002284 -0.000170 0.002501 0.002998
# 2 -0.004097 0.009494 -0.003282 0.002857 0.001053 -0.005519
# 3 -0.002284 -0.003282 0.054358 0.018179 0.023876 0.002184
# 4 -0.000170 0.002857 0.018179 0.081812 0.007879 -0.023949
# 5 0.002501 0.001053 0.023876 0.007879 0.073209 0.013075
# 6 0.002998 -0.005519 0.002184 -0.023949 0.013075 0.052649
#
#
# Mechanical properties :
#
#
# Convention : Reuss Voigt Hill
#
# Bulk Modulus (GPa) = 18.02255 51.57756 34.80006
# Shear Modulus (GPa) = 15.61011 25.16990 20.39000
#
# Velocity S-wave (km/s) = 2.82124 3.58243 3.22438
# Velocity P-wave (km/s) = 4.44995 6.58867 5.62195
#
# Compressibility (1/GPa) = 0.05548604
#
# Stress axis : x y z
#
# Youngs Moduli (GPa) = 91.22912 105.33506 18.39659
#
# Poissons Ratio (x) = 0.43152 0.04203
# Poissons Ratio (y) = 0.37373 0.06038
# Poissons Ratio (z) = 0.20841 0.34575
#
# Static dielectric constant tensor:
#      x y z
#    x 3.829080 0.170380 -0.154860 
#    y 0.170380 3.648430 -0.498780 
#    z -0.154860 -0.498780 3.432460 
# 
# 
# High freq. dielectric constant tensor:
#      x y z
#    x 1.778440 -0.004140 -0.003150 
#    y -0.004140 1.758120 -0.034950 
#    z -0.003150 -0.034950 1.727750 
# 
# From -- ./inp_files/158903.got.cif
#   From: 2010.06.25/outbox.cif.g09.slc.cpg/sg2_80_cif.got.tgz:158903.got - 2010.06.27 13:26:56.
