data_PCOD8038413
_publ_section_title
;
Structure prediction by ZEFSAII (Michael W. Deem and Ramdas Pophale) SiO2 
 PCOD8038413
Probable space group: P -1
;
_chemical_formula_sum "Si O2"
_cell_formula_units_Z 16
_cell_length_a 9.971640
_cell_length_b 14.019280
_cell_length_c 8.434673
_cell_angle_alpha 136.270888
_cell_angle_beta 105.426160
_cell_angle_gamma 69.590325
_cell_volume 763.725117
_symmetry_space_group_name_H-M "P -1"
_symmetry_group_IT_number 2
_symmetry_cell_setting 'triclinic'
loop_
_space_group_symop_operation_xyz
x,y,z
-x,-y,-z
loop_
_atom_site_type_symbol
_atom_site_label
_atom_site_fract_x
_atom_site_fract_y
_atom_site_fract_z
Si Si1 0.813934 0.262986 0.094265
Si Si2 0.476423 0.716888 0.350637
Si Si3 0.785490 0.550575 0.257272
Si Si4 0.592126 0.974907 0.342335
Si Si5 0.265930 0.546977 0.210672
Si Si6 0.498963 0.706583 0.966131
Si Si7 0.112520 0.015547 0.423004
Si Si8 0.989204 0.270025 0.455926
O O1 0.842399 0.401244 0.182629
O O2 0.930246 0.216681 0.212331
O O3 0.654665 0.294331 0.159392
O O4 0.827646 0.135278 0.821560
O O5 0.623646 0.620192 0.348367
O O6 0.340325 0.665929 0.309066
O O7 0.477903 0.706235 0.148748
O O8 0.452747 0.879797 0.598779
O O9 0.881909 0.658419 0.462991
O O10 0.793051 0.530846 0.046513
O O11 0.552553 0.842638 0.080682
O O12 0.759234 0.934718 0.389683
O O13 0.500000 0.000000 0.500000
O O14 0.134698 0.612960 0.360416
O O15 0.380862 0.432579 0.211804
O O16 0.041745 0.133370 0.416365
O O17 0.000000 0.000000 0.500000
#
# Coordination Sequence:
#
# PCOD8038413 Si02
#       8
#     2   2   2   2   2   2   2   2
#     4  12  23  42  61  89 132 164 197 245 320 368
#     4  10  17  35  64  89 114 151 215 254 297 344
#     4  11  21  40  63  92 120 166 207 253 298 361
#     4  10  18  34  63  94 112 149 208 261 291 344
#     4  11  20  39  63  90 119 154 216 254 294 351
#     4  10  19  35  64  92 115 158 207 257 295 355
#     4  12  24  43  67  91 123 160 207 256 303 361
#     4  12  27  38  60  94 129 165 196 250 314 373
#
# _framework density 20.949946000000001
#
# number of rings (size 3 to 8) (size 9 to 14) (size 15 to 20)
#    0.000    1.000    5.000    5.625    0.000    1.500 
#    0.000    0.000    0.000    1.500    0.000    0.000 
#    0.000    0.000    0.000    0.000    0.000    0.000 
#
# Total GULP energy -198440.595607 kJ/mol
# GULP energy per Si atom -12402.537225 kJ/mol
# Density = 2.090226 g / cm^3
# Si number density = 20.949946 Si / 1000 Ang^3
#
#
#
# Elastic Constant Matrix: (Units=GPa)
#
#
# Indices 1 2 3 4 5 6 
#
# 1 95.0425 20.9892 13.6623 -5.3662 20.0009 -12.2642
# 2 20.9892 95.9875 29.8094 27.8597 8.2269 -9.2466
# 3 13.6623 29.8094 43.2386 9.0611 19.1282 -0.0615
# 4 -5.3662 27.8597 9.0611 32.7407 -0.8784 3.6799
# 5 20.0009 8.2269 19.1282 -0.8784 35.8785 9.7428
# 6 -12.2642 -9.2466 -0.0615 3.6799 9.7428 26.6200
#
#
#
# Elastic Compliance Matrix: (Units=1/GPa)
#
#
# Indices 1 2 3 4 5 6 
#
# 1 0.014511 -0.002631 0.001340 0.002920 -0.010645 0.009267
# 2 -0.002631 0.018811 -0.008734 -0.014889 -0.000614 0.007584
# 3 0.001340 -0.008734 0.039115 -0.004433 -0.021364 0.006106
# 4 0.002920 -0.014889 -0.004433 0.046685 0.008980 -0.013577
# 5 -0.010645 -0.000614 -0.021364 0.008980 0.052516 -0.025629
# 6 0.009267 0.007584 0.006106 -0.013577 -0.025629 0.055741
#
#
# Mechanical properties :
#
#
# Convention : Reuss Voigt Hill
#
# Bulk Modulus (GPa) = 19.08977 40.35447 29.72212
# Shear Modulus (GPa) = 18.87564 30.36835 24.62200
#
# Velocity S-wave (km/s) = 3.00490 3.81145 3.43195
# Velocity P-wave (km/s) = 4.60121 6.21882 5.47014
#
# Compressibility (1/GPa) = 0.05238408
#
# Stress axis : x y z
#
# Youngs Moduli (GPa) = 68.91335 53.16138 25.56588
#
# Poissons Ratio (x) = 0.13989 -0.03425
# Poissons Ratio (y) = 0.18134 0.22330
# Poissons Ratio (z) = -0.09232 0.46433
#
# Static dielectric constant tensor:
#      x y z
#    x 3.944580 -0.170840 0.303320 
#    y -0.170840 4.033270 0.489030 
#    z 0.303320 0.489030 3.845840 
# 
# 
# High freq. dielectric constant tensor:
#      x y z
#    x 1.828170 -0.014400 0.020660 
#    y -0.014400 1.822250 0.031260 
#    z 0.020660 0.031260 1.797980 
# 
# From -- ./inp_files/209514.got.cif
#   From: 2010.06.25/outbox.cif.g09.slc.cpg/sg2_105_cif.got.tgz:209514.got - 2010.06.27 13:26:56.
