data_PCOD8038529
_publ_section_title
;
Structure prediction by ZEFSAII (Michael W. Deem and Ramdas Pophale) SiO2 
 PCOD8038529
Probable space group: P -1
;
_chemical_formula_sum "Si O2"
_cell_formula_units_Z 16
_cell_length_a 12.766090
_cell_length_b 17.688870
_cell_length_c 21.384081
_cell_angle_alpha 160.460289
_cell_angle_beta 26.375509
_cell_angle_gamma 145.299781
_cell_volume 709.473064
_symmetry_space_group_name_H-M "P -1"
_symmetry_group_IT_number 2
_symmetry_cell_setting 'triclinic'
loop_
_space_group_symop_operation_xyz
x,y,z
-x,-y,-z
loop_
_atom_site_type_symbol
_atom_site_label
_atom_site_fract_x
_atom_site_fract_y
_atom_site_fract_z
Si Si1 0.664380 0.009106 0.581931
Si Si2 0.885798 0.830490 0.009916
Si Si3 0.616783 0.722988 0.619306
Si Si4 0.278729 0.504743 0.076564
Si Si5 0.140735 0.224881 0.828857
Si Si6 0.769729 0.527932 0.509724
Si Si7 0.263481 0.368068 0.651021
Si Si8 0.860724 0.945362 0.853458
O O1 0.706294 0.907788 0.411327
O O2 0.771972 0.830023 0.436309
O O3 0.381011 0.080859 0.800122
O O4 0.801960 0.228590 0.688662
O O5 0.914720 0.618849 0.879577
O O6 0.007844 0.032265 0.133028
O O7 0.048285 0.712560 0.774584
O O8 0.500000 0.500000 0.500000
O O9 0.779277 0.689140 0.568203
O O10 0.760914 0.735221 0.486537
O O11 0.413298 0.937927 0.905282
O O12 0.500000 0.500000 0.000000
O O13 0.328848 0.348421 0.865493
O O14 0.010108 0.046693 0.798201
O O15 0.943530 0.423389 0.062326
O O16 0.509118 0.461836 0.606639
O O17 0.850735 0.677686 0.639618
#
# Coordination Sequence:
#
# PCOD8038529 Si02
#       8
#     2   2   2   2   2   2   2   2
#     4  11  25  42  59  86 127 171 193 242 314 352
#     4  10  21  40  63  90 119 153 208 255 289 359
#     4  10  17  37  60  89 121 147 200 250 296 349
#     4   9  21  41  64  89 116 158 205 251 295 348
#     4  11  22  40  63  92 122 153 210 251 291 367
#     4  11  21  38  64  95 118 153 207 251 305 354
#     4  11  23  41  60  88 131 159 196 251 297 371
#     4  11  20  37  67  93 114 156 199 261 306 337
#
# _framework density 22.551947999999999
#
# number of rings (size 3 to 8) (size 9 to 14) (size 15 to 20)
#    0.000    1.500    5.000    2.250    0.000    7.500 
#    2.250    0.625    0.000    0.000    0.000    0.000 
#    0.000    0.000    0.000    0.000    0.000    0.000 
#
# Total GULP energy -198297.112109 kJ/mol
# GULP energy per Si atom -12393.569507 kJ/mol
# Density = 2.250062 g / cm^3
# Si number density = 22.551948 Si / 1000 Ang^3
#
#
#
# Elastic Constant Matrix: (Units=GPa)
#
#
# Indices 1 2 3 4 5 6 
#
# 1 47.9326 23.7037 22.0481 7.4854 21.7325 13.2107
# 2 23.7037 54.1509 15.1585 13.5865 10.9405 10.4828
# 3 22.0481 15.1585 90.9763 -6.3486 13.6613 17.2028
# 4 7.4854 13.5865 -6.3486 32.0909 10.3805 -2.3891
# 5 21.7325 10.9405 13.6613 10.3805 40.6476 6.4631
# 6 13.2107 10.4828 17.2028 -2.3891 6.4631 34.1284
#
#
#
# Elastic Compliance Matrix: (Units=1/GPa)
#
#
# Indices 1 2 3 4 5 6 
#
# 1 0.035909 -0.010501 -0.003725 -0.000606 -0.013982 -0.006192
# 2 -0.010501 0.026582 -0.002191 -0.010362 0.002509 -0.004197
# 3 -0.003725 -0.002191 0.013773 0.005108 -0.002723 -0.003954
# 4 -0.000606 -0.010362 0.005108 0.040269 -0.009764 0.005511
# 5 -0.013982 0.002509 -0.002723 -0.009764 0.035017 -0.001301
# 6 -0.006192 -0.004197 -0.003954 0.005511 -0.001301 0.035612
#
#
# Mechanical properties :
#
#
# Convention : Reuss Voigt Hill
#
# Bulk Modulus (GPa) = 23.02482 34.98672 29.00577
# Shear Modulus (GPa) = 21.32456 30.18335 25.75396
#
# Velocity S-wave (km/s) = 3.07836 3.66237 3.38299
# Velocity P-wave (km/s) = 4.78193 5.78200 5.30558
#
# Compressibility (1/GPa) = 0.04343138
#
# Stress axis : x y z
#
# Youngs Moduli (GPa) = 27.84810 37.61957 72.60744
#
# Poissons Ratio (x) = 0.39503 0.27046
# Poissons Ratio (y) = 0.29242 0.15906
# Poissons Ratio (z) = 0.10373 0.08241
#
# Static dielectric constant tensor:
#      x y z
#    x 4.546320 -0.132670 0.335880 
#    y -0.132670 4.150910 0.168040 
#    z 0.335880 0.168040 4.114570 
# 
# 
# High freq. dielectric constant tensor:
#      x y z
#    x 1.880410 0.016070 0.005990 
#    y 0.016070 1.871350 0.000920 
#    z 0.005990 0.000920 1.896070 
# 
# From -- ./inp_files/427624.got.cif
#   From: 2010.06.25/outbox.cif.g09.slc.cpg/sg2_214_cif.got.tgz:427624.got - 2010.06.27 13:26:56.
