data_PCOD8038095
_publ_section_title
;
Structure prediction by ZEFSAII (Michael W. Deem and Ramdas Pophale) SiO2 
 PCOD8038095
Probable space group: P -1
;
_chemical_formula_sum "Si O2"
_cell_formula_units_Z 14
_cell_length_a 8.858089
_cell_length_b 9.496723
_cell_length_c 13.671497
_cell_angle_alpha 96.970921
_cell_angle_beta 129.851017
_cell_angle_gamma 112.641462
_cell_volume 696.328541
_symmetry_space_group_name_H-M "P -1"
_symmetry_group_IT_number 2
_symmetry_cell_setting 'triclinic'
loop_
_space_group_symop_operation_xyz
x,y,z
-x,-y,-z
loop_
_atom_site_type_symbol
_atom_site_label
_atom_site_fract_x
_atom_site_fract_y
_atom_site_fract_z
Si Si1 0.194240 0.710701 0.585860
Si Si2 0.396160 0.681868 0.847929
Si Si3 0.423304 0.027131 0.366298
Si Si4 0.872557 0.799081 0.154424
Si Si5 0.783047 0.695914 0.327953
Si Si6 0.620510 0.278671 0.777955
Si Si7 0.889292 0.479793 0.097995
O O1 0.356720 0.788322 0.759642
O O2 0.383183 0.770103 0.576862
O O3 0.000000 0.500000 0.500000
O O4 0.035302 0.782214 0.501760
O O5 0.360240 0.513546 0.768182
O O6 0.187391 0.618221 0.838069
O O7 0.670819 0.811264 0.019150
O O8 0.500000 0.000000 0.500000
O O9 0.448034 0.913633 0.286609
O O10 0.146950 0.970109 0.251630
O O11 0.844945 0.798724 0.259576
O O12 0.823982 0.617915 0.082644
O O13 0.617538 0.725251 0.329226
O O14 0.819369 0.416748 0.790451
O O15 0.733165 0.335042 0.937462
#
# Coordination Sequence:
#
# PCOD8038095 Si02
#       7
#     2   2   2   2   2   2   2
#     4  10  23  38  59  80 122 155 188 232 295 346
#     4  10  18  34  60  85 118 152 190 226 291 347
#     4  11  23  39  57  87 115 153 197 239 282 337
#     4  10  17  33  64  83 115 146 199 231 276 346
#     4  10  17  35  58  90 110 156 193 233 274 346
#     4  10  19  31  61  86 118 141 202 239 276 327
#     4   9  17  32  56  94 113 147 186 242 282 335
#
# _framework density 20.105452
#
# number of rings (size 3 to 8) (size 9 to 14) (size 15 to 20)
#    0.000    2.000    4.286    0.857    2.000    1.143 
#    0.000    1.429    0.000    0.000    0.000    0.000 
#    0.000    0.000    0.000    0.000    0.000    0.000 
#
# Total GULP energy -173535.736939 kJ/mol
# GULP energy per Si atom -12395.409781 kJ/mol
# Density = 2.005969 g / cm^3
# Si number density = 20.105452 Si / 1000 Ang^3
#
#
#
# Elastic Constant Matrix: (Units=GPa)
#
#
# Indices 1 2 3 4 5 6 
#
# 1 136.2256 43.0876 51.1046 -14.9191 23.7156 19.3217
# 2 43.0876 59.9022 50.1177 -17.2660 9.1578 30.8736
# 3 51.1046 50.1177 112.3449 -35.7874 27.4534 16.0776
# 4 -14.9191 -17.2660 -35.7874 41.4846 -3.8722 -1.8446
# 5 23.7156 9.1578 27.4534 -3.8722 39.1026 3.4561
# 6 19.3217 30.8736 16.0776 -1.8446 3.4561 34.0996
#
#
#
# Elastic Compliance Matrix: (Units=1/GPa)
#
#
# Indices 1 2 3 4 5 6 
#
# 1 0.010340 -0.006504 -0.000968 -0.000172 -0.004165 0.000899
# 2 -0.006504 0.055997 -0.015883 0.006064 0.006101 -0.039816
# 3 -0.000968 -0.015883 0.021492 0.010909 -0.010270 0.006427
# 4 -0.000172 0.006064 0.010909 0.035170 -0.004772 -0.008150
# 5 -0.004165 0.006101 -0.010270 -0.004772 0.033584 -0.001984
# 6 0.000899 -0.039816 0.006427 -0.008150 -0.001984 0.061596
#
#
# Mechanical properties :
#
#
# Convention : Reuss Voigt Hill
#
# Bulk Modulus (GPa) = 24.31941 66.34359 45.33150
# Shear Modulus (GPa) = 17.94715 33.88154 25.91434
#
# Velocity S-wave (km/s) = 2.99097 4.10956 3.59405
# Velocity P-wave (km/s) = 4.90408 7.45570 6.31021
#
# Compressibility (1/GPa) = 0.04111942
#
# Stress axis : x y z
#
# Youngs Moduli (GPa) = 96.71506 17.85794 46.52894
#
# Poissons Ratio (x) = 0.11614 0.04503
# Poissons Ratio (y) = 0.62902 0.73903
# Poissons Ratio (z) = 0.09359 0.28364
#
# Static dielectric constant tensor:
#      x y z
#    x 3.870390 0.259990 0.183070 
#    y 0.259990 3.428240 -0.195060 
#    z 0.183070 -0.195060 3.970470 
# 
# 
# High freq. dielectric constant tensor:
#      x y z
#    x 1.788730 0.025320 0.013720 
#    y 0.025320 1.736390 -0.004570 
#    z 0.013720 -0.004570 1.794890 
# 
# From -- ./inp_files/182195.got.cif
#   From: 2010.06.25/outbox.cif.g09.slc.cpg/sg2_92_cif.got.tgz:182195.got - 2010.06.27 13:26:56.
