data_PCOD8038377
_publ_section_title
;
Structure prediction by ZEFSAII (Michael W. Deem and Ramdas Pophale) SiO2 
 PCOD8038377
Probable space group: P -1
;
_chemical_formula_sum "Si O2"
_cell_formula_units_Z 16
_cell_length_a 21.390808
_cell_length_b 10.095826
_cell_length_c 5.295034
_cell_angle_alpha 58.119835
_cell_angle_beta 119.599785
_cell_angle_gamma 122.980411
_cell_volume 779.581565
_symmetry_space_group_name_H-M "P -1"
_symmetry_group_IT_number 2
_symmetry_cell_setting 'triclinic'
loop_
_space_group_symop_operation_xyz
x,y,z
-x,-y,-z
loop_
_atom_site_type_symbol
_atom_site_label
_atom_site_fract_x
_atom_site_fract_y
_atom_site_fract_z
Si Si1 0.231877 0.543472 0.917049
Si Si2 0.219985 0.205306 0.733923
Si Si3 0.729076 0.787441 0.671760
Si Si4 0.948527 0.609652 0.288204
Si Si5 0.451629 0.302984 0.614701
Si Si6 0.309225 0.592237 0.522299
Si Si7 0.509672 0.191052 0.343666
Si Si8 0.049647 0.196401 0.403128
O O1 0.141693 0.515302 0.765975
O O2 0.273251 0.646260 0.644699
O O3 0.241364 0.365892 0.114920
O O4 0.273782 0.646795 0.147226
O O5 0.232143 0.106025 0.610748
O O6 0.289797 0.391523 0.685048
O O7 0.140272 0.232154 0.547865
O O8 0.231908 0.105984 0.105314
O O9 0.637709 0.726394 0.554952
O O10 0.970752 0.724971 0.465857
O O11 0.000000 0.500000 0.500000
O O12 0.970720 0.724602 0.967298
O O13 0.500000 0.500000 0.500000
O O14 0.473515 0.211721 0.516847
O O15 0.464649 0.229747 0.980721
O O16 0.401273 0.683945 0.616704
O O17 0.500000 0.000000 0.500000
O O18 0.000000 0.000000 0.500000
#
# Coordination Sequence:
#
# PCOD8038377 Si02
#       8
#     2   2   2   2   2   2   2   2
#     4  10  18  36  62  92 115 170 222 261 307 376
#     4  10  17  35  60  89 116 167 220 251 309 386
#     4  10  18  32  61  85 121 154 219 272 294 355
#     4  12  23  42  68 100 134 172 225 272 316 402
#     4  12  23  40  67 103 125 170 233 273 312 392
#     4  10  18  35  64  82 115 170 223 243 300 399
#     4  12  26  43  64  98 142 173 205 276 357 389
#     4  12  23  41  68  99 134 172 211 271 343 390
#
# _framework density 20.523831000000001
#
# number of rings (size 3 to 8) (size 9 to 14) (size 15 to 20)
#    0.000    1.000    5.000    6.000    0.000    0.000 
#    0.000    0.000   16.500    0.000    0.000    0.000 
#    0.000    0.000    0.000    0.000    0.000    0.000 
#
# Total GULP energy -198351.770541 kJ/mol
# GULP energy per Si atom -12396.985659 kJ/mol
# Density = 2.047712 g / cm^3
# Si number density = 20.523831 Si / 1000 Ang^3
#
#
#
# Elastic Constant Matrix: (Units=GPa)
#
#
# Indices 1 2 3 4 5 6 
#
# 1 134.7347 37.7863 74.7381 26.4535 -9.2201 -3.7377
# 2 37.7863 50.2418 33.2374 7.2064 -0.2747 -4.4266
# 3 74.7381 33.2374 135.6902 27.6472 -26.5528 -4.1667
# 4 26.4535 7.2064 27.6472 24.9669 -7.7821 -3.1303
# 5 -9.2201 -0.2747 -26.5528 -7.7821 55.3504 16.1065
# 6 -3.7377 -4.4266 -4.1667 -3.1303 16.1065 27.1666
#
#
#
# Elastic Compliance Matrix: (Units=1/GPa)
#
#
# Indices 1 2 3 4 5 6 
#
# 1 0.012828 -0.005720 -0.004343 -0.007454 -0.000993 -0.000103
# 2 -0.005720 0.027512 -0.004863 0.002854 -0.004474 0.005931
# 3 -0.004343 -0.004863 0.013514 -0.007630 0.005704 -0.003578
# 4 -0.007454 0.002854 -0.007630 0.056660 0.002033 0.003593
# 5 -0.000993 -0.004474 0.005704 0.002033 0.025173 -0.014681
# 6 -0.000103 0.005931 -0.003578 0.003593 -0.014681 0.046332
#
#
# Mechanical properties :
#
#
# Convention : Reuss Voigt Hill
#
# Bulk Modulus (GPa) = 41.66543 68.02114 54.84329
# Shear Modulus (GPa) = 22.74044 33.15711 27.94877
#
# Velocity S-wave (km/s) = 3.33228 4.02374 3.69422
# Velocity P-wave (km/s) = 5.92879 7.40282 6.70643
#
# Compressibility (1/GPa) = 0.02400071
#
# Stress axis : x y z
#
# Youngs Moduli (GPa) = 77.95414 36.34813 73.99557
#
# Poissons Ratio (x) = 0.20791 0.32139
# Poissons Ratio (y) = 0.44589 0.35987
# Poissons Ratio (z) = 0.33859 0.17678
#
# Static dielectric constant tensor:
#      x y z
#    x 4.494710 -0.173220 -1.015880 
#    y -0.173220 3.389430 0.530650 
#    z -1.015880 0.530650 4.778330 
# 
# 
# High freq. dielectric constant tensor:
#      x y z
#    x 1.823070 0.009700 -0.023660 
#    y 0.009700 1.763650 0.035700 
#    z -0.023660 0.035700 1.818800 
# 
# From -- ./inp_files/118049.got.cif
#   From: 2010.06.25/outbox.cif.g09.slc.cpg/sg2_60_cif.got.tgz:118049.got - 2010.06.27 13:26:56.
