data_PCOD8038211
_publ_section_title
;
Structure prediction by ZEFSAII (Michael W. Deem and Ramdas Pophale) SiO2 
 PCOD8038211
Probable space group: P -1
;
_chemical_formula_sum "Si O2"
_cell_formula_units_Z 14
_cell_length_a 14.682005
_cell_length_b 9.242899
_cell_length_c 24.072000
_cell_angle_alpha 43.446294
_cell_angle_beta 19.242720
_cell_angle_gamma 41.583967
_cell_volume 711.616884
_symmetry_space_group_name_H-M "P -1"
_symmetry_group_IT_number 2
_symmetry_cell_setting 'triclinic'
loop_
_space_group_symop_operation_xyz
x,y,z
-x,-y,-z
loop_
_atom_site_type_symbol
_atom_site_label
_atom_site_fract_x
_atom_site_fract_y
_atom_site_fract_z
Si Si1 0.908297 0.688227 0.544557
Si Si2 0.631941 0.113348 0.815845
Si Si3 0.578954 0.670963 0.013668
Si Si4 0.857652 0.527771 0.733765
Si Si5 0.960892 0.704969 0.199888
Si Si6 0.676179 0.983473 0.198478
Si Si7 0.384543 0.968117 0.899674
O O1 0.013223 0.588585 0.572945
O O2 0.000000 0.500000 0.500000
O O3 0.067613 0.872904 0.387472
O O4 0.561864 0.787701 0.714381
O O5 0.690959 0.878518 0.876342
O O6 0.399170 0.134489 0.894409
O O7 0.512215 0.308170 0.874711
O O8 0.828700 0.450014 0.922349
O O9 0.308596 0.652912 0.136969
O O10 0.639715 0.744254 0.824498
O O11 0.084012 0.423192 0.682302
O O12 0.674189 0.812242 0.298024
O O13 0.085104 0.905596 0.090862
O O14 0.581016 0.915258 0.211663
O O15 0.000000 0.000000 0.000000
#
# Coordination Sequence:
#
# PCOD8038211 Si02
#       7
#     2   2   2   2   2   2   2
#     4  11  23  38  59  87 119 151 192 242 287 337
#     4  11  20  33  59  89 119 142 199 243 285 324
#     4  10  19  33  59  89 114 152 190 240 283 342
#     4  10  17  34  59  83 111 151 197 228 276 348
#     4  10  17  36  60  84 112 153 197 228 281 354
#     4   9  21  36  61  83 118 155 193 229 288 350
#     4   9  17  33  57  88 107 150 198 236 268 344
#
# _framework density 19.673507000000001
#
# number of rings (size 3 to 8) (size 9 to 14) (size 15 to 20)
#    0.000    2.000    4.286    1.714    0.000    2.286 
#    0.000    2.143    0.000    0.000    0.000    0.000 
#    0.000    0.000    0.000    0.000    0.000    0.000 
#
# Total GULP energy -173439.213536 kJ/mol
# GULP energy per Si atom -12388.515253 kJ/mol
# Density = 1.962873 g / cm^3
# Si number density = 19.673507 Si / 1000 Ang^3
#
#
#
# Elastic Constant Matrix: (Units=GPa)
#
#
# Indices 1 2 3 4 5 6 
#
# 1 159.8002 55.9647 21.6527 9.1896 26.5201 -18.8925
# 2 55.9647 56.0274 26.0310 4.5502 4.4627 -6.5305
# 3 21.6527 26.0310 81.6140 -4.7125 17.3430 -1.4260
# 4 9.1896 4.5502 -4.7125 25.2153 0.1434 6.5508
# 5 26.5201 4.4627 17.3430 0.1434 27.8021 -6.3274
# 6 -18.8925 -6.5305 -1.4260 6.5508 -6.3274 42.7378
#
#
#
# Elastic Compliance Matrix: (Units=1/GPa)
#
#
# Indices 1 2 3 4 5 6 
#
# 1 0.012523 -0.012524 0.002966 -0.002313 -0.011224 0.002414
# 2 -0.012524 0.034969 -0.010956 -0.004429 0.013679 0.002145
# 3 0.002966 -0.010956 0.017931 0.004950 -0.012833 -0.002423
# 4 -0.002313 -0.004429 0.004950 0.044501 -0.002382 -0.008708
# 5 -0.011224 0.013679 -0.012833 -0.002382 0.053636 0.005006
# 6 0.002414 0.002145 -0.002423 -0.008708 0.005006 0.026788
#
#
# Mechanical properties :
#
#
# Convention : Reuss Voigt Hill
#
# Bulk Modulus (GPa) = 40.99176 56.08204 48.53690
# Shear Modulus (GPa) = 20.87619 32.07060 26.47339
#
# Velocity S-wave (km/s) = 3.26104 4.04188 3.67227
# Velocity P-wave (km/s) = 5.92118 7.09582 6.53495
#
# Compressibility (1/GPa) = 0.02439515
#
# Stress axis : x y z
#
# Youngs Moduli (GPa) = 79.85211 28.59716 55.77029
#
# Poissons Ratio (x) = 0.35815 -0.16540
# Poissons Ratio (y) = 1.00005 0.61100
# Poissons Ratio (z) = -0.23683 0.31330
#
# Static dielectric constant tensor:
#      x y z
#    x 4.088270 -0.093200 0.281510 
#    y -0.093200 3.459510 -0.152020 
#    z 0.281510 -0.152020 3.473890 
# 
# 
# High freq. dielectric constant tensor:
#      x y z
#    x 1.783710 0.002910 0.030500 
#    y 0.002910 1.740030 -0.018090 
#    z 0.030500 -0.018090 1.731170 
# 
# From -- ./inp_files/200766.got.cif
#   From: 2010.06.25/outbox.cif.g09.slc.cpg/sg2_101_cif.got.tgz:200766.got - 2010.06.27 13:26:56.
