data_PCOD8038366
_publ_section_title
;
Structure prediction by ZEFSAII (Michael W. Deem and Ramdas Pophale) SiO2 
 PCOD8038366
Probable space group: P -1
;
_chemical_formula_sum "Si O2"
_cell_formula_units_Z 16
_cell_length_a 33.746575
_cell_length_b 9.459417
_cell_length_c 16.992443
_cell_angle_alpha 31.801136
_cell_angle_beta 163.719850
_cell_angle_gamma 149.074989
_cell_volume 768.207847
_symmetry_space_group_name_H-M "P -1"
_symmetry_group_IT_number 2
_symmetry_cell_setting 'triclinic'
loop_
_space_group_symop_operation_xyz
x,y,z
-x,-y,-z
loop_
_atom_site_type_symbol
_atom_site_label
_atom_site_fract_x
_atom_site_fract_y
_atom_site_fract_z
Si Si1 0.730726 0.237773 0.926886
Si Si2 0.361525 0.349365 0.707047
Si Si3 0.557852 0.993963 0.438205
Si Si4 0.989835 0.884276 0.448090
Si Si5 0.893643 0.628077 0.682528
Si Si6 0.369865 0.308359 0.567055
Si Si7 0.642236 0.142841 0.367782
Si Si8 0.327418 0.249598 0.081163
O O1 0.728313 0.511984 0.744133
O O2 0.613563 0.180104 0.801663
O O3 0.686782 0.967037 0.914837
O O4 0.889042 0.285361 0.247897
O O5 0.420100 0.681003 0.660310
O O6 0.214909 0.249728 0.528277
O O7 0.314164 0.229908 0.586159
O O8 0.495733 0.245069 0.044476
O O9 0.624446 0.940130 0.506218
O O10 0.644818 0.894146 0.718885
O O11 0.011092 0.127056 0.307855
O O12 0.000000 0.000000 0.500000
O O13 0.824873 0.674194 0.227615
O O14 0.792366 0.393518 0.542617
O O15 0.000000 0.500000 0.000000
O O16 0.543736 0.472116 0.823893
O O17 0.347430 0.019963 0.614774
#
# Coordination Sequence:
#
# PCOD8038366 Si02
#       8
#     2   2   2   2   2   2   2   2
#     4  10  18  34  60  85 120 159 210 242 302 361
#     4  11  20  39  62  84 125 159 207 247 301 366
#     4  10  17  35  59  83 115 153 205 254 296 353
#     4  10  21  35  62  92 118 155 213 253 290 358
#     4  11  24  42  67  92 123 163 206 251 306 366
#     4  11  22  38  60  94 122 160 198 261 308 354
#     4  11  24  36  60  94 123 156 206 253 310 360
#     4  10  19  35  62  86 118 156 203 252 301 362
#
# _framework density 20.827697000000001
#
# number of rings (size 3 to 8) (size 9 to 14) (size 15 to 20)
#    0.000    1.500    2.500    5.625    3.500    2.000 
#    0.000    1.875    0.000    3.000    0.000    0.000 
#    0.000    0.000    0.000    0.000    0.000    0.000 
#
# Total GULP energy -198336.180286 kJ/mol
# GULP energy per Si atom -12396.011268 kJ/mol
# Density = 2.078029 g / cm^3
# Si number density = 20.827697 Si / 1000 Ang^3
#
#
#
# Elastic Constant Matrix: (Units=GPa)
#
#
# Indices 1 2 3 4 5 6 
#
# 1 103.9695 30.5904 13.6835 5.7335 -5.6550 -1.0842
# 2 30.5904 57.8480 22.0064 3.7470 0.4939 -8.5672
# 3 13.6835 22.0064 125.3950 11.1460 16.7127 3.1793
# 4 5.7335 3.7470 11.1460 13.8389 12.0740 -3.2984
# 5 -5.6550 0.4939 16.7127 12.0740 24.4411 -3.8636
# 6 -1.0842 -8.5672 3.1793 -3.2984 -3.8636 35.6563
#
#
#
# Elastic Compliance Matrix: (Units=1/GPa)
#
#
# Indices 1 2 3 4 5 6 
#
# 1 0.012485 -0.005957 -0.000458 -0.010895 0.008531 -0.001094
# 2 -0.005957 0.022746 -0.003667 -0.001311 0.002223 0.005731
# 3 -0.000458 -0.003667 0.009723 -0.001901 -0.006153 -0.002605
# 4 -0.010895 -0.001311 -0.001901 0.140952 -0.070039 0.004973
# 5 0.008531 0.002223 -0.006153 -0.070039 0.082247 0.003775
# 6 -0.001094 0.005731 -0.002605 0.004973 0.003775 0.030491
#
#
# Mechanical properties :
#
#
# Convention : Reuss Voigt Hill
#
# Bulk Modulus (GPa) = 40.33736 46.64146 43.48941
# Shear Modulus (GPa) = 15.28719 29.51609 22.40164
#
# Velocity S-wave (km/s) = 2.71215 3.76860 3.28315
# Velocity P-wave (km/s) = 5.40527 6.43265 5.94121
#
# Compressibility (1/GPa) = 0.02479092
#
# Stress axis : x y z
#
# Youngs Moduli (GPa) = 80.09905 43.96301 102.84462
#
# Poissons Ratio (x) = 0.26189 0.04708
# Poissons Ratio (y) = 0.47715 0.37712
# Poissons Ratio (z) = 0.03667 0.16121
#
# Static dielectric constant tensor:
#      x y z
#    x 4.213220 0.190030 0.105280 
#    y 0.190030 3.380890 0.164820 
#    z 0.105280 0.164820 4.493230 
# 
# 
# High freq. dielectric constant tensor:
#      x y z
#    x 1.828230 0.016420 -0.007260 
#    y 0.016420 1.771640 0.001240 
#    z -0.007260 0.001240 1.829830 
# 
# From -- ./inp_files/244452.got.cif
#   From: 2010.06.25/outbox.cif.g09.slc.cpg/sg2_123_cif.got.tgz:244452.got - 2010.06.27 13:26:56.
