data_PCOD8038390
_publ_section_title
;
Structure prediction by ZEFSAII (Michael W. Deem and Ramdas Pophale) SiO2 
 PCOD8038390
Probable space group: P -1
;
_chemical_formula_sum "Si O2"
_cell_formula_units_Z 16
_cell_length_a 21.357118
_cell_length_b 9.970434
_cell_length_c 9.976956
_cell_angle_alpha 97.006698
_cell_angle_beta 132.185496
_cell_angle_gamma 44.998720
_cell_volume 822.788603
_symmetry_space_group_name_H-M "P -1"
_symmetry_group_IT_number 2
_symmetry_cell_setting 'triclinic'
loop_
_space_group_symop_operation_xyz
x,y,z
-x,-y,-z
loop_
_atom_site_type_symbol
_atom_site_label
_atom_site_fract_x
_atom_site_fract_y
_atom_site_fract_z
Si Si1 0.732421 0.620495 0.234700
Si Si2 0.529850 0.616755 0.545563
Si Si3 0.701714 0.660989 0.489690
Si Si4 0.634904 0.008048 0.875436
Si Si5 0.136788 0.719546 0.105533
Si Si6 0.753551 0.912824 0.302542
Si Si7 0.093848 0.583110 0.789830
Si Si8 0.563936 0.115534 0.289540
O O1 0.759779 0.524404 0.411286
O O2 0.745678 0.762788 0.277439
O O3 0.864884 0.395587 0.288122
O O4 0.558693 0.812589 0.957905
O O5 0.500000 0.500000 0.500000
O O6 0.392899 0.868606 0.284867
O O7 0.705892 0.405641 0.714349
O O8 0.520621 0.688357 0.690314
O O9 0.527426 0.844025 0.298750
O O10 0.830132 0.438912 0.755067
O O11 0.697031 0.831065 0.505722
O O12 0.687918 0.040218 0.075007
O O13 0.767025 0.711661 0.002690
O O14 0.072169 0.730224 0.884163
O O15 0.000000 0.000000 0.000000
O O16 0.068788 0.276680 0.445279
O O17 0.644078 0.110673 0.295723
#
# Coordination Sequence:
#
# PCOD8038390 Si02
#       8
#     2   2   2   2   2   2   2   2
#     4  10  17  35  61  94 116 140 192 245 290 343
#     4  11  25  42  60  82 116 160 202 238 276 344
#     4  10  18  36  66  90 110 149 197 242 286 342
#     4  10  18  38  63  90 115 146 195 243 289 340
#     4  11  25  43  57  81 123 160 192 237 291 342
#     4  10  20  34  59  97 123 139 181 251 302 336
#     4  11  21  37  62  91 120 150 186 241 299 343
#     4  11  18  37  65  91 113 147 198 241 285 344
#
# _framework density 19.446064
#
# number of rings (size 3 to 8) (size 9 to 14) (size 15 to 20)
#    0.000    1.500    5.000    3.000    1.750    2.000 
#    6.750    5.625    0.000    0.000    0.000    0.000 
#    0.000    0.000    0.000    0.000    0.000    0.000 
#
# Total GULP energy -198309.528105 kJ/mol
# GULP energy per Si atom -12394.345507 kJ/mol
# Density = 1.940180 g / cm^3
# Si number density = 19.446064 Si / 1000 Ang^3
#
#
#
# Elastic Constant Matrix: (Units=GPa)
#
#
# Indices 1 2 3 4 5 6 
#
# 1 56.3656 32.0481 24.6828 4.7434 -1.1728 -11.7297
# 2 32.0481 108.9086 30.7983 9.7450 -4.9446 -18.5989
# 3 24.6828 30.7983 67.5695 10.4376 10.6730 -9.0106
# 4 4.7434 9.7450 10.4376 23.6105 -13.1267 2.0684
# 5 -1.1728 -4.9446 10.6730 -13.1267 24.3509 5.9638
# 6 -11.7297 -18.5989 -9.0106 2.0684 5.9638 30.3364
#
#
#
# Elastic Compliance Matrix: (Units=1/GPa)
#
#
# Indices 1 2 3 4 5 6 
#
# 1 0.024060 -0.004449 -0.007036 0.001622 0.003301 0.003725
# 2 -0.004449 0.012531 -0.003136 -0.002796 0.000965 0.005032
# 3 -0.007036 -0.003136 0.031019 -0.031627 -0.034950 0.013597
# 4 0.001622 -0.002796 -0.031627 0.102646 0.076678 -0.032554
# 5 0.003301 0.000965 -0.034950 0.076678 0.106571 -0.034692
# 6 0.003725 0.005032 0.013597 -0.032554 -0.034692 0.050568
#
#
# Mechanical properties :
#
#
# Convention : Reuss Voigt Hill
#
# Bulk Modulus (GPa) = 26.06420 45.32246 35.69333
# Shear Modulus (GPa) = 13.53450 25.34719 19.44085
#
# Velocity S-wave (km/s) = 2.64105 3.61426 3.16528
# Velocity P-wave (km/s) = 4.76787 6.38550 5.63503
#
# Compressibility (1/GPa) = 0.03836680
#
# Stress axis : x y z
#
# Youngs Moduli (GPa) = 41.56337 79.79900 32.23870
#
# Poissons Ratio (x) = 0.35504 0.22684
# Poissons Ratio (y) = 0.18493 0.10110
# Poissons Ratio (z) = 0.29245 0.25025
#
# Static dielectric constant tensor:
#      x y z
#    x 3.934620 -0.512360 -0.332880 
#    y -0.512360 3.621780 0.290140 
#    z -0.332880 0.290140 3.739510 
# 
# 
# High freq. dielectric constant tensor:
#      x y z
#    x 1.758210 -0.031810 -0.002890 
#    y -0.031810 1.738930 0.021430 
#    z -0.002890 0.021430 1.755160 
# 
# From -- ./inp_files/353114.got.cif
#   From: 2010.06.25/outbox.cif.g09.slc.cpg/sg2_177_cif.got.tgz:353114.got - 2010.06.27 13:26:56.
