data_PCOD8038056
_publ_section_title
;
Structure prediction by ZEFSAII (Michael W. Deem and Ramdas Pophale) SiO2 
 PCOD8038056
Probable space group: P -1
;
_chemical_formula_sum "Si O2"
_cell_formula_units_Z 16
_cell_length_a 16.191302
_cell_length_b 26.408839
_cell_length_c 9.058866
_cell_angle_alpha 123.256455
_cell_angle_beta 45.301333
_cell_angle_gamma 160.313892
_cell_volume 815.904234
_symmetry_space_group_name_H-M "P -1"
_symmetry_group_IT_number 2
_symmetry_cell_setting 'triclinic'
loop_
_space_group_symop_operation_xyz
x,y,z
-x,-y,-z
loop_
_atom_site_type_symbol
_atom_site_label
_atom_site_fract_x
_atom_site_fract_y
_atom_site_fract_z
Si Si1 0.350736 0.076884 0.021938
Si Si2 0.684238 0.841103 0.038810
Si Si3 0.668115 0.242632 0.458669
Si Si4 0.933270 0.310933 0.813427
Si Si5 0.677274 0.453581 0.047298
Si Si6 0.669566 0.020763 0.355183
Si Si7 0.309141 0.018301 0.289640
Si Si8 0.861045 0.719408 0.567275
O O1 0.273649 0.102033 0.076951
O O2 0.747241 0.258080 0.833049
O O3 0.207069 0.951935 0.904714
O O4 0.178083 0.990214 0.262703
O O5 0.385258 0.723289 0.321606
O O6 0.607402 0.735192 0.917340
O O7 0.000000 0.000000 0.000000
O O8 0.599198 0.150751 0.498427
O O9 0.407385 0.115238 0.446755
O O10 0.043829 0.423066 0.225970
O O11 0.174599 0.474660 0.858365
O O12 0.131465 0.349503 0.566653
O O13 0.648328 0.148827 0.026529
O O14 0.514044 0.440342 0.210706
O O15 0.500000 0.000000 0.500000
O O16 0.985681 0.185858 0.320145
O O17 0.045501 0.841198 0.392608
#
# Coordination Sequence:
#
# PCOD8038056 Si02
#       8
#     2   2   2   2   2   2   2   2
#     4   9  19  34  59  84 113 141 196 234 287 325
#     4  11  22  40  63  81 109 149 201 243 282 339
#     4   9  20  37  57  84 113 151 188 231 292 337
#     4   9  19  34  56  83 118 144 185 231 290 335
#     4  11  22  36  57  83 116 156 188 234 289 340
#     4  10  17  33  60  83 112 152 188 231 274 335
#     4   8  17  34  58  86 109 147 188 233 283 334
#     4  11  19  34  60  87 116 152 191 227 283 343
#
# _framework density 19.610144999999999
#
# number of rings (size 3 to 8) (size 9 to 14) (size 15 to 20)
#    0.750    1.500    1.250    3.375    0.000    1.500 
#    0.000    3.125   11.000    0.000    0.000    0.000 
#    0.000    0.000    0.000    0.000    0.000    0.000 
#
# Total GULP energy -198263.526667 kJ/mol
# GULP energy per Si atom -12391.470417 kJ/mol
# Density = 1.956551 g / cm^3
# Si number density = 19.610145 Si / 1000 Ang^3
#
#
#
# Elastic Constant Matrix: (Units=GPa)
#
#
# Indices 1 2 3 4 5 6 
#
# 1 104.4909 31.4193 20.2770 6.8163 1.3340 21.0894
# 2 31.4193 97.1078 17.9945 10.2869 1.3289 11.9652
# 3 20.2770 17.9945 50.8558 5.9997 -3.4820 6.2368
# 4 6.8163 10.2869 5.9997 30.4910 5.6515 -1.9860
# 5 1.3340 1.3289 -3.4820 5.6515 30.5218 6.5620
# 6 21.0894 11.9652 6.2368 -1.9860 6.5620 27.4254
#
#
#
# Elastic Compliance Matrix: (Units=1/GPa)
#
#
# Indices 1 2 3 4 5 6 
#
# 1 0.012683 -0.002289 -0.002804 -0.002357 0.001522 -0.008651
# 2 -0.002289 0.012295 -0.002562 -0.003477 0.000653 -0.003429
# 3 -0.002804 -0.002562 0.022851 -0.004009 0.004279 -0.003237
# 4 -0.002357 -0.003477 -0.004009 0.037572 -0.009126 0.009145
# 5 0.001522 0.000653 0.004279 -0.009126 0.037436 -0.012047
# 6 -0.008651 -0.003429 -0.003237 0.009145 -0.012047 0.048892
#
#
# Mechanical properties :
#
#
# Convention : Reuss Voigt Hill
#
# Bulk Modulus (GPa) = 30.75147 43.53733 37.14440
# Shear Modulus (GPa) = 25.26784 29.87189 27.56986
#
# Velocity S-wave (km/s) = 3.59347 3.90717 3.75360
# Velocity P-wave (km/s) = 5.73872 6.52719 6.14561
#
# Compressibility (1/GPa) = 0.03251877
#
# Stress axis : x y z
#
# Youngs Moduli (GPa) = 78.84532 81.33262 43.76199
#
# Poissons Ratio (x) = 0.18619 0.12270
# Poissons Ratio (y) = 0.18050 0.11213
# Poissons Ratio (z) = 0.22106 0.20839
#
# Static dielectric constant tensor:
#      x y z
#    x 3.435820 0.250620 0.019630 
#    y 0.250620 3.510410 0.271190 
#    z 0.019630 0.271190 3.569510 
# 
# 
# High freq. dielectric constant tensor:
#      x y z
#    x 1.746300 0.021880 -0.004880 
#    y 0.021880 1.757920 0.021730 
#    z -0.004880 0.021730 1.758560 
# 
# From -- ./inp_files/269976.got.cif
#   From: 2010.06.25/outbox.cif.g09.slc.cpg/sg2_135_cif.got.tgz:269976.got - 2010.06.27 13:26:56.
