data_PCOD8038802
_publ_section_title
;
Structure prediction by ZEFSAII (Michael W. Deem and Ramdas Pophale) SiO2 
 PCOD8038802
Probable space group: P -1
;
_chemical_formula_sum "Si O2"
_cell_formula_units_Z 16
_cell_length_a 23.402364
_cell_length_b 24.984903
_cell_length_c 9.702908
_cell_angle_alpha 28.191083
_cell_angle_beta 39.234054
_cell_angle_gamma 19.489345
_cell_volume 835.175976
_symmetry_space_group_name_H-M "P -1"
_symmetry_group_IT_number 2
_symmetry_cell_setting 'triclinic'
loop_
_space_group_symop_operation_xyz
x,y,z
-x,-y,-z
loop_
_atom_site_type_symbol
_atom_site_label
_atom_site_fract_x
_atom_site_fract_y
_atom_site_fract_z
Si Si1 0.988254 0.219626 0.376160
Si Si2 0.456697 0.069433 0.720087
Si Si3 0.850162 0.709817 0.699973
Si Si4 0.618472 0.288125 0.164940
Si Si5 0.842287 0.156324 0.827570
Si Si6 0.131975 0.421506 0.330499
Si Si7 0.985252 0.246124 0.644936
Si Si8 0.588997 0.718669 0.432605
O O1 0.830875 0.294396 0.469355
O O2 0.985338 0.265565 0.435582
O O3 0.941104 0.371324 0.016406
O O4 0.190460 0.950317 0.574566
O O5 0.336782 0.196649 0.517739
O O6 0.366669 0.256528 0.570309
O O7 0.655965 0.896637 0.704502
O O8 0.466995 0.931353 0.077311
O O9 0.869026 0.635492 0.685079
O O10 0.884825 0.805492 0.405070
O O11 0.000000 0.500000 0.000000
O O12 0.517370 0.280824 0.335265
O O13 0.500000 0.500000 0.000000
O O14 0.657054 0.314095 0.890346
O O15 0.000000 0.000000 0.000000
O O16 0.920110 0.976701 0.984731
O O17 0.000000 0.500000 0.500000
O O18 0.777770 0.477980 0.555640
#
# Coordination Sequence:
#
# PCOD8038802 Si02
#       8
#     2   2   2   2   2   2   2   2
#     4  10  19  36  56  80 120 157 194 241 294 353
#     4  11  24  37  58  88 120 159 198 241 299 359
#     4  12  22  39  62  84 122 162 198 240 299 354
#     4  10  18  30  55  88 115 146 203 250 286 343
#     4   8  17  31  53  80 109 151 197 235 288 344
#     4  12  25  39  59  89 126 157 196 246 304 350
#     4  10  18  34  59  85 113 155 196 243 289 350
#     4  11  20  34  59  87 120 148 202 247 291 350
#
# _framework density 19.157641000000002
#
# number of rings (size 3 to 8) (size 9 to 14) (size 15 to 20)
#    0.000    1.750    2.500    5.625    1.750    0.000 
#    0.000    1.250    0.000   11.250    0.000    0.000 
#    0.000    0.000    0.000    0.000    0.000    0.000 
#
# Total GULP energy -198328.186853 kJ/mol
# GULP energy per Si atom -12395.511678 kJ/mol
# Density = 1.911404 g / cm^3
# Si number density = 19.157641 Si / 1000 Ang^3
#
#
#
# Elastic Constant Matrix: (Units=GPa)
#
#
# Indices 1 2 3 4 5 6 
#
# 1 102.1482 41.5634 60.8538 -6.3365 -12.4620 -2.5576
# 2 41.5634 127.8169 52.4584 -7.2168 -10.6534 0.5766
# 3 60.8538 52.4584 120.4048 10.7866 -25.4301 -1.5286
# 4 -6.3365 -7.2168 10.7866 27.7906 -5.6170 -10.9465
# 5 -12.4620 -10.6534 -25.4301 -5.6170 41.7422 1.6944
# 6 -2.5576 0.5766 -1.5286 -10.9465 1.6944 36.4560
#
#
#
# Elastic Compliance Matrix: (Units=1/GPa)
#
#
# Indices 1 2 3 4 5 6 
#
# 1 0.015620 -0.001425 -0.007818 0.007502 0.000424 0.003023
# 2 -0.001425 0.010206 -0.004045 0.004279 0.000257 0.000842
# 3 -0.007818 -0.004045 0.015894 -0.009041 0.005213 -0.002775
# 4 0.007502 0.004279 -0.009041 0.048818 0.003802 0.014561
# 5 0.000424 0.000257 0.005213 0.003802 0.027832 0.000092
# 6 0.003023 0.000842 -0.002775 0.014561 0.000092 0.031881
#
#
# Mechanical properties :
#
#
# Convention : Reuss Voigt Hill
#
# Bulk Modulus (GPa) = 66.02836 73.34679 69.68757
# Shear Modulus (GPa) = 27.49134 34.23072 30.86103
#
# Velocity S-wave (km/s) = 3.79226 4.23163 4.01796
# Velocity P-wave (km/s) = 7.32909 7.88953 7.61447
#
# Compressibility (1/GPa) = 0.01514501
#
# Stress axis : x y z
#
# Youngs Moduli (GPa) = 64.02182 97.97707 62.91540
#
# Poissons Ratio (x) = 0.13967 0.49184
# Poissons Ratio (y) = 0.09126 0.25448
# Poissons Ratio (z) = 0.50049 0.39629
#
# Static dielectric constant tensor:
#      x y z
#    x 3.530990 -0.145140 -0.857210 
#    y -0.145140 3.657370 0.153500 
#    z -0.857210 0.153500 4.011490 
# 
# 
# High freq. dielectric constant tensor:
#      x y z
#    x 1.732150 -0.002380 -0.040400 
#    y -0.002380 1.760040 0.004650 
#    z -0.040400 0.004650 1.735490 
# 
# From -- ./inp_files/355555.got.cif
#   From: 2010.06.25/outbox.cif.g09.slc.cpg/sg2_178_cif.got.tgz:355555.got - 2010.06.27 13:26:56.
