data_PCOD8038632
_publ_section_title
;
Structure prediction by ZEFSAII (Michael W. Deem and Ramdas Pophale) SiO2 
 PCOD8038632
Probable space group: P -1
;
_chemical_formula_sum "Si O2"
_cell_formula_units_Z 16
_cell_length_a 17.633680
_cell_length_b 20.957458
_cell_length_c 11.460715
_cell_angle_alpha 48.913239
_cell_angle_beta 38.910555
_cell_angle_gamma 18.916789
_cell_volume 795.074503
_symmetry_space_group_name_H-M "P -1"
_symmetry_group_IT_number 2
_symmetry_cell_setting 'triclinic'
loop_
_space_group_symop_operation_xyz
x,y,z
-x,-y,-z
loop_
_atom_site_type_symbol
_atom_site_label
_atom_site_fract_x
_atom_site_fract_y
_atom_site_fract_z
Si Si1 0.286484 0.761084 0.485988
Si Si2 0.350184 0.567586 0.216717
Si Si3 0.282748 0.066065 0.144772
Si Si4 0.920026 0.692619 0.090723
Si Si5 0.702641 0.996866 0.548733
Si Si6 0.845360 0.621471 0.917305
Si Si7 0.602717 0.633059 0.481229
Si Si8 0.663579 0.444396 0.204515
O O1 0.488982 0.686812 0.421689
O O2 0.466248 0.622360 0.321110
O O3 0.189763 0.735640 0.698141
O O4 0.000000 0.000000 0.500000
O O5 0.460720 0.401825 0.311853
O O6 0.448894 0.564192 0.208103
O O7 0.982867 0.807745 0.351932
O O8 0.500000 0.500000 0.000000
O O9 0.153127 0.108210 0.367335
O O10 0.486034 0.868518 0.064216
O O11 0.500000 0.000000 0.000000
O O12 0.026678 0.276765 0.121608
O O13 0.112967 0.483155 0.095866
O O14 0.563624 0.900399 0.288059
O O15 0.079437 0.654157 0.038003
O O16 0.563814 0.179145 0.489875
O O17 0.031915 0.584108 0.695187
O O18 0.000000 0.500000 0.000000
#
# Coordination Sequence:
#
# PCOD8038632 Si02
#       8
#     2   2   2   2   2   2   2   2
#     4  10  21  33  52  84 122 152 175 221 289 358
#     4  11  25  44  59  74 106 158 209 245 272 319
#     4  10  18  27  49  82 122 149 171 204 275 350
#     4  10  21  32  53  87 120 144 176 227 285 351
#     4  10  21  34  58  84 112 149 189 230 278 336
#     4  11  17  29  51  88 121 149 167 219 284 354
#     4  10  20  34  59  85 115 147 188 225 279 347
#     4  10  23  36  56  82 116 150 187 231 290 341
#
# _framework density 20.123901
#
# number of rings (size 3 to 8) (size 9 to 14) (size 15 to 20)
#    0.000    1.750    3.750    3.000    7.000    0.500 
#    0.000    0.625    0.000    3.000    0.000    0.000 
#    0.000    0.000    0.000    0.000    0.000    0.000 
#
# Total GULP energy -198232.263632 kJ/mol
# GULP energy per Si atom -12389.516477 kJ/mol
# Density = 2.007810 g / cm^3
# Si number density = 20.123901 Si / 1000 Ang^3
#
#
#
# Elastic Constant Matrix: (Units=GPa)
#
#
# Indices 1 2 3 4 5 6 
#
# 1 65.1069 29.4660 49.2957 0.2767 -25.8183 3.8399
# 2 29.4660 81.2307 36.7309 7.9756 0.5836 9.0960
# 3 49.2957 36.7309 120.0293 7.1853 -6.7926 3.5180
# 4 0.2767 7.9756 7.1853 27.0645 2.4740 0.3093
# 5 -25.8183 0.5836 -6.7926 2.4740 34.9123 -4.1641
# 6 3.8399 9.0960 3.5180 0.3093 -4.1641 15.8858
#
#
#
# Elastic Compliance Matrix: (Units=1/GPa)
#
#
# Indices 1 2 3 4 5 6 
#
# 1 0.039580 -0.010138 -0.011957 0.003164 0.027612 0.006062
# 2 -0.010138 0.018176 -0.001378 -0.003953 -0.008973 -0.009926
# 3 -0.011957 -0.001378 0.013492 -0.002484 -0.006122 -0.000864
# 4 0.003164 -0.003953 -0.002484 0.038791 -0.000694 0.001111
# 5 0.027612 -0.008973 -0.006122 -0.000694 0.049602 0.012835
# 6 0.006062 -0.009926 -0.000864 0.001111 0.012835 0.070702
#
#
# Mechanical properties :
#
#
# Convention : Reuss Voigt Hill
#
# Bulk Modulus (GPa) = 41.15449 55.26134 48.20791
# Shear Modulus (GPa) = 17.51988 25.63080 21.57534
#
# Velocity S-wave (km/s) = 2.95379 3.57269 3.27788
# Velocity P-wave (km/s) = 5.66817 6.67376 6.19141
#
# Compressibility (1/GPa) = 0.02429869
#
# Stress axis : x y z
#
# Youngs Moduli (GPa) = 25.26539 55.01851 74.12028
#
# Poissons Ratio (x) = 0.55780 0.88628
# Poissons Ratio (y) = 0.25615 0.10217
# Poissons Ratio (z) = 0.30211 0.07584
#
# Static dielectric constant tensor:
#      x y z
#    x 3.600510 0.519920 -0.319390 
#    y 0.519920 3.548110 -0.017560 
#    z -0.319390 -0.017560 3.765720 
# 
# 
# High freq. dielectric constant tensor:
#      x y z
#    x 1.757480 0.018480 -0.050930 
#    y 0.018480 1.793600 0.003910 
#    z -0.050930 0.003910 1.766030 
# 
# From -- ./inp_files/466888.got.cif
#   From: 2010.06.25/outbox.cif.g09.slc.cpg/sg2_234_cif.got.tgz:466888.got - 2010.06.27 13:26:56.
