data_PCOD8038349
_publ_section_title
;
Structure prediction by ZEFSAII (Michael W. Deem and Ramdas Pophale) SiO2 
 PCOD8038349
Probable space group: P -1
;
_chemical_formula_sum "Si O2"
_cell_formula_units_Z 16
_cell_length_a 9.470701
_cell_length_b 17.949538
_cell_length_c 9.323278
_cell_angle_alpha 40.968552
_cell_angle_beta 117.917087
_cell_angle_gamma 132.723041
_cell_volume 760.188509
_symmetry_space_group_name_H-M "P -1"
_symmetry_group_IT_number 2
_symmetry_cell_setting 'triclinic'
loop_
_space_group_symop_operation_xyz
x,y,z
-x,-y,-z
loop_
_atom_site_type_symbol
_atom_site_label
_atom_site_fract_x
_atom_site_fract_y
_atom_site_fract_z
Si Si1 0.733610 0.902285 0.569480
Si Si2 0.619919 0.442186 0.696277
Si Si3 0.049599 0.271306 0.566033
Si Si4 0.151061 0.407468 0.930427
Si Si5 0.731062 0.712842 0.068593
Si Si6 0.302717 0.720672 0.549555
Si Si7 0.937521 0.826645 0.575823
Si Si8 0.183450 0.636710 0.315267
O O1 0.505801 0.829827 0.560397
O O2 0.801072 0.876078 0.487972
O O3 0.845727 0.064733 0.417299
O O4 0.802870 0.844885 0.813022
O O5 0.500000 0.500000 0.500000
O O6 0.823450 0.571491 0.659011
O O7 0.484949 0.336490 0.910411
O O8 0.662543 0.374544 0.684342
O O9 0.121950 0.250281 0.783098
O O10 0.836608 0.237805 0.516994
O O11 0.058073 0.175033 0.592287
O O12 0.276186 0.404097 0.863204
O O13 0.237709 0.565456 0.781967
O O14 0.923525 0.318758 0.906415
O O15 0.154133 0.327741 0.185868
O O16 0.308488 0.741416 0.349911
O O17 0.000000 0.500000 0.500000
#
# Coordination Sequence:
#
# PCOD8038349 Si02
#       8
#     2   2   2   2   2   2   2   2
#     4  10  25  45  59  84 125 163 203 248 303 357
#     4  10  19  31  56  94 125 145 194 249 297 349
#     4  11  21  37  62  91 122 154 200 250 301 355
#     4  10  20  39  64  90 124 157 194 247 311 356
#     4  10  22  38  62  90 124 158 199 250 301 358
#     4  11  21  36  66  92 120 154 200 248 304 358
#     4  10  25  42  62  84 123 162 203 250 300 356
#     4  10  17  35  57  92 126 156 184 249 307 356
#
# _framework density 21.047412000000001
#
# number of rings (size 3 to 8) (size 9 to 14) (size 15 to 20)
#    0.000    1.750    3.750    2.250    7.000    3.500 
#    0.000    0.625    0.000    0.000    0.000    0.000 
#    0.000    0.000    0.000    0.000    0.000    0.000 
#
# Total GULP energy -198261.325435 kJ/mol
# GULP energy per Si atom -12391.332840 kJ/mol
# Density = 2.099951 g / cm^3
# Si number density = 21.047412 Si / 1000 Ang^3
#
#
#
# Elastic Constant Matrix: (Units=GPa)
#
#
# Indices 1 2 3 4 5 6 
#
# 1 140.8197 32.6498 31.6181 9.4723 -23.8697 0.7010
# 2 32.6498 83.5405 20.1796 9.8135 -12.8266 9.2602
# 3 31.6181 20.1796 35.8546 6.9978 -12.6174 -0.9704
# 4 9.4723 9.8135 6.9978 23.0016 0.2581 -4.5234
# 5 -23.8697 -12.8266 -12.6174 0.2581 18.4309 9.2199
# 6 0.7010 9.2602 -0.9704 -4.5234 9.2199 40.2882
#
#
#
# Elastic Compliance Matrix: (Units=1/GPa)
#
#
# Indices 1 2 3 4 5 6 
#
# 1 0.010442 -0.000419 -0.004046 -0.003694 0.012210 -0.003392
# 2 -0.000419 0.016608 -0.003219 -0.007583 0.012748 -0.007656
# 3 -0.004046 -0.003219 0.044539 -0.011856 0.025860 -0.005366
# 4 -0.003694 -0.007583 -0.011856 0.054795 -0.025729 0.013562
# 5 0.012210 0.012748 0.025860 -0.025729 0.112602 -0.031177
# 6 -0.003392 -0.007656 -0.005366 0.013562 -0.031177 0.035168
#
#
# Mechanical properties :
#
#
# Convention : Reuss Voigt Hill
#
# Bulk Modulus (GPa) = 17.78694 47.67886 32.73290
# Shear Modulus (GPa) = 16.21987 28.06195 22.14091
#
# Velocity S-wave (km/s) = 2.77904 3.65536 3.24690
# Velocity P-wave (km/s) = 4.33205 6.36536 5.44447
#
# Compressibility (1/GPa) = 0.05622101
#
# Stress axis : x y z
#
# Youngs Moduli (GPa) = 95.76661 60.21079 22.45201
#
# Poissons Ratio (x) = 0.02522 0.09085
# Poissons Ratio (y) = 0.04011 0.07228
# Poissons Ratio (z) = 0.38750 0.19383
#
# Static dielectric constant tensor:
#      x y z
#    x 4.463010 0.208470 -0.483750 
#    y 0.208470 3.693370 0.039660 
#    z -0.483750 0.039660 4.044180 
# 
# 
# High freq. dielectric constant tensor:
#      x y z
#    x 1.835100 0.000120 -0.011290 
#    y 0.000120 1.805380 0.017970 
#    z -0.011290 0.017970 1.801320 
# 
# From -- ./inp_files/216796.got.cif
#   From: 2010.06.25/outbox.cif.g09.slc.cpg/sg2_109_cif.got.tgz:216796.got - 2010.06.27 13:26:56.
