data_PCOD8038834
_publ_section_title
;
Structure prediction by ZEFSAII (Michael W. Deem and Ramdas Pophale) SiO2 
 PCOD8038834
Probable space group: P -1
;
_chemical_formula_sum "Si O2"
_cell_formula_units_Z 14
_cell_length_a 13.249037
_cell_length_b 13.360238
_cell_length_c 13.464466
_cell_angle_alpha 22.167125
_cell_angle_beta 66.800131
_cell_angle_gamma 76.001278
_cell_volume 772.879734
_symmetry_space_group_name_H-M "P -1"
_symmetry_group_IT_number 2
_symmetry_cell_setting 'triclinic'
loop_
_space_group_symop_operation_xyz
x,y,z
-x,-y,-z
loop_
_atom_site_type_symbol
_atom_site_label
_atom_site_fract_x
_atom_site_fract_y
_atom_site_fract_z
Si Si1 0.002218 0.533766 0.084664
Si Si2 0.286029 0.374637 0.383656
Si Si3 0.896002 0.001976 0.750965
Si Si4 0.791993 0.247549 0.060172
Si Si5 0.601945 0.391631 0.678069
Si Si6 0.052311 0.403382 0.475364
Si Si7 0.655430 0.874633 0.057868
O O1 0.141174 0.668025 0.937873
O O2 0.938971 0.224447 0.440412
O O3 0.930483 0.731852 0.961709
O O4 0.000000 0.500000 0.000000
O O5 0.290934 0.571988 0.103161
O O6 0.387145 0.523348 0.287741
O O7 0.162300 0.311414 0.547644
O O8 0.291527 0.080312 0.611057
O O9 0.756546 0.907149 0.908242
O O10 0.954807 0.137017 0.707374
O O11 0.900696 0.329782 0.863961
O O12 0.661163 0.667165 0.334627
O O13 0.464233 0.249261 0.843262
O O14 0.668149 0.173715 0.828638
O O15 0.000000 0.500000 0.500000
#
# Coordination Sequence:
#
# PCOD8038834 Si02
#       7
#     2   2   2   2   2   2   2
#     4  11  21  38  56  75 104 138 174 225 275 315
#     4  10  18  31  47  69 103 130 173 196 248 302
#     4  11  21  35  52  81 108 134 177 219 258 314
#     4   9  19  33  44  75  99 125 177 199 252 316
#     4  10  20  34  52  73 103 154 177 201 250 297
#     4   9  19  28  45  71 106 135 154 197 254 309
#     4  10  21  35  50  74 108 139 187 212 236 306
#
# _framework density 18.114073999999999
#
# number of rings (size 3 to 8) (size 9 to 14) (size 15 to 20)
#    0.857    1.143    1.429    3.000    2.000    1.714 
#    0.000    0.000    0.000    0.000    0.000    6.000 
#    0.000    0.000    0.000    0.000    0.000    0.000 
#
# Total GULP energy -173522.289336 kJ/mol
# GULP energy per Si atom -12394.449238 kJ/mol
# Density = 1.807285 g / cm^3
# Si number density = 18.114074 Si / 1000 Ang^3
#
#
#
# Elastic Constant Matrix: (Units=GPa)
#
#
# Indices 1 2 3 4 5 6 
#
# 1 66.6139 26.9446 37.1872 -6.3710 7.7825 15.8651
# 2 26.9446 75.1724 17.3032 -10.2827 -0.6485 25.8667
# 3 37.1872 17.3032 87.0953 -17.0322 22.6236 7.5812
# 4 -6.3710 -10.2827 -17.0322 19.6564 -3.3826 -1.0102
# 5 7.7825 -0.6485 22.6236 -3.3826 28.1448 -2.1631
# 6 15.8651 25.8667 7.5812 -1.0102 -2.1631 30.3620
#
#
#
# Elastic Compliance Matrix: (Units=1/GPa)
#
#
# Indices 1 2 3 4 5 6 
#
# 1 0.023004 -0.004514 -0.008963 -0.002997 -0.000084 -0.006042
# 2 -0.004514 0.021535 0.000603 0.009727 0.001220 -0.015728
# 3 -0.008963 0.000603 0.021434 0.013621 -0.013229 -0.001671
# 4 -0.002997 0.009727 0.013621 0.065930 -0.002595 -0.008113
# 5 -0.000084 0.001220 -0.013229 -0.002595 0.046328 0.005522
# 6 -0.006042 -0.015728 -0.001671 -0.008113 0.005522 0.050033
#
#
# Mechanical properties :
#
#
# Convention : Reuss Voigt Hill
#
# Bulk Modulus (GPa) = 24.86014 43.52794 34.19404
# Shear Modulus (GPa) = 18.69719 25.46241 22.07980
#
# Velocity S-wave (km/s) = 3.21626 3.75329 3.49511
# Velocity P-wave (km/s) = 5.24847 6.54714 5.93344
#
# Compressibility (1/GPa) = 0.04022503
#
# Stress axis : x y z
#
# Youngs Moduli (GPa) = 43.47110 46.43670 46.65421
#
# Poissons Ratio (x) = 0.20960 0.41818
# Poissons Ratio (y) = 0.19622 -0.02815
# Poissons Ratio (z) = 0.38965 -0.02801
#
# Static dielectric constant tensor:
#      x y z
#    x 3.343110 0.187960 0.199100 
#    y 0.187960 2.896710 -0.107460 
#    z 0.199100 -0.107460 3.336030 
# 
# 
# High freq. dielectric constant tensor:
#      x y z
#    x 1.698390 0.023690 0.017180 
#    y 0.023690 1.668210 -0.022330 
#    z 0.017180 -0.022330 1.706370 
# 
# From -- ./inp_files/520567.got.cif
#   From: 2010.06.25/outbox.cif.g09.slc.cpg/sg2_261_cif.got.tgz:520567.got - 2010.06.27 13:26:56.
