data_PCOD8038316
_publ_section_title
;
Structure prediction by ZEFSAII (Michael W. Deem and Ramdas Pophale) SiO2 
 PCOD8038316
Probable space group: P -1
;
_chemical_formula_sum "Si O2"
_cell_formula_units_Z 16
_cell_length_a 25.832849
_cell_length_b 9.211116
_cell_length_c 14.929220
_cell_angle_alpha 48.993917
_cell_angle_beta 20.290540
_cell_angle_gamma 55.442625
_cell_volume 913.744360
_symmetry_space_group_name_H-M "P -1"
_symmetry_group_IT_number 2
_symmetry_cell_setting 'triclinic'
loop_
_space_group_symop_operation_xyz
x,y,z
-x,-y,-z
loop_
_atom_site_type_symbol
_atom_site_label
_atom_site_fract_x
_atom_site_fract_y
_atom_site_fract_z
Si Si1 0.361247 0.470671 0.671148
Si Si2 0.888910 0.699548 0.526550
Si Si3 0.184064 0.557819 0.080712
Si Si4 0.271091 0.973041 0.339039
Si Si5 0.422723 0.858297 0.300946
Si Si6 0.483945 0.770965 0.601104
Si Si7 0.582342 0.250056 0.933827
Si Si8 0.401287 0.523265 0.009642
O O1 0.500000 0.500000 0.500000
O O2 0.374146 0.661619 0.512766
O O3 0.371969 0.281354 0.668127
O O4 0.212167 0.452339 0.983365
O O5 0.871278 0.611677 0.689948
O O6 0.877715 0.928429 0.462512
O O7 0.759403 0.601410 0.707978
O O8 0.052175 0.683576 0.227720
O O9 0.331643 0.703375 0.818247
O O10 0.282794 0.876095 0.455911
O O11 0.268933 0.808086 0.332446
O O12 0.423232 0.145010 0.006735
O O13 0.456009 0.050683 0.233214
O O14 0.500000 0.000000 0.500000
O O15 0.480099 0.655094 0.747326
O O16 0.635570 0.336131 0.908202
O O17 0.516795 0.395133 0.914291
#
# Coordination Sequence:
#
# PCOD8038316 Si02
#       8
#     2   2   2   2   2   2   2   2
#     4  10  19  32  51  71  98 132 163 204 249 292
#     4  10  17  35  51  71 101 130 170 203 240 300
#     4   9  21  33  52  72  96 137 168 197 245 301
#     4   9  15  28  51  71  98 129 163 207 238 283
#     4   9  16  28  51  77  99 125 173 204 242 291
#     4  10  21  33  51  76 102 126 161 209 252 290
#     4   9  18  27  50  81  98 125 165 207 251 282
#     4  10  18  31  49  78 104 129 157 211 256 278
#
# _framework density 17.510366000000001
#
# number of rings (size 3 to 8) (size 9 to 14) (size 15 to 20)
#    0.750    1.750    1.250    3.000    3.500    0.000 
#    0.000    1.875    0.000    4.500    0.000    4.375 
#    0.000    0.000    0.000    0.000    0.000    0.000 
#
# Total GULP energy -198235.095316 kJ/mol
# GULP energy per Si atom -12389.693457 kJ/mol
# Density = 1.747051 g / cm^3
# Si number density = 17.510366 Si / 1000 Ang^3
#
#
#
# Elastic Constant Matrix: (Units=GPa)
#
#
# Indices 1 2 3 4 5 6 
#
# 1 85.6296 48.8675 34.1510 20.6018 16.4408 4.1127
# 2 48.8675 132.9675 44.9229 32.0602 11.9561 7.6408
# 3 34.1510 44.9229 68.5262 27.1958 12.3711 -1.1135
# 4 20.6018 32.0602 27.1958 34.1199 0.4456 1.1432
# 5 16.4408 11.9561 12.3711 0.4456 18.3628 5.2922
# 6 4.1127 7.6408 -1.1135 1.1432 5.2922 30.4685
#
#
#
# Elastic Compliance Matrix: (Units=1/GPa)
#
#
# Indices 1 2 3 4 5 6 
#
# 1 0.018389 -0.003474 -0.002212 -0.005935 -0.012785 0.000752
# 2 -0.003474 0.011627 -0.003177 -0.006206 -0.001577 -0.002056
# 3 -0.002212 -0.003177 0.027797 -0.017814 -0.015840 0.005531
# 4 -0.005935 -0.006206 -0.017814 0.052778 0.021216 -0.003959
# 5 -0.012785 -0.001577 -0.015840 0.021216 0.080924 -0.013310
# 6 0.000752 -0.002056 0.005531 -0.003959 -0.013310 0.035897
#
#
# Mechanical properties :
#
#
# Convention : Reuss Voigt Hill
#
# Bulk Modulus (GPa) = 24.94439 60.33400 42.63919
# Shear Modulus (GPa) = 19.34239 27.20237 23.27238
#
# Velocity S-wave (km/s) = 3.32720 3.94572 3.64959
# Velocity P-wave (km/s) = 5.38857 7.43568 6.49330
#
# Compressibility (1/GPa) = 0.04008918
#
# Stress axis : x y z
#
# Youngs Moduli (GPa) = 54.37980 86.00835 35.97508
#
# Poissons Ratio (x) = 0.29877 0.07956
# Poissons Ratio (y) = 0.18890 0.11428
# Poissons Ratio (z) = 0.12026 0.27322
#
# Static dielectric constant tensor:
#      x y z
#    x 3.251100 0.065360 0.232220 
#    y 0.065360 3.444270 0.365510 
#    z 0.232220 0.365510 3.046430 
# 
# 
# High freq. dielectric constant tensor:
#      x y z
#    x 1.677160 -0.007690 0.023880 
#    y -0.007690 1.688830 0.024740 
#    z 0.023880 0.024740 1.626080 
# 
# From -- ./inp_files/543716.got.cif
#   From: 2010.06.25/outbox.cif.g09.slc.cpg/sg2_272_cif.got.tgz:543716.got - 2010.06.27 13:26:56.
