data_PCOD8038741
_publ_section_title
;
Structure prediction by ZEFSAII (Michael W. Deem and Ramdas Pophale) SiO2 
 PCOD8038741
Probable space group: P -1
;
_chemical_formula_sum "Si O2"
_cell_formula_units_Z 16
_cell_length_a 14.173080
_cell_length_b 23.598795
_cell_length_c 11.091203
_cell_angle_alpha 49.401635
_cell_angle_beta 148.963335
_cell_angle_gamma 151.392989
_cell_volume 834.808109
_symmetry_space_group_name_H-M "P -1"
_symmetry_group_IT_number 2
_symmetry_cell_setting 'triclinic'
loop_
_space_group_symop_operation_xyz
x,y,z
-x,-y,-z
loop_
_atom_site_type_symbol
_atom_site_label
_atom_site_fract_x
_atom_site_fract_y
_atom_site_fract_z
Si Si1 0.194854 0.358406 0.809914
Si Si2 0.791847 0.103328 0.327064
Si Si3 0.239911 0.240789 0.842017
Si Si4 0.742385 0.013328 0.770610
Si Si5 0.897381 0.867519 0.598313
Si Si6 0.335677 0.745128 0.768508
Si Si7 0.125711 0.849916 0.062865
Si Si8 0.512962 0.848948 0.084628
O O1 0.308460 0.328086 0.892610
O O2 0.011944 0.356832 0.527195
O O3 0.979433 0.257512 0.826342
O O4 0.500000 0.500000 0.000000
O O5 0.934651 0.096123 0.394863
O O6 0.063211 0.213858 0.568537
O O7 0.484485 0.960816 0.249323
O O8 0.694024 0.150259 0.093757
O O9 0.010575 0.101038 0.840696
O O10 0.568260 0.309050 0.072087
O O11 0.889798 0.080514 0.969165
O O12 0.500000 0.000000 0.500000
O O13 0.568614 0.876812 0.767042
O O14 0.550154 0.789657 0.298331
O O15 0.121709 0.000211 0.734553
O O16 0.873692 0.784302 0.769212
O O17 0.356195 0.770512 0.896912
#
# Coordination Sequence:
#
# PCOD8038741 Si02
#       8
#     2   2   2   2   2   2   2   2
#     4  11  24  42  58  73 106 150 193 242 272 305
#     4  11  17  33  54  84 118 141 170 211 277 345
#     4  11  21  32  56  85 106 143 183 226 280 333
#     4  11  16  32  52  80 119 142 170 213 285 344
#     4  10  20  30  50  86 121 142 169 206 268 345
#     4  12  19  34  57  82 111 143 178 228 274 336
#     4  10  18  33  55  78 116 145 175 218 270 332
#     4  10  18  30  49  81 118 147 167 201 269 341
#
# _framework density 19.166080999999998
#
# number of rings (size 3 to 8) (size 9 to 14) (size 15 to 20)
#    0.000    1.250    8.750    1.875    0.000    0.500 
#    0.000    2.500    0.000    1.500    0.000    0.000 
#    0.000    0.000    0.000    0.000    0.000    0.000 
#
# Total GULP energy -198211.935248 kJ/mol
# GULP energy per Si atom -12388.245953 kJ/mol
# Density = 1.912246 g / cm^3
# Si number density = 19.166081 Si / 1000 Ang^3
#
#
#
# Elastic Constant Matrix: (Units=GPa)
#
#
# Indices 1 2 3 4 5 6 
#
# 1 58.7234 18.9817 25.0510 0.7504 -5.2038 -6.9323
# 2 18.9817 41.5530 39.5388 2.8937 -4.3127 -10.2560
# 3 25.0510 39.5388 135.1388 -9.2882 -13.0150 -10.5940
# 4 0.7504 2.8937 -9.2882 25.8316 -5.9342 -4.1774
# 5 -5.2038 -4.3127 -13.0150 -5.9342 36.2719 -6.3422
# 6 -6.9323 -10.2560 -10.5940 -4.1774 -6.3422 16.5859
#
#
#
# Elastic Compliance Matrix: (Units=1/GPa)
#
#
# Indices 1 2 3 4 5 6 
#
# 1 0.020545 -0.006974 -0.001009 0.001292 0.002850 0.005045
# 2 -0.006974 0.040799 -0.009457 -0.004589 0.002518 0.016081
# 3 -0.001009 -0.009457 0.011720 0.007249 0.004988 0.004950
# 4 0.001292 -0.004589 0.007249 0.048078 0.013537 0.019618
# 5 0.002850 0.002518 0.004988 0.013537 0.036346 0.023242
# 6 0.005045 0.016081 0.004950 0.019618 0.023242 0.089335
#
#
# Mechanical properties :
#
#
# Convention : Reuss Voigt Hill
#
# Bulk Modulus (GPa) = 26.18772 44.72867 35.45820
# Shear Modulus (GPa) = 16.98188 25.86080 21.42134
#
# Velocity S-wave (km/s) = 2.97987 3.67727 3.34678
# Velocity P-wave (km/s) = 5.05299 6.43567 5.78578
#
# Compressibility (1/GPa) = 0.03818584
#
# Stress axis : x y z
#
# Youngs Moduli (GPa) = 48.67271 24.51015 85.32164
#
# Poissons Ratio (x) = 0.17093 0.08613
# Poissons Ratio (y) = 0.33943 0.80685
# Poissons Ratio (z) = 0.04913 0.23178
#
# Static dielectric constant tensor:
#      x y z
#    x 3.561270 -0.114880 -0.255460 
#    y -0.114880 3.118790 -0.392730 
#    z -0.255460 -0.392730 3.959840 
# 
# 
# High freq. dielectric constant tensor:
#      x y z
#    x 1.741790 -0.018310 -0.018390 
#    y -0.018310 1.676870 -0.032060 
#    z -0.018390 -0.032060 1.763210 
# 
# From -- ./inp_files/454879.got.cif
#   From: 2010.06.25/outbox.cif.g09.slc.cpg/sg2_228_cif.got.tgz:454879.got - 2010.06.27 13:26:56.
