data_PCOD8038912
_publ_section_title
;
Structure prediction by ZEFSAII (Michael W. Deem and Ramdas Pophale) SiO2 
 PCOD8038912
Probable space group: P -1
;
_chemical_formula_sum "Si O2"
_cell_formula_units_Z 16
_cell_length_a 20.099656
_cell_length_b 19.433016
_cell_length_c 11.578982
_cell_angle_alpha 140.911269
_cell_angle_beta 157.743556
_cell_angle_gamma 29.548144
_cell_volume 834.554735
_symmetry_space_group_name_H-M "P -1"
_symmetry_group_IT_number 2
_symmetry_cell_setting 'triclinic'
loop_
_space_group_symop_operation_xyz
x,y,z
-x,-y,-z
loop_
_atom_site_type_symbol
_atom_site_label
_atom_site_fract_x
_atom_site_fract_y
_atom_site_fract_z
Si Si1 0.071825 0.061658 0.876578
Si Si2 0.259202 0.938878 0.253743
Si Si3 0.970335 0.858768 0.417011
Si Si4 0.767569 0.505173 0.014072
Si Si5 0.021785 0.825555 0.717469
Si Si6 0.430525 0.005112 0.209800
Si Si7 0.741390 0.337409 0.572772
Si Si8 0.893428 0.696367 0.509623
O O1 0.840273 0.210412 0.657634
O O2 0.081581 0.933890 0.680793
O O3 0.084835 0.056073 0.028865
O O4 0.291061 0.037138 0.144077
O O5 0.508563 0.888773 0.560016
O O6 0.253789 0.808246 0.073137
O O7 0.176544 0.017125 0.346623
O O8 0.964692 0.816496 0.482807
O O9 0.117755 0.718366 0.392441
O O10 0.714129 0.966905 0.099443
O O11 0.834469 0.604684 0.236291
O O12 0.951516 0.374909 0.221470
O O13 0.765118 0.448432 0.810958
O O14 0.517396 0.591638 0.780027
O O15 0.037001 0.708805 0.662473
O O16 0.662775 0.845705 0.372327
#
# Coordination Sequence:
#
# PCOD8038912 Si02
#       8
#     2   2   2   2   2   2   2   2
#     4  10  18  32  55  81 105 129 161 213 266 301
#     4   9  18  30  50  78 106 133 163 202 258 313
#     4  10  20  33  53  79 107 133 161 205 265 313
#     4  10  21  35  55  75  98 136 179 212 243 289
#     4   9  19  35  49  71 107 140 166 200 251 312
#     4  10  18  31  54  83 105 126 163 213 262 301
#     4  10  19  35  53  77 104 131 169 213 252 295
#     4  10  20  36  54  75 102 136 173 210 248 296
#
# _framework density 19.171900000000001
#
# number of rings (size 3 to 8) (size 9 to 14) (size 15 to 20)
#    0.000    2.250    0.000    4.875    0.000    3.000 
#    0.000    7.500    0.000    0.000    0.000    0.000 
#    0.000    0.000    0.000    0.000    0.000    0.000 
#
# Total GULP energy -198344.533041 kJ/mol
# GULP energy per Si atom -12396.533315 kJ/mol
# Density = 1.912826 g / cm^3
# Si number density = 19.171900 Si / 1000 Ang^3
#
#
#
# Elastic Constant Matrix: (Units=GPa)
#
#
# Indices 1 2 3 4 5 6 
#
# 1 106.7004 36.5745 47.5245 8.8414 1.5306 -0.6726
# 2 36.5745 72.7219 43.6287 1.2403 7.9961 -0.1011
# 3 47.5245 43.6287 124.0407 4.9602 15.6554 3.8070
# 4 8.8414 1.2403 4.9602 30.1484 1.0034 8.3334
# 5 1.5306 7.9961 15.6554 1.0034 30.0836 12.2962
# 6 -0.6726 -0.1011 3.8070 8.3334 12.2962 24.8878
#
#
#
# Elastic Compliance Matrix: (Units=1/GPa)
#
#
# Indices 1 2 3 4 5 6 
#
# 1 0.012693 -0.004489 -0.003442 -0.003299 0.002066 0.000935
# 2 -0.004489 0.019182 -0.004711 0.000857 -0.003266 0.002004
# 3 -0.003442 -0.004711 0.011668 -0.000775 -0.004949 0.000808
# 4 -0.003299 0.000857 -0.000775 0.038323 0.005384 -0.015459
# 5 0.002066 -0.003266 -0.004949 0.005384 0.046124 -0.023791
# 6 0.000935 0.002004 0.000808 -0.015459 -0.023791 0.057021
#
#
# Mechanical properties :
#
#
# Convention : Reuss Voigt Hill
#
# Bulk Modulus (GPa) = 54.76131 62.10204 58.43167
# Shear Modulus (GPa) = 23.10741 28.73965 25.92353
#
# Velocity S-wave (km/s) = 3.47547 3.87596 3.68117
# Velocity P-wave (km/s) = 6.68809 7.24522 6.97222
#
# Compressibility (1/GPa) = 0.01826107
#
# Stress axis : x y z
#
# Youngs Moduli (GPa) = 78.78171 52.13260 85.70167
#
# Poissons Ratio (x) = 0.23400 0.29499
# Poissons Ratio (y) = 0.35361 0.40371
# Poissons Ratio (z) = 0.27117 0.24558
#
# Static dielectric constant tensor:
#      x y z
#    x 3.451520 0.083780 0.060810 
#    y 0.083780 3.363890 0.296900 
#    z 0.060810 0.296900 3.862450 
# 
# 
# High freq. dielectric constant tensor:
#      x y z
#    x 1.739930 -0.003020 -0.002080 
#    y -0.003020 1.717320 0.022510 
#    z -0.002080 0.022510 1.760970 
# 
# From -- ./inp_files/270300.got.cif
#   From: 2010.06.25/outbox.cif.g09.slc.cpg/sg2_136_cif.got.tgz:270300.got - 2010.06.27 13:26:56.
