data_PCOD8038524
_publ_section_title
;
Structure prediction by ZEFSAII (Michael W. Deem and Ramdas Pophale) SiO2 
 PCOD8038524
Probable space group: P -1
;
_chemical_formula_sum "Si O2"
_cell_formula_units_Z 14
_cell_length_a 9.685128
_cell_length_b 7.311540
_cell_length_c 12.373960
_cell_angle_alpha 128.866879
_cell_angle_beta 119.602387
_cell_angle_gamma 67.816264
_cell_volume 590.230139
_symmetry_space_group_name_H-M "P -1"
_symmetry_group_IT_number 2
_symmetry_cell_setting 'triclinic'
loop_
_space_group_symop_operation_xyz
x,y,z
-x,-y,-z
loop_
_atom_site_type_symbol
_atom_site_label
_atom_site_fract_x
_atom_site_fract_y
_atom_site_fract_z
Si Si1 0.368309 0.854256 0.949095
Si Si2 0.317582 0.336170 0.949665
Si Si3 0.319994 0.590696 0.435585
Si Si4 0.146364 0.866504 0.298606
Si Si5 0.181875 0.881952 0.683730
Si Si6 0.169474 0.850590 0.065366
Si Si7 0.852138 0.651838 0.888168
O O1 0.247527 0.769132 0.781227
O O2 0.490206 0.641687 0.967121
O O3 0.262684 0.984698 0.056540
O O4 0.500000 0.000000 0.000000
O O5 0.267727 0.118416 0.775556
O O6 0.234648 0.580337 0.966462
O O7 0.259055 0.260852 0.020491
O O8 0.500000 0.500000 0.500000
O O9 0.294292 0.809087 0.418336
O O10 0.221409 0.678974 0.535792
O O11 0.245408 0.369958 0.270153
O O12 0.212469 0.943603 0.235911
O O13 0.066911 0.617248 0.151348
O O14 0.010351 0.058204 0.363446
O O15 0.978001 0.841475 0.977573
#
# Coordination Sequence:
#
# PCOD8038524 Si02
#       7
#     2   2   2   2   2   2   2
#     4  10  24  34  55  93 130 157 201 267 313 355
#     4  10  17  37  58  90 118 159 202 255 303 365
#     4  10  21  35  59  92 131 169 195 244 321 370
#     4   9  19  34  62  88 121 162 207 243 308 362
#     4  11  19  36  57  91 128 155 206 250 305 369
#     4  11  18  37  62  91 121 163 211 253 304 372
#     4   9  18  34  63  88 118 160 207 240 307 364
#
# _framework density 23.719560999999999
#
# number of rings (size 3 to 8) (size 9 to 14) (size 15 to 20)
#    0.857    1.143    2.857    2.571    0.000    0.571 
#    0.000    0.714    0.000    3.429    0.000    0.000 
#    0.000    0.000    0.000    0.000    0.000    0.000 
#
# Total GULP energy -173449.671900 kJ/mol
# GULP energy per Si atom -12389.262279 kJ/mol
# Density = 2.366557 g / cm^3
# Si number density = 23.719561 Si / 1000 Ang^3
#
#
#
# Elastic Constant Matrix: (Units=GPa)
#
#
# Indices 1 2 3 4 5 6 
#
# 1 149.4897 58.6813 45.4634 -23.9333 -30.5684 -30.6656
# 2 58.6813 75.9607 20.3186 -12.8259 -5.1389 -12.9303
# 3 45.4634 20.3186 125.7676 -21.6251 -28.2600 -11.7420
# 4 -23.9333 -12.8259 -21.6251 38.1694 -7.4734 -3.1280
# 5 -30.5684 -5.1389 -28.2600 -7.4734 36.5389 -8.7761
# 6 -30.6656 -12.9303 -11.7420 -3.1280 -8.7761 43.4283
#
#
#
# Elastic Compliance Matrix: (Units=1/GPa)
#
#
# Indices 1 2 3 4 5 6 
#
# 1 0.026704 -0.010688 0.008473 0.028057 0.039864 0.028042
# 2 -0.010688 0.020013 -0.002775 -0.003931 -0.010203 -0.004684
# 3 0.008473 -0.002775 0.016742 0.020711 0.027923 0.016818
# 4 0.028057 -0.003931 0.020711 0.070064 0.063379 0.042095
# 5 0.039864 -0.010203 0.027923 0.063379 0.108027 0.059057
# 6 0.028042 -0.004684 0.016818 0.042095 0.059057 0.060946
#
#
# Mechanical properties :
#
#
# Convention : Reuss Voigt Hill
#
# Bulk Modulus (GPa) = 18.69906 66.68273 42.69089
# Shear Modulus (GPa) = 15.13763 38.74429 26.94096
#
# Velocity S-wave (km/s) = 2.52899 4.04596 3.37384
# Velocity P-wave (km/s) = 4.05317 7.07109 5.76318
#
# Compressibility (1/GPa) = 0.05347863
#
# Stress axis : x y z
#
# Youngs Moduli (GPa) = 37.44766 49.96816 59.72927
#
# Poissons Ratio (x) = 0.53408 -0.50611
# Poissons Ratio (y) = 0.40025 0.16576
# Poissons Ratio (z) = -0.31731 0.13867
#
# Static dielectric constant tensor:
#      x y z
#    x 4.569140 -0.683030 -0.178190 
#    y -0.683030 5.078750 -0.359050 
#    z -0.178190 -0.359050 4.035040 
# 
# 
# High freq. dielectric constant tensor:
#      x y z
#    x 1.941370 -0.041650 -0.026190 
#    y -0.041650 1.973020 -0.019580 
#    z -0.026190 -0.019580 1.912220 
# 
# From -- ./inp_files/380383.got.cif
#   From: 2010.06.25/outbox.cif.g09.slc.cpg/sg2_191_cif.got.tgz:380383.got - 2010.06.27 13:26:56.
