data_PCOD8038729
_publ_section_title
;
Structure prediction by ZEFSAII (Michael W. Deem and Ramdas Pophale) SiO2 
 PCOD8038729
Probable space group: P -1
;
_chemical_formula_sum "Si O2"
_cell_formula_units_Z 16
_cell_length_a 9.611242
_cell_length_b 8.522277
_cell_length_c 13.066126
_cell_angle_alpha 64.896165
_cell_angle_beta 111.763952
_cell_angle_gamma 95.058083
_cell_volume 897.018739
_symmetry_space_group_name_H-M "P -1"
_symmetry_group_IT_number 2
_symmetry_cell_setting 'triclinic'
loop_
_space_group_symop_operation_xyz
x,y,z
-x,-y,-z
loop_
_atom_site_type_symbol
_atom_site_label
_atom_site_fract_x
_atom_site_fract_y
_atom_site_fract_z
Si Si1 0.933372 0.588411 0.768184
Si Si2 0.674031 0.689744 0.806675
Si Si3 0.768771 0.985081 0.884404
Si Si4 0.020277 0.217756 0.849650
Si Si5 0.933228 0.509249 0.367420
Si Si6 0.239603 0.619227 0.933104
Si Si7 0.427049 0.830398 0.062828
Si Si8 0.619712 0.474443 0.219604
O O1 0.772356 0.679362 0.731967
O O2 0.944069 0.379749 0.851040
O O3 0.961881 0.615588 0.646315
O O4 0.065411 0.670733 0.845487
O O5 0.681231 0.877986 0.807323
O O6 0.501636 0.658660 0.742097
O O7 0.747040 0.542276 0.941889
O O8 0.902994 0.073903 0.839580
O O9 0.652904 0.133304 0.859731
O O10 0.833259 0.861603 0.028322
O O11 0.072708 0.292844 0.733801
O O12 0.764432 0.447569 0.340341
O O13 0.000000 0.500000 0.500000
O O14 0.334158 0.562056 0.874436
O O15 0.305252 0.785809 0.956377
O O16 0.551190 0.671806 0.155384
O O17 0.500000 0.000000 0.000000
#
# Coordination Sequence:
#
# PCOD8038729 Si02
#       8
#     2   2   2   2   2   2   2   2
#     4   9  19  32  51  78  99 137 185 205 255 307
#     4  11  18  30  51  75 112 137 168 212 260 316
#     4  11  20  29  49  84 119 137 158 206 267 325
#     4   9  19  32  50  79 109 132 180 203 262 301
#     4   9  19  39  60  73  94 133 189 233 252 295
#     4  10  18  30  48  71 111 144 171 203 248 321
#     4  11  20  28  46  77 117 144 166 200 262 319
#     4  10  20  34  51  77 102 140 180 211 260 314
#
# _framework density 17.836863999999998
#
# number of rings (size 3 to 8) (size 9 to 14) (size 15 to 20)
#    0.750    1.250    1.250    5.625    3.500    0.000 
#    0.000    0.625    0.000    1.500    0.000    0.000 
#    0.000    0.000    0.000    0.000    0.000    0.000 
#
# Total GULP energy -198324.088682 kJ/mol
# GULP energy per Si atom -12395.255543 kJ/mol
# Density = 1.779627 g / cm^3
# Si number density = 17.836864 Si / 1000 Ang^3
#
#
#
# Elastic Constant Matrix: (Units=GPa)
#
#
# Indices 1 2 3 4 5 6 
#
# 1 124.7458 48.4140 45.4577 20.1020 13.6662 0.0809
# 2 48.4140 114.1936 32.1206 19.7117 7.5615 8.0416
# 3 45.4577 32.1206 71.9778 26.4481 1.0715 6.6129
# 4 20.1020 19.7117 26.4481 23.6178 3.1746 3.9084
# 5 13.6662 7.5615 1.0715 3.1746 14.5257 3.4133
# 6 0.0809 8.0416 6.6129 3.9084 3.4133 36.0880
#
#
#
# Elastic Compliance Matrix: (Units=1/GPa)
#
#
# Indices 1 2 3 4 5 6 
#
# 1 0.012872 -0.003043 -0.007037 0.000432 -0.010786 0.002912
# 2 -0.003043 0.011481 -0.001075 -0.005317 -0.001487 -0.001638
# 3 -0.007037 -0.001075 0.028521 -0.026067 0.011534 -0.003239
# 4 0.000432 -0.005317 -0.026067 0.077470 -0.012351 -0.001262
# 5 -0.010786 -0.001487 0.011534 -0.012351 0.083570 -0.008325
# 6 0.002912 -0.001638 -0.003239 -0.001262 -0.008325 0.029586
#
#
# Mechanical properties :
#
#
# Convention : Reuss Voigt Hill
#
# Bulk Modulus (GPa) = 32.71881 62.54465 47.63173
# Shear Modulus (GPa) = 18.11600 27.17462 22.64531
#
# Velocity S-wave (km/s) = 3.19038 3.90745 3.56698
# Velocity P-wave (km/s) = 5.65284 7.44973 6.61260
#
# Compressibility (1/GPa) = 0.03056346
#
# Stress axis : x y z
#
# Youngs Moduli (GPa) = 77.68983 87.09720 35.06158
#
# Poissons Ratio (x) = 0.26506 0.24673
# Poissons Ratio (y) = 0.23644 0.03770
# Poissons Ratio (z) = 0.54670 0.09365
#
# Static dielectric constant tensor:
#      x y z
#    x 3.519510 0.082120 0.136850 
#    y 0.082120 3.381740 0.170840 
#    z 0.136850 0.170840 2.707600 
# 
# 
# High freq. dielectric constant tensor:
#      x y z
#    x 1.707680 0.005960 0.010700 
#    y 0.005960 1.694030 0.018850 
#    z 0.010700 0.018850 1.620790 
# 
# From -- ./inp_files/492588.got.cif
#   From: 2010.06.25/outbox.cif.g09.slc.cpg/sg2_247_cif.got.tgz:492588.got - 2010.06.27 13:26:56.
