data_PCOD8038646
_publ_section_title
;
Structure prediction by ZEFSAII (Michael W. Deem and Ramdas Pophale) SiO2 
 PCOD8038646
Probable space group: P -1
;
_chemical_formula_sum "Si O2"
_cell_formula_units_Z 14
_cell_length_a 15.883999
_cell_length_b 12.260664
_cell_length_c 11.664870
_cell_angle_alpha 61.278345
_cell_angle_beta 26.039046
_cell_angle_gamma 71.278099
_cell_volume 837.543021
_symmetry_space_group_name_H-M "P -1"
_symmetry_group_IT_number 2
_symmetry_cell_setting 'triclinic'
loop_
_space_group_symop_operation_xyz
x,y,z
-x,-y,-z
loop_
_atom_site_type_symbol
_atom_site_label
_atom_site_fract_x
_atom_site_fract_y
_atom_site_fract_z
Si Si1 0.634088 0.447477 0.775531
Si Si2 0.248696 0.254334 0.320826
Si Si3 0.731714 0.169031 0.163770
Si Si4 0.713874 0.899481 0.217291
Si Si5 0.958354 0.047049 0.650348
Si Si6 0.154817 0.277857 0.678304
Si Si7 0.859086 0.285936 0.716935
O O1 0.754624 0.566792 0.488750
O O2 0.797527 0.393561 0.666200
O O3 0.500000 0.500000 0.000000
O O4 0.473243 0.330200 0.964201
O O5 0.243726 0.232974 0.475462
O O6 0.169779 0.115380 0.423120
O O7 0.094280 0.339926 0.439017
O O8 0.523382 0.151236 0.493033
O O9 0.767420 0.031395 0.158605
O O10 0.725562 0.248794 0.013954
O O11 0.913900 0.244285 0.984343
O O12 0.784400 0.791807 0.252741
O O13 0.830319 0.923502 0.941822
O O14 0.833808 0.153721 0.739915
O O15 0.000000 0.000000 0.500000
#
# Coordination Sequence:
#
# PCOD8038646 Si02
#       7
#     2   2   2   2   2   2   2
#     4  10  18  28  49  76 107 130 156 192 252 309
#     4   8  18  31  48  76 100 130 162 201 242 287
#     4   9  17  28  46  74 101 130 150 199 255 293
#     4  10  18  30  49  72 103 124 158 204 248 293
#     4   9  19  37  54  69  95 135 173 204 239 280
#     4  10  18  28  47  79 102 127 150 195 258 303
#     4   8  17  32  47  73 105 125 163 202 235 291
#
# _framework density 16.71556
#
# number of rings (size 3 to 8) (size 9 to 14) (size 15 to 20)
#    0.857    2.000    1.429    2.143    0.000    6.286 
#    0.000    0.714    0.000    1.714    0.000    0.000 
#    0.000    0.000    0.000    0.000    0.000    0.000 
#
# Total GULP energy -173457.063336 kJ/mol
# GULP energy per Si atom -12389.790238 kJ/mol
# Density = 1.667751 g / cm^3
# Si number density = 16.715560 Si / 1000 Ang^3
#
#
#
# Elastic Constant Matrix: (Units=GPa)
#
#
# Indices 1 2 3 4 5 6 
#
# 1 57.2644 29.4512 57.0721 -2.3684 1.0964 -9.3368
# 2 29.4512 55.3727 36.4026 -12.6213 16.1265 -19.2087
# 3 57.0721 36.4026 122.2747 -16.2571 -8.8605 -4.0092
# 4 -2.3684 -12.6213 -16.2571 24.1474 0.0759 5.9965
# 5 1.0964 16.1265 -8.8605 0.0759 29.6137 -4.1255
# 6 -9.3368 -19.2087 -4.0092 5.9965 -4.1255 28.1764
#
#
#
# Elastic Compliance Matrix: (Units=1/GPa)
#
#
# Indices 1 2 3 4 5 6 
#
# 1 0.041728 -0.012075 -0.017715 -0.015769 0.000680 0.006530
# 2 -0.012075 0.046647 -0.007613 0.013094 -0.024431 0.020352
# 3 -0.017715 -0.007613 0.020485 0.010258 0.009663 -0.008914
# 4 -0.015769 0.013094 0.010258 0.055448 -0.004639 -0.007319
# 5 0.000680 -0.024431 0.009663 -0.004639 0.048990 -0.006895
# 6 0.006530 0.020352 -0.008914 -0.007319 -0.006895 0.050809
#
#
# Mechanical properties :
#
#
# Convention : Reuss Voigt Hill
#
# Bulk Modulus (GPa) = 29.36561 53.41816 41.39189
# Shear Modulus (GPa) = 14.27489 23.85322 19.06406
#
# Velocity S-wave (km/s) = 2.92548 3.78167 3.38079
# Velocity P-wave (km/s) = 5.38676 7.14805 6.32897
#
# Compressibility (1/GPa) = 0.03405344
#
# Stress axis : x y z
#
# Youngs Moduli (GPa) = 23.96469 21.43757 48.81572
#
# Poissons Ratio (x) = 0.25886 0.86477
# Poissons Ratio (y) = 0.28937 0.37166
# Poissons Ratio (z) = 0.42453 0.16321
#
# Static dielectric constant tensor:
#      x y z
#    x 2.954050 -0.066590 -0.405820 
#    y -0.066590 2.850470 -0.313120 
#    z -0.405820 -0.313120 3.416430 
# 
# 
# High freq. dielectric constant tensor:
#      x y z
#    x 1.619020 -0.022800 -0.029580 
#    y -0.022800 1.611200 -0.026500 
#    z -0.029580 -0.026500 1.641550 
# 
# From -- ./inp_files/271726.got.cif
#   From: 2010.06.25/outbox.cif.g09.slc.cpg/sg2_136_cif.got.tgz:271726.got - 2010.06.27 13:26:56.
