data_PCOD8038242
_publ_section_title
;
Structure prediction by ZEFSAII (Michael W. Deem and Ramdas Pophale) SiO2 
 PCOD8038242
Probable space group: P -1
;
_chemical_formula_sum "Si O2"
_cell_formula_units_Z 16
_cell_length_a 9.000000
_cell_length_b 15.000000
_cell_length_c 12.000000
_cell_angle_alpha 130.000000
_cell_angle_beta 70.000000
_cell_angle_gamma 70.000000
_cell_volume 728.972637
_symmetry_space_group_name_H-M "P -1"
_symmetry_group_IT_number 2
_symmetry_cell_setting 'triclinic'
loop_
_space_group_symop_operation_xyz
x,y,z
-x,-y,-z
loop_
_atom_site_type_symbol
_atom_site_label
_atom_site_fract_x
_atom_site_fract_y
_atom_site_fract_z
Si Si1 0.352860 0.006963 0.190273
Si Si2 0.096250 0.816918 0.933845
Si Si3 0.705396 0.627612 0.178293
Si Si4 0.709208 0.150690 0.736650
Si Si5 0.519146 0.148797 0.358789
Si Si6 0.637234 0.420428 0.116571
Si Si7 0.562275 0.714561 0.738579
Si Si8 0.858285 0.332653 0.436137
O O1 0.497210 0.025457 0.234754
O O2 0.110500 0.190812 0.330708
O O3 0.273330 0.960683 0.266632
O O4 0.548394 0.841109 0.916168
O O5 0.165446 0.696580 0.925011
O O6 0.280347 0.821764 0.901011
O O7 0.124834 0.738262 0.744777
O O8 0.809529 0.023869 0.185919
O O9 0.509370 0.758208 0.227328
O O10 0.593619 0.759637 0.418683
O O11 0.718659 0.481925 0.070708
O O12 0.000000 0.500000 0.000000
O O13 0.627636 0.314051 0.953580
O O14 0.000000 0.000000 0.500000
O O15 0.369682 0.302339 0.421896
O O16 0.359448 0.605050 0.386152
O O17 0.774835 0.513209 0.578788
#
# Coordination Sequence:
#
# PCOD8038242 Si02
#       8
#     2   2   2   2   2   2   2   2
#     4  12  27  45  71 109 148 189 239 301 377 433
#     4  11  22  42  75 107 143 186 238 299 362 448
#     4  12  30  47  73 108 147 196 253 310 370 434
#     4  12  27  50  78 100 148 203 258 304 360 440
#     4  12  27  45  71 104 153 188 238 302 376 431
#     4  11  24  47  75 106 141 191 250 302 366 436
#     4  11  23  46  72 110 142 191 240 296 370 443
#     4  11  23  42  77 107 146 186 244 297 365 447
#
# _framework density 21.948698
#
# number of rings (size 3 to 8) (size 9 to 14) (size 15 to 20)
#    0.000    0.500    3.750    5.625    7.000    1.000 
#    0.000    0.000    0.000    0.000    0.000    0.000 
#    0.000    0.000    0.000    0.000    0.000    0.000 
#
# Total GULP energy -198325.226784 kJ/mol
# GULP energy per Si atom -12395.326674 kJ/mol
# Density = 2.189874 g / cm^3
# Si number density = 21.948698 Si / 1000 Ang^3
#
#
#
# Elastic Constant Matrix: (Units=GPa)
#
#
# Indices 1 2 3 4 5 6 
#
# 1 115.9250 50.7009 43.8751 4.1560 19.7547 -23.5807
# 2 50.7009 141.8510 44.7398 2.3338 3.1262 -23.7955
# 3 43.8751 44.7398 134.1377 -8.4020 9.7797 -20.1488
# 4 4.1560 2.3338 -8.4020 36.8258 -7.3069 4.9360
# 5 19.7547 3.1262 9.7797 -7.3069 37.3721 -0.4398
# 6 -23.5807 -23.7955 -20.1488 4.9360 -0.4398 47.9862
#
#
#
# Elastic Compliance Matrix: (Units=1/GPa)
#
#
# Indices 1 2 3 4 5 6 
#
# 1 0.012938 -0.002967 -0.002356 -0.003694 -0.006647 0.004217
# 2 -0.002967 0.009070 -0.001833 -0.000742 0.001172 0.002357
# 3 -0.002356 -0.001833 0.009254 0.002165 -0.000581 0.001591
# 4 -0.003694 -0.000742 0.002165 0.030136 0.007289 -0.004307
# 5 -0.006647 0.001172 -0.000581 0.007289 0.031711 -0.003388
# 6 0.004217 0.002357 0.001591 -0.004307 -0.003388 0.025160
#
#
# Mechanical properties :
#
#
# Convention : Reuss Voigt Hill
#
# Bulk Modulus (GPa) = 58.99143 74.50501 66.74822
# Shear Modulus (GPa) = 36.17155 41.27670 38.72412
#
# Velocity S-wave (km/s) = 4.06397 4.34129 4.20492
# Velocity P-wave (km/s) = 6.99689 7.69076 7.35202
#
# Compressibility (1/GPa) = 0.01695162
#
# Stress axis : x y z
#
# Youngs Moduli (GPa) = 77.28983 110.25558 108.06424
#
# Poissons Ratio (x) = 0.32711 0.25458
# Poissons Ratio (y) = 0.22931 0.19803
# Poissons Ratio (z) = 0.18208 0.20204
#
# Static dielectric constant tensor:
#      x y z
#    x 4.333040 -0.272570 -0.073630 
#    y -0.272570 4.488930 -0.036470 
#    z -0.073630 -0.036470 4.153420 
# 
# 
# High freq. dielectric constant tensor:
#      x y z
#    x 1.888600 -0.016130 0.004150 
#    y -0.016130 1.889590 -0.002130 
#    z 0.004150 -0.002130 1.873260 
# 
# From -- ./inp_files/399594.got.cif
#   From: 2010.06.25/outbox.ucp.g09.slc.cvg/sg2_200_cif.got.tgz:399594.got - 2010.06.28 11:54:26.
