data_PCOD8038544
_publ_section_title
;
Structure prediction by ZEFSAII (Michael W. Deem and Ramdas Pophale) SiO2 
 PCOD8038544
Probable space group: P -1
;
_chemical_formula_sum "Si O2"
_cell_formula_units_Z 16
_cell_length_a 9.451482
_cell_length_b 12.514118
_cell_length_c 23.806287
_cell_angle_alpha 151.314654
_cell_angle_beta 43.045122
_cell_angle_gamma 143.048218
_cell_volume 808.143632
_symmetry_space_group_name_H-M "P -1"
_symmetry_group_IT_number 2
_symmetry_cell_setting 'triclinic'
loop_
_space_group_symop_operation_xyz
x,y,z
-x,-y,-z
loop_
_atom_site_type_symbol
_atom_site_label
_atom_site_fract_x
_atom_site_fract_y
_atom_site_fract_z
Si Si1 0.601682 0.269300 0.470063
Si Si2 0.114665 0.913157 0.475847
Si Si3 0.828216 0.835066 0.635989
Si Si4 0.948149 0.000502 0.137721
Si Si5 0.284436 0.506874 0.223190
Si Si6 0.187608 0.075303 0.733055
Si Si7 0.734403 0.544764 0.920926
Si Si8 0.521366 0.984195 0.730141
O O1 0.736442 0.570091 0.572121
O O2 0.494602 0.160774 0.389695
O O3 0.375144 0.150470 0.522602
O O4 0.787995 0.179202 0.393379
O O5 0.140952 0.665155 0.338651
O O6 0.957675 0.843585 0.544707
O O7 0.000000 0.000000 0.500000
O O8 0.596072 0.862188 0.703106
O O9 0.005330 0.055345 0.728376
O O10 0.729573 0.033393 0.192315
O O11 0.180586 0.273145 0.189521
O O12 0.913512 0.907604 0.169098
O O13 0.956757 0.776971 0.995103
O O14 0.558915 0.681659 0.239523
O O15 0.264387 0.381915 0.110476
O O16 0.733962 0.275418 0.797674
O O17 0.500000 0.500000 0.000000
#
# Coordination Sequence:
#
# PCOD8038544 Si02
#       8
#     2   2   2   2   2   2   2   2
#     4  10  20  36  55  79 115 148 193 221 272 333
#     4  11  21  33  55  83 116 149 179 238 273 321
#     4  12  23  35  58  82 121 155 185 220 286 333
#     4  10  21  36  65  81 109 147 193 240 277 327
#     4  11  20  36  60  85 112 144 197 225 282 337
#     4  10  22  39  52  84 120 151 185 230 270 344
#     4  10  17  37  63  85 108 140 188 249 282 317
#     4  10  19  37  56  87 111 145 188 238 274 330
#
# _framework density 19.798461
#
# number of rings (size 3 to 8) (size 9 to 14) (size 15 to 20)
#    0.000    1.500    6.250    2.625    1.750    3.000 
#    0.000    0.625    0.000    0.750    0.000    0.000 
#    0.000    0.000    0.000    0.000    0.000    0.000 
#
# Total GULP energy -198330.321481 kJ/mol
# GULP energy per Si atom -12395.645093 kJ/mol
# Density = 1.975340 g / cm^3
# Si number density = 19.798461 Si / 1000 Ang^3
#
#
#
# Elastic Constant Matrix: (Units=GPa)
#
#
# Indices 1 2 3 4 5 6 
#
# 1 76.7261 9.8600 16.1363 -4.2689 12.4632 3.2842
# 2 9.8600 92.6065 24.5393 16.7520 11.2176 -1.8301
# 3 16.1363 24.5393 60.1308 10.1572 20.0938 6.0029
# 4 -4.2689 16.7520 10.1572 35.6756 -1.2720 2.3443
# 5 12.4632 11.2176 20.0938 -1.2720 14.3471 2.2894
# 6 3.2842 -1.8301 6.0029 2.3443 2.2894 11.9858
#
#
#
# Elastic Compliance Matrix: (Units=1/GPa)
#
#
# Indices 1 2 3 4 5 6 
#
# 1 0.015308 -0.000510 0.000354 0.001664 -0.012877 -0.002315
# 2 -0.000510 0.013831 -0.001861 -0.006774 -0.009370 0.006298
# 3 0.000354 -0.001861 0.036421 -0.010764 -0.049694 -0.007024
# 4 0.001664 -0.006774 -0.010764 0.035802 0.023305 -0.007553
# 5 -0.012877 -0.009370 -0.049694 0.023305 0.161213 -0.008365
# 6 -0.002315 0.006298 -0.007024 -0.007553 -0.008365 0.091622
#
#
# Mechanical properties :
#
#
# Convention : Reuss Voigt Hill
#
# Bulk Modulus (GPa) = 16.25386 36.72606 26.48996
# Shear Modulus (GPa) = 13.20170 24.33022 18.76596
#
# Velocity S-wave (km/s) = 2.58506 3.50936 3.08206
# Velocity P-wave (km/s) = 4.13975 5.91701 5.10630
#
# Compressibility (1/GPa) = 0.06152387
#
# Stress axis : x y z
#
# Youngs Moduli (GPa) = 65.32534 72.30370 27.45701
#
# Poissons Ratio (x) = 0.03691 -0.00971
# Poissons Ratio (y) = 0.03335 0.05109
# Poissons Ratio (z) = -0.02310 0.13454
#
# Static dielectric constant tensor:
#      x y z
#    x 3.352080 0.004530 0.046690 
#    y 0.004530 3.725130 0.148690 
#    z 0.046690 0.148690 3.820150 
# 
# 
# High freq. dielectric constant tensor:
#      x y z
#    x 1.742020 -0.002460 0.011790 
#    y -0.002460 1.778650 0.010110 
#    z 0.011790 0.010110 1.762180 
# 
# From -- ./inp_files/255327.got.cif
#   From: 2010.06.25/outbox.cif.g09.slc.cpg/sg2_128_cif.got.tgz:255327.got - 2010.06.27 13:26:56.
