data_PCOD8038411
_publ_section_title
;
Structure prediction by ZEFSAII (Michael W. Deem and Ramdas Pophale) SiO2 
 PCOD8038411
Probable space group: P -1
;
_chemical_formula_sum "Si O2"
_cell_formula_units_Z 16
_cell_length_a 15.852148
_cell_length_b 11.562276
_cell_length_c 7.708891
_cell_angle_alpha 91.124924
_cell_angle_beta 75.354078
_cell_angle_gamma 37.034605
_cell_volume 761.573860
_symmetry_space_group_name_H-M "P -1"
_symmetry_group_IT_number 2
_symmetry_cell_setting 'triclinic'
loop_
_space_group_symop_operation_xyz
x,y,z
-x,-y,-z
loop_
_atom_site_type_symbol
_atom_site_label
_atom_site_fract_x
_atom_site_fract_y
_atom_site_fract_z
Si Si1 0.325297 0.793091 0.081961
Si Si2 0.863094 0.613528 0.446300
Si Si3 0.713483 0.970472 0.314106
Si Si4 0.364130 0.335240 0.401133
Si Si5 0.657258 0.281008 0.326628
Si Si6 0.338586 0.523974 0.091076
Si Si7 0.068605 0.222263 0.111399
Si Si8 0.199676 0.641927 0.806560
O O1 0.273172 0.724789 0.178750
O O2 0.192526 0.037493 0.184822
O O3 0.372951 0.730656 0.852124
O O4 0.485186 0.659268 0.083550
O O5 0.768988 0.828388 0.436484
O O6 0.729708 0.678233 0.600241
O O7 0.000000 0.500000 0.500000
O O8 0.948508 0.449840 0.245057
O O9 0.548809 0.108821 0.321377
O O10 0.709028 0.107324 0.396342
O O11 0.843735 0.815647 0.094130
O O12 0.323906 0.464677 0.268397
O O13 0.307506 0.448652 0.616682
O O14 0.500000 0.500000 0.500000
O O15 0.788862 0.235963 0.253352
O O16 0.247293 0.568366 0.979330
O O17 0.978752 0.203476 0.103774
#
# Coordination Sequence:
#
# PCOD8038411 Si02
#       8
#     2   2   2   2   2   2   2   2
#     4   9  19  35  61  97 133 163 197 265 310 388
#     4  11  27  46  61  90 125 167 221 272 310 373
#     4  11  22  42  68  88 127 175 206 262 316 372
#     4  11  22  45  65  93 129 162 222 261 312 382
#     4  10  17  35  63  97 128 161 208 249 317 382
#     4  10  19  36  64  97 132 159 213 249 319 376
#     4  10  22  44  64  90 132 164 210 260 328 374
#     4  10  22  36  66 100 129 170 200 259 322 383
#
# _framework density 21.009124
#
# number of rings (size 3 to 8) (size 9 to 14) (size 15 to 20)
#    0.000    1.750    3.750    0.750    1.750    5.500 
#    4.500    1.875    0.000    0.000    0.000    0.000 
#    0.000    0.000    0.000    0.000    0.000    0.000 
#
# Total GULP energy -198311.809342 kJ/mol
# GULP energy per Si atom -12394.488084 kJ/mol
# Density = 2.096131 g / cm^3
# Si number density = 21.009124 Si / 1000 Ang^3
#
#
#
# Elastic Constant Matrix: (Units=GPa)
#
#
# Indices 1 2 3 4 5 6 
#
# 1 112.4683 30.4122 18.6894 -3.5344 -25.0079 0.1963
# 2 30.4122 115.5655 20.3622 -14.5093 -10.7192 23.7479
# 3 18.6894 20.3622 64.5518 -1.7434 -18.7988 7.9502
# 4 -3.5344 -14.5093 -1.7434 32.1710 3.8921 -6.5558
# 5 -25.0079 -10.7192 -18.7988 3.8921 29.3486 -0.1113
# 6 0.1963 23.7479 7.9502 -6.5558 -0.1113 35.0017
#
#
#
# Elastic Compliance Matrix: (Units=1/GPa)
#
#
# Indices 1 2 3 4 5 6 
#
# 1 0.011582 -0.002616 -0.000155 -0.000657 0.008907 0.001650
# 2 -0.002616 0.011508 -0.001863 0.003393 0.000305 -0.006734
# 3 -0.000155 -0.001863 0.020105 -0.001999 0.012317 -0.003637
# 4 -0.000657 0.003393 -0.001999 0.033966 -0.005089 0.004502
# 5 0.008907 0.000305 0.012317 -0.005089 0.050324 -0.003848
# 6 0.001650 -0.006734 -0.003637 0.004502 -0.003848 0.034786
#
#
# Mechanical properties :
#
#
# Convention : Reuss Voigt Hill
#
# Bulk Modulus (GPa) = 29.47537 47.94593 38.71065
# Shear Modulus (GPa) = 27.34524 34.17905 30.76214
#
# Velocity S-wave (km/s) = 3.61167 4.03782 3.83067
# Velocity P-wave (km/s) = 5.60825 6.67905 6.16693
#
# Compressibility (1/GPa) = 0.03392663
#
# Stress axis : x y z
#
# Youngs Moduli (GPa) = 86.34401 86.89856 49.73958
#
# Poissons Ratio (x) = 0.22732 0.00771
# Poissons Ratio (y) = 0.22587 0.09265
# Poissons Ratio (z) = 0.01338 0.16187
#
# Static dielectric constant tensor:
#      x y z
#    x 4.136710 0.091870 -0.249010 
#    y 0.091870 3.901150 -0.011940 
#    z -0.249010 -0.011940 3.627500 
# 
# 
# High freq. dielectric constant tensor:
#      x y z
#    x 1.825290 0.001560 -0.018680 
#    y 0.001560 1.824800 0.000560 
#    z -0.018680 0.000560 1.809440 
# 
# From -- ./inp_files/307490.got.cif
#   From: 2010.06.25/outbox.cif.g09.slc.cpg/sg2_154_cif.got.tgz:307490.got - 2010.06.27 13:26:56.
