data_PCOD8038854
_publ_section_title
;
Structure prediction by ZEFSAII (Michael W. Deem and Ramdas Pophale) SiO2 
 PCOD8038854
Probable space group: P -1
;
_chemical_formula_sum "Si O2"
_cell_formula_units_Z 14
_cell_length_a 15.205166
_cell_length_b 9.466098
_cell_length_c 8.251203
_cell_angle_alpha 86.618461
_cell_angle_beta 75.603034
_cell_angle_gamma 131.641384
_cell_volume 817.388570
_symmetry_space_group_name_H-M "P -1"
_symmetry_group_IT_number 2
_symmetry_cell_setting 'triclinic'
loop_
_space_group_symop_operation_xyz
x,y,z
-x,-y,-z
loop_
_atom_site_type_symbol
_atom_site_label
_atom_site_fract_x
_atom_site_fract_y
_atom_site_fract_z
Si Si1 0.869065 0.500416 0.438080
Si Si2 0.136131 0.292343 0.837695
Si Si3 0.239989 0.402214 0.287907
Si Si4 0.349124 0.243499 0.224590
Si Si5 0.132091 0.819182 0.478316
Si Si6 0.986899 0.096007 0.242277
Si Si7 0.633671 0.530984 0.072962
O O1 0.853834 0.542743 0.260224
O O2 0.767852 0.472899 0.599624
O O3 0.830456 0.294832 0.467498
O O4 0.012400 0.679634 0.422701
O O5 0.273590 0.382834 0.822298
O O6 0.086050 0.132134 0.730842
O O7 0.038047 0.201327 0.036619
O O8 0.305168 0.333919 0.344326
O O9 0.100912 0.194985 0.308996
O O10 0.322297 0.535494 0.080483
O O11 0.489207 0.345719 0.209314
O O12 0.251294 0.008393 0.308765
O O13 0.352754 0.297286 0.028819
O O14 0.105569 0.884932 0.644788
#
# Coordination Sequence:
#
# PCOD8038854 Si02
#       7
#     2   2   2   2   2   2   2
#     4  10  20  31  50  73 101 125 160 191 243 283
#     4  10  18  31  50  75  97 121 158 206 235 282
#     4   8  15  32  51  72  92 126 160 196 232 283
#     4   9  16  33  56  67  95 125 165 196 232 284
#     4  10  20  33  48  72  99 134 154 192 236 295
#     4   9  18  30  50  75  96 122 161 195 248 272
#     4   8  18  32  54  72  93 122 165 201 238 267
#
# _framework density 17.127718999999999
#
# number of rings (size 3 to 8) (size 9 to 14) (size 15 to 20)
#    0.857    2.000    0.000    1.714    2.000    2.857 
#    0.000    4.286    0.000    0.000    0.000    0.000 
#    0.000    0.000    0.000    0.000    0.000    0.000 
#
# Total GULP energy -173484.672108 kJ/mol
# GULP energy per Si atom -12391.762293 kJ/mol
# Density = 1.708874 g / cm^3
# Si number density = 17.127719 Si / 1000 Ang^3
#
#
#
# Elastic Constant Matrix: (Units=GPa)
#
#
# Indices 1 2 3 4 5 6 
#
# 1 91.3166 38.6508 35.4255 -15.0277 -0.1365 -3.4996
# 2 38.6508 64.0334 37.5104 -16.7258 -7.5742 -10.0971
# 3 35.4255 37.5104 57.3088 -11.8781 -4.6582 -0.2819
# 4 -15.0277 -16.7258 -11.8781 22.1234 2.0311 1.5617
# 5 -0.1365 -7.5742 -4.6582 2.0311 29.2062 -2.1771
# 6 -3.4996 -10.0971 -0.2819 1.5617 -2.1771 21.3878
#
#
#
# Elastic Compliance Matrix: (Units=1/GPa)
#
#
# Indices 1 2 3 4 5 6 
#
# 1 0.016233 -0.006002 -0.005537 0.003820 -0.002689 -0.000803
# 2 -0.006002 0.034989 -0.016067 0.012059 0.006773 0.015133
# 3 -0.005537 -0.016067 0.031707 0.001681 0.000138 -0.008182
# 4 0.003820 0.012059 0.001681 0.057709 -0.000445 0.002081
# 5 -0.002689 0.006773 0.000138 -0.000445 0.036521 0.006509
# 6 -0.000803 0.015133 -0.008182 0.002081 0.006509 0.054171
#
#
# Mechanical properties :
#
#
# Convention : Reuss Voigt Hill
#
# Bulk Modulus (GPa) = 36.07736 48.42580 42.25158
# Shear Modulus (GPa) = 16.90441 21.28164 19.09302
#
# Velocity S-wave (km/s) = 3.14500 3.52877 3.34240
# Velocity P-wave (km/s) = 5.85641 6.70356 6.29425
#
# Compressibility (1/GPa) = 0.02771822
#
# Stress axis : x y z
#
# Youngs Moduli (GPa) = 61.60262 28.58078 31.53829
#
# Poissons Ratio (x) = 0.17153 0.17463
# Poissons Ratio (y) = 0.36972 0.50672
# Poissons Ratio (z) = 0.34109 0.45920
#
# Static dielectric constant tensor:
#      x y z
#    x 3.190900 -0.041010 -0.151380 
#    y -0.041010 2.894960 -0.018530 
#    z -0.151380 -0.018530 3.137930 
# 
# 
# High freq. dielectric constant tensor:
#      x y z
#    x 1.655360 0.000760 -0.008500 
#    y 0.000760 1.623800 -0.006360 
#    z -0.008500 -0.006360 1.658040 
# 
# From -- ./inp_files/234576.got.cif
#   From: 2010.06.25/outbox.cif.g09.slc.cpg/sg2_118_cif.got.tgz:234576.got - 2010.06.27 13:26:56.
