data_PCOD8038879
_publ_section_title
;
Structure prediction by ZEFSAII (Michael W. Deem and Ramdas Pophale) SiO2 
 PCOD8038879
Probable space group: P -1
;
_chemical_formula_sum "Si O2"
_cell_formula_units_Z 14
_cell_length_a 8.578680
_cell_length_b 9.299474
_cell_length_c 13.602685
_cell_angle_alpha 119.952643
_cell_angle_beta 109.037489
_cell_angle_gamma 97.374726
_cell_volume 830.738926
_symmetry_space_group_name_H-M "P -1"
_symmetry_group_IT_number 2
_symmetry_cell_setting 'triclinic'
loop_
_space_group_symop_operation_xyz
x,y,z
-x,-y,-z
loop_
_atom_site_type_symbol
_atom_site_label
_atom_site_fract_x
_atom_site_fract_y
_atom_site_fract_z
Si Si1 0.992687 0.506804 0.840450
Si Si2 0.600480 0.394089 0.369833
Si Si3 0.743738 0.894876 0.806396
Si Si4 0.013563 0.235580 0.901944
Si Si5 0.312804 0.718168 0.845593
Si Si6 0.292298 0.087121 0.969395
Si Si7 0.269480 0.468217 0.356155
O O1 0.002619 0.328078 0.828578
O O2 0.179219 0.613036 0.865684
O O3 0.834117 0.445941 0.708031
O O4 0.945983 0.624951 0.953414
O O5 0.468402 0.187139 0.283883
O O6 0.709971 0.410748 0.297600
O O7 0.474781 0.514588 0.380617
O O8 0.735269 0.455717 0.509485
O O9 0.827968 0.747342 0.739646
O O10 0.783438 0.933965 0.942880
O O11 0.827925 0.074891 0.824374
O O12 0.171397 0.159382 0.900963
O O13 0.279196 0.894128 0.863079
O O14 0.508917 0.772929 0.949244
#
# Coordination Sequence:
#
# PCOD8038879 Si02
#       7
#     2   2   2   2   2   2   2
#     4  11  21  30  49  76 106 133 158 201 248 303
#     4   8  18  33  58  74  93 127 173 209 239 279
#     4   9  15  31  55  73  92 125 169 207 232 283
#     4  11  20  32  48  75 106 134 161 194 253 299
#     4  10  19  31  51  77 100 125 164 209 249 284
#     4  10  18  31  52  75 100 126 164 211 245 289
#     4   9  17  35  55  75  94 129 173 203 239 288
#
# _framework density 16.852467000000001
#
# number of rings (size 3 to 8) (size 9 to 14) (size 15 to 20)
#    0.857    1.429    2.857    1.286    0.000    1.143 
#    0.000    0.714    0.000    1.714    0.000    0.000 
#    0.000    0.000    0.000    0.000    0.000    0.000 
#
# Total GULP energy -173524.068210 kJ/mol
# GULP energy per Si atom -12394.576301 kJ/mol
# Density = 1.681411 g / cm^3
# Si number density = 16.852467 Si / 1000 Ang^3
#
#
#
# Elastic Constant Matrix: (Units=GPa)
#
#
# Indices 1 2 3 4 5 6 
#
# 1 69.1319 34.7711 19.5962 -13.8887 5.3544 -0.8844
# 2 34.7711 90.6790 27.7273 -18.6464 10.1948 -5.7249
# 3 19.5962 27.7273 67.6980 -12.3666 0.0850 -3.1459
# 4 -13.8887 -18.6464 -12.3666 17.2655 -5.0040 -2.1736
# 5 5.3544 10.1948 0.0850 -5.0040 23.3924 0.8848
# 6 -0.8844 -5.7249 -3.1459 -2.1736 0.8848 16.7329
#
#
#
# Elastic Compliance Matrix: (Units=1/GPa)
#
#
# Indices 1 2 3 4 5 6 
#
# 1 0.019289 -0.004968 -0.001966 0.008639 -0.000398 0.000093
# 2 -0.004968 0.017257 -0.003093 0.012116 -0.004039 0.006847
# 3 -0.001966 -0.003093 0.018567 0.009884 0.003716 0.003416
# 4 0.008639 0.012116 0.009884 0.090559 0.011412 0.017620
# 5 -0.000398 -0.004039 0.003716 0.011412 0.047093 -0.001712
# 6 0.000093 0.006847 0.003416 0.017620 -0.001712 0.065132
#
#
# Mechanical properties :
#
#
# Convention : Reuss Voigt Hill
#
# Bulk Modulus (GPa) = 28.52379 43.52202 36.02290
# Shear Modulus (GPa) = 17.26303 21.17244 19.21773
#
# Velocity S-wave (km/s) = 3.20404 3.54833 3.38057
# Velocity P-wave (km/s) = 5.53626 6.53215 6.05471
#
# Compressibility (1/GPa) = 0.03505846
#
# Stress axis : x y z
#
# Youngs Moduli (GPa) = 51.84370 57.94855 53.85906
#
# Poissons Ratio (x) = 0.28790 0.10587
# Poissons Ratio (y) = 0.25757 0.16660
# Poissons Ratio (z) = 0.10191 0.17925
#
# Static dielectric constant tensor:
#      x y z
#    x 3.119720 -0.068330 -0.052910 
#    y -0.068330 2.935070 0.084720 
#    z -0.052910 0.084720 3.051120 
# 
# 
# High freq. dielectric constant tensor:
#      x y z
#    x 1.648660 -0.003480 -0.000870 
#    y -0.003480 1.614960 0.008450 
#    z -0.000870 0.008450 1.640030 
# 
# From -- ./inp_files/181561.got.cif
#   From: 2010.06.25/outbox.cif.g09.slc.cpg/sg2_91_cif.got.tgz:181561.got - 2010.06.27 13:26:56.
