data_PCOD8038334
_publ_section_title
;
Structure prediction by ZEFSAII (Michael W. Deem and Ramdas Pophale) SiO2 
 PCOD8038334
Probable space group: P -1
;
_chemical_formula_sum "Si O2"
_cell_formula_units_Z 16
_cell_length_a 22.617090
_cell_length_b 9.211331
_cell_length_c 12.179835
_cell_angle_alpha 63.806535
_cell_angle_beta 144.042767
_cell_angle_gamma 142.719408
_cell_volume 741.646546
_symmetry_space_group_name_H-M "P -1"
_symmetry_group_IT_number 2
_symmetry_cell_setting 'triclinic'
loop_
_space_group_symop_operation_xyz
x,y,z
-x,-y,-z
loop_
_atom_site_type_symbol
_atom_site_label
_atom_site_fract_x
_atom_site_fract_y
_atom_site_fract_z
Si Si1 0.124301 0.319231 0.553998
Si Si2 0.178278 0.069279 0.169814
Si Si3 0.641310 0.070765 0.754438
Si Si4 0.877001 0.653837 0.025183
Si Si5 0.515917 0.136346 0.189821
Si Si6 0.345389 0.967925 0.448008
Si Si7 0.851001 0.435902 0.277361
Si Si8 0.024636 0.695448 0.868242
O O1 0.323088 0.541313 0.728405
O O2 0.169456 0.484085 0.672991
O O3 0.017287 0.280537 0.318586
O O4 0.000000 0.000000 0.500000
O O5 0.347717 0.167113 0.398756
O O6 0.242334 0.339225 0.152150
O O7 0.074943 0.938092 0.174746
O O8 0.034333 0.837953 0.933644
O O9 0.550192 0.968359 0.527064
O O10 0.514489 0.835297 0.741572
O O11 0.759510 0.376830 0.870189
O O12 0.775186 0.105669 0.910409
O O13 0.913331 0.635960 0.206878
O O14 0.571746 0.018896 0.328405
O O15 0.339147 0.906722 0.923982
O O16 0.128663 0.642477 0.220223
O O17 0.000000 0.500000 0.500000
#
# Coordination Sequence:
#
# PCOD8038334 Si02
#       8
#     2   2   2   2   2   2   2   2
#     4  11  23  41  63  89 123 163 213 268 312 359
#     4  10  18  32  57  93 122 156 199 255 311 371
#     4  10  17  35  55  90 119 162 196 254 300 385
#     4  10  19  32  57  90 122 155 211 248 308 364
#     4  10  23  37  64  92 124 164 218 255 312 373
#     4  10  18  33  59  90 125 158 200 251 313 374
#     4  11  24  43  64  87 123 175 217 256 304 376
#     4  10  18  34  60  86 119 161 210 244 308 373
#
# _framework density 21.573619000000001
#
# number of rings (size 3 to 8) (size 9 to 14) (size 15 to 20)
#    0.000    1.750    2.500    3.750    1.750    0.000 
#    0.000    5.000    0.000    6.000    0.000    0.000 
#    0.000    0.000    0.000    0.000    0.000    0.000 
#
# Total GULP energy -198320.368415 kJ/mol
# GULP energy per Si atom -12395.023026 kJ/mol
# Density = 2.152452 g / cm^3
# Si number density = 21.573619 Si / 1000 Ang^3
#
#
#
# Elastic Constant Matrix: (Units=GPa)
#
#
# Indices 1 2 3 4 5 6 
#
# 1 108.0799 44.8234 7.2103 -4.9199 3.1893 20.9384
# 2 44.8234 104.5686 10.7576 -7.4181 9.8458 19.5181
# 3 7.2103 10.7576 67.3946 -8.4833 -2.7580 19.1882
# 4 -4.9199 -7.4181 -8.4833 24.9858 2.1110 3.7680
# 5 3.1893 9.8458 -2.7580 2.1110 31.3356 -5.5634
# 6 20.9384 19.5181 19.1882 3.7680 -5.5634 34.6051
#
#
#
# Elastic Compliance Matrix: (Units=1/GPa)
#
#
# Indices 1 2 3 4 5 6 
#
# 1 0.012176 -0.003829 0.001479 0.002856 -0.001260 -0.006541
# 2 -0.003829 0.013273 0.000662 0.004901 -0.005281 -0.006919
# 3 0.001479 0.000662 0.019467 0.009246 -0.001635 -0.013332
# 4 0.002856 0.004901 0.009246 0.048194 -0.007106 -0.016008
# 5 -0.001260 -0.005281 -0.001635 -0.007106 0.036026 0.011213
# 6 -0.006541 -0.006919 -0.013332 -0.016008 0.011213 0.047696
#
#
# Mechanical properties :
#
#
# Convention : Reuss Voigt Hill
#
# Bulk Modulus (GPa) = 24.07441 45.06951 34.57196
# Shear Modulus (GPa) = 25.76598 32.66877 29.21737
#
# Velocity S-wave (km/s) = 3.45965 3.89561 3.68409
# Velocity P-wave (km/s) = 5.20983 6.41645 5.84436
#
# Compressibility (1/GPa) = 0.04153788
#
# Stress axis : x y z
#
# Youngs Moduli (GPa) = 82.12704 75.34218 51.36963
#
# Poissons Ratio (x) = 0.28852 -0.07596
# Poissons Ratio (y) = 0.31450 -0.03399
# Poissons Ratio (z) = -0.12145 -0.04985
#
# Static dielectric constant tensor:
#      x y z
#    x 4.364880 0.301740 0.202430 
#    y 0.301740 3.862160 -0.099590 
#    z 0.202430 -0.099590 4.023460 
# 
# 
# High freq. dielectric constant tensor:
#      x y z
#    x 1.862780 0.014150 0.006030 
#    y 0.014150 1.826650 -0.011490 
#    z 0.006030 -0.011490 1.856570 
# 
# From -- ./inp_files/242915.got.cif
#   From: 2010.06.25/outbox.cif.g09.slc.cpg/sg2_122_cif.got.tgz:242915.got - 2010.06.27 13:26:56.
