data_PCOD8038119
_publ_section_title
;
Structure prediction by ZEFSAII (Michael W. Deem and Ramdas Pophale) SiO2 
 PCOD8038119
Probable space group: P -1
;
_chemical_formula_sum "Si O2"
_cell_formula_units_Z 16
_cell_length_a 9.037661
_cell_length_b 22.300186
_cell_length_c 18.107605
_cell_angle_alpha 26.173997
_cell_angle_beta 35.936251
_cell_angle_gamma 50.286155
_cell_volume 888.889159
_symmetry_space_group_name_H-M "P -1"
_symmetry_group_IT_number 2
_symmetry_cell_setting 'triclinic'
loop_
_space_group_symop_operation_xyz
x,y,z
-x,-y,-z
loop_
_atom_site_type_symbol
_atom_site_label
_atom_site_fract_x
_atom_site_fract_y
_atom_site_fract_z
Si Si1 0.740977 0.827403 0.649936
Si Si2 0.884172 0.551060 0.888963
Si Si3 0.587399 0.464767 0.251432
Si Si4 0.099052 0.143955 0.152065
Si Si5 0.762388 0.629347 0.271036
Si Si6 0.224462 0.667753 0.945600
Si Si7 0.470268 0.228120 0.042915
Si Si8 0.936306 0.643594 0.349413
O O1 0.901487 0.715930 0.704470
O O2 0.502587 0.770721 0.751100
O O3 0.638164 0.846205 0.752851
O O4 0.935062 0.981438 0.373849
O O5 0.190159 0.556188 0.760643
O O6 0.694288 0.460237 0.131161
O O7 0.744001 0.463690 0.969452
O O8 0.290266 0.342798 0.516074
O O9 0.548967 0.613593 0.124942
O O10 0.900234 0.229460 0.165371
O O11 0.296812 0.138049 0.144945
O O12 0.251624 0.226643 0.925050
O O13 0.500000 0.500000 0.500000
O O14 0.789306 0.645545 0.329392
O O15 0.025995 0.595738 0.173541
O O16 0.775238 0.228845 0.906183
O O17 0.000000 0.500000 0.500000
#
# Coordination Sequence:
#
# PCOD8038119 Si02
#       8
#     2   2   2   2   2   2   2   2
#     4  11  21  34  54  85 113 142 185 229 276 328
#     4  10  19  34  54  81 117 143 182 221 275 334
#     4   9  18  32  54  81 109 145 179 227 276 319
#     4  10  21  34  56  83 111 144 181 230 286 315
#     4  10  19  33  56  83 110 139 180 230 279 320
#     4  10  20  35  54  82 112 143 181 223 280 322
#     4  10  17  34  53  83 108 139 187 231 271 320
#     4  10  18  31  55  84 107 137 184 239 264 313
#
# _framework density 17.999994000000001
#
# number of rings (size 3 to 8) (size 9 to 14) (size 15 to 20)
#    0.750    1.250    2.500    3.375    0.000    0.000 
#    0.000    0.000    0.000    3.750    0.000    0.000 
#    0.000    0.000    0.000    0.000    0.000    0.000 
#
# Total GULP energy -198246.323565 kJ/mol
# GULP energy per Si atom -12390.395223 kJ/mol
# Density = 1.795902 g / cm^3
# Si number density = 17.999994 Si / 1000 Ang^3
#
#
#
# Elastic Constant Matrix: (Units=GPa)
#
#
# Indices 1 2 3 4 5 6 
#
# 1 72.8604 11.9760 33.3901 10.8054 -3.6205 -6.9187
# 2 11.9760 52.6950 31.6276 14.0992 -3.2884 -2.1343
# 3 33.3901 31.6276 117.5323 10.2471 -3.4542 -7.3596
# 4 10.8054 14.0992 10.2471 23.1551 -7.6609 -4.0544
# 5 -3.6205 -3.2884 -3.4542 -7.6609 27.8545 8.3634
# 6 -6.9187 -2.1343 -7.3596 -4.0544 8.3634 15.5515
#
#
#
# Elastic Compliance Matrix: (Units=1/GPa)
#
#
# Indices 1 2 3 4 5 6 
#
# 1 0.016798 0.000302 -0.004086 -0.005815 -0.001321 0.004775
# 2 0.000302 0.026173 -0.006076 -0.014065 -0.000772 -0.002400
# 3 -0.004086 -0.006076 0.011411 0.000948 -0.000563 0.003298
# 4 -0.005815 -0.014065 0.000948 0.058999 0.012559 0.004558
# 5 -0.001321 -0.000772 -0.000563 0.012559 0.045708 -0.022267
# 6 0.004775 -0.002400 0.003298 0.004558 -0.022267 0.080822
#
#
# Mechanical properties :
#
#
# Convention : Reuss Voigt Hill
#
# Bulk Modulus (GPa) = 28.84963 44.11945 36.48454
# Shear Modulus (GPa) = 18.43757 24.38515 21.41136
#
# Velocity S-wave (km/s) = 3.20396 3.68466 3.45268
# Velocity P-wave (km/s) = 5.45431 6.53195 6.01730
#
# Compressibility (1/GPa) = 0.03466249
#
# Stress axis : x y z
#
# Youngs Moduli (GPa) = 59.53044 38.20752 87.63122
#
# Poissons Ratio (x) = -0.01153 0.35808
# Poissons Ratio (y) = -0.01797 0.53241
# Poissons Ratio (z) = 0.24326 0.23213
#
# Static dielectric constant tensor:
#      x y z
#    x 3.437340 -0.069020 -0.096070 
#    y -0.069020 3.199440 0.327270 
#    z -0.096070 0.327270 3.364630 
# 
# 
# High freq. dielectric constant tensor:
#      x y z
#    x 1.707790 -0.000330 -0.010130 
#    y -0.000330 1.661460 0.022780 
#    z -0.010130 0.022780 1.688070 
# 
# From -- ./inp_files/464612.got.cif
#   From: 2010.06.25/outbox.cif.g09.slc.cpg/sg2_233_cif.got.tgz:464612.got - 2010.06.27 13:26:56.
