data_PCOD8038770
_publ_section_title
;
Structure prediction by ZEFSAII (Michael W. Deem and Ramdas Pophale) SiO2 
 PCOD8038770
Probable space group: P -1
;
_chemical_formula_sum "Si O2"
_cell_formula_units_Z 16
_cell_length_a 17.315187
_cell_length_b 9.363159
_cell_length_c 20.670983
_cell_angle_alpha 152.613729
_cell_angle_beta 25.868620
_cell_angle_gamma 149.040252
_cell_volume 643.305367
_symmetry_space_group_name_H-M "P -1"
_symmetry_group_IT_number 2
_symmetry_cell_setting 'triclinic'
loop_
_space_group_symop_operation_xyz
x,y,z
-x,-y,-z
loop_
_atom_site_type_symbol
_atom_site_label
_atom_site_fract_x
_atom_site_fract_y
_atom_site_fract_z
Si Si1 0.201428 0.906793 0.463103
Si Si2 0.878238 0.238946 0.675385
Si Si3 0.827603 0.418560 0.242807
Si Si4 0.191097 0.775923 0.959211
Si Si5 0.425615 0.453033 0.737514
Si Si6 0.236942 0.740560 0.628511
Si Si7 0.208037 0.284216 0.256235
Si Si8 0.256292 0.759125 0.087804
O O1 0.239271 0.853309 0.337763
O O2 0.301782 0.676027 0.334177
O O3 0.984771 0.762095 0.580756
O O4 0.267903 0.291133 0.582770
O O5 0.730295 0.219808 0.836582
O O6 0.025145 0.597070 0.707593
O O7 0.000000 0.000000 0.500000
O O8 0.774287 0.169435 0.122431
O O9 0.751892 0.224241 0.287370
O O10 0.048626 0.579845 0.146768
O O11 0.353299 0.650524 0.816954
O O12 0.000000 0.500000 0.000000
O O13 0.182998 0.106978 0.133262
O O14 0.642203 0.498790 0.579896
O O15 0.311956 0.074210 0.667818
O O16 0.395988 0.574431 0.880613
O O17 0.324575 0.121751 0.150821
#
# Coordination Sequence:
#
# PCOD8038770 Si02
#       8
#     2   2   2   2   2   2   2   2
#     4  10  18  30  52  81 113 136 180 231 276 326
#     4  11  19  34  56  82 107 145 188 229 272 324
#     4  10  19  35  57  85 110 142 190 236 279 322
#     4  11  19  35  57  83 109 145 191 235 276 324
#     4  10  22  39  55  82 117 147 185 227 287 340
#     4  10  23  37  56  82 116 151 180 230 286 337
#     4   9  18  29  50  80 109 136 176 232 278 315
#     4   9  18  34  54  76 111 138 186 228 269 325
#
# _framework density 24.871548000000001
#
# number of rings (size 3 to 8) (size 9 to 14) (size 15 to 20)
#    0.000    2.000    7.500    0.000    1.750    3.500 
#    0.000    0.625    0.000    3.000    0.000    0.000 
#    0.000    0.000    0.000    0.000    0.000    0.000 
#
# Total GULP energy -198299.690569 kJ/mol
# GULP energy per Si atom -12393.730661 kJ/mol
# Density = 2.481494 g / cm^3
# Si number density = 24.871548 Si / 1000 Ang^3
#
#
#
# Elastic Constant Matrix: (Units=GPa)
#
#
# Indices 1 2 3 4 5 6 
#
# 1 65.4803 13.0607 32.8679 -16.2778 36.9039 -12.9627
# 2 13.0607 39.2914 3.2526 -6.8645 0.4774 -9.8220
# 3 32.8679 3.2526 96.0288 -21.2415 24.4172 -10.6401
# 4 -16.2778 -6.8645 -21.2415 32.7786 -15.0587 5.7325
# 5 36.9039 0.4774 24.4172 -15.0587 40.2674 -7.4088
# 6 -12.9627 -9.8220 -10.6401 5.7325 -7.4088 21.9349
#
#
#
# Elastic Compliance Matrix: (Units=1/GPa)
#
#
# Indices 1 2 3 4 5 6 
#
# 1 0.038309 -0.010977 -0.004412 -0.001747 -0.031994 0.005234
# 2 -0.010977 0.032932 0.002128 0.006754 0.013104 0.011953
# 3 -0.004412 0.002128 0.013925 0.006009 -0.001631 0.002980
# 4 -0.001747 0.006754 0.006009 0.041180 0.013009 -0.001462
# 5 -0.031994 0.013104 -0.001631 0.013009 0.060440 0.003184
# 6 0.005234 0.011953 0.002980 -0.001462 0.003184 0.056937
#
#
# Mechanical properties :
#
#
# Convention : Reuss Voigt Hill
#
# Bulk Modulus (GPa) = 17.05168 33.24033 25.14601
# Shear Modulus (GPa) = 17.25361 29.10414 23.17888
#
# Velocity S-wave (km/s) = 2.63669 3.42450 3.05609
# Velocity P-wave (km/s) = 4.01750 5.38796 4.75239
#
# Compressibility (1/GPa) = 0.05864525
#
# Stress axis : x y z
#
# Youngs Moduli (GPa) = 26.10341 30.36536 71.81151
#
# Poissons Ratio (x) = 0.33333 0.31681
# Poissons Ratio (y) = 0.28654 -0.15282
# Poissons Ratio (z) = 0.11516 -0.06462
#
# Static dielectric constant tensor:
#      x y z
#    x 4.748800 -0.454940 0.300470 
#    y -0.454940 4.447360 0.151160 
#    z 0.300470 0.151160 4.836910 
# 
# 
# High freq. dielectric constant tensor:
#      x y z
#    x 1.967190 -0.022430 0.020880 
#    y -0.022430 1.973800 0.002860 
#    z 0.020880 0.002860 1.995690 
# 
# From -- ./inp_files/199689.got.cif
#   From: 2010.06.25/outbox.cif.g09.slc.cpg/sg2_100_cif.got.tgz:199689.got - 2010.06.27 13:26:56.
