data_PCOD8038483
_publ_section_title
;
Structure prediction by ZEFSAII (Michael W. Deem and Ramdas Pophale) SiO2 
 PCOD8038483
Probable space group: P -1
;
_chemical_formula_sum "Si O2"
_cell_formula_units_Z 16
_cell_length_a 18.271081
_cell_length_b 8.092974
_cell_length_c 9.208380
_cell_angle_alpha 99.421738
_cell_angle_beta 49.076607
_cell_angle_gamma 70.197243
_cell_volume 813.197703
_symmetry_space_group_name_H-M "P -1"
_symmetry_group_IT_number 2
_symmetry_cell_setting 'triclinic'
loop_
_space_group_symop_operation_xyz
x,y,z
-x,-y,-z
loop_
_atom_site_type_symbol
_atom_site_label
_atom_site_fract_x
_atom_site_fract_y
_atom_site_fract_z
Si Si1 0.958253 0.029901 0.720531
Si Si2 0.064296 0.655488 0.001523
Si Si3 0.175230 0.197899 0.781776
Si Si4 0.278579 0.911775 0.878788
Si Si5 0.591249 0.056805 0.718422
Si Si6 0.537880 0.158400 0.133705
Si Si7 0.379075 0.650847 0.451291
Si Si8 0.121068 0.821936 0.728743
O O1 0.076801 0.836653 0.624217
O O2 0.916839 0.252987 0.866477
O O3 0.000000 0.000000 0.500000
O O4 0.842633 0.031218 0.882962
O O5 0.922179 0.830451 0.164588
O O6 0.093647 0.437457 0.973363
O O7 0.152453 0.618175 0.747131
O O8 0.242618 0.076591 0.822978
O O9 0.273001 0.140331 0.524006
O O10 0.352707 0.922505 0.910945
O O11 0.363137 0.687076 0.652649
O O12 0.551359 0.261429 0.701422
O O13 0.510352 0.976034 0.780715
O O14 0.586252 0.112024 0.900783
O O15 0.440206 0.409647 0.306705
O O16 0.243316 0.806825 0.579349
O O17 0.000000 0.000000 0.000000
#
# Coordination Sequence:
#
# PCOD8038483 Si02
#       8
#     2   2   2   2   2   2   2   2
#     4  11  22  36  59  94 125 154 189 248 311 357
#     4  10  19  38  61  92 115 155 205 239 299 374
#     4  10  21  38  65  86 116 160 202 250 293 366
#     4  11  22  40  61  88 124 156 199 251 303 360
#     4  10  23  42  60  86 119 164 206 252 304 347
#     4  11  25  41  59  90 124 159 205 258 302 356
#     4  11  21  40  66  89 115 166 210 244 297 370
#     4  10  17  36  63  87 117 151 198 240 292 369
#
# _framework density 19.675411
#
# number of rings (size 3 to 8) (size 9 to 14) (size 15 to 20)
#    0.000    1.500    3.750    3.750    3.500    2.000 
#    2.250    3.125    0.000    0.000    0.000    0.000 
#    0.000    0.000    0.000    0.000    0.000    0.000 
#
# Total GULP energy -198232.483317 kJ/mol
# GULP energy per Si atom -12389.530207 kJ/mol
# Density = 1.963063 g / cm^3
# Si number density = 19.675411 Si / 1000 Ang^3
#
#
#
# Elastic Constant Matrix: (Units=GPa)
#
#
# Indices 1 2 3 4 5 6 
#
# 1 148.7859 37.1070 55.3021 -13.4997 5.3886 3.9642
# 2 37.1070 78.0421 38.3072 -3.2741 4.8667 8.3511
# 3 55.3021 38.3072 105.0256 -22.0162 11.7793 4.1026
# 4 -13.4997 -3.2741 -22.0162 37.2016 -2.0282 -2.1837
# 5 5.3886 4.8667 11.7793 -2.0282 32.8338 -6.3871
# 6 3.9642 8.3511 4.1026 -2.1837 -6.3871 24.1208
#
#
#
# Elastic Compliance Matrix: (Units=1/GPa)
#
#
# Indices 1 2 3 4 5 6 
#
# 1 0.008707 -0.002385 -0.003573 0.000860 0.000290 0.000157
# 2 -0.002385 0.017024 -0.005173 -0.002818 -0.001475 -0.005268
# 3 -0.003573 -0.005173 0.015205 0.007007 -0.003781 -0.000575
# 4 0.000860 -0.002818 0.007007 0.031249 0.000183 0.002520
# 5 0.000290 -0.001475 -0.003781 0.000183 0.033963 0.010116
# 6 0.000157 -0.005268 -0.000575 0.002520 0.010116 0.046261
#
#
# Mechanical properties :
#
#
# Convention : Reuss Voigt Hill
#
# Bulk Modulus (GPa) = 53.55121 65.92067 59.73594
# Shear Modulus (GPa) = 27.63993 32.24038 29.94016
#
# Velocity S-wave (km/s) = 3.75213 4.05237 3.90513
# Velocity P-wave (km/s) = 6.78584 7.44798 7.12461
#
# Compressibility (1/GPa) = 0.01867371
#
# Stress axis : x y z
#
# Youngs Moduli (GPa) = 114.84444 58.73946 65.76651
#
# Poissons Ratio (x) = 0.14009 0.23501
# Poissons Ratio (y) = 0.27390 0.34023
# Poissons Ratio (z) = 0.41039 0.30388
#
# Static dielectric constant tensor:
#      x y z
#    x 3.617440 0.024950 -0.157070 
#    y 0.024950 4.450420 -0.074580 
#    z -0.157070 -0.074580 3.989710 
# 
# 
# High freq. dielectric constant tensor:
#      x y z
#    x 1.766030 0.011810 -0.009350 
#    y 0.011810 1.774870 -0.008000 
#    z -0.009350 -0.008000 1.763720 
# 
# From -- ./inp_files/329132.got.cif
#   From: 2010.06.25/outbox.cif.g09.slc.cpg/sg2_165_cif.got.tgz:329132.got - 2010.06.27 13:26:56.
