data_PCOD8038294
_publ_section_title
;
Structure prediction by ZEFSAII (Michael W. Deem and Ramdas Pophale) SiO2 
 PCOD8038294
Probable space group: P -1
;
_chemical_formula_sum "Si O2"
_cell_formula_units_Z 16
_cell_length_a 15.000000
_cell_length_b 12.000000
_cell_length_c 12.000000
_cell_angle_alpha 120.000000
_cell_angle_beta 100.000000
_cell_angle_gamma 30.000000
_cell_volume 748.962810
_symmetry_space_group_name_H-M "P -1"
_symmetry_group_IT_number 2
_symmetry_cell_setting 'triclinic'
loop_
_space_group_symop_operation_xyz
x,y,z
-x,-y,-z
loop_
_atom_site_type_symbol
_atom_site_label
_atom_site_fract_x
_atom_site_fract_y
_atom_site_fract_z
Si Si1 0.141973 0.242288 0.706153
Si Si2 0.808955 0.244485 0.484776
Si Si3 0.022278 0.702076 0.516428
Si Si4 0.801906 0.361334 0.147478
Si Si5 0.595026 0.775277 0.494229
Si Si6 0.612408 0.223274 0.850929
Si Si7 0.294772 0.857497 0.728274
Si Si8 0.883472 0.825920 0.927398
O O1 0.048953 0.276189 0.600925
O O2 0.956302 0.589971 0.862237
O O3 0.386451 0.984049 0.616118
O O4 0.159011 0.138275 0.769220
O O5 0.835919 0.350429 0.494315
O O6 0.562171 0.526091 0.615364
O O7 0.826323 0.117732 0.325356
O O8 0.000000 0.000000 0.500000
O O9 0.222052 0.377086 0.469815
O O10 0.794046 0.015992 0.691403
O O11 0.718595 0.492065 0.321085
O O12 0.586787 0.609542 0.149769
O O13 0.893598 0.381397 0.143357
O O14 0.000000 0.000000 0.000000
O O15 0.500000 0.000000 0.500000
O O16 0.736428 0.000692 0.871912
O O17 0.500000 0.500000 0.000000
O O18 0.259290 0.918661 0.882016
#
# Coordination Sequence:
#
# PCOD8038294 Si02
#       8
#     2   2   2   2   2   2   2   2
#     4  12  25  47  70  99 137 188 237 283 342 416
#     4  11  25  45  73 104 129 181 235 289 349 403
#     4  12  25  43  74 103 137 176 235 292 341 413
#     4  12  25  43  66 102 141 182 224 285 350 408
#     4  12  24  44  70 101 139 180 232 285 347 420
#     4  12  26  42  69 107 139 176 225 288 355 413
#     4  11  27  46  71  99 138 182 234 284 345 419
#     4  12  28  44  68 101 146 185 227 284 348 418
#
# _framework density 21.362876
#
# number of rings (size 3 to 8) (size 9 to 14) (size 15 to 20)
#    0.000    0.250    7.500    0.375    7.000    1.000 
#    0.000    0.625    0.000    0.000    0.000    0.000 
#    0.000    0.000    0.000    0.000    0.000    0.000 
#
# Total GULP energy -198223.357237 kJ/mol
# GULP energy per Si atom -12388.959827 kJ/mol
# Density = 2.131425 g / cm^3
# Si number density = 21.362876 Si / 1000 Ang^3
#
#
#
# Elastic Constant Matrix: (Units=GPa)
#
#
# Indices 1 2 3 4 5 6 
#
# 1 79.5986 37.7507 7.1395 4.3469 2.7316 -34.6892
# 2 37.7507 136.5914 13.9967 0.2503 -1.2650 -48.4726
# 3 7.1395 13.9967 77.2197 -4.3250 5.8664 -15.6705
# 4 4.3469 0.2503 -4.3250 37.4659 -2.3863 4.3267
# 5 2.7316 -1.2650 5.8664 -2.3863 28.8413 4.5421
# 6 -34.6892 -48.4726 -15.6705 4.3267 4.5421 52.3244
#
#
#
# Elastic Compliance Matrix: (Units=1/GPa)
#
#
# Indices 1 2 3 4 5 6 
#
# 1 0.018736 -0.000826 0.001109 -0.003781 -0.004346 0.012678
# 2 -0.000826 0.011049 0.000104 -0.001182 -0.001117 0.009914
# 3 0.001109 0.000104 0.014243 0.000653 -0.003790 0.005372
# 4 -0.003781 -0.001182 0.000653 0.028129 0.003451 -0.006032
# 5 -0.004346 -0.001117 -0.003790 0.003451 0.037444 -0.008587
# 6 0.012678 0.009914 0.005372 -0.006032 -0.008587 0.039553
#
#
# Mechanical properties :
#
#
# Convention : Reuss Voigt Hill
#
# Bulk Modulus (GPa) = 22.32069 45.68708 34.00388
# Shear Modulus (GPa) = 30.61571 39.36116 34.98843
#
# Velocity S-wave (km/s) = 3.78977 4.29710 4.05138
# Velocity P-wave (km/s) = 5.44251 6.78621 6.15116
#
# Compressibility (1/GPa) = 0.04480149
#
# Stress axis : x y z
#
# Youngs Moduli (GPa) = 53.37300 90.50905 70.20829
#
# Poissons Ratio (x) = 0.07477 -0.07783
# Poissons Ratio (y) = 0.04409 -0.00732
# Poissons Ratio (z) = -0.05917 -0.00943
#
# Static dielectric constant tensor:
#      x y z
#    x 4.544040 -0.387400 0.023540 
#    y -0.387400 4.689840 -0.123720 
#    z 0.023540 -0.123720 4.013860 
# 
# 
# High freq. dielectric constant tensor:
#      x y z
#    x 1.849290 -0.020790 0.003430 
#    y -0.020790 1.874200 0.002690 
#    z 0.003430 0.002690 1.837220 
# 
# From -- ./inp_files/452576.got.cif
#   From: 2010.06.25/outbox.ucp.g09.slc.cvg/sg2_227_cif.got.tgz:452576.got - 2010.06.28 11:54:26.
