data_PCOD8038215
_publ_section_title
;
Structure prediction by ZEFSAII (Michael W. Deem and Ramdas Pophale) SiO2 
 PCOD8038215
Probable space group: P -1
;
_chemical_formula_sum "Si O2"
_cell_formula_units_Z 16
_cell_length_a 12.756980
_cell_length_b 8.883462
_cell_length_c 13.245442
_cell_angle_alpha 48.384864
_cell_angle_beta 79.072547
_cell_angle_gamma 50.598305
_cell_volume 794.166461
_symmetry_space_group_name_H-M "P -1"
_symmetry_group_IT_number 2
_symmetry_cell_setting 'triclinic'
loop_
_space_group_symop_operation_xyz
x,y,z
-x,-y,-z
loop_
_atom_site_type_symbol
_atom_site_label
_atom_site_fract_x
_atom_site_fract_y
_atom_site_fract_z
Si Si1 0.418844 0.984026 0.935464
Si Si2 0.692287 0.782254 0.659023
Si Si3 0.696015 0.111368 0.830674
Si Si4 0.295139 0.332575 0.073266
Si Si5 0.205122 0.561509 0.600291
Si Si6 0.376130 0.382456 0.443937
Si Si7 0.994602 0.734918 0.862313
Si Si8 0.895708 0.889763 0.581243
O O1 0.552134 0.744063 0.942590
O O2 0.297598 0.279896 0.772402
O O3 0.336939 0.901096 0.040384
O O4 0.500000 0.000000 0.000000
O O5 0.743735 0.600447 0.831677
O O6 0.700014 0.617351 0.639601
O O7 0.801353 0.822022 0.596983
O O8 0.528087 0.076025 0.579769
O O9 0.587005 0.430521 0.669734
O O10 0.679625 0.936746 0.840049
O O11 0.859311 0.000772 0.835558
O O12 0.157208 0.613775 0.912293
O O13 0.264737 0.500586 0.503907
O O14 0.033513 0.717747 0.555487
O O15 0.208450 0.776341 0.558043
O O16 0.963504 0.794568 0.723599
O O17 0.000000 0.500000 0.000000
#
# Coordination Sequence:
#
# PCOD8038215 Si02
#       8
#     2   2   2   2   2   2   2   2
#     4  10  21  34  58  92 117 146 188 250 298 345
#     4  11  23  39  61  85 119 166 198 242 287 351
#     4  10  20  37  61  86 118 150 191 251 294 345
#     4  10  19  35  62  85 119 152 192 244 305 338
#     4  11  22  39  63  90 121 148 200 247 301 352
#     4  11  24  41  59  85 122 160 208 235 284 357
#     4  10  17  34  59  88 117 142 189 247 294 345
#     4  11  22  36  64  91 116 155 194 250 301 347
#
# _framework density 20.146908
#
# number of rings (size 3 to 8) (size 9 to 14) (size 15 to 20)
#    0.000    1.500    5.000    2.250    3.500    1.500 
#    0.000    1.250    0.000    0.000    0.000    0.000 
#    0.000    0.000    0.000    0.000    0.000    0.000 
#
# Total GULP energy -198307.454456 kJ/mol
# GULP energy per Si atom -12394.215903 kJ/mol
# Density = 2.010105 g / cm^3
# Si number density = 20.146908 Si / 1000 Ang^3
#
#
#
# Elastic Constant Matrix: (Units=GPa)
#
#
# Indices 1 2 3 4 5 6 
#
# 1 71.1412 42.9879 23.6307 11.0852 0.8086 -11.7102
# 2 42.9879 84.7282 26.2072 11.6171 -5.6236 -25.2975
# 3 23.6307 26.2072 86.6104 14.4297 -10.8883 -7.2015
# 4 11.0852 11.6171 14.4297 22.2893 -7.7605 0.2676
# 5 0.8086 -5.6236 -10.8883 -7.7605 28.0043 6.3811
# 6 -11.7102 -25.2975 -7.2015 0.2676 6.3811 25.3776
#
#
#
# Elastic Compliance Matrix: (Units=1/GPa)
#
#
# Indices 1 2 3 4 5 6 
#
# 1 0.021875 -0.009334 -0.002684 -0.006254 -0.005626 0.001509
# 2 -0.009334 0.023911 -0.002099 -0.007492 -0.002284 0.019586
# 3 -0.002684 -0.002099 0.014288 -0.005526 0.003715 -0.000152
# 4 -0.006254 -0.007492 -0.005526 0.061757 0.017510 -0.016976
# 5 -0.005626 -0.002284 0.003715 0.017510 0.045212 -0.015372
# 6 0.001509 0.019586 -0.000152 -0.016976 -0.015372 0.063626
#
#
# Mechanical properties :
#
#
# Convention : Reuss Voigt Hill
#
# Bulk Modulus (GPa) = 31.40646 47.57015 39.48830
# Shear Modulus (GPa) = 18.55176 25.11119 21.83147
#
# Velocity S-wave (km/s) = 3.03780 3.53427 3.29540
# Velocity P-wave (km/s) = 5.28459 6.34962 5.84143
#
# Compressibility (1/GPa) = 0.03184059
#
# Stress axis : x y z
#
# Youngs Moduli (GPa) = 45.71446 41.82223 69.98694
#
# Poissons Ratio (x) = 0.39036 0.18784
# Poissons Ratio (y) = 0.42669 0.14689
# Poissons Ratio (z) = 0.12270 0.08778
#
# Static dielectric constant tensor:
#      x y z
#    x 3.793920 -0.768990 0.022340 
#    y -0.768990 4.010150 -0.058740 
#    z 0.022340 -0.058740 4.071780 
# 
# 
# High freq. dielectric constant tensor:
#      x y z
#    x 1.762920 -0.043110 -0.002670 
#    y -0.043110 1.774960 0.004160 
#    z -0.002670 0.004160 1.798490 
# 
# From -- ./inp_files/446798.got.cif
#   From: 2010.06.25/outbox.cif.g09.slc.cpg/sg2_224_cif.got.tgz:446798.got - 2010.06.27 13:26:56.
