data_PCOD8038136
_publ_section_title
;
Structure prediction by ZEFSAII (Michael W. Deem and Ramdas Pophale) SiO2 
 PCOD8038136
Probable space group: P -1
;
_chemical_formula_sum "Si O2"
_cell_formula_units_Z 16
_cell_length_a 12.000000
_cell_length_b 9.000000
_cell_length_c 15.000000
_cell_angle_alpha 110.000000
_cell_angle_beta 60.000000
_cell_angle_gamma 60.000000
_cell_volume 745.925389
_symmetry_space_group_name_H-M "P -1"
_symmetry_group_IT_number 2
_symmetry_cell_setting 'triclinic'
loop_
_space_group_symop_operation_xyz
x,y,z
-x,-y,-z
loop_
_atom_site_type_symbol
_atom_site_label
_atom_site_fract_x
_atom_site_fract_y
_atom_site_fract_z
Si Si1 0.011934 0.101556 0.433893
Si Si2 0.153156 0.936597 0.680277
Si Si3 0.106591 0.499673 0.036829
Si Si4 0.727333 0.695061 0.728818
Si Si5 0.376440 0.958495 0.300700
Si Si6 0.909338 0.207938 0.158565
Si Si7 0.790447 0.814139 0.908134
Si Si8 0.481372 0.841699 0.433526
O O1 0.942993 0.078325 0.365379
O O2 0.855655 0.405544 0.591543
O O3 0.000000 0.000000 0.500000
O O4 0.271843 0.905228 0.285956
O O5 0.212365 0.765049 0.706225
O O6 0.361968 0.833750 0.543552
O O7 0.986395 0.231876 0.852605
O O8 0.078911 0.431001 0.125082
O O9 0.361032 0.285751 0.869773
O O10 0.000000 0.500000 0.000000
O O11 0.831373 0.696813 0.768932
O O12 0.745483 0.772553 0.644935
O O13 0.473997 0.905749 0.903550
O O14 0.337799 0.000596 0.431700
O O15 0.730398 0.513368 0.249543
O O16 0.110132 0.108609 0.104200
O O17 0.000000 0.000000 0.000000
O O18 0.500000 0.000000 0.500000
#
# Coordination Sequence:
#
# PCOD8038136 Si02
#       8
#     2   2   2   2   2   2   2   2
#     4  12  25  42  67 101 146 175 223 295 348 403
#     4  12  26  44  69 103 141 178 228 290 356 405
#     4  11  23  46  70  99 137 184 237 279 339 424
#     4  10  24  42  71  99 135 182 234 283 335 414
#     4  11  24  44  70  97 133 184 232 279 343 409
#     4  12  27  44  71 103 142 180 229 292 353 410
#     4  10  22  44  70  99 134 185 234 278 341 418
#     4  12  27  45  70 100 138 186 231 283 345 426
#
# _framework density 21.449866
#
# number of rings (size 3 to 8) (size 9 to 14) (size 15 to 20)
#    0.000    0.750    1.250    6.000    5.250    2.500 
#    0.000    0.000    0.000    0.000    0.000    0.000 
#    0.000    0.000    0.000    0.000    0.000    0.000 
#
# Total GULP energy -198214.609550 kJ/mol
# GULP energy per Si atom -12388.413097 kJ/mol
# Density = 2.140105 g / cm^3
# Si number density = 21.449866 Si / 1000 Ang^3
#
#
#
# Elastic Constant Matrix: (Units=GPa)
#
#
# Indices 1 2 3 4 5 6 
#
# 1 224.7532 60.9978 62.2152 3.3510 25.6156 6.8838
# 2 60.9978 148.3233 53.6306 -11.9585 13.3485 -1.8745
# 3 62.2152 53.6306 68.7827 -0.8231 21.3757 3.7276
# 4 3.3510 -11.9585 -0.8231 43.7036 7.0596 4.6574
# 5 25.6156 13.3485 21.3757 7.0596 58.6141 -7.9676
# 6 6.8838 -1.8745 3.7276 4.6574 -7.9676 46.2355
#
#
#
# Elastic Compliance Matrix: (Units=1/GPa)
#
#
# Indices 1 2 3 4 5 6 
#
# 1 0.006055 -0.000826 -0.004550 -0.000574 -0.000818 -0.000651
# 2 -0.000826 0.009803 -0.007090 0.002423 0.000550 0.000943
# 3 -0.004550 -0.007090 0.026336 0.000247 -0.006420 -0.002864
# 4 -0.000574 0.002423 0.000247 0.024512 -0.003744 -0.002951
# 5 -0.000818 0.000550 -0.006420 -0.003744 0.020712 0.004608
# 6 -0.000651 0.000943 -0.002864 -0.002951 0.004608 0.023086
#
#
# Mechanical properties :
#
#
# Convention : Reuss Voigt Hill
#
# Bulk Modulus (GPa) = 57.93030 88.39404 73.16217
# Shear Modulus (GPa) = 35.41385 47.37834 41.39610
#
# Velocity S-wave (km/s) = 4.06767 4.70488 4.39783
# Velocity P-wave (km/s) = 7.00907 8.41508 7.74405
#
# Compressibility (1/GPa) = 0.01726212
#
# Stress axis : x y z
#
# Youngs Moduli (GPa) = 165.16079 102.01216 37.97151
#
# Poissons Ratio (x) = 0.08423 0.17278
# Poissons Ratio (y) = 0.13637 0.26920
# Poissons Ratio (z) = 0.75152 0.72322
#
# Static dielectric constant tensor:
#      x y z
#    x 4.654950 0.002960 0.112040 
#    y 0.002960 4.429520 -0.079540 
#    z 0.112040 -0.079540 4.119160 
# 
# 
# High freq. dielectric constant tensor:
#      x y z
#    x 1.885410 0.004010 0.003730 
#    y 0.004010 1.867590 -0.013600 
#    z 0.003730 -0.013600 1.855910 
# 
# From -- ./inp_files/515914.got.cif
#   From: 2010.06.25/outbox.ucp.g09.slc.cvg/sg2_258_cif.got.tgz:515914.got - 2010.06.28 11:54:26.
