data_PCOD8038399
_publ_section_title
;
Structure prediction by ZEFSAII (Michael W. Deem and Ramdas Pophale) SiO2 
 PCOD8038399
Probable space group: P -1
;
_chemical_formula_sum "Si O2"
_cell_formula_units_Z 12
_cell_length_a 9.089780
_cell_length_b 9.968394
_cell_length_c 8.846023
_cell_angle_alpha 99.172381
_cell_angle_beta 117.936832
_cell_angle_gamma 56.079355
_cell_volume 581.898482
_symmetry_space_group_name_H-M "P -1"
_symmetry_group_IT_number 2
_symmetry_cell_setting 'triclinic'
loop_
_space_group_symop_operation_xyz
x,y,z
-x,-y,-z
loop_
_atom_site_type_symbol
_atom_site_label
_atom_site_fract_x
_atom_site_fract_y
_atom_site_fract_z
Si Si1 0.769446 0.321597 0.798230
Si Si2 0.519417 0.150591 0.056465
Si Si3 0.801186 0.602557 0.823251
Si Si4 0.976167 0.011873 0.313400
Si Si5 0.973014 0.290236 0.212318
Si Si6 0.581211 0.579053 0.163830
O O1 0.749955 0.472250 0.724083
O O2 0.544732 0.368006 0.731628
O O3 0.883051 0.288472 0.006283
O O4 0.886524 0.166184 0.721453
O O5 0.388894 0.253571 0.154514
O O6 0.747082 0.091951 0.175300
O O7 0.436175 0.263465 0.888336
O O8 0.500000 0.000000 0.000000
O O9 0.844848 0.685389 0.720214
O O10 0.000000 0.500000 0.000000
O O11 0.053336 0.120133 0.303686
O O12 0.000000 0.000000 0.500000
O O13 0.814224 0.437635 0.272632
O O14 0.500000 0.500000 0.000000
#
# Coordination Sequence:
#
# PCOD8038399 Si02
#       6
#     2   2   2   2   2   2
#     4  10  19  36  62  86 116 158 209 245 295 356
#     4  12  22  36  64  95 123 153 206 256 295 353
#     4  10  18  34  61  96 117 144 203 266 296 338
#     4  12  26  41  57  90 132 165 195 246 311 365
#     4  10  19  37  64  90 120 153 209 253 293 359
#     4  10  17  35  62  92 115 150 210 258 291 344
#
# _framework density 20.622152
#
# number of rings (size 3 to 8) (size 9 to 14) (size 15 to 20)
#    0.000    1.333    8.333    2.500    2.333    0.000 
#    0.000    5.000    0.000    0.000    0.000    0.000 
#    0.000    0.000    0.000    0.000    0.000    0.000 
#
# Total GULP energy -148755.874346 kJ/mol
# GULP energy per Si atom -12396.322862 kJ/mol
# Density = 2.057522 g / cm^3
# Si number density = 20.622152 Si / 1000 Ang^3
#
#
#
# Elastic Constant Matrix: (Units=GPa)
#
#
# Indices 1 2 3 4 5 6 
#
# 1 174.2549 96.9275 17.2845 10.6874 -32.7504 6.4480
# 2 96.9275 202.7346 30.3494 18.4311 -23.9150 13.5473
# 3 17.2845 30.3494 33.9603 4.1861 -18.7459 2.7300
# 4 10.6874 18.4311 4.1861 10.2350 -3.1912 -18.0136
# 5 -32.7504 -23.9150 -18.7459 -3.1912 19.1428 -0.6347
# 6 6.4480 13.5473 2.7300 -18.0136 -0.6347 61.1409
#
#
#
# Elastic Compliance Matrix: (Units=1/GPa)
#
#
# Indices 1 2 3 4 5 6 
#
# 1 0.012629 -0.003444 0.014825 -0.011158 0.029822 -0.004209
# 2 -0.003444 0.011636 -0.003608 -0.042138 -0.002393 -0.014494
# 3 0.014825 -0.003608 0.084653 -0.041107 0.096383 -0.015654
# 4 -0.011158 -0.042138 -0.041107 0.441747 -0.033633 0.142149
# 5 0.029822 -0.002393 0.096383 -0.033633 0.188555 -0.014870
# 6 -0.004209 -0.014494 -0.015654 0.142149 -0.014870 0.062436
#
#
# Mechanical properties :
#
#
# Convention : Reuss Voigt Hill
#
# Bulk Modulus (GPa) = 8.03437 77.78584 42.91011
# Shear Modulus (GPa) = 6.04159 35.86296 20.95227
#
# Velocity S-wave (km/s) = 1.71348 4.17472 3.19095
# Velocity P-wave (km/s) = 2.79627 7.81275 5.86763
#
# Compressibility (1/GPa) = 0.12446519
#
# Stress axis : x y z
#
# Youngs Moduli (GPa) = 79.18558 85.93856 11.81293
#
# Poissons Ratio (x) = 0.29594 -0.17513
# Poissons Ratio (y) = 0.27268 0.04262
# Poissons Ratio (z) = -1.17393 0.31004
#
# Static dielectric constant tensor:
#      x y z
#    x 4.647270 0.101100 -0.174010 
#    y 0.101100 4.146840 0.008410 
#    z -0.174010 0.008410 3.050080 
# 
# 
# High freq. dielectric constant tensor:
#      x y z
#    x 1.835970 0.002840 -0.018390 
#    y 0.002840 1.828800 0.001270 
#    z -0.018390 0.001270 1.730380 
# 
# From -- ./inp_files/144501.got.cif
#   From: 2010.06.25/outbox.cif.g09.slc.cpg/sg2_73_cif.got.tgz:144501.got - 2010.06.27 13:26:56.
