data_PCOD8038695
_publ_section_title
;
Structure prediction by ZEFSAII (Michael W. Deem and Ramdas Pophale) SiO2 
 PCOD8038695
Probable space group: P -1
;
_chemical_formula_sum "Si O2"
_cell_formula_units_Z 16
_cell_length_a 16.386914
_cell_length_b 10.747668
_cell_length_c 11.569046
_cell_angle_alpha 66.892485
_cell_angle_beta 57.012127
_cell_angle_gamma 31.512403
_cell_volume 881.271833
_symmetry_space_group_name_H-M "P -1"
_symmetry_group_IT_number 2
_symmetry_cell_setting 'triclinic'
loop_
_space_group_symop_operation_xyz
x,y,z
-x,-y,-z
loop_
_atom_site_type_symbol
_atom_site_label
_atom_site_fract_x
_atom_site_fract_y
_atom_site_fract_z
Si Si1 0.245437 0.772839 0.316958
Si Si2 0.688990 0.462173 0.324185
Si Si3 0.589150 0.099497 0.463555
Si Si4 0.766127 0.400582 0.822882
Si Si5 0.095671 0.696038 0.598533
Si Si6 0.159009 0.964014 0.739343
Si Si7 0.334400 0.284348 0.406538
Si Si8 0.380082 0.530798 0.862800
O O1 0.223875 0.740618 0.216029
O O2 0.197530 0.711787 0.466982
O O3 0.437803 0.604304 0.249022
O O4 0.111388 0.051814 0.336776
O O5 0.517980 0.673970 0.456590
O O6 0.835324 0.395512 0.288890
O O7 0.764968 0.219876 0.355500
O O8 0.644315 0.551337 0.192384
O O9 0.770541 0.964330 0.348741
O O10 0.491566 0.179775 0.389064
O O11 0.623515 0.920706 0.571050
O O12 0.696073 0.612266 0.731829
O O13 0.629801 0.528470 0.983993
O O14 0.952579 0.213145 0.803848
O O15 0.158720 0.498414 0.542800
O O16 0.226571 0.820417 0.861114
#
# Coordination Sequence:
#
# PCOD8038695 Si02
#       8
#     2   2   2   2   2   2   2   2
#     4  10  18  29  51  75 105 134 162 222 249 300
#     4   9  19  31  51  78 102 132 163 216 256 301
#     4  10  19  37  55  78 101 134 173 211 265 300
#     4  11  20  35  48  78 108 137 172 204 255 306
#     4   9  17  31  50  78 104 125 168 212 268 290
#     4  10  20  31  54  78 104 134 164 219 258 299
#     4   9  21  35  55  75 106 136 168 213 251 314
#     4  10  21  31  50  78 105 140 170 204 254 306
#
# _framework density 18.155578999999999
#
# number of rings (size 3 to 8) (size 9 to 14) (size 15 to 20)
#    0.750    1.500    1.250    3.375    1.750    0.500 
#    0.000    0.625    0.000    0.000    0.000    6.125 
#    0.000    0.000    0.000    0.000    0.000    0.000 
#
# Total GULP energy -198246.953526 kJ/mol
# GULP energy per Si atom -12390.434595 kJ/mol
# Density = 1.811426 g / cm^3
# Si number density = 18.155579 Si / 1000 Ang^3
#
#
#
# Elastic Constant Matrix: (Units=GPa)
#
#
# Indices 1 2 3 4 5 6 
#
# 1 45.0192 20.9807 29.1761 -3.0508 0.9193 -6.8305
# 2 20.9807 78.3040 25.5604 -4.9150 -10.0080 -18.4897
# 3 29.1761 25.5604 74.2820 -9.5537 4.9115 -9.2164
# 4 -3.0508 -4.9150 -9.5537 22.2163 -4.3060 1.5592
# 5 0.9193 -10.0080 4.9115 -4.3060 17.6576 -1.9022
# 6 -6.8305 -18.4897 -9.2164 1.5592 -1.9022 26.3349
#
#
#
# Elastic Compliance Matrix: (Units=1/GPa)
#
#
# Indices 1 2 3 4 5 6 
#
# 1 0.031536 -0.005160 -0.010614 -0.001814 -0.001970 0.000807
# 2 -0.005160 0.020702 -0.004003 0.004270 0.015521 0.012664
# 3 -0.010614 -0.004003 0.020156 0.005110 -0.005995 0.000755
# 4 -0.001814 0.004270 0.005110 0.050384 0.013629 0.002317
# 5 -0.001970 0.015521 -0.005995 0.013629 0.071889 0.012674
# 6 0.000807 0.012664 0.000755 0.002317 0.012674 0.048116
#
#
# Mechanical properties :
#
#
# Convention : Reuss Voigt Hill
#
# Bulk Modulus (GPa) = 30.45027 38.78220 34.61623
# Shear Modulus (GPa) = 17.04844 21.36762 19.20803
#
# Velocity S-wave (km/s) = 3.06767 3.43434 3.25617
# Velocity P-wave (km/s) = 5.41809 6.09374 5.76582
#
# Compressibility (1/GPa) = 0.03284043
#
# Stress axis : x y z
#
# Youngs Moduli (GPa) = 31.70983 48.30468 49.61396
#
# Poissons Ratio (x) = 0.24925 0.52660
# Poissons Ratio (y) = 0.16362 0.19859
# Poissons Ratio (z) = 0.33656 0.19335
#
# Static dielectric constant tensor:
#      x y z
#    x 3.223030 -0.144230 0.212950 
#    y -0.144230 3.419940 0.036040 
#    z 0.212950 0.036040 3.045900 
# 
# 
# High freq. dielectric constant tensor:
#      x y z
#    x 1.689720 -0.023990 0.019190 
#    y -0.023990 1.700460 0.005360 
#    z 0.019190 0.005360 1.671500 
# 
# From -- ./inp_files/463707.got.cif
#   From: 2010.06.25/outbox.cif.g09.slc.cpg/sg2_232_cif.got.tgz:463707.got - 2010.06.27 13:26:56.
