data_PCOD8038194
_publ_section_title
;
Structure prediction by ZEFSAII (Michael W. Deem and Ramdas Pophale) SiO2 
 PCOD8038194
Probable space group: P -1
;
_chemical_formula_sum "Si O2"
_cell_formula_units_Z 14
_cell_length_a 20.907515
_cell_length_b 14.703580
_cell_length_c 12.184828
_cell_angle_alpha 31.243000
_cell_angle_beta 150.870545
_cell_angle_gamma 156.994368
_cell_volume 686.615940
_symmetry_space_group_name_H-M "P -1"
_symmetry_group_IT_number 2
_symmetry_cell_setting 'triclinic'
loop_
_space_group_symop_operation_xyz
x,y,z
-x,-y,-z
loop_
_atom_site_type_symbol
_atom_site_label
_atom_site_fract_x
_atom_site_fract_y
_atom_site_fract_z
Si Si1 0.600965 0.276830 0.244334
Si Si2 0.111790 0.158055 0.898558
Si Si3 0.477166 0.672449 0.488588
Si Si4 0.544222 0.741472 0.166367
Si Si5 0.375857 0.094417 0.308337
Si Si6 0.197310 0.946032 0.576023
Si Si7 0.676527 0.285930 0.969661
O O1 0.750705 0.561970 0.150091
O O2 0.480477 0.229574 0.213899
O O3 0.690568 0.169186 0.514200
O O4 0.473982 0.142576 0.083704
O O5 0.207202 0.071172 0.085538
O O6 0.986924 0.118393 0.654308
O O7 0.000000 0.000000 0.000000
O O8 0.444857 0.437761 0.684996
O O9 0.484005 0.745055 0.547988
O O10 0.666455 0.882158 0.495163
O O11 0.310404 0.612341 0.235704
O O12 0.724285 0.935345 0.308563
O O13 0.362131 0.599189 0.115772
O O14 0.159128 0.697543 0.774354
O O15 0.500000 0.000000 0.000000
#
# Coordination Sequence:
#
# PCOD8038194 Si02
#       7
#     2   2   2   2   2   2   2
#     4  11  24  42  66  87 119 172 210 241 297 372
#     4  12  24  40  61  97 129 152 197 264 316 351
#     4  10  17  34  58  89 113 161 208 247 293 360
#     4  10  18  33  60  85 115 162 207 244 293 362
#     4  11  23  42  64  87 125 166 211 240 296 379
#     4  10  19  35  54  89 123 150 196 258 311 346
#     4   8  16  29  52  79 117 150 198 244 290 354
#
# _framework density 20.389856000000002
#
# number of rings (size 3 to 8) (size 9 to 14) (size 15 to 20)
#    0.000    2.000    2.857    4.714    0.000    0.571 
#    5.143    0.714    0.000    2.571    0.000    0.000 
#    0.000    0.000    0.000    0.000    0.000    0.000 
#
# Total GULP energy -173482.975535 kJ/mol
# GULP energy per Si atom -12391.641110 kJ/mol
# Density = 2.034345 g / cm^3
# Si number density = 20.389856 Si / 1000 Ang^3
#
#
#
# Elastic Constant Matrix: (Units=GPa)
#
#
# Indices 1 2 3 4 5 6 
#
# 1 115.7425 34.9798 58.7929 15.6666 -7.8934 -12.6686
# 2 34.9798 56.1308 40.7848 1.0052 -1.2489 -3.5144
# 3 58.7929 40.7848 167.3569 16.7239 9.1179 0.6071
# 4 15.6666 1.0052 16.7239 27.6240 -10.4276 -5.5309
# 5 -7.8934 -1.2489 9.1179 -10.4276 45.5405 1.8415
# 6 -12.6686 -3.5144 0.6071 -5.5309 1.8415 20.4590
#
#
#
# Elastic Compliance Matrix: (Units=1/GPa)
#
#
# Indices 1 2 3 4 5 6 
#
# 1 0.013099 -0.005478 -0.003026 -0.003536 0.001668 0.006154
# 2 -0.005478 0.024893 -0.004914 0.006487 0.002097 0.002595
# 3 -0.003026 -0.004914 0.009026 -0.005781 -0.003619 -0.004223
# 4 -0.003536 0.006487 -0.005781 0.047927 0.011250 0.011041
# 5 0.001668 0.002097 -0.003619 0.011250 0.025515 0.002245
# 6 0.006154 0.002595 -0.004223 0.011041 0.002245 0.056043
#
#
# Mechanical properties :
#
#
# Convention : Reuss Voigt Hill
#
# Bulk Modulus (GPa) = 49.55211 67.59392 58.57301
# Shear Modulus (GPa) = 23.80209 32.36954 28.08582
#
# Velocity S-wave (km/s) = 3.42036 3.98871 3.71542
# Velocity P-wave (km/s) = 6.32088 7.37806 6.86984
#
# Compressibility (1/GPa) = 0.02018078
#
# Stress axis : x y z
#
# Youngs Moduli (GPa) = 76.34362 40.17235 110.78893
#
# Poissons Ratio (x) = 0.22007 0.33530
# Poissons Ratio (y) = 0.41822 0.54440
# Poissons Ratio (z) = 0.23105 0.19740
#
# Static dielectric constant tensor:
#      x y z
#    x 3.670010 -0.327710 0.158000 
#    y -0.327710 3.302580 0.002900 
#    z 0.158000 0.002900 4.716460 
# 
# 
# High freq. dielectric constant tensor:
#      x y z
#    x 1.781190 -0.037620 -0.002910 
#    y -0.037620 1.743210 -0.009540 
#    z -0.002910 -0.009540 1.836820 
# 
# From -- ./inp_files/268472.got.cif
#   From: 2010.06.25/outbox.cif.g09.slc.cpg/sg2_135_cif.got.tgz:268472.got - 2010.06.27 13:26:56.
