data_PCOD8038045
_publ_section_title
;
Structure prediction by ZEFSAII (Michael W. Deem and Ramdas Pophale) SiO2 
 PCOD8038045
Probable space group: P -1
;
_chemical_formula_sum "Si O2"
_cell_formula_units_Z 12
_cell_length_a 8.695457
_cell_length_b 11.493122
_cell_length_c 9.779578
_cell_angle_alpha 138.233200
_cell_angle_beta 121.778283
_cell_angle_gamma 87.412967
_cell_volume 436.831730
_symmetry_space_group_name_H-M "P -1"
_symmetry_group_IT_number 2
_symmetry_cell_setting 'triclinic'
loop_
_space_group_symop_operation_xyz
x,y,z
-x,-y,-z
loop_
_atom_site_type_symbol
_atom_site_label
_atom_site_fract_x
_atom_site_fract_y
_atom_site_fract_z
Si Si1 0.744609 0.170513 0.834485
Si Si2 0.407026 0.584936 0.921878
Si Si3 0.152972 0.929429 0.466564
Si Si4 0.722811 0.608506 0.610345
Si Si5 0.193935 0.699552 0.518477
Si Si6 0.724695 0.986751 0.953555
O O1 0.791042 0.411983 0.093340
O O2 0.500000 0.000000 0.500000
O O3 0.915332 0.181205 0.812548
O O4 0.748810 0.065064 0.881154
O O5 0.588324 0.845134 0.198090
O O6 0.500000 0.500000 0.000000
O O7 0.332693 0.453561 0.630592
O O8 0.109131 0.732605 0.366873
O O9 0.000000 0.000000 0.500000
O O10 0.500000 0.500000 0.500000
O O11 0.889174 0.550259 0.696241
O O12 0.846294 0.868611 0.909967
O O13 0.466899 0.827949 0.750889
O O14 0.128363 0.796446 0.692364
#
# Coordination Sequence:
#
# PCOD8038045 Si02
#       6
#     2   2   2   2   2   2
#     4  10  18  35  57  82 114 153 195 240 284 341
#     4  11  21  36  62  89 114 149 207 245 283 349
#     4  11  23  39  58  84 122 161 190 239 307 352
#     4  10  19  29  58  92 112 144 194 251 289 333
#     4  10  18  34  55  87 119 145 197 246 291 344
#     4  10  17  33  59  87 113 145 200 248 286 336
#
# _framework density 27.470533
#
# number of rings (size 3 to 8) (size 9 to 14) (size 15 to 20)
#    0.000    1.667    5.000    4.000    2.333    0.000 
#    0.000    1.667    0.000    2.000    0.000    0.000 
#    0.000    0.000    0.000    0.000    0.000    0.000 
#
# Total GULP energy -148735.515930 kJ/mol
# GULP energy per Si atom -12394.626328 kJ/mol
# Density = 2.740801 g / cm^3
# Si number density = 27.470533 Si / 1000 Ang^3
#
#
#
# Elastic Constant Matrix: (Units=GPa)
#
#
# Indices 1 2 3 4 5 6 
#
# 1 118.9264 67.3026 62.7378 -0.5620 -53.5067 -18.8064
# 2 67.3026 253.4617 90.1916 9.4335 -46.3517 -28.2464
# 3 62.7378 90.1916 180.7918 11.0168 -69.2297 -8.3741
# 4 -0.5620 9.4335 11.0168 58.3313 2.7062 -12.6616
# 5 -53.5067 -46.3517 -69.2297 2.7062 58.2670 7.9341
# 6 -18.8064 -28.2464 -8.3741 -12.6616 7.9341 52.6937
#
#
#
# Elastic Compliance Matrix: (Units=1/GPa)
#
#
# Indices 1 2 3 4 5 6 
#
# 1 0.015354 -0.001585 0.000624 0.000285 0.013184 0.002813
# 2 -0.001585 0.005307 -0.001910 -0.000109 0.000242 0.001913
# 3 0.000624 -0.001910 0.011248 -0.002748 0.012763 -0.001596
# 4 0.000285 -0.000109 -0.002748 0.018952 -0.004631 0.004858
# 5 0.013184 0.000242 0.012763 -0.004631 0.044981 -0.001022
# 6 0.002813 0.001913 -0.001596 0.004858 -0.001022 0.022075
#
#
# Mechanical properties :
#
#
# Convention : Reuss Voigt Hill
#
# Bulk Modulus (GPa) = 38.21461 110.40490 74.30976
# Shear Modulus (GPa) = 37.76940 56.05492 46.91216
#
# Velocity S-wave (km/s) = 3.71200 4.52214 4.13695
# Velocity P-wave (km/s) = 5.68447 8.21851 7.06601
#
# Compressibility (1/GPa) = 0.02616800
#
# Stress axis : x y z
#
# Youngs Moduli (GPa) = 65.12832 188.41831 88.90168
#
# Poissons Ratio (x) = 0.29870 -0.05547
# Poissons Ratio (y) = 0.10325 0.16978
# Poissons Ratio (z) = -0.04064 0.35983
#
# Static dielectric constant tensor:
#      x y z
#    x 7.710740 0.009760 -0.544660 
#    y 0.009760 5.548650 0.425130 
#    z -0.544660 0.425130 5.194520 
# 
# 
# High freq. dielectric constant tensor:
#      x y z
#    x 2.151650 -0.005320 -0.010170 
#    y -0.005320 2.124210 0.010400 
#    z -0.010170 0.010400 2.125110 
# 
# From -- ./inp_files/149590.got.cif
#   From: 2010.06.25/outbox.cif.g09.slc.cpg/sg2_75_cif.got.tgz:149590.got - 2010.06.27 13:26:56.
