data_PCOD8038126
_publ_section_title
;
Structure prediction by ZEFSAII (Michael W. Deem and Ramdas Pophale) SiO2 
 PCOD8038126
Probable space group: P -1
;
_chemical_formula_sum "Si O2"
_cell_formula_units_Z 16
_cell_length_a 9.091901
_cell_length_b 8.487472
_cell_length_c 18.073430
_cell_angle_alpha 123.444981
_cell_angle_beta 52.033974
_cell_angle_gamma 116.406206
_cell_volume 905.548744
_symmetry_space_group_name_H-M "P -1"
_symmetry_group_IT_number 2
_symmetry_cell_setting 'triclinic'
loop_
_space_group_symop_operation_xyz
x,y,z
-x,-y,-z
loop_
_atom_site_type_symbol
_atom_site_label
_atom_site_fract_x
_atom_site_fract_y
_atom_site_fract_z
Si Si1 0.987996 0.518940 0.122793
Si Si2 0.800840 0.706452 0.107947
Si Si3 0.465814 0.988002 0.421187
Si Si4 0.249332 0.889313 0.757292
Si Si5 0.025802 0.492440 0.269308
Si Si6 0.398321 0.584860 0.270330
Si Si7 0.601960 0.382956 0.261311
Si Si8 0.668884 0.633980 0.441071
O O1 0.946108 0.693288 0.128255
O O2 0.787197 0.375814 0.151742
O O3 0.059493 0.585006 0.200364
O O4 0.144167 0.410208 0.009609
O O5 0.585132 0.624408 0.173435
O O6 0.813995 0.927239 0.136769
O O7 0.365255 0.777642 0.373116
O O8 0.500000 0.000000 0.500000
O O9 0.666068 0.046522 0.332730
O O10 0.331733 0.144068 0.484538
O O11 0.416790 0.807572 0.731077
O O12 0.063740 0.730509 0.767825
O O13 0.222067 0.510621 0.254746
O O14 0.877154 0.593192 0.389394
O O15 0.420025 0.410367 0.275609
O O16 0.645422 0.578158 0.347208
O O17 0.500000 0.500000 0.500000
#
# Coordination Sequence:
#
# PCOD8038126 Si02
#       8
#     2   2   2   2   2   2   2   2
#     4   8  17  33  57  77 102 134 171 208 251 300
#     4   9  17  34  58  80  97 134 177 207 243 311
#     4  11  19  32  57  75  95 138 178 211 246 305
#     4   9  19  33  55  75  98 135 177 206 247 306
#     4  10  21  34  50  78 108 135 162 217 261 298
#     4  10  21  33  50  78 108 131 170 213 262 295
#     4   9  17  32  51  73 100 138 170 211 242 304
#     4  10  17  34  55  70  99 136 174 209 250 301
#
# _framework density 17.668845000000001
#
# number of rings (size 3 to 8) (size 9 to 14) (size 15 to 20)
#    0.000    2.750    3.750    0.000    1.750    3.000 
#    0.000    5.000    0.000    7.500    0.000    0.000 
#    0.000    0.000    0.000    0.000    0.000    0.000 
#
# Total GULP energy -198220.979570 kJ/mol
# GULP energy per Si atom -12388.811223 kJ/mol
# Density = 1.762863 g / cm^3
# Si number density = 17.668845 Si / 1000 Ang^3
#
#
#
# Elastic Constant Matrix: (Units=GPa)
#
#
# Indices 1 2 3 4 5 6 
#
# 1 137.6988 47.5033 41.2044 7.6221 -7.4543 -9.8365
# 2 47.5033 86.1442 33.9613 14.9274 -4.5514 -16.1550
# 3 41.2044 33.9613 99.4386 7.6644 -13.4433 -7.3316
# 4 7.6221 14.9274 7.6644 26.1170 -9.8218 -3.4526
# 5 -7.4543 -4.5514 -13.4433 -9.8218 21.9381 -1.2607
# 6 -9.8365 -16.1550 -7.3316 -3.4526 -1.2607 20.6780
#
#
#
# Elastic Compliance Matrix: (Units=1/GPa)
#
#
# Indices 1 2 3 4 5 6 
#
# 1 0.009505 -0.004318 -0.002309 0.000969 0.001386 0.000576
# 2 -0.004318 0.018433 -0.003571 -0.008048 -0.002885 0.009561
# 3 -0.002309 -0.003571 0.013218 0.001863 0.007499 0.001567
# 4 0.000969 -0.008048 0.001863 0.051376 0.023079 0.004819
# 5 0.001386 -0.002885 0.007499 0.023079 0.060879 0.008629
# 6 0.000576 0.009561 0.001567 0.004819 0.008629 0.057990
#
#
# Mechanical properties :
#
#
# Convention : Reuss Voigt Hill
#
# Bulk Modulus (GPa) = 48.16740 63.17995 55.67367
# Shear Modulus (GPa) = 20.94526 27.12079 24.03302
#
# Velocity S-wave (km/s) = 3.44675 3.92209 3.69208
# Velocity P-wave (km/s) = 6.56966 7.50639 7.05359
#
# Compressibility (1/GPa) = 0.02076093
#
# Stress axis : x y z
#
# Youngs Moduli (GPa) = 105.20476 54.25197 75.65209
#
# Poissons Ratio (x) = 0.23426 0.17467
# Poissons Ratio (y) = 0.45428 0.27014
# Poissons Ratio (z) = 0.24290 0.19372
#
# Static dielectric constant tensor:
#      x y z
#    x 3.069060 -0.423140 -0.114340 
#    y -0.423140 3.332860 0.073940 
#    z -0.114340 0.073940 3.532430 
# 
# 
# High freq. dielectric constant tensor:
#      x y z
#    x 1.651420 -0.035450 -0.009450 
#    y -0.035450 1.667890 -0.001210 
#    z -0.009450 -0.001210 1.696010 
# 
# From -- ./inp_files/195862.got.cif
#   From: 2010.06.25/outbox.cif.g09.slc.cpg/sg2_98_cif.got.tgz:195862.got - 2010.06.27 13:26:56.
