data_PCOD8038239
_publ_section_title
;
Structure prediction by ZEFSAII (Michael W. Deem and Ramdas Pophale) SiO2 
 PCOD8038239
Probable space group: P -1
;
_chemical_formula_sum "Si O2"
_cell_formula_units_Z 16
_cell_length_a 15.000000
_cell_length_b 12.000000
_cell_length_c 15.000000
_cell_angle_alpha 30.000000
_cell_angle_beta 140.000000
_cell_angle_gamma 120.000000
_cell_volume 747.221570
_symmetry_space_group_name_H-M "P -1"
_symmetry_group_IT_number 2
_symmetry_cell_setting 'triclinic'
loop_
_space_group_symop_operation_xyz
x,y,z
-x,-y,-z
loop_
_atom_site_type_symbol
_atom_site_label
_atom_site_fract_x
_atom_site_fract_y
_atom_site_fract_z
Si Si1 0.139336 0.669654 0.642640
Si Si2 0.811297 0.367930 0.666544
Si Si3 0.781935 0.574065 0.829968
Si Si4 0.802554 0.886559 0.314705
Si Si5 0.532535 0.437417 0.671614
Si Si6 0.120390 0.106842 0.432564
Si Si7 0.308094 0.160337 0.235731
Si Si8 0.881215 0.123832 0.706407
O O1 0.171067 0.694374 0.546207
O O2 0.948414 0.794078 0.421401
O O3 0.197740 0.832920 0.631817
O O4 0.244239 0.370797 0.960953
O O5 0.785782 0.639349 0.491765
O O6 0.634715 0.410359 0.509734
O O7 0.877698 0.301130 0.662597
O O8 0.941264 0.132806 0.991569
O O9 0.621572 0.573515 0.687684
O O10 0.795930 0.740019 0.646286
O O11 0.775011 0.696113 0.835771
O O12 0.929952 0.279517 0.146478
O O13 0.847160 0.960870 0.391799
O O14 0.637084 0.126454 0.983163
O O15 0.500000 0.500000 0.500000
O O16 0.500000 0.000000 0.500000
O O17 0.248471 0.959805 0.311099
#
# Coordination Sequence:
#
# PCOD8038239 Si02
#       8
#     2   2   2   2   2   2   2   2
#     4  12  23  43  73 100 133 176 227 278 345 405
#     4  11  25  46  66  96 143 183 228 276 328 410
#     4  11  22  41  69 102 138 172 220 286 353 395
#     4  12  23  43  71 101 134 179 229 281 346 404
#     4  12  25  42  65 104 140 179 227 283 340 401
#     4  11  22  40  75 103 131 172 224 292 345 407
#     4  12  25  46  68 100 137 176 229 287 340 400
#     4  11  25  48  69  96 138 187 230 273 331 413
#
# _framework density 21.412658
#
# number of rings (size 3 to 8) (size 9 to 14) (size 15 to 20)
#    0.000    0.500    5.000    3.750    1.750    1.000 
#    6.750    0.000    0.000    0.000    0.000    0.000 
#    0.000    0.000    0.000    0.000    0.000    0.000 
#
# Total GULP energy -198471.978075 kJ/mol
# GULP energy per Si atom -12404.498630 kJ/mol
# Density = 2.136392 g / cm^3
# Si number density = 21.412658 Si / 1000 Ang^3
#
#
#
# Elastic Constant Matrix: (Units=GPa)
#
#
# Indices 1 2 3 4 5 6 
#
# 1 95.3753 15.0199 57.6528 7.5785 -10.4697 5.3579
# 2 15.0199 58.3203 7.1397 13.3668 -5.2132 1.7542
# 3 57.6528 7.1397 146.1194 13.1300 -5.4292 9.6488
# 4 7.5785 13.3668 13.1300 25.0334 2.4104 3.9528
# 5 -10.4697 -5.2132 -5.4292 2.4104 48.1644 10.2643
# 6 5.3579 1.7542 9.6488 3.9528 10.2643 35.2495
#
#
#
# Elastic Compliance Matrix: (Units=1/GPa)
#
#
# Indices 1 2 3 4 5 6 
#
# 1 0.014561 -0.002795 -0.005417 -0.000111 0.002539 -0.001318
# 2 -0.002795 0.020432 0.001194 -0.010856 0.002365 -0.000390
# 3 -0.005417 0.001194 0.009378 -0.003724 0.000523 -0.001538
# 4 -0.000111 -0.010856 -0.003724 0.048513 -0.003436 -0.002863
# 5 0.002539 0.002365 0.000523 -0.003436 0.023303 -0.007047
# 6 -0.001318 -0.000390 -0.001538 -0.002863 -0.007047 0.031383
#
#
# Mechanical properties :
#
#
# Convention : Reuss Voigt Hill
#
# Bulk Modulus (GPa) = 32.96677 51.04887 42.00782
# Shear Modulus (GPa) = 29.11741 36.35630 32.73685
#
# Velocity S-wave (km/s) = 3.69158 4.12501 3.91430
# Velocity P-wave (km/s) = 5.79652 6.82495 6.33165
#
# Compressibility (1/GPa) = 0.03033358
#
# Stress axis : x y z
#
# Youngs Moduli (GPa) = 68.67515 48.94387 106.62705
#
# Poissons Ratio (x) = 0.13680 0.57765
# Poissons Ratio (y) = 0.19195 -0.12726
# Poissons Ratio (z) = 0.37204 -0.05842
#
# Static dielectric constant tensor:
#      x y z
#    x 3.842440 0.091280 -0.045130 
#    y 0.091280 3.877480 0.022580 
#    z -0.045130 0.022580 4.070090 
# 
# 
# High freq. dielectric constant tensor:
#      x y z
#    x 1.842810 0.003140 -0.008650 
#    y 0.003140 1.844140 -0.001720 
#    z -0.008650 -0.001720 1.851630 
# 
# From -- ./inp_files/433476.got.cif
#   From: 2010.06.25/outbox.ucp.g09.slc.cvg/sg2_217_cif.got.tgz:433476.got - 2010.06.28 11:54:26.
