data_PCOD8038312
_publ_section_title
;
Structure prediction by ZEFSAII (Michael W. Deem and Ramdas Pophale) SiO2 
 PCOD8038312
Probable space group: P -1
;
_chemical_formula_sum "Si O2"
_cell_formula_units_Z 16
_cell_length_a 9.789555
_cell_length_b 22.003661
_cell_length_c 9.337833
_cell_angle_alpha 123.117482
_cell_angle_beta 120.144529
_cell_angle_gamma 26.658871
_cell_volume 755.357596
_symmetry_space_group_name_H-M "P -1"
_symmetry_group_IT_number 2
_symmetry_cell_setting 'triclinic'
loop_
_space_group_symop_operation_xyz
x,y,z
-x,-y,-z
loop_
_atom_site_type_symbol
_atom_site_label
_atom_site_fract_x
_atom_site_fract_y
_atom_site_fract_z
Si Si1 0.543475 0.550176 0.983272
Si Si2 0.126295 0.336758 0.841612
Si Si3 0.816431 0.584202 0.281759
Si Si4 0.686140 0.112894 0.560121
Si Si5 0.447740 0.287784 0.199158
Si Si6 0.651507 0.879624 0.518698
Si Si7 0.889478 0.217358 0.166045
Si Si8 0.950637 0.991368 0.120908
O O1 0.808832 0.432548 0.858212
O O2 0.243485 0.680339 0.897773
O O3 0.500000 0.500000 0.000000
O O4 0.615864 0.590828 0.173180
O O5 0.094733 0.420897 0.835553
O O6 0.238587 0.226224 0.664203
O O7 0.341364 0.271940 0.003626
O O8 0.605512 0.724487 0.438723
O O9 0.158986 0.431501 0.327209
O O10 0.599846 0.061631 0.437163
O O11 0.748978 0.112738 0.758133
O O12 0.000000 0.000000 0.500000
O O13 0.631719 0.281062 0.211969
O O14 0.666453 0.150936 0.239675
O O15 0.915741 0.807975 0.662090
O O16 0.500000 0.000000 0.500000
O O17 0.099173 0.075460 0.010231
O O18 0.000000 0.000000 0.000000
#
# Coordination Sequence:
#
# PCOD8038312 Si02
#       8
#     2   2   2   2   2   2   2   2
#     4  11  21  36  60  94 130 166 204 262 315 367
#     4  10  19  38  63  87 122 166 211 252 314 371
#     4  10  18  40  65  85 116 168 218 249 309 380
#     4  11  24  44  64  86 130 171 202 262 335 379
#     4  10  17  34  68  95 112 160 223 261 288 380
#     4  11  23  39  63  94 126 162 209 267 323 377
#     4  11  19  37  63  96 128 156 211 267 307 368
#     4  10  19  37  67  92 116 166 220 252 302 387
#
# _framework density 21.182020000000001
#
# number of rings (size 3 to 8) (size 9 to 14) (size 15 to 20)
#    0.000    1.500    3.750    5.250    0.000    1.500 
#    4.500    1.250    0.000    0.000    0.000    0.000 
#    0.000    0.000    0.000    0.000    0.000    0.000 
#
# Total GULP energy -198242.500811 kJ/mol
# GULP energy per Si atom -12390.156301 kJ/mol
# Density = 2.113381 g / cm^3
# Si number density = 21.182020 Si / 1000 Ang^3
#
#
#
# Elastic Constant Matrix: (Units=GPa)
#
#
# Indices 1 2 3 4 5 6 
#
# 1 146.4528 62.4165 33.2092 7.4610 23.0388 3.0102
# 2 62.4165 141.0240 28.0360 3.0816 13.1509 -3.0905
# 3 33.2092 28.0360 56.9718 -2.1127 27.2246 -4.0929
# 4 7.4610 3.0816 -2.1127 28.9342 -6.0608 -2.4679
# 5 23.0388 13.1509 27.2246 -6.0608 29.2207 5.3369
# 6 3.0102 -3.0905 -4.0929 -2.4679 5.3369 33.3833
#
#
#
# Elastic Compliance Matrix: (Units=1/GPa)
#
#
# Indices 1 2 3 4 5 6 
#
# 1 0.009649 -0.003402 -0.001754 -0.003371 -0.004986 -0.000852
# 2 -0.003402 0.009099 -0.003126 0.000021 0.001405 0.000543
# 3 -0.001754 -0.003126 0.036923 -0.002810 -0.033950 0.009615
# 4 -0.003371 0.000021 -0.002810 0.038010 0.013025 0.000689
# 5 -0.004986 0.001405 -0.033950 0.013025 0.074508 -0.014531
# 6 -0.000852 0.000543 0.009615 0.000689 -0.014531 0.033635
#
#
# Mechanical properties :
#
#
# Convention : Reuss Voigt Hill
#
# Bulk Modulus (GPa) = 25.57090 65.75245 45.66168
# Shear Modulus (GPa) = 21.60532 33.02676 27.31604
#
# Velocity S-wave (km/s) = 3.19718 3.95294 3.59498
# Velocity P-wave (km/s) = 5.07223 7.20717 6.23181
#
# Compressibility (1/GPa) = 0.03910695
#
# Stress axis : x y z
#
# Youngs Moduli (GPa) = 103.63245 109.90659 27.08316
#
# Poissons Ratio (x) = 0.37392 0.04751
# Poissons Ratio (y) = 0.35257 0.08466
# Poissons Ratio (z) = 0.18178 0.34357
#
# Static dielectric constant tensor:
#      x y z
#    x 3.822880 -0.052030 -0.488350 
#    y -0.052030 4.752480 -0.192150 
#    z -0.488350 -0.192150 3.059440 
# 
# 
# High freq. dielectric constant tensor:
#      x y z
#    x 1.815440 0.003370 0.012570 
#    y 0.003370 1.855240 0.002070 
#    z 0.012570 0.002070 1.808340 
# 
# From -- ./inp_files/202102.got.cif
#   From: 2010.06.25/outbox.cif.g09.slc.cpg/sg2_102_cif.got.tgz:202102.got - 2010.06.27 13:26:56.
