data_PCOD8038546
_publ_section_title
;
Structure prediction by ZEFSAII (Michael W. Deem and Ramdas Pophale) SiO2 
 PCOD8038546
Probable space group: P -1
;
_chemical_formula_sum "Si O2"
_cell_formula_units_Z 16
_cell_length_a 9.074472
_cell_length_b 11.013209
_cell_length_c 10.871787
_cell_angle_alpha 116.034410
_cell_angle_beta 88.019636
_cell_angle_gamma 129.509192
_cell_volume 704.737178
_symmetry_space_group_name_H-M "P -1"
_symmetry_group_IT_number 2
_symmetry_cell_setting 'triclinic'
loop_
_space_group_symop_operation_xyz
x,y,z
-x,-y,-z
loop_
_atom_site_type_symbol
_atom_site_label
_atom_site_fract_x
_atom_site_fract_y
_atom_site_fract_z
Si Si1 0.198465 0.875731 0.995873
Si Si2 0.483059 0.762571 0.186930
Si Si3 0.637442 0.506510 0.265520
Si Si4 0.835846 0.646063 0.061018
Si Si5 0.239522 0.129490 0.543513
Si Si6 0.560615 0.987284 0.624857
Si Si7 0.738144 0.834658 0.004225
Si Si8 0.356515 0.773080 0.760763
O O1 0.197989 0.760910 0.839377
O O2 0.107794 0.961169 0.977745
O O3 0.058293 0.734904 0.050265
O O4 0.416835 0.054454 0.120228
O O5 0.658856 0.854852 0.325239
O O6 0.582134 0.837023 0.081812
O O7 0.354150 0.820651 0.229634
O O8 0.333166 0.539745 0.096953
O O9 0.793296 0.606227 0.188665
O O10 0.662745 0.664172 0.407488
O O11 0.703762 0.422593 0.311250
O O12 0.399760 0.342016 0.162824
O O13 0.833759 0.802177 0.092590
O O14 0.282534 0.039970 0.399820
O O15 0.000000 0.000000 0.500000
O O16 0.361093 0.813574 0.633286
O O17 0.500000 0.000000 0.500000
#
# Coordination Sequence:
#
# PCOD8038546 Si02
#       8
#     2   2   2   2   2   2   2   2
#     4  10  22  34  60  97 127 157 195 255 327 362
#     4  10  19  40  65  87 122 158 213 248 310 361
#     4  10  21  37  61  90 125 156 201 255 315 364
#     4  11  20  34  65  97 121 159 197 262 314 373
#     4  11  23  39  63  91 119 167 210 252 299 364
#     4  10  23  41  67  83 118 176 212 245 297 375
#     4  10  17  37  63  88 124 157 192 263 307 367
#     4  10  22  41  58  89 130 160 200 259 309 374
#
# _framework density 22.703499000000001
#
# number of rings (size 3 to 8) (size 9 to 14) (size 15 to 20)
#    0.000    1.750    3.750    1.125    3.500    2.000 
#    0.000    0.000    5.500    4.500    0.000    0.000 
#    0.000    0.000    0.000    0.000    0.000    0.000 
#
# Total GULP energy -198232.825484 kJ/mol
# GULP energy per Si atom -12389.551593 kJ/mol
# Density = 2.265182 g / cm^3
# Si number density = 22.703499 Si / 1000 Ang^3
#
#
#
# Elastic Constant Matrix: (Units=GPa)
#
#
# Indices 1 2 3 4 5 6 
#
# 1 83.9765 28.8341 31.9650 3.7617 -24.6627 -19.6769
# 2 28.8341 113.2779 19.7375 -18.4714 -6.2106 -21.4614
# 3 31.9650 19.7375 62.6445 3.9893 -23.1451 -10.6607
# 4 3.7617 -18.4714 3.9893 35.3132 -4.3117 -3.6261
# 5 -24.6627 -6.2106 -23.1451 -4.3117 36.6039 2.4020
# 6 -19.6769 -21.4614 -10.6607 -3.6261 2.4020 43.0979
#
#
#
# Elastic Compliance Matrix: (Units=1/GPa)
#
#
# Indices 1 2 3 4 5 6 
#
# 1 0.018316 -0.002606 -0.004325 -0.001212 0.008666 0.005410
# 2 -0.002606 0.011948 -0.002316 0.007204 -0.000661 0.004830
# 3 -0.004325 -0.002316 0.023477 -0.001841 0.011196 0.001900
# 4 -0.001212 0.007204 -0.001841 0.033304 0.002822 0.005224
# 5 0.008666 -0.000661 0.011196 0.002822 0.040170 0.004395
# 6 0.005410 0.004830 0.001900 0.005224 0.004395 0.028743
#
#
# Mechanical properties :
#
#
# Convention : Reuss Voigt Hill
#
# Bulk Modulus (GPa) = 28.37127 46.77467 37.57297
# Shear Modulus (GPa) = 26.85247 34.96049 30.90648
#
# Velocity S-wave (km/s) = 3.44284 3.92838 3.69359
# Velocity P-wave (km/s) = 5.32238 6.42054 5.89708
#
# Compressibility (1/GPa) = 0.03524692
#
# Stress axis : x y z
#
# Youngs Moduli (GPa) = 54.59590 83.69329 42.59487
#
# Poissons Ratio (x) = 0.21813 0.18423
# Poissons Ratio (y) = 0.14229 0.09865
# Poissons Ratio (z) = 0.23614 0.19383
#
# Static dielectric constant tensor:
#      x y z
#    x 4.291020 -0.286530 -0.551430 
#    y -0.286530 4.367080 -0.152230 
#    z -0.551430 -0.152230 4.265580 
# 
# 
# High freq. dielectric constant tensor:
#      x y z
#    x 1.895590 -0.023920 -0.029960 
#    y -0.023920 1.899230 -0.009690 
#    z -0.029960 -0.009690 1.870830 
# 
# From -- ./inp_files/392826.got.cif
#   From: 2010.06.25/outbox.cif.g09.slc.cpg/sg2_197_cif.got.tgz:392826.got - 2010.06.27 13:26:56.
