data_PCOD8038508
_publ_section_title
;
Structure prediction by ZEFSAII (Michael W. Deem and Ramdas Pophale) SiO2 
 PCOD8038508
Probable space group: P -1
;
_chemical_formula_sum "Si O2"
_cell_formula_units_Z 16
_cell_length_a 11.972754
_cell_length_b 10.008552
_cell_length_c 12.475544
_cell_angle_alpha 96.914953
_cell_angle_beta 45.328932
_cell_angle_gamma 62.705573
_cell_volume 674.114352
_symmetry_space_group_name_H-M "P -1"
_symmetry_group_IT_number 2
_symmetry_cell_setting 'triclinic'
loop_
_space_group_symop_operation_xyz
x,y,z
-x,-y,-z
loop_
_atom_site_type_symbol
_atom_site_label
_atom_site_fract_x
_atom_site_fract_y
_atom_site_fract_z
Si Si1 0.146395 0.649615 0.727367
Si Si2 0.240735 0.620997 0.224713
Si Si3 0.257520 0.051125 0.502670
Si Si4 0.743341 0.093576 0.726322
Si Si5 0.623071 0.035770 0.193905
Si Si6 0.642596 0.204458 0.394299
Si Si7 0.591916 0.796508 0.875068
Si Si8 0.050838 0.645236 0.558784
O O1 0.364305 0.438955 0.629326
O O2 0.171033 0.794404 0.719279
O O3 0.181560 0.563690 0.576864
O O4 0.880735 0.789847 0.970110
O O5 0.130158 0.841346 0.360909
O O6 0.250866 0.513269 0.311554
O O7 0.500000 0.500000 0.000000
O O8 0.030634 0.712228 0.291485
O O9 0.341441 0.903937 0.331769
O O10 0.284635 0.956910 0.586218
O O11 0.434933 0.062506 0.385593
O O12 0.488853 0.268421 0.990193
O O13 0.896424 0.884267 0.671249
O O14 0.674960 0.126679 0.245339
O O15 0.503584 0.167835 0.177485
O O16 0.887287 0.618716 0.657645
O O17 0.500000 0.000000 0.000000
#
# Coordination Sequence:
#
# PCOD8038508 Si02
#       8
#     2   2   2   2   2   2   2   2
#     4  11  23  46  69  96 132 175 230 271 324 393
#     4  11  23  38  60 100 131 167 214 271 332 390
#     4  11  22  45  64  92 136 173 217 269 329 401
#     4  10  18  36  68  88 121 168 205 261 338 380
#     4  12  22  44  70  96 135 175 223 271 330 394
#     4  11  27  43  65  98 135 181 223 268 323 393
#     4  10  17  36  67  97 119 163 208 269 341 376
#     4  10  18  40  66  90 127 163 212 269 332 385
#
# _framework density 23.734846999999998
#
# number of rings (size 3 to 8) (size 9 to 14) (size 15 to 20)
#    0.000    1.250    6.250    3.750    0.000    1.500 
#   11.250    1.250    0.000    0.000    0.000    0.000 
#    0.000    0.000    0.000    0.000    0.000    0.000 
#
# Total GULP energy -198397.369791 kJ/mol
# GULP energy per Si atom -12399.835612 kJ/mol
# Density = 2.368083 g / cm^3
# Si number density = 23.734847 Si / 1000 Ang^3
#
#
#
# Elastic Constant Matrix: (Units=GPa)
#
#
# Indices 1 2 3 4 5 6 
#
# 1 98.6278 22.9221 48.9496 -6.9631 0.5088 -18.1055
# 2 22.9221 111.6942 28.9550 -16.4786 -14.2326 -8.2614
# 3 48.9496 28.9550 131.3284 -15.1303 -20.3757 -7.2077
# 4 -6.9631 -16.4786 -15.1303 30.3288 -0.7721 -3.3512
# 5 0.5088 -14.2326 -20.3757 -0.7721 47.4647 -5.9288
# 6 -18.1055 -8.2614 -7.2077 -3.3512 -5.9288 35.2477
#
#
#
# Elastic Compliance Matrix: (Units=1/GPa)
#
#
# Indices 1 2 3 4 5 6 
#
# 1 0.013919 -0.001346 -0.004807 0.000635 -0.001908 0.005591
# 2 -0.001346 0.010874 -0.000533 0.005741 0.003500 0.002882
# 3 -0.004807 -0.000533 0.010777 0.004190 0.004686 0.000796
# 4 0.000635 0.005741 0.004190 0.039241 0.005039 0.007107
# 5 -0.001908 0.003500 0.004686 0.005039 0.024915 0.005468
# 6 0.005591 0.002882 0.000796 0.007107 0.005468 0.033676
#
#
# Mechanical properties :
#
#
# Convention : Reuss Voigt Hill
#
# Bulk Modulus (GPa) = 45.05150 60.36710 52.70930
# Shear Modulus (GPa) = 32.43111 38.66315 35.54713
#
# Velocity S-wave (km/s) = 3.70048 4.04042 3.87418
# Velocity P-wave (km/s) = 6.10577 6.87429 6.50140
#
# Compressibility (1/GPa) = 0.02219682
#
# Stress axis : x y z
#
# Youngs Moduli (GPa) = 71.84559 91.96648 92.78805
#
# Poissons Ratio (x) = 0.12380 0.44604
# Poissons Ratio (y) = 0.09672 0.04947
# Poissons Ratio (z) = 0.34537 0.04903
#
# Static dielectric constant tensor:
#      x y z
#    x 4.617400 0.730400 0.256990 
#    y 0.730400 4.966480 0.542360 
#    z 0.256990 0.542360 5.952440 
# 
# 
# High freq. dielectric constant tensor:
#      x y z
#    x 1.945960 0.025630 -0.001880 
#    y 0.025630 1.944360 0.007770 
#    z -0.001880 0.007770 1.977370 
# 
# From -- ./inp_files/428337.got.cif
#   From: 2010.06.25/outbox.cif.g09.slc.cpg/sg2_215_cif.got.tgz:428337.got - 2010.06.27 13:26:56.
