data_PCOD8038318
_publ_section_title
;
Structure prediction by ZEFSAII (Michael W. Deem and Ramdas Pophale) SiO2 
 PCOD8038318
Probable space group: P -1
;
_chemical_formula_sum "Si O2"
_cell_formula_units_Z 16
_cell_length_a 13.112349
_cell_length_b 19.193574
_cell_length_c 9.593570
_cell_angle_alpha 113.924146
_cell_angle_beta 95.306214
_cell_angle_gamma 143.661619
_cell_volume 828.317569
_symmetry_space_group_name_H-M "P -1"
_symmetry_group_IT_number 2
_symmetry_cell_setting 'triclinic'
loop_
_space_group_symop_operation_xyz
x,y,z
-x,-y,-z
loop_
_atom_site_type_symbol
_atom_site_label
_atom_site_fract_x
_atom_site_fract_y
_atom_site_fract_z
Si Si1 0.676967 0.364486 0.219107
Si Si2 0.682683 0.411652 0.556286
Si Si3 0.261464 0.173569 0.844981
Si Si4 0.259888 0.761831 0.927609
Si Si5 0.639842 0.741472 0.383912
Si Si6 0.796608 0.189730 0.312650
Si Si7 0.163527 0.330060 0.345133
Si Si8 0.395273 0.422086 0.197110
O O1 0.642230 0.325489 0.351054
O O2 0.725280 0.317972 0.111183
O O3 0.935610 0.596717 0.398968
O O4 0.409198 0.220773 0.011401
O O5 0.460246 0.258515 0.526573
O O6 0.658583 0.475820 0.527519
O O7 0.977057 0.599922 0.820317
O O8 0.382058 0.242309 0.762406
O O9 0.294818 0.286001 0.973633
O O10 0.947977 0.933190 0.616649
O O11 0.276110 0.793341 0.791094
O O12 0.532270 0.989528 0.213585
O O13 0.443713 0.532659 0.204572
O O14 0.869387 0.159273 0.217494
O O15 0.160034 0.270404 0.163565
O O16 0.316507 0.398248 0.549895
#
# Coordination Sequence:
#
# PCOD8038318 Si02
#       8
#     2   2   2   2   2   2   2   2
#     4  10  19  32  54  79 104 130 175 215 256 306
#     4   9  17  37  51  77 108 131 171 220 256 304
#     4  11  22  37  51  79 105 140 181 209 257 317
#     4   9  18  30  54  76 104 137 164 210 270 302
#     4  10  24  36  53  73 107 145 175 213 260 310
#     4   9  16  31  48  80 107 129 163 213 261 310
#     4   8  16  28  52  81 104 124 170 216 252 306
#     4  10  17  35  52  73 106 138 168 214 259 302
#
# _framework density 19.316262999999999
#
# number of rings (size 3 to 8) (size 9 to 14) (size 15 to 20)
#    0.000    2.750    2.500    1.875    1.750    1.500 
#    0.000    3.125    0.000    0.750    0.000    0.000 
#    0.000    0.000    0.000    0.000    0.000    0.000 
#
# Total GULP energy -198219.509213 kJ/mol
# GULP energy per Si atom -12388.719326 kJ/mol
# Density = 1.927230 g / cm^3
# Si number density = 19.316263 Si / 1000 Ang^3
#
#
#
# Elastic Constant Matrix: (Units=GPa)
#
#
# Indices 1 2 3 4 5 6 
#
# 1 74.2416 21.8399 15.4849 5.8620 7.5510 0.5747
# 2 21.8399 63.8795 22.5246 3.2197 1.5924 16.6006
# 3 15.4849 22.5246 59.7033 4.8333 3.9353 7.4924
# 4 5.8620 3.2197 4.8333 13.6989 4.6187 -1.6331
# 5 7.5510 1.5924 3.9353 4.6187 22.2449 5.5435
# 6 0.5747 16.6006 7.4924 -1.6331 5.5435 15.8729
#
#
#
# Elastic Compliance Matrix: (Units=1/GPa)
#
#
# Indices 1 2 3 4 5 6 
#
# 1 0.016907 -0.007546 -0.002347 -0.000877 -0.007305 0.010848
# 2 -0.007546 0.028461 -0.004722 -0.009459 0.011348 -0.032200
# 3 -0.002347 -0.004722 0.020237 -0.005634 -0.000003 -0.005108
# 4 -0.000877 -0.009459 -0.005634 0.089307 -0.024094 0.030187
# 5 -0.007305 0.011348 -0.000003 -0.024094 0.060389 -0.035172
# 6 0.010848 -0.032200 -0.005108 0.030187 -0.035172 0.114084
#
#
# Mechanical properties :
#
#
# Convention : Reuss Voigt Hill
#
# Bulk Modulus (GPa) = 27.49096 35.28037 31.38567
# Shear Modulus (GPa) = 13.48653 19.56168 16.52411
#
# Velocity S-wave (km/s) = 2.64521 3.18576 2.92798
# Velocity P-wave (km/s) = 4.85720 5.64237 5.26444
#
# Compressibility (1/GPa) = 0.03637559
#
# Stress axis : x y z
#
# Youngs Moduli (GPa) = 59.14676 35.13562 49.41453
#
# Poissons Ratio (x) = 0.26512 0.11599
# Poissons Ratio (y) = 0.44630 0.23333
# Poissons Ratio (z) = 0.13883 0.16591
#
# Static dielectric constant tensor:
#      x y z
#    x 3.633400 0.235010 0.024890 
#    y 0.235010 3.375860 0.205760 
#    z 0.024890 0.205760 3.380960 
# 
# 
# High freq. dielectric constant tensor:
#      x y z
#    x 1.757340 0.005520 0.011520 
#    y 0.005520 1.717590 0.022090 
#    z 0.011520 0.022090 1.725960 
# 
# From -- ./inp_files/278162.got.cif
#   From: 2010.06.25/outbox.cif.g09.slc.cpg/sg2_140_cif.got.tgz:278162.got - 2010.06.27 13:26:56.
