data_PCOD8038934
_publ_section_title
;
Structure prediction by ZEFSAII (Michael W. Deem and Ramdas Pophale) SiO2 
 PCOD8038934
Probable space group: P -1
;
_chemical_formula_sum "Si O2"
_cell_formula_units_Z 16
_cell_length_a 13.308396
_cell_length_b 10.838084
_cell_length_c 19.762322
_cell_angle_alpha 42.336062
_cell_angle_beta 149.078284
_cell_angle_gamma 145.387195
_cell_volume 826.633804
_symmetry_space_group_name_H-M "P -1"
_symmetry_group_IT_number 2
_symmetry_cell_setting 'triclinic'
loop_
_space_group_symop_operation_xyz
x,y,z
-x,-y,-z
loop_
_atom_site_type_symbol
_atom_site_label
_atom_site_fract_x
_atom_site_fract_y
_atom_site_fract_z
Si Si1 0.444405 0.164860 0.271977
Si Si2 0.465229 0.698819 0.136940
Si Si3 0.545654 0.318351 0.122869
Si Si4 0.510762 0.860318 0.503352
Si Si5 0.613430 0.963202 0.984900
Si Si6 0.152263 0.366400 0.636757
Si Si7 0.839821 0.804625 0.799272
Si Si8 0.987865 0.459458 0.625151
O O1 0.402855 0.205058 0.154890
O O2 0.628500 0.385147 0.328383
O O3 0.204271 0.075639 0.212073
O O4 0.531513 0.995982 0.392690
O O5 0.732492 0.761352 0.271628
O O6 0.263808 0.447237 0.137348
O O7 0.452748 0.768894 0.024182
O O8 0.435358 0.846218 0.113430
O O9 0.820136 0.432617 0.249453
O O10 0.500000 0.500000 0.000000
O O11 0.464187 0.132741 0.095622
O O12 0.713457 0.814696 0.652675
O O13 0.259663 0.634234 0.445293
O O14 0.500000 0.000000 0.500000
O O15 0.888153 0.068330 0.111428
O O16 0.020058 0.289178 0.665509
O O17 0.973964 0.355597 0.482189
#
# Coordination Sequence:
#
# PCOD8038934 Si02
#       8
#     2   2   2   2   2   2   2   2
#     4   9  19  33  53  88 113 139 187 231 291 345
#     4  10  21  41  60  87 107 151 209 239 273 339
#     4  11  24  37  53  83 123 155 180 229 299 355
#     4  10  18  31  55  91 110 137 192 236 293 328
#     4  11  24  38  60  83 117 159 193 231 289 345
#     4   9  17  32  59  80 108 142 190 246 277 317
#     4  10  20  37  63  87 114 145 192 254 281 326
#     4  10  18  32  56  83 113 145 176 239 289 333
#
# _framework density 19.355608
#
# number of rings (size 3 to 8) (size 9 to 14) (size 15 to 20)
#    0.000    2.000    3.750    2.625    7.000    0.500 
#    2.250    0.625    0.000    0.750    0.000    0.000 
#    0.000    0.000    0.000    0.000    0.000    0.000 
#
# Total GULP energy -198216.359959 kJ/mol
# GULP energy per Si atom -12388.522497 kJ/mol
# Density = 1.931155 g / cm^3
# Si number density = 19.355608 Si / 1000 Ang^3
#
#
#
# Elastic Constant Matrix: (Units=GPa)
#
#
# Indices 1 2 3 4 5 6 
#
# 1 86.6082 38.5145 56.7921 -2.6900 4.7371 -4.3065
# 2 38.5145 65.8207 47.9829 -1.4445 -4.5566 1.2743
# 3 56.7921 47.9829 132.9164 0.0411 3.8767 -10.0000
# 4 -2.6900 -1.4445 0.0411 32.4306 9.2994 0.9524
# 5 4.7371 -4.5566 3.8767 9.2994 31.8177 -2.7427
# 6 -4.3065 1.2743 -10.0000 0.9524 -2.7427 26.6069
#
#
#
# Elastic Compliance Matrix: (Units=1/GPa)
#
#
# Indices 1 2 3 4 5 6 
#
# 1 0.018446 -0.007343 -0.005049 0.002259 -0.003759 0.000971
# 2 -0.007343 0.024374 -0.006122 -0.000898 0.005240 -0.004084
# 3 -0.005049 -0.006122 0.012223 -0.000501 -0.001125 0.003972
# 4 0.002259 -0.000898 -0.000501 0.034067 -0.010540 -0.002086
# 5 -0.003759 0.005240 -0.001125 -0.010540 0.036201 0.002827
# 6 0.000971 -0.004084 0.003972 -0.002086 0.002827 0.039796
#
#
# Mechanical properties :
#
#
# Convention : Reuss Voigt Hill
#
# Bulk Modulus (GPa) = 55.50430 63.54713 59.52572
# Shear Modulus (GPa) = 24.02257 27.64141 25.83199
#
# Velocity S-wave (km/s) = 3.52677 3.78310 3.65718
# Velocity P-wave (km/s) = 6.73220 7.21007 6.97523
#
# Compressibility (1/GPa) = 0.01801662
#
# Stress axis : x y z
#
# Youngs Moduli (GPa) = 54.21126 41.02754 81.81624
#
# Poissons Ratio (x) = 0.30124 0.41309
# Poissons Ratio (y) = 0.39805 0.50084
# Poissons Ratio (z) = 0.27371 0.25115
#
# Static dielectric constant tensor:
#      x y z
#    x 3.524540 0.406690 0.113320 
#    y 0.406690 3.666280 -0.323250 
#    z 0.113320 -0.323250 3.868460 
# 
# 
# High freq. dielectric constant tensor:
#      x y z
#    x 1.720350 0.038410 0.012580 
#    y 0.038410 1.739750 -0.017810 
#    z 0.012580 -0.017810 1.761680 
# 
# From -- ./inp_files/597821.got.cif
#   From: 2010.06.25/outbox.cif.g09.slc.cpg/sg2_299_cif.got.tgz:597821.got - 2010.06.27 13:26:56.
