data_PCOD8038707
_publ_section_title
;
Structure prediction by ZEFSAII (Michael W. Deem and Ramdas Pophale) SiO2 
 PCOD8038707
Probable space group: P -1
;
_chemical_formula_sum "Si O2"
_cell_formula_units_Z 16
_cell_length_a 11.426555
_cell_length_b 23.170249
_cell_length_c 11.491334
_cell_angle_alpha 42.068397
_cell_angle_beta 44.754465
_cell_angle_gamma 21.510559
_cell_volume 745.092453
_symmetry_space_group_name_H-M "P -1"
_symmetry_group_IT_number 2
_symmetry_cell_setting 'triclinic'
loop_
_space_group_symop_operation_xyz
x,y,z
-x,-y,-z
loop_
_atom_site_type_symbol
_atom_site_label
_atom_site_fract_x
_atom_site_fract_y
_atom_site_fract_z
Si Si1 0.624066 0.813844 0.513730
Si Si2 0.156911 0.177693 0.258833
Si Si3 0.745641 0.185691 0.130044
Si Si4 0.489447 0.823673 0.107463
Si Si5 0.762840 0.185298 0.867530
Si Si6 0.492716 0.805780 0.384875
Si Si7 0.843684 0.200467 0.275013
Si Si8 0.130071 0.682651 0.501547
O O1 0.440122 0.818943 0.700941
O O2 0.723653 0.738919 0.424801
O O3 0.942107 0.698576 0.529931
O O4 0.387268 0.999120 0.401079
O O5 0.909947 0.259857 0.207299
O O6 0.962236 0.293209 0.336166
O O7 0.369158 0.161188 0.087472
O O8 0.703331 0.274815 0.130955
O O9 0.617079 0.277981 0.958037
O O10 0.118984 0.000786 0.131665
O O11 0.516565 0.724611 0.157827
O O12 0.662780 0.738411 0.238900
O O13 0.945561 0.185553 0.681470
O O14 0.000000 0.000000 0.000000
O O15 0.408374 0.742915 0.556485
O O16 0.173356 0.003186 0.325220
O O17 0.500000 0.500000 0.500000
#
# Coordination Sequence:
#
# PCOD8038707 Si02
#       8
#     2   2   2   2   2   2   2   2
#     4  10  19  35  59  83 111 151 197 234 278 343
#     4  11  20  33  57  84 112 151 197 235 278 341
#     4   9  17  31  54  87 117 142 183 240 287 325
#     4  10  18  29  52  88 118 142 184 240 285 325
#     4  10  19  35  59  81 109 149 191 231 273 330
#     4   8  15  28  49  81 116 145 181 236 287 326
#     4   8  15  28  50  82 116 144 180 235 286 327
#     4  12  26  41  57  82 119 153 188 241 296 340
#
# _framework density 21.473846999999999
#
# number of rings (size 3 to 8) (size 9 to 14) (size 15 to 20)
#    0.000    2.250    0.000    7.125    0.000    5.500 
#    0.000    2.500    0.000    9.750    0.000    0.000 
#    0.000    0.000    0.000    0.000    0.000    0.000 
#
# Total GULP energy -198251.079375 kJ/mol
# GULP energy per Si atom -12390.692461 kJ/mol
# Density = 2.142497 g / cm^3
# Si number density = 21.473847 Si / 1000 Ang^3
#
#
#
# Elastic Constant Matrix: (Units=GPa)
#
#
# Indices 1 2 3 4 5 6 
#
# 1 200.5063 34.2550 63.7601 16.2678 26.7107 -39.1709
# 2 34.2550 50.9555 15.7295 9.2159 1.3461 -16.0508
# 3 63.7601 15.7295 77.9509 6.6557 12.4153 -27.4182
# 4 16.2678 9.2159 6.6557 4.9912 -1.4246 -17.6329
# 5 26.7107 1.3461 12.4153 -1.4246 45.8417 7.1606
# 6 -39.1709 -16.0508 -27.4182 -17.6329 7.1606 4.9822
#
#
#
# Elastic Compliance Matrix: (Units=1/GPa)
#
#
# Indices 1 2 3 4 5 6 
#
# 1 0.008678 -0.001325 -0.004105 -0.012891 -0.004696 0.002494
# 2 -0.001325 0.026368 0.000270 -0.020210 -0.001810 0.007086
# 3 -0.004105 0.000270 0.017348 -0.019842 -0.002539 -0.002509
# 4 -0.012891 -0.020210 -0.019842 0.069058 0.026441 -0.069246
# 5 -0.004696 -0.001810 -0.002539 0.026441 0.026249 -0.000873
# 6 0.002494 0.007086 -0.002509 -0.069246 -0.000873 -0.014473
#
#
# Mechanical properties :
#
#
# Convention : Reuss Voigt Hill
#
# Bulk Modulus (GPa) = 23.76866 61.87799 42.82332
# Shear Modulus (GPa) = 31.73147 25.54090 28.63619
#
# Velocity S-wave (km/s) = 3.84823 3.45250 3.65573
# Velocity P-wave (km/s) = 5.55318 6.69112 6.14853
#
# Compressibility (1/GPa) = 0.04207220
#
# Stress axis : x y z
#
# Youngs Moduli (GPa) = 115.23603 37.92520 57.64508
#
# Poissons Ratio (x) = 0.05027 0.23661
# Poissons Ratio (y) = 0.15273 -0.01554
# Poissons Ratio (z) = 0.47300 -0.01022
#
# Static dielectric constant tensor:
#      x y z
#    x 5.958610 0.151460 1.287250 
#    y 0.151460 3.351320 0.490410 
#    z 1.287250 0.490410 4.714870 
# 
# 
# High freq. dielectric constant tensor:
#      x y z
#    x 1.875860 -0.016200 0.018820 
#    y -0.016200 1.768870 0.023080 
#    z 0.018820 0.023080 1.845510 
# 
# From -- ./inp_files/439570.got.cif
#   From: 2010.06.25/outbox.cif.g09.slc.cpg/sg2_220_cif.got.tgz:439570.got - 2010.06.27 13:26:56.
