data_PCOD8038688
_publ_section_title
;
Structure prediction by ZEFSAII (Michael W. Deem and Ramdas Pophale) SiO2 
 PCOD8038688
Probable space group: P -1
;
_chemical_formula_sum "Si O2"
_cell_formula_units_Z 14
_cell_length_a 15.399145
_cell_length_b 12.399523
_cell_length_c 20.923165
_cell_angle_alpha 38.925815
_cell_angle_beta 19.316905
_cell_angle_gamma 36.951849
_cell_volume 788.729583
_symmetry_space_group_name_H-M "P -1"
_symmetry_group_IT_number 2
_symmetry_cell_setting 'triclinic'
loop_
_space_group_symop_operation_xyz
x,y,z
-x,-y,-z
loop_
_atom_site_type_symbol
_atom_site_label
_atom_site_fract_x
_atom_site_fract_y
_atom_site_fract_z
Si Si1 0.678789 0.588407 0.192312
Si Si2 0.303318 0.478419 0.053277
Si Si3 0.399551 0.554660 0.814280
Si Si4 0.772748 0.808017 0.131420
Si Si5 0.319544 0.371967 0.596767
Si Si6 0.303650 0.195415 0.560306
Si Si7 0.706535 0.218469 0.984158
O O1 0.550257 0.599554 0.205173
O O2 0.635353 0.777327 0.173103
O O3 0.554317 0.466976 0.380804
O O4 0.000000 0.500000 0.000000
O O5 0.325600 0.664121 0.982990
O O6 0.986638 0.482660 0.263442
O O7 0.448344 0.454512 0.894336
O O8 0.453817 0.307202 0.071145
O O9 0.627414 0.654905 0.600216
O O10 0.100288 0.706604 0.948820
O O11 0.634396 0.726399 0.321659
O O12 0.706927 0.018846 0.093681
O O13 0.349575 0.222383 0.590633
O O14 0.988961 0.211121 0.755653
O O15 0.500000 0.000000 0.500000
#
# Coordination Sequence:
#
# PCOD8038688 Si02
#       7
#     2   2   2   2   2   2   2
#     4   9  18  33  52  77 100 125 164 210 251 286
#     4   9  20  35  50  71 104 136 164 198 249 301
#     4   9  18  32  52  72 101 134 162 205 252 286
#     4  10  18  31  53  76  97 129 171 207 238 292
#     4   9  19  32  53  73  99 132 163 203 250 292
#     4  10  18  29  50  77 104 124 164 208 245 288
#     4  10  20  33  50  75 103 133 165 203 244 294
#
# _framework density 17.750063000000001
#
# number of rings (size 3 to 8) (size 9 to 14) (size 15 to 20)
#    0.000    2.571    1.429    0.429    2.000    2.286 
#    0.000    1.429    0.000    0.000    0.000    0.000 
#    0.000    0.000    0.000    0.000    0.000    0.000 
#
# Total GULP energy -173532.063464 kJ/mol
# GULP energy per Si atom -12395.147390 kJ/mol
# Density = 1.770966 g / cm^3
# Si number density = 17.750063 Si / 1000 Ang^3
#
#
#
# Elastic Constant Matrix: (Units=GPa)
#
#
# Indices 1 2 3 4 5 6 
#
# 1 82.1546 24.1704 37.7007 -3.5429 13.7698 2.5582
# 2 24.1704 52.6701 19.1226 -1.6712 -3.6593 2.9804
# 3 37.7007 19.1226 110.2258 -7.4318 8.8915 0.0158
# 4 -3.5429 -1.6712 -7.4318 18.1479 4.0793 0.8352
# 5 13.7698 -3.6593 8.8915 4.0793 25.6498 2.0574
# 6 2.5582 2.9804 0.0158 0.8352 2.0574 19.4641
#
#
#
# Elastic Compliance Matrix: (Units=1/GPa)
#
#
# Indices 1 2 3 4 5 6 
#
# 1 0.017913 -0.007394 -0.003812 0.003491 -0.009879 -0.000325
# 2 -0.007394 0.024038 -0.002498 -0.002085 0.008881 -0.003556
# 3 -0.003812 -0.002498 0.011342 0.004300 -0.003006 0.001008
# 4 0.003491 -0.002085 0.004300 0.060372 -0.013156 -0.001343
# 5 -0.009879 0.008881 -0.003006 -0.013156 0.049067 -0.004681
# 6 -0.000325 -0.003556 0.001008 -0.001343 -0.004681 0.052516
#
#
# Mechanical properties :
#
#
# Convention : Reuss Voigt Hill
#
# Bulk Modulus (GPa) = 38.63085 45.22642 41.92864
# Shear Modulus (GPa) = 19.89791 23.58949 21.74370
#
# Velocity S-wave (km/s) = 3.35177 3.64947 3.50379
# Velocity P-wave (km/s) = 6.06549 6.57975 6.32785
#
# Compressibility (1/GPa) = 0.02588604
#
# Stress axis : x y z
#
# Youngs Moduli (GPa) = 55.82498 41.60072 88.17041
#
# Poissons Ratio (x) = 0.30758 0.33609
# Poissons Ratio (y) = 0.41275 0.22024
# Poissons Ratio (z) = 0.21280 0.10392
#
# Static dielectric constant tensor:
#      x y z
#    x 3.532830 0.352840 0.028040 
#    y 0.352840 3.081060 0.033190 
#    z 0.028040 0.033190 3.476310 
# 
# 
# High freq. dielectric constant tensor:
#      x y z
#    x 1.686840 0.026110 0.007080 
#    y 0.026110 1.652920 -0.000300 
#    z 0.007080 -0.000300 1.696480 
# 
# From -- ./inp_files/154757.got.cif
#   From: 2010.06.25/outbox.cif.g09.slc.cpg/sg2_78_cif.got.tgz:154757.got - 2010.06.27 13:26:56.
