data_PCOD8038494
_publ_section_title
;
Structure prediction by ZEFSAII (Michael W. Deem and Ramdas Pophale) SiO2 
 PCOD8038494
Probable space group: P -1
;
_chemical_formula_sum "Si O2"
_cell_formula_units_Z 16
_cell_length_a 18.319497
_cell_length_b 24.862586
_cell_length_c 9.860174
_cell_angle_alpha 132.329693
_cell_angle_beta 56.586521
_cell_angle_gamma 163.146290
_cell_volume 865.541822
_symmetry_space_group_name_H-M "P -1"
_symmetry_group_IT_number 2
_symmetry_cell_setting 'triclinic'
loop_
_space_group_symop_operation_xyz
x,y,z
-x,-y,-z
loop_
_atom_site_type_symbol
_atom_site_label
_atom_site_fract_x
_atom_site_fract_y
_atom_site_fract_z
Si Si1 0.203185 0.628534 0.120903
Si Si2 0.233103 0.887835 0.779728
Si Si3 0.691336 0.437078 0.180287
Si Si4 0.452206 0.168369 0.231455
Si Si5 0.187325 0.363381 0.395420
Si Si6 0.811371 0.896224 0.618524
Si Si7 0.094584 0.008805 0.009632
Si Si8 0.995978 0.546413 0.452795
O O1 0.120123 0.594911 0.291171
O O2 0.521032 0.900927 0.220966
O O3 0.154824 0.502067 0.965443
O O4 0.000000 0.500000 0.000000
O O5 0.947605 0.693937 0.680958
O O6 0.201948 0.777738 0.651520
O O7 0.284205 0.965077 0.005184
O O8 0.601857 0.321942 0.209973
O O9 0.876017 0.650177 0.412865
O O10 0.423434 0.255568 0.065917
O O11 0.242191 0.065383 0.326618
O O12 0.678156 0.321738 0.371111
O O13 0.520421 0.623614 0.473508
O O14 0.073659 0.192734 0.217066
O O15 0.964458 0.024705 0.826792
O O16 0.000000 0.000000 0.500000
O O17 0.000000 0.000000 0.000000
O O18 0.000000 0.500000 0.500000
#
# Coordination Sequence:
#
# PCOD8038494 Si02
#       8
#     2   2   2   2   2   2   2   2
#     4  11  19  38  62  88 114 152 212 237 266 366
#     4  11  18  38  67  81 108 167 204 229 284 352
#     4   9  18  33  59  83 110 147 200 240 271 342
#     4   9  18  38  56  80 117 149 196 236 282 346
#     4  10  17  36  65  83 111 158 192 234 291 341
#     4  10  21  37  61  87 114 149 197 235 281 363
#     4  10  20  37  58  87 118 145 188 249 293 328
#     4  12  24  37  58  91 125 152 187 252 303 330
#
# _framework density 18.485531000000002
#
# number of rings (size 3 to 8) (size 9 to 14) (size 15 to 20)
#    0.000    2.000    8.750    0.375    0.000    3.000 
#    2.250    0.000    2.750    0.000    0.000    0.000 
#    0.000    0.000    0.000    0.000    0.000    0.000 
#
# Total GULP energy -198286.706598 kJ/mol
# GULP energy per Si atom -12392.919162 kJ/mol
# Density = 1.844346 g / cm^3
# Si number density = 18.485531 Si / 1000 Ang^3
#
#
#
# Elastic Constant Matrix: (Units=GPa)
#
#
# Indices 1 2 3 4 5 6 
#
# 1 144.8378 38.5476 74.4880 -6.4006 -3.0161 14.2608
# 2 38.5476 52.8775 50.1431 -10.1904 -8.2059 13.3638
# 3 74.4880 50.1431 165.1136 2.5547 -26.4359 8.2927
# 4 -6.4006 -10.1904 2.5547 31.0248 10.1893 -6.1219
# 5 -3.0161 -8.2059 -26.4359 10.1893 33.6310 -0.2511
# 6 14.2608 13.3638 8.2927 -6.1219 -0.2511 26.7966
#
#
#
# Elastic Compliance Matrix: (Units=1/GPa)
#
#
# Indices 1 2 3 4 5 6 
#
# 1 0.010080 -0.003019 -0.004172 0.002273 -0.003816 -0.002084
# 2 -0.003019 0.033626 -0.008815 0.009803 -0.002042 -0.010214
# 3 -0.004172 -0.008815 0.012170 -0.007591 0.009350 0.001204
# 4 0.002273 0.009803 -0.007591 0.043100 -0.016385 0.005944
# 5 -0.003816 -0.002042 0.009350 -0.016385 0.041184 -0.003202
# 6 -0.002084 -0.010214 0.001204 0.005944 -0.003202 0.044477
#
#
# Mechanical properties :
#
#
# Convention : Reuss Voigt Hill
#
# Bulk Modulus (GPa) = 41.90728 76.57627 59.24177
# Shear Modulus (GPa) = 22.26153 31.60050 26.93101
#
# Velocity S-wave (km/s) = 3.47402 4.13906 3.82104
# Velocity P-wave (km/s) = 6.22987 8.02230 7.18222
#
# Compressibility (1/GPa) = 0.02386220
#
# Stress axis : x y z
#
# Youngs Moduli (GPa) = 99.21121 29.73894 82.17255
#
# Poissons Ratio (x) = 0.08979 0.34280
# Poissons Ratio (y) = 0.29956 0.72437
# Poissons Ratio (z) = 0.41389 0.26216
#
# Static dielectric constant tensor:
#      x y z
#    x 3.583860 0.458180 -0.528250 
#    y 0.458180 3.098710 -0.008210 
#    z -0.528250 -0.008210 4.513210 
# 
# 
# High freq. dielectric constant tensor:
#      x y z
#    x 1.712800 0.033180 -0.013600 
#    y 0.033180 1.671650 0.011110 
#    z -0.013600 0.011110 1.742720 
# 
# From -- ./inp_files/212613.got.cif
#   From: 2010.06.25/outbox.cif.g09.slc.cpg/sg2_107_cif.got.tgz:212613.got - 2010.06.27 13:26:56.
