data_PCOD8038756
_publ_section_title
;
Structure prediction by ZEFSAII (Michael W. Deem and Ramdas Pophale) SiO2 
 PCOD8038756
Probable space group: P -1
;
_chemical_formula_sum "Si O2"
_cell_formula_units_Z 14
_cell_length_a 9.858370
_cell_length_b 25.321911
_cell_length_c 9.062844
_cell_angle_alpha 139.997397
_cell_angle_beta 75.005575
_cell_angle_gamma 137.738327
_cell_volume 685.883940
_symmetry_space_group_name_H-M "P -1"
_symmetry_group_IT_number 2
_symmetry_cell_setting 'triclinic'
loop_
_space_group_symop_operation_xyz
x,y,z
-x,-y,-z
loop_
_atom_site_type_symbol
_atom_site_label
_atom_site_fract_x
_atom_site_fract_y
_atom_site_fract_z
Si Si1 0.046115 0.004598 0.663715
Si Si2 0.835259 0.800314 0.744208
Si Si3 0.541961 0.491663 0.135000
Si Si4 0.501449 0.874703 0.751967
Si Si5 0.496641 0.697032 0.342518
Si Si6 0.455754 0.987462 0.234759
Si Si7 0.101887 0.850163 0.316297
O O1 0.196775 0.993350 0.619264
O O2 0.733680 0.848634 0.487179
O O3 0.000000 0.000000 0.500000
O O4 0.233817 0.173255 0.044999
O O5 0.752794 0.664571 0.525384
O O6 0.642963 0.732549 0.519634
O O7 0.165748 0.969747 0.963314
O O8 0.500000 0.500000 0.000000
O O9 0.679686 0.468747 0.039777
O O10 0.239406 0.334841 0.970439
O O11 0.332088 0.699289 0.429190
O O12 0.481906 0.903117 0.654384
O O13 0.368872 0.866012 0.895792
O O14 0.191130 0.867382 0.163659
O O15 0.742604 0.122063 0.539751
#
# Coordination Sequence:
#
# PCOD8038756 Si02
#       7
#     2   2   2   2   2   2   2
#     4  10  18  30  51  78 103 124 163 217 254 289
#     4  10  18  32  56  78  99 127 165 216 258 297
#     4   9  18  32  55  78 100 129 165 214 260 300
#     4  10  18  32  52  78  98 130 175 204 250 291
#     4   9  17  31  52  75  99 128 168 212 250 294
#     4  10  20  31  52  72 103 138 170 207 229 305
#     4  10  19  34  51  75 102 135 170 199 254 296
#
# _framework density 20.411617
#
# number of rings (size 3 to 8) (size 9 to 14) (size 15 to 20)
#    0.000    2.286    0.000    6.857    0.000    0.000 
#    0.000    6.429    0.000   30.857    0.000    0.000 
#    0.000    0.000    0.000    0.000    0.000    0.000 
#
# Total GULP energy -173456.723802 kJ/mol
# GULP energy per Si atom -12389.765986 kJ/mol
# Density = 2.036516 g / cm^3
# Si number density = 20.411617 Si / 1000 Ang^3
#
#
#
# Elastic Constant Matrix: (Units=GPa)
#
#
# Indices 1 2 3 4 5 6 
#
# 1 97.5328 22.9745 34.1185 -5.3023 -46.2516 -6.8295
# 2 22.9745 84.7625 38.9680 -22.9957 -20.2798 0.3188
# 3 34.1185 38.9680 84.3317 -5.3648 -55.1038 -6.7333
# 4 -5.3023 -22.9957 -5.3648 25.8091 -3.9108 -0.8964
# 5 -46.2516 -20.2798 -55.1038 -3.9108 48.3023 -3.1201
# 6 -6.8295 0.3188 -6.7333 -0.8964 -3.1201 29.7024
#
#
#
# Elastic Compliance Matrix: (Units=1/GPa)
#
#
# Indices 1 2 3 4 5 6 
#
# 1 -0.399214 0.036260 -0.764547 -0.420028 -1.300042 -0.414737
# 2 0.036260 0.016693 0.061356 0.054281 0.118455 0.036148
# 3 -0.764547 0.061356 -1.388302 -0.781743 -2.402966 -0.767182
# 4 -0.420028 0.054281 -0.781743 -0.377880 -1.329300 -0.425416
# 5 -1.300042 0.118455 -2.402966 -1.329300 -4.108413 -1.316612
# 6 -0.414737 0.036148 -0.767182 -0.425416 -1.316612 -0.387138
#
#
# Mechanical properties :
#
#
# Convention : Reuss Voigt Hill
#
# Bulk Modulus (GPa) = -0.32209 50.97211 25.32501
# Shear Modulus (GPa) = -0.78799 32.13383 15.67292
#
# Velocity S-wave (km/s) = -0.62200 3.97204 2.77400
# Velocity P-wave (km/s) = 0.82097 6.78693 4.76385
#
# Compressibility (1/GPa) = -3.10468558
#
# Stress axis : x y z
#
# Youngs Moduli (GPa) = -2.50492 59.90437 -0.72030
#
# Poissons Ratio (x) = -2.17211 -0.55071
# Poissons Ratio (y) = 0.09083 0.04420
# Poissons Ratio (z) = -1.91513 -3.67551
#
# Static dielectric constant tensor:
#      x y z
#    x 4.043120 -0.007430 -0.646150 
#    y -0.007430 3.770710 -0.049120 
#    z -0.646150 -0.049120 4.022570 
# 
# 
# High freq. dielectric constant tensor:
#      x y z
#    x 1.806830 -0.009700 -0.036070 
#    y -0.009700 1.782560 -0.025570 
#    z -0.036070 -0.025570 1.778310 
# 
# From -- ./inp_files/167722.got.cif
#   From: 2010.06.25/outbox.cif.g09.slc.cpg/sg2_84_cif.got.tgz:167722.got - 2010.06.27 13:26:56.
