data_PCOD8038303
_publ_section_title
;
Structure prediction by ZEFSAII (Michael W. Deem and Ramdas Pophale) SiO2 
 PCOD8038303
Probable space group: P -1
;
_chemical_formula_sum "Si O2"
_cell_formula_units_Z 14
_cell_length_a 9.785254
_cell_length_b 9.736488
_cell_length_c 10.952967
_cell_angle_alpha 84.273456
_cell_angle_beta 69.199002
_cell_angle_gamma 41.083109
_cell_volume 616.655985
_symmetry_space_group_name_H-M "P -1"
_symmetry_group_IT_number 2
_symmetry_cell_setting 'triclinic'
loop_
_space_group_symop_operation_xyz
x,y,z
-x,-y,-z
loop_
_atom_site_type_symbol
_atom_site_label
_atom_site_fract_x
_atom_site_fract_y
_atom_site_fract_z
Si Si1 0.855571 0.929493 0.371156
Si Si2 0.644458 0.047196 0.664195
Si Si3 0.041311 0.116149 0.917043
Si Si4 0.551183 0.038737 0.104846
Si Si5 0.129995 0.779434 0.599713
Si Si6 0.294469 0.509170 0.179712
Si Si7 0.500809 0.542449 0.303856
O O1 0.646626 0.032043 0.515459
O O2 0.785607 0.018395 0.245675
O O3 0.066758 0.666073 0.325093
O O4 0.951489 0.000581 0.398528
O O5 0.497307 0.027237 0.761127
O O6 0.907775 0.844970 0.646185
O O7 0.530878 0.271623 0.725960
O O8 0.794101 0.358481 0.932470
O O9 0.179588 0.114097 0.966699
O O10 0.000000 0.000000 0.000000
O O11 0.392653 0.288428 0.142184
O O12 0.500000 0.000000 0.000000
O O13 0.319912 0.610164 0.451393
O O14 0.241620 0.665908 0.706809
O O15 0.479905 0.475275 0.188176
#
# Coordination Sequence:
#
# PCOD8038303 Si02
#       7
#     2   2   2   2   2   2   2
#     4   9  19  41  69 100 128 169 221 269 329 384
#     4  11  21  42  65  99 147 163 211 285 325 392
#     4  10  24  47  71  96 129 177 225 273 322 399
#     4  12  30  45  63  98 136 180 220 273 342 386
#     4  10  17  34  65 104 137 165 212 268 330 392
#     4  10  22  45  66  96 129 172 234 263 320 401
#     4  10  19  35  69 103 129 176 216 259 332 402
#
# _framework density 22.703095999999999
#
# number of rings (size 3 to 8) (size 9 to 14) (size 15 to 20)
#    0.857    0.857    2.857    1.714    4.000    3.429 
#    2.571    0.000    0.000    0.000    0.000    0.000 
#    0.000    0.000    0.000    0.000    0.000    0.000 
#
# Total GULP energy -173496.369008 kJ/mol
# GULP energy per Si atom -12392.597786 kJ/mol
# Density = 2.265142 g / cm^3
# Si number density = 22.703096 Si / 1000 Ang^3
#
#
#
# Elastic Constant Matrix: (Units=GPa)
#
#
# Indices 1 2 3 4 5 6 
#
# 1 124.6186 53.0451 46.5078 -18.0423 8.8145 0.4564
# 2 53.0451 130.9573 43.8603 -12.1148 5.7142 14.6295
# 3 46.5078 43.8603 93.1547 -15.3239 5.4908 14.3235
# 4 -18.0423 -12.1148 -15.3239 36.1709 8.8085 3.7512
# 5 8.8145 5.7142 5.4908 8.8085 38.8199 -1.9974
# 6 0.4564 14.6295 14.3235 3.7512 -1.9974 37.0064
#
#
#
# Elastic Compliance Matrix: (Units=1/GPa)
#
#
# Indices 1 2 3 4 5 6 
#
# 1 0.011455 -0.003178 -0.003876 0.003326 -0.002229 0.002158
# 2 -0.003178 0.010283 -0.002474 0.001373 -0.000921 -0.003257
# 3 -0.003876 -0.002474 0.015684 0.005061 -0.002415 -0.005688
# 4 0.003326 0.001373 0.005061 0.035023 -0.009961 -0.006630
# 5 -0.002229 -0.000921 -0.002415 -0.009961 0.029205 0.003913
# 6 0.002158 -0.003257 -0.005688 -0.006630 0.003913 0.031368
#
#
# Mechanical properties :
#
#
# Convention : Reuss Voigt Hill
#
# Bulk Modulus (GPa) = 54.44665 70.61745 62.53205
# Shear Modulus (GPa) = 31.60629 36.08727 33.84678
#
# Velocity S-wave (km/s) = 3.73521 3.99122 3.86533
# Velocity P-wave (km/s) = 6.52966 7.23962 6.89379
#
# Compressibility (1/GPa) = 0.01836660
#
# Stress axis : x y z
#
# Youngs Moduli (GPa) = 87.29807 97.24814 63.75844
#
# Poissons Ratio (x) = 0.30904 0.24712
# Poissons Ratio (y) = 0.27742 0.15774
# Poissons Ratio (z) = 0.33836 0.24059
#
# Static dielectric constant tensor:
#      x y z
#    x 3.930070 -0.197750 0.223730 
#    y -0.197750 3.997580 -0.096420 
#    z 0.223730 -0.096420 4.042730 
# 
# 
# High freq. dielectric constant tensor:
#      x y z
#    x 1.877980 -0.013470 0.020910 
#    y -0.013470 1.891380 -0.003710 
#    z 0.020910 -0.003710 1.888830 
# 
# From -- ./inp_files/376318.got.cif
#   From: 2010.06.25/outbox.cif.g09.slc.cpg/sg2_189_cif.got.tgz:376318.got - 2010.06.27 13:26:56.
