data_PCOD8038470
_publ_section_title
;
Structure prediction by ZEFSAII (Michael W. Deem and Ramdas Pophale) SiO2 
 PCOD8038470
Probable space group: P -1
;
_chemical_formula_sum "Si O2"
_cell_formula_units_Z 14
_cell_length_a 12.819872
_cell_length_b 13.138941
_cell_length_c 11.746976
_cell_angle_alpha 72.076039
_cell_angle_beta 81.897619
_cell_angle_gamma 147.158121
_cell_volume 646.176059
_symmetry_space_group_name_H-M "P -1"
_symmetry_group_IT_number 2
_symmetry_cell_setting 'triclinic'
loop_
_space_group_symop_operation_xyz
x,y,z
-x,-y,-z
loop_
_atom_site_type_symbol
_atom_site_label
_atom_site_fract_x
_atom_site_fract_y
_atom_site_fract_z
Si Si1 0.696355 0.238898 0.788317
Si Si2 0.122229 0.175647 0.594223
Si Si3 0.685776 0.586514 0.286200
Si Si4 0.559306 0.871214 0.539760
Si Si5 0.223157 0.444747 0.312582
Si Si6 0.609077 0.111566 0.593397
Si Si7 0.472051 0.490703 0.140273
O O1 0.622272 0.294030 0.781788
O O2 0.594117 0.088197 0.738388
O O3 0.057127 0.563280 0.628981
O O4 0.500000 0.000000 0.000000
O O5 0.377223 0.328109 0.485982
O O6 0.053803 0.128229 0.758861
O O7 0.227377 0.389429 0.453054
O O8 0.839952 0.870669 0.665153
O O9 0.686016 0.458338 0.316056
O O10 0.721480 0.675852 0.124869
O O11 0.568470 0.950314 0.395412
O O12 0.457743 0.857131 0.660094
O O13 0.887761 0.134291 0.420142
O O14 0.432237 0.577627 0.146107
O O15 0.500000 0.500000 0.000000
#
# Coordination Sequence:
#
# PCOD8038470 Si02
#       7
#     2   2   2   2   2   2   2
#     4  10  21  40  59  85 121 152 196 247 295 349
#     4  10  19  36  61  83 108 154 201 230 286 355
#     4  10  19  34  61  81 110 154 195 232 289 347
#     4  10  17  36  61  82 112 151 202 242 287 355
#     4  10  19  38  61  79 114 158 191 240 298 344
#     4   9  21  36  60  87 112 153 202 242 293 350
#     4  11  22  37  54  89 125 148 192 246 289 353
#
# _framework density 21.665922999999999
#
# number of rings (size 3 to 8) (size 9 to 14) (size 15 to 20)
#    0.000    2.000    2.857    1.714    0.000    1.714 
#    5.143    7.857    0.000    0.000    0.000    0.000 
#    0.000    0.000    0.000    0.000    0.000    0.000 
#
# Total GULP energy -173478.460528 kJ/mol
# GULP energy per Si atom -12391.318609 kJ/mol
# Density = 2.161661 g / cm^3
# Si number density = 21.665923 Si / 1000 Ang^3
#
#
#
# Elastic Constant Matrix: (Units=GPa)
#
#
# Indices 1 2 3 4 5 6 
#
# 1 121.1293 25.1238 16.1055 13.7065 15.3460 -14.0456
# 2 25.1238 91.0018 11.1384 23.9867 5.1531 -5.4783
# 3 16.1055 11.1384 72.9063 37.1333 9.0294 -4.4819
# 4 13.7065 23.9867 37.1333 36.1035 1.1333 6.8331
# 5 15.3460 5.1531 9.0294 1.1333 18.7799 -1.6794
# 6 -14.0456 -5.4783 -4.4819 6.8331 -1.6794 37.9934
#
#
#
# Elastic Compliance Matrix: (Units=1/GPa)
#
#
# Indices 1 2 3 4 5 6 
#
# 1 0.010530 -0.000520 0.002903 -0.007318 -0.008962 0.005080
# 2 -0.000520 0.016743 0.010612 -0.022993 -0.007232 0.007289
# 3 0.002903 0.010612 0.043093 -0.054958 -0.021199 0.016634
# 4 -0.007318 -0.022993 -0.054958 0.107117 0.029524 -0.030464
# 5 -0.008962 -0.007232 -0.021199 0.029524 0.070156 -0.009065
# 6 0.005080 0.007289 0.016634 -0.030464 -0.009065 0.036290
#
#
# Mechanical properties :
#
#
# Convention : Reuss Voigt Hill
#
# Bulk Modulus (GPa) = 10.37838 43.30809 26.84323
# Shear Modulus (GPa) = 17.23790 34.08666 25.66228
#
# Velocity S-wave (km/s) = 2.82374 3.97077 3.44532
# Velocity P-wave (km/s) = 3.92835 6.40743 5.31446
#
# Compressibility (1/GPa) = 0.09635413
#
# Stress axis : x y z
#
# Youngs Moduli (GPa) = 94.96594 59.72809 23.20546
#
# Poissons Ratio (x) = 0.03108 -0.06735
# Poissons Ratio (y) = 0.04942 -0.24625
# Poissons Ratio (z) = -0.27564 -0.63383
#
# Static dielectric constant tensor:
#      x y z
#    x 3.984960 0.000070 0.011300 
#    y 0.000070 4.620710 -0.196190 
#    z 0.011300 -0.196190 3.615520 
# 
# 
# High freq. dielectric constant tensor:
#      x y z
#    x 1.855550 -0.003200 0.010460 
#    y -0.003200 1.874850 0.014530 
#    z 0.010460 0.014530 1.809510 
# 
# From -- ./inp_files/254232.got.cif
#   From: 2010.06.25/outbox.cif.g09.slc.cpg/sg2_128_cif.got.tgz:254232.got - 2010.06.27 13:26:56.
