data_PCOD8038140
_publ_section_title
;
Structure prediction by ZEFSAII (Michael W. Deem and Ramdas Pophale) SiO2 
 PCOD8038140
Probable space group: P -1
;
_chemical_formula_sum "Si O2"
_cell_formula_units_Z 16
_cell_length_a 13.239944
_cell_length_b 12.940533
_cell_length_c 11.893659
_cell_angle_alpha 114.556328
_cell_angle_beta 93.169342
_cell_angle_gamma 33.302944
_cell_volume 825.508915
_symmetry_space_group_name_H-M "P -1"
_symmetry_group_IT_number 2
_symmetry_cell_setting 'triclinic'
loop_
_space_group_symop_operation_xyz
x,y,z
-x,-y,-z
loop_
_atom_site_type_symbol
_atom_site_label
_atom_site_fract_x
_atom_site_fract_y
_atom_site_fract_z
Si Si1 0.235957 0.821498 0.910775
Si Si2 0.566223 0.258428 0.893294
Si Si3 0.681612 0.262321 0.678510
Si Si4 0.029227 0.801035 0.336020
Si Si5 0.876510 0.582108 0.138254
Si Si6 0.471739 0.955552 0.151427
Si Si7 0.197584 0.400187 0.202372
Si Si8 0.044176 0.744582 0.061181
O O1 0.422337 0.544974 0.750507
O O2 0.352117 0.756614 0.999014
O O3 0.169770 0.976815 0.880699
O O4 0.000000 0.000000 0.000000
O O5 0.697905 0.177690 0.758389
O O6 0.637180 0.055789 0.825775
O O7 0.295594 0.549575 0.986861
O O8 0.807676 0.255894 0.695195
O O9 0.796963 0.070076 0.503046
O O10 0.152315 0.576757 0.313693
O O11 0.973431 0.799581 0.211689
O O12 0.607704 0.863376 0.227656
O O13 0.959467 0.574397 0.243813
O O14 0.942171 0.384330 0.067853
O O15 0.000000 0.500000 0.000000
O O16 0.297077 0.230761 0.237061
O O17 0.636751 0.767552 0.970676
#
# Coordination Sequence:
#
# PCOD8038140 Si02
#       8
#     2   2   2   2   2   2   2   2
#     4  12  22  34  63  88 109 152 205 242 284 335
#     4  11  20  41  59  87 120 149 197 251 288 339
#     4  11  24  39  59  84 123 163 193 237 291 357
#     4  11  22  40  58  85 126 162 185 235 310 343
#     4   9  16  29  52  86 108 136 185 240 286 323
#     4   9  18  30  60  85 109 143 194 238 289 333
#     4  10  17  34  55  88 115 145 188 246 285 342
#     4  11  20  36  62  89 115 149 195 246 295 341
#
# _framework density 19.381985
#
# number of rings (size 3 to 8) (size 9 to 14) (size 15 to 20)
#    0.000    1.500    6.250    1.875    0.000    2.500 
#    0.000    0.625    0.000    3.000    0.000    0.000 
#    0.000    0.000    0.000    0.000    0.000    0.000 
#
# Total GULP energy -198257.904774 kJ/mol
# GULP energy per Si atom -12391.119048 kJ/mol
# Density = 1.933787 g / cm^3
# Si number density = 19.381985 Si / 1000 Ang^3
#
#
#
# Elastic Constant Matrix: (Units=GPa)
#
#
# Indices 1 2 3 4 5 6 
#
# 1 114.0640 54.5224 39.1853 13.0646 7.5362 14.7162
# 2 54.5224 122.8195 41.0403 18.5193 -0.2429 23.0736
# 3 39.1853 41.0403 75.0818 12.3816 -4.8564 7.1008
# 4 13.0646 18.5193 12.3816 20.8173 -1.3696 4.8316
# 5 7.5362 -0.2429 -4.8564 -1.3696 16.9131 4.1440
# 6 14.7162 23.0736 7.1008 4.8316 4.1440 34.7187
#
#
#
# Elastic Compliance Matrix: (Units=1/GPa)
#
#
# Indices 1 2 3 4 5 6 
#
# 1 0.013028 -0.003676 -0.004786 -0.002319 -0.007195 -0.000919
# 2 -0.003676 0.012878 -0.003544 -0.005602 0.001749 -0.005705
# 3 -0.004786 -0.003544 0.018960 -0.004731 0.007064 0.000321
# 4 -0.002319 -0.005602 -0.004731 0.058331 0.005065 -0.003048
# 5 -0.007195 0.001749 0.007064 0.005065 0.066814 -0.008238
# 6 -0.000919 -0.005705 0.000321 -0.003048 -0.008238 0.034325
#
#
# Mechanical properties :
#
#
# Convention : Reuss Voigt Hill
#
# Bulk Modulus (GPa) = 47.95195 64.60679 56.27937
# Shear Modulus (GPa) = 21.24948 26.30431 23.77689
#
# Velocity S-wave (km/s) = 3.31471 3.68795 3.50630
# Velocity P-wave (km/s) = 6.28044 7.17917 6.74479
#
# Compressibility (1/GPa) = 0.02085421
#
# Stress axis : x y z
#
# Youngs Moduli (GPa) = 76.75877 77.65083 52.74124
#
# Poissons Ratio (x) = 0.28545 0.25241
# Poissons Ratio (y) = 0.28217 0.18693
# Poissons Ratio (z) = 0.36736 0.27521
#
# Static dielectric constant tensor:
#      x y z
#    x 4.039240 -0.036070 0.141590 
#    y -0.036070 4.227110 0.132610 
#    z 0.141590 0.132610 3.238710 
# 
# 
# High freq. dielectric constant tensor:
#      x y z
#    x 1.770690 0.010870 0.005720 
#    y 0.010870 1.761300 0.009880 
#    z 0.005720 0.009880 1.701100 
# 
# From -- ./inp_files/453990.got.cif
#   From: 2010.06.25/outbox.cif.g09.slc.cpg/sg2_227_cif.got.tgz:453990.got - 2010.06.27 13:26:56.
