data_PCOD8038850
_publ_section_title
;
Structure prediction by ZEFSAII (Michael W. Deem and Ramdas Pophale) SiO2 
 PCOD8038850
Probable space group: P -1
;
_chemical_formula_sum "Si O2"
_cell_formula_units_Z 16
_cell_length_a 22.964994
_cell_length_b 9.120413
_cell_length_c 9.380035
_cell_angle_alpha 111.380342
_cell_angle_beta 77.772919
_cell_angle_gamma 150.291221
_cell_volume 882.946178
_symmetry_space_group_name_H-M "P -1"
_symmetry_group_IT_number 2
_symmetry_cell_setting 'triclinic'
loop_
_space_group_symop_operation_xyz
x,y,z
-x,-y,-z
loop_
_atom_site_type_symbol
_atom_site_label
_atom_site_fract_x
_atom_site_fract_y
_atom_site_fract_z
Si Si1 0.552605 0.484615 0.629836
Si Si2 0.688101 0.029419 0.572467
Si Si3 0.276218 0.331102 0.895021
Si Si4 0.704251 0.415412 0.766097
Si Si5 0.277834 0.388749 0.472147
Si Si6 0.447007 0.546396 0.061234
Si Si7 0.432349 0.869045 0.784063
Si Si8 0.138836 0.858591 0.550886
O O1 0.611739 0.479830 0.507869
O O2 0.592298 0.526788 0.781560
O O3 0.613204 0.788864 0.660298
O O4 0.408193 0.161071 0.572240
O O5 0.745650 0.328209 0.698351
O O6 0.788905 0.139663 0.503756
O O7 0.385462 0.657764 0.864495
O O8 0.170784 0.024609 0.739692
O O9 0.233025 0.360148 0.047197
O O10 0.329148 0.300355 0.938323
O O11 0.749363 0.613236 0.672492
O O12 0.559703 0.094654 0.739181
O O13 0.327671 0.643323 0.637043
O O14 0.160508 0.029084 0.468234
O O15 0.547324 0.905984 0.094457
O O16 0.500000 0.500000 0.000000
O O17 0.000000 0.500000 0.500000
#
# Coordination Sequence:
#
# PCOD8038850 Si02
#       8
#     2   2   2   2   2   2   2   2
#     4  10  18  31  49  85 115 141 171 213 267 339
#     4  10  21  31  58  79 111 145 183 219 269 322
#     4  10  22  35  53  81 113 149 179 218 277 324
#     4  11  18  32  55  87 114 137 177 224 274 327
#     4  10  18  34  58  80 107 146 179 213 271 332
#     4  11  20  27  47  79 123 142 169 207 271 331
#     4  10  19  31  49  78 120 153 165 202 272 344
#     4  10  23  44  58  71 104 152 195 228 269 321
#
# _framework density 18.121151000000001
#
# number of rings (size 3 to 8) (size 9 to 14) (size 15 to 20)
#    0.000    1.750    3.750    3.375    5.250    0.000 
#    0.000    1.875    0.000    0.000    0.000    0.000 
#    0.000    0.000    0.000    0.000    0.000    0.000 
#
# Total GULP energy -198268.265251 kJ/mol
# GULP energy per Si atom -12391.766578 kJ/mol
# Density = 1.807991 g / cm^3
# Si number density = 18.121151 Si / 1000 Ang^3
#
#
#
# Elastic Constant Matrix: (Units=GPa)
#
#
# Indices 1 2 3 4 5 6 
#
# 1 74.3218 38.3803 39.4195 9.0878 -10.4773 -13.8667
# 2 38.3803 97.2724 55.5766 9.1818 7.9931 -2.0809
# 3 39.4195 55.5766 117.5300 0.2887 1.4843 -10.6560
# 4 9.0878 9.1818 0.2887 25.9732 -11.8964 2.1576
# 5 -10.4773 7.9931 1.4843 -11.8964 31.3255 -1.7217
# 6 -13.8667 -2.0809 -10.6560 2.1576 -1.7217 24.7815
#
#
#
# Elastic Compliance Matrix: (Units=1/GPa)
#
#
# Indices 1 2 3 4 5 6 
#
# 1 0.022763 -0.007574 -0.003120 -0.001795 0.009649 0.011586
# 2 -0.007574 0.018513 -0.006564 -0.008091 -0.010322 -0.005519
# 3 -0.003120 -0.006564 0.012905 0.003755 0.001613 0.003037
# 4 -0.001795 -0.008091 0.003755 0.051713 0.020753 -0.003130
# 5 0.009649 -0.010322 0.001613 0.020753 0.045952 0.006612
# 6 0.011586 -0.005519 0.003037 -0.003130 0.006612 0.048410
#
#
# Mechanical properties :
#
#
# Convention : Reuss Voigt Hill
#
# Bulk Modulus (GPa) = 50.85475 61.76409 56.30942
# Shear Modulus (GPa) = 20.71872 26.79922 23.75897
#
# Velocity S-wave (km/s) = 3.38501 3.84981 3.62486
# Velocity P-wave (km/s) = 6.58805 7.34298 6.97573
#
# Compressibility (1/GPa) = 0.01966385
#
# Stress axis : x y z
#
# Youngs Moduli (GPa) = 43.93166 54.01534 77.49175
#
# Poissons Ratio (x) = 0.40913 0.24176
# Poissons Ratio (y) = 0.33276 0.50866
# Poissons Ratio (z) = 0.13706 0.35456
#
# Static dielectric constant tensor:
#      x y z
#    x 3.237880 -0.418860 -0.045440 
#    y -0.418860 3.153870 -0.047320 
#    z -0.045440 -0.047320 3.304500 
# 
# 
# High freq. dielectric constant tensor:
#      x y z
#    x 1.685460 -0.040490 -0.007780 
#    y -0.040490 1.671470 -0.011290 
#    z -0.007780 -0.011290 1.711200 
# 
# From -- ./inp_files/186560.got.cif
#   From: 2010.06.25/outbox.cif.g09.slc.cpg/sg2_94_cif.got.tgz:186560.got - 2010.06.27 13:26:56.
