data_PCOD8038969
_publ_section_title
;
Structure prediction by ZEFSAII (Michael W. Deem and Ramdas Pophale) SiO2 
 PCOD8038969
Probable space group: P -1
;
_chemical_formula_sum "Si O2"
_cell_formula_units_Z 12
_cell_length_a 7.857283
_cell_length_b 11.878950
_cell_length_c 9.196033
_cell_angle_alpha 126.641607
_cell_angle_beta 88.112320
_cell_angle_gamma 112.580585
_cell_volume 613.200100
_symmetry_space_group_name_H-M "P -1"
_symmetry_group_IT_number 2
_symmetry_cell_setting 'triclinic'
loop_
_space_group_symop_operation_xyz
x,y,z
-x,-y,-z
loop_
_atom_site_type_symbol
_atom_site_label
_atom_site_fract_x
_atom_site_fract_y
_atom_site_fract_z
Si Si1 0.961288 0.214165 0.106973
Si Si2 0.774161 0.595079 0.001036
Si Si3 0.485563 0.713428 0.111917
Si Si4 0.772095 0.851083 0.746010
Si Si5 0.574570 0.179703 0.106170
Si Si6 0.187201 0.161062 0.597937
O O1 0.798164 0.259634 0.207691
O O2 0.099629 0.220450 0.237818
O O3 0.069205 0.344626 0.082575
O O4 0.869732 0.040008 0.904009
O O5 0.588140 0.612982 0.963645
O O6 0.854447 0.700239 0.226691
O O7 0.709387 0.411303 0.898136
O O8 0.633495 0.841648 0.320715
O O9 0.437952 0.801207 0.051910
O O10 0.558838 0.764229 0.755332
O O11 0.753282 0.802588 0.542229
O O12 0.500000 0.000000 0.000000
O O13 0.000000 0.000000 0.500000
#
# Coordination Sequence:
#
# PCOD8038969 Si02
#       6
#     2   2   2   2   2   2
#     4  10  19  33  57  80 108 153 178 219 273 327
#     4   9  18  36  58  80 108 148 181 219 277 325
#     4   9  19  37  54  84 110 142 186 218 276 330
#     4  10  18  34  54  82 114 135 188 229 263 321
#     4  10  21  34  56  83 109 148 183 222 270 328
#     4  10  18  31  60  85 105 144 183 229 271 313
#
# _framework density 19.569468000000001
#
# number of rings (size 3 to 8) (size 9 to 14) (size 15 to 20)
#    1.000    1.333    3.333    0.000    4.667    0.667 
#    0.000    8.333    0.000    2.000    0.000    0.000 
#    0.000    0.000    0.000    0.000    0.000    0.000 
#
# Total GULP energy -148665.513825 kJ/mol
# GULP energy per Si atom -12388.792819 kJ/mol
# Density = 1.952493 g / cm^3
# Si number density = 19.569468 Si / 1000 Ang^3
#
#
#
# Elastic Constant Matrix: (Units=GPa)
#
#
# Indices 1 2 3 4 5 6 
#
# 1 134.4643 61.5642 46.5328 -25.4827 15.4188 18.4375
# 2 61.5642 142.5929 49.8622 -23.2093 12.9673 18.5611
# 3 46.5328 49.8622 81.0672 -21.9363 15.8998 4.8556
# 4 -25.4827 -23.2093 -21.9363 36.4444 2.1242 2.9276
# 5 15.4188 12.9673 15.8998 2.1242 11.6883 -6.1079
# 6 18.4375 18.5611 4.8556 2.9276 -6.1079 35.1418
#
#
#
# Elastic Compliance Matrix: (Units=1/GPa)
#
#
# Indices 1 2 3 4 5 6 
#
# 1 0.016227 0.000395 0.004224 0.017906 -0.040130 -0.017772
# 2 0.000395 0.011798 -0.000016 0.009887 -0.021094 -0.010926
# 3 0.004224 -0.000016 0.030276 0.026307 -0.061600 -0.019289
# 4 0.017906 0.009887 0.026307 0.071669 -0.105653 -0.042585
# 5 -0.040130 -0.021094 -0.061600 -0.105653 0.319810 0.105094
# 6 -0.017772 -0.010926 -0.019289 -0.042585 0.105094 0.068030
#
#
# Mechanical properties :
#
#
# Convention : Reuss Voigt Hill
#
# Bulk Modulus (GPa) = 14.81367 74.89363 44.85365
# Shear Modulus (GPa) = 9.41428 29.99926 19.70677
#
# Velocity S-wave (km/s) = 2.19571 3.91955 3.17679
# Velocity P-wave (km/s) = 3.74358 7.67057 6.03540
#
# Compressibility (1/GPa) = 0.06750521
#
# Stress axis : x y z
#
# Youngs Moduli (GPa) = 61.62744 84.76012 33.02897
#
# Poissons Ratio (x) = -0.03344 -0.13951
# Poissons Ratio (y) = -0.02431 0.00054
# Poissons Ratio (z) = -0.26030 0.00138
#
# Static dielectric constant tensor:
#      x y z
#    x 4.108580 0.382930 0.160040 
#    y 0.382930 3.631860 -0.200120 
#    z 0.160040 -0.200120 3.239270 
# 
# 
# High freq. dielectric constant tensor:
#      x y z
#    x 1.754680 0.020140 0.016240 
#    y 0.020140 1.769000 -0.022450 
#    z 0.016240 -0.022450 1.719820 
# 
# From -- ./inp_files/165576.got.cif
#   From: 2010.06.25/outbox.cif.g09.slc.cpg/sg2_83_cif.got.tgz:165576.got - 2010.06.27 13:26:56.
