data_PCOD8038742
_publ_section_title
;
Structure prediction by ZEFSAII (Michael W. Deem and Ramdas Pophale) SiO2 
 PCOD8038742
Probable space group: P -1
;
_chemical_formula_sum "Si O2"
_cell_formula_units_Z 16
_cell_length_a 11.314752
_cell_length_b 9.031027
_cell_length_c 12.927889
_cell_angle_alpha 130.247984
_cell_angle_beta 90.386295
_cell_angle_gamma 120.682177
_cell_volume 744.576238
_symmetry_space_group_name_H-M "P -1"
_symmetry_group_IT_number 2
_symmetry_cell_setting 'triclinic'
loop_
_space_group_symop_operation_xyz
x,y,z
-x,-y,-z
loop_
_atom_site_type_symbol
_atom_site_label
_atom_site_fract_x
_atom_site_fract_y
_atom_site_fract_z
Si Si1 0.083333 0.826555 0.258482
Si Si2 0.825315 0.450597 0.922013
Si Si3 0.299257 0.382383 0.543582
Si Si4 0.574925 0.951082 0.832100
Si Si5 0.699168 0.067450 0.108631
Si Si6 0.157264 0.151539 0.653038
Si Si7 0.319641 0.334099 0.952546
Si Si8 0.951930 0.585447 0.444913
O O1 0.116015 0.636539 0.206918
O O2 0.996368 0.867247 0.364728
O O3 0.254913 0.126096 0.374696
O O4 0.979990 0.703964 0.097546
O O5 0.718128 0.186812 0.870752
O O6 0.718320 0.513789 0.909841
O O7 0.479615 0.660066 0.650718
O O8 0.282493 0.341650 0.650378
O O9 0.171130 0.391881 0.499785
O O10 0.448637 0.985667 0.862634
O O11 0.656280 0.972247 0.948337
O O12 0.860983 0.373480 0.255480
O O13 0.744932 0.921511 0.102597
O O14 0.235118 0.288304 0.824007
O O15 0.107091 0.868442 0.527673
O O16 0.500000 0.500000 0.000000
O O17 0.000000 0.500000 0.500000
#
# Coordination Sequence:
#
# PCOD8038742 Si02
#       8
#     2   2   2   2   2   2   2   2
#     4   9  20  36  54  79 109 150 181 219 267 332
#     4  10  21  35  57  79 109 148 185 217 271 333
#     4  10  21  35  57  83 109 141 186 228 271 320
#     4  10  21  34  55  84 106 144 183 223 275 318
#     4  10  20  32  51  83 114 132 179 230 274 318
#     4  10  20  34  57  83 111 142 183 224 274 325
#     4  11  19  32  54  81 111 142 177 232 275 316
#     4  10  18  30  49  82 109 138 172 226 280 312
#
# _framework density 21.488731999999999
#
# number of rings (size 3 to 8) (size 9 to 14) (size 15 to 20)
#    0.000    2.000    2.500    2.250   10.500    0.500 
#    0.000    0.000    0.000   15.750    0.000    0.000 
#    0.000    0.000    0.000    0.000    0.000    0.000 
#
# Total GULP energy -198214.278137 kJ/mol
# GULP energy per Si atom -12388.392384 kJ/mol
# Density = 2.143982 g / cm^3
# Si number density = 21.488732 Si / 1000 Ang^3
#
#
#
# Elastic Constant Matrix: (Units=GPa)
#
#
# Indices 1 2 3 4 5 6 
#
# 1 86.3792 23.4013 31.1163 11.8912 -13.4844 -22.4981
# 2 23.4013 72.0731 21.6436 11.0093 0.8942 -13.0667
# 3 31.1163 21.6436 118.3345 34.2523 -3.4740 -6.1953
# 4 11.8912 11.0093 34.2523 30.1441 -8.2375 4.9171
# 5 -13.4844 0.8942 -3.4740 -8.2375 34.3023 7.8464
# 6 -22.4981 -13.0667 -6.1953 4.9171 7.8464 35.3537
#
#
#
# Elastic Compliance Matrix: (Units=1/GPa)
#
#
# Indices 1 2 3 4 5 6 
#
# 1 0.016396 -0.002561 -0.002290 -0.003424 0.003446 0.008798
# 2 -0.002561 0.017196 -0.000029 -0.007691 -0.004877 0.006873
# 3 -0.002290 -0.000029 0.014094 -0.017067 -0.004575 0.004391
# 4 -0.003424 -0.007691 -0.017067 0.064924 0.017504 -0.020927
# 5 0.003446 -0.004877 -0.004575 0.017504 0.036899 -0.011035
# 6 0.008798 0.006873 0.004391 -0.020927 -0.011035 0.042554
#
#
# Mechanical properties :
#
#
# Convention : Reuss Voigt Hill
#
# Bulk Modulus (GPa) = 26.36657 47.67879 37.02268
# Shear Modulus (GPa) = 23.31389 33.33507 28.32448
#
# Velocity S-wave (km/s) = 3.29741 3.94290 3.63452
# Velocity P-wave (km/s) = 5.17627 6.55474 5.90586
#
# Compressibility (1/GPa) = 0.03792682
#
# Stress axis : x y z
#
# Youngs Moduli (GPa) = 60.98947 58.15173 70.95314
#
# Poissons Ratio (x) = 0.14890 0.16250
# Poissons Ratio (y) = 0.15617 0.00205
# Poissons Ratio (z) = 0.13968 0.00168
#
# Static dielectric constant tensor:
#      x y z
#    x 9.456920 -2.754890 1.158990 
#    y -2.754890 4.888120 -0.200320 
#    z 1.158990 -0.200320 4.441870 
# 
# 
# High freq. dielectric constant tensor:
#      x y z
#    x 1.831770 -0.012840 0.002900 
#    y -0.012840 1.817520 0.033270 
#    z 0.002900 0.033270 1.858080 
# 
# From -- ./inp_files/259401.got.cif
#   From: 2010.06.25/outbox.cif.g09.slc.cpg/sg2_130_cif.got.tgz:259401.got - 2010.06.27 13:26:56.
