data_PCOD8038199
_publ_section_title
;
Structure prediction by ZEFSAII (Michael W. Deem and Ramdas Pophale) SiO2 
 PCOD8038199
Probable space group: P -1
;
_chemical_formula_sum "Si O2"
_cell_formula_units_Z 14
_cell_length_a 30.000000
_cell_length_b 15.000000
_cell_length_c 12.000000
_cell_angle_alpha 150.000000
_cell_angle_beta 20.000000
_cell_angle_gamma 160.000000
_cell_volume 624.976433
_symmetry_space_group_name_H-M "P -1"
_symmetry_group_IT_number 2
_symmetry_cell_setting 'triclinic'
loop_
_space_group_symop_operation_xyz
x,y,z
-x,-y,-z
loop_
_atom_site_type_symbol
_atom_site_label
_atom_site_fract_x
_atom_site_fract_y
_atom_site_fract_z
Si Si1 0.565497 0.857605 0.183361
Si Si2 0.136833 0.074635 0.857768
Si Si3 0.290412 0.594702 0.096998
Si Si4 0.342776 0.921806 0.136684
Si Si5 0.112851 0.651313 0.160864
Si Si6 0.009610 0.867043 0.171937
Si Si7 0.311761 0.290323 0.094484
O O1 0.442349 0.603868 0.112511
O O2 0.500000 0.000000 0.500000
O O3 0.563831 0.749085 0.187914
O O4 0.784766 0.103093 0.894687
O O5 0.218919 0.960839 0.518526
O O6 0.300069 0.391498 0.831995
O O7 0.016804 0.937860 0.105041
O O8 0.000000 0.000000 0.000000
O O9 0.342998 0.749072 0.027326
O O10 0.076989 0.437545 0.456829
O O11 0.434475 0.787727 0.070100
O O12 0.260615 0.774989 0.051988
O O13 0.059107 0.410101 0.965536
O O14 0.852995 0.827992 0.558708
O O15 0.216929 0.117299 0.015821
#
# Coordination Sequence:
#
# PCOD8038199 Si02
#       7
#     2   2   2   2   2   2   2
#     4  11  24  47  71 102 136 180 240 289 354 412
#     4  12  23  43  72 102 141 187 229 287 353 418
#     4  11  24  44  66 100 144 184 231 284 351 419
#     4  11  25  44  66 106 142 177 239 287 346 428
#     4  12  23  44  73 102 138 187 227 294 351 417
#     4  11  24  45  73 101 142 183 235 287 351 418
#     4  10  25  48  67 104 142 180 233 295 344 419
#
# _framework density 22.400845
#
# number of rings (size 3 to 8) (size 9 to 14) (size 15 to 20)
#    0.000    0.857    4.286    2.571    2.000    1.714 
#    0.000    0.000    0.000    0.000    0.000    0.000 
#    0.000    0.000    0.000    0.000    0.000    0.000 
#
# Total GULP energy -173486.333830 kJ/mol
# GULP energy per Si atom -12391.880988 kJ/mol
# Density = 2.234986 g / cm^3
# Si number density = 22.400845 Si / 1000 Ang^3
#
#
#
# Elastic Constant Matrix: (Units=GPa)
#
#
# Indices 1 2 3 4 5 6 
#
# 1 103.1584 49.3076 15.9767 0.7952 -2.0025 17.7848
# 2 49.3076 206.5207 17.4026 15.6317 -0.8524 17.9134
# 3 15.9767 17.4026 21.1025 12.4098 -8.6252 4.9004
# 4 0.7952 15.6317 12.4098 49.2697 1.7395 -7.2039
# 5 -2.0025 -0.8524 -8.6252 1.7395 27.8866 -0.0502
# 6 17.7848 17.9134 4.9004 -7.2039 -0.0502 52.5596
#
#
#
# Elastic Compliance Matrix: (Units=1/GPa)
#
#
# Indices 1 2 3 4 5 6 
#
# 1 0.012572 -0.002203 -0.009735 0.002705 -0.002348 -0.002227
# 2 -0.002203 0.005763 -0.002231 -0.001386 -0.000588 -0.001201
# 3 -0.009735 -0.002231 0.081184 -0.021429 0.025668 -0.006427
# 4 0.002705 -0.001386 -0.021429 0.027148 -0.008160 0.005268
# 5 -0.002348 -0.000588 0.025668 -0.008160 0.044116 -0.002474
# 6 -0.002227 -0.001201 -0.006427 0.005268 -0.002474 0.021508
#
#
# Mechanical properties :
#
#
# Convention : Reuss Voigt Hill
#
# Bulk Modulus (GPa) = 14.04891 55.12837 34.58864
# Shear Modulus (GPa) = 20.46199 42.48282 31.47241
#
# Velocity S-wave (km/s) = 3.02561 4.35959 3.75235
# Velocity P-wave (km/s) = 4.30011 7.07140 5.85216
#
# Compressibility (1/GPa) = 0.07117992
#
# Stress axis : x y z
#
# Youngs Moduli (GPa) = 79.54254 173.53133 12.31775
#
# Poissons Ratio (x) = 0.38220 0.11992
# Poissons Ratio (y) = 0.17519 0.02748
# Poissons Ratio (z) = 0.77438 0.38719
#
# Static dielectric constant tensor:
#      x y z
#    x 4.235890 0.056550 -0.150410 
#    y 0.056550 5.128970 0.110790 
#    z -0.150410 0.110790 3.979230 
# 
# 
# High freq. dielectric constant tensor:
#      x y z
#    x 1.882100 0.008290 -0.015980 
#    y 0.008290 1.933010 0.013010 
#    z -0.015980 0.013010 1.877670 
# 
# From -- ./inp_files/477680.got.cif
#   From: 2010.06.25/outbox.ucp.g09.slc.cvg/sg2_239_cif.got.tgz:477680.got - 2010.06.28 11:54:26.
