data_PCOD8038069
_publ_section_title
;
Structure prediction by ZEFSAII (Michael W. Deem and Ramdas Pophale) SiO2 
 PCOD8038069
Probable space group: P -1
;
_chemical_formula_sum "Si O2"
_cell_formula_units_Z 12
_cell_length_a 9.052077
_cell_length_b 19.494754
_cell_length_c 12.375692
_cell_angle_alpha 147.758798
_cell_angle_beta 142.143879
_cell_angle_gamma 38.043254
_cell_volume 665.458687
_symmetry_space_group_name_H-M "P -1"
_symmetry_group_IT_number 2
_symmetry_cell_setting 'triclinic'
loop_
_space_group_symop_operation_xyz
x,y,z
-x,-y,-z
loop_
_atom_site_type_symbol
_atom_site_label
_atom_site_fract_x
_atom_site_fract_y
_atom_site_fract_z
Si Si1 0.442291 0.151943 0.625096
Si Si2 0.492338 0.100895 0.355699
Si Si3 0.922494 0.661256 0.160186
Si Si4 0.947458 0.087678 0.734101
Si Si5 0.344773 0.193774 0.011064
Si Si6 0.340634 0.790664 0.596412
O O1 0.322430 0.164900 0.450057
O O2 0.241323 0.268398 0.735542
O O3 0.723772 0.167270 0.799666
O O4 0.500000 0.000000 0.500000
O O5 0.454919 0.210752 0.383068
O O6 0.799141 0.050579 0.497174
O O7 0.456768 0.961068 0.110007
O O8 0.184926 0.692588 0.346308
O O9 0.741584 0.712813 0.020242
O O10 0.000000 0.500000 0.000000
O O11 0.145267 0.946953 0.711208
O O12 0.091396 0.189889 0.920700
O O13 0.496341 0.260975 0.268161
#
# Coordination Sequence:
#
# PCOD8038069 Si02
#       6
#     2   2   2   2   2   2
#     4  10  17  33  61  79 112 144 181 226 276 319
#     4   9  16  32  60  81 107 137 184 225 273 310
#     4  12  23  39  55  79 116 151 179 222 277 334
#     4   9  16  32  60  81 107 137 184 225 273 310
#     4  11  19  34  58  84 110 145 183 226 273 325
#     4  11  19  34  58  84 110 145 183 226 273 325
#
# _framework density 18.032675999999999
#
# number of rings (size 3 to 8) (size 9 to 14) (size 15 to 20)
#    1.000    0.667    6.667    3.000    0.000    0.667 
#    0.000    8.333    0.000    2.000    0.000    0.000 
#    0.000    0.000    0.000    0.000    0.000    0.000 
#
# Total GULP energy -148664.405265 kJ/mol
# GULP energy per Si atom -12388.700439 kJ/mol
# Density = 1.799163 g / cm^3
# Si number density = 18.032676 Si / 1000 Ang^3
#
#
#
# Elastic Constant Matrix: (Units=GPa)
#
#
# Indices 1 2 3 4 5 6 
#
# 1 99.3094 32.7536 33.6622 14.9987 -22.0323 16.4413
# 2 32.7536 48.8518 45.3316 6.6462 -11.2751 18.0979
# 3 33.6622 45.3316 76.9870 -6.5854 -15.4389 19.6860
# 4 14.9987 6.6462 -6.5854 37.0339 5.7535 -6.8820
# 5 -22.0323 -11.2751 -15.4389 5.7535 22.7174 -1.5324
# 6 16.4413 18.0979 19.6860 -6.8820 -1.5324 22.5818
#
#
#
# Elastic Compliance Matrix: (Units=1/GPa)
#
#
# Indices 1 2 3 4 5 6 
#
# 1 0.020468 0.003363 -0.003189 -0.016314 0.022251 -0.018279
# 2 0.003363 0.071955 -0.031609 -0.030923 0.022595 -0.040451
# 3 -0.003189 -0.031609 0.033710 0.013254 0.000932 0.002370
# 4 -0.016314 -0.030923 0.013254 0.053974 -0.033181 0.039304
# 5 0.022251 0.022595 0.000932 -0.033181 0.083180 -0.039589
# 6 -0.018279 -0.040451 0.002370 0.039304 -0.039589 0.097237
#
#
# Mechanical properties :
#
#
# Convention : Reuss Voigt Hill
#
# Bulk Modulus (GPa) = 15.80714 49.84923 32.82818
# Shear Modulus (GPa) = 11.24903 24.02668 17.63786
#
# Velocity S-wave (km/s) = 2.50034 3.65416 3.13086
# Velocity P-wave (km/s) = 4.13768 6.74594 5.59590
#
# Compressibility (1/GPa) = 0.06326255
#
# Stress axis : x y z
#
# Youngs Moduli (GPa) = 48.85672 13.89764 29.66437
#
# Poissons Ratio (x) = -0.04673 0.09459
# Poissons Ratio (y) = -0.16429 0.93767
# Poissons Ratio (z) = 0.15579 0.43930
#
# Static dielectric constant tensor:
#      x y z
#    x 4.083800 0.035720 -0.355470 
#    y 0.035720 2.944030 -0.146070 
#    z -0.355470 -0.146070 3.303170 
# 
# 
# High freq. dielectric constant tensor:
#      x y z
#    x 1.711020 0.015750 -0.004530 
#    y 0.015750 1.652710 -0.023710 
#    z -0.004530 -0.023710 1.675450 
# 
# From -- ./inp_files/164069.got.cif
#   From: 2010.06.25/outbox.cif.g09.slc.cpg/sg2_83_cif.got.tgz:164069.got - 2010.06.27 13:26:56.
