data_PCOD8038799
_publ_section_title
;
Structure prediction by ZEFSAII (Michael W. Deem and Ramdas Pophale) SiO2 
 PCOD8038799
Probable space group: P -1
;
_chemical_formula_sum "Si O2"
_cell_formula_units_Z 16
_cell_length_a 12.073260
_cell_length_b 11.899573
_cell_length_c 13.703666
_cell_angle_alpha 100.770677
_cell_angle_beta 54.818156
_cell_angle_gamma 55.372882
_cell_volume 853.277797
_symmetry_space_group_name_H-M "P -1"
_symmetry_group_IT_number 2
_symmetry_cell_setting 'triclinic'
loop_
_space_group_symop_operation_xyz
x,y,z
-x,-y,-z
loop_
_atom_site_type_symbol
_atom_site_label
_atom_site_fract_x
_atom_site_fract_y
_atom_site_fract_z
Si Si1 0.311659 0.146951 0.031408
Si Si2 0.930250 0.216652 0.249731
Si Si3 0.924096 0.605676 0.281338
Si Si4 0.536733 0.761303 0.368453
Si Si5 0.507273 0.992284 0.693179
Si Si6 0.129441 0.141317 0.773474
Si Si7 0.502044 0.468211 0.641412
Si Si8 0.164550 0.847054 0.983360
O O1 0.072881 0.234525 0.181502
O O2 0.191115 0.359390 0.131538
O O3 0.474583 0.007524 0.828528
O O4 0.500000 0.000000 0.000000
O O5 0.786929 0.290093 0.435173
O O6 0.709968 0.372026 0.307851
O O7 0.146906 0.966078 0.085057
O O8 0.791862 0.617390 0.270313
O O9 0.984232 0.684683 0.214331
O O10 0.751859 0.750246 0.488731
O O11 0.481314 0.883038 0.324690
O O12 0.533317 0.633401 0.311120
O O13 0.322627 0.922434 0.584519
O O14 0.261061 0.111222 0.791535
O O15 0.917904 0.212191 0.935280
O O16 0.445610 0.612423 0.769341
O O17 0.000000 0.000000 0.000000
#
# Coordination Sequence:
#
# PCOD8038799 Si02
#       8
#     2   2   2   2   2   2   2   2
#     4  12  25  39  57  77 108 155 197 225 257 320
#     4  10  21  35  48  78 117 140 177 222 267 332
#     4   9  20  35  55  83 114 144 178 229 280 326
#     4   9  16  32  56  87 117 138 170 223 293 337
#     4   9  20  34  55  85 113 140 180 231 277 329
#     4   9  17  32  55  88 120 138 168 228 291 339
#     4  10  18  30  55  83 111 144 164 220 289 332
#     4  10  19  28  48  82 115 144 168 207 279 345
#
# _framework density 18.751221000000001
#
# number of rings (size 3 to 8) (size 9 to 14) (size 15 to 20)
#    0.000    2.250    2.500    3.000    1.750    2.500 
#    0.000    0.000    0.000    1.500    0.000    0.000 
#    0.000    0.000    0.000    0.000    0.000    0.000 
#
# Total GULP energy -198254.528510 kJ/mol
# GULP energy per Si atom -12390.908032 kJ/mol
# Density = 1.870854 g / cm^3
# Si number density = 18.751221 Si / 1000 Ang^3
#
#
#
# Elastic Constant Matrix: (Units=GPa)
#
#
# Indices 1 2 3 4 5 6 
#
# 1 30.3123 30.7385 35.4473 -1.4854 8.7668 8.2442
# 2 30.7385 84.9635 42.1139 3.3826 7.4276 6.9075
# 3 35.4473 42.1139 78.6352 2.5686 12.3470 -1.2349
# 4 -1.4854 3.3826 2.5686 33.5555 10.7320 2.5533
# 5 8.7668 7.4276 12.3470 10.7320 21.7708 0.0600
# 6 8.2442 6.9075 -1.2349 2.5533 0.0600 30.4706
#
#
#
# Elastic Compliance Matrix: (Units=1/GPa)
#
#
# Indices 1 2 3 4 5 6 
#
# 1 0.112841 -0.017959 -0.038003 0.020928 -0.027994 -0.029698
# 2 -0.017959 0.019397 -0.002803 -0.003907 0.004128 0.000668
# 3 -0.038003 -0.002803 0.031587 -0.005031 0.000790 0.012618
# 4 0.020928 -0.003907 -0.005031 0.039752 -0.023815 -0.008265
# 5 -0.027994 0.004128 0.000790 -0.023815 0.067065 0.008534
# 6 -0.029698 0.000668 0.012618 -0.008265 0.008534 0.041890
#
#
# Mechanical properties :
#
#
# Convention : Reuss Voigt Hill
#
# Bulk Modulus (GPa) = 21.60005 45.61227 33.60616
# Shear Modulus (GPa) = 11.22352 22.86681 17.04516
#
# Velocity S-wave (km/s) = 2.44918 3.49590 3.01826
# Velocity P-wave (km/s) = 4.42066 6.37753 5.48704
#
# Compressibility (1/GPa) = 0.04629618
#
# Stress axis : x y z
#
# Youngs Moduli (GPa) = 8.86202 51.55565 31.65810
#
# Poissons Ratio (x) = 0.92587 1.20311
# Poissons Ratio (y) = 0.15915 0.08873
# Poissons Ratio (z) = 0.33679 0.14449
#
# Static dielectric constant tensor:
#      x y z
#    x 3.048800 0.416340 0.216010 
#    y 0.416340 3.365360 0.022080 
#    z 0.216010 0.022080 3.808440 
# 
# 
# High freq. dielectric constant tensor:
#      x y z
#    x 1.672840 0.048110 0.014980 
#    y 0.048110 1.717010 -0.003740 
#    z 0.014980 -0.003740 1.746720 
# 
# From -- ./inp_files/254561.got.cif
#   From: 2010.06.25/outbox.cif.g09.slc.cpg/sg2_128_cif.got.tgz:254561.got - 2010.06.27 13:26:56.
