data_PCOD8038750
_publ_section_title
;
Structure prediction by ZEFSAII (Michael W. Deem and Ramdas Pophale) SiO2 
 PCOD8038750
Probable space group: P -1
;
_chemical_formula_sum "Si O2"
_cell_formula_units_Z 12
_cell_length_a 13.001117
_cell_length_b 7.711629
_cell_length_c 12.169157
_cell_angle_alpha 107.003013
_cell_angle_beta 22.328499
_cell_angle_gamma 112.692398
_cell_volume 420.356808
_symmetry_space_group_name_H-M "P -1"
_symmetry_group_IT_number 2
_symmetry_cell_setting 'triclinic'
loop_
_space_group_symop_operation_xyz
x,y,z
-x,-y,-z
loop_
_atom_site_type_symbol
_atom_site_label
_atom_site_fract_x
_atom_site_fract_y
_atom_site_fract_z
Si Si1 0.687008 0.368294 0.272450
Si Si2 0.881563 0.148098 0.208416
Si Si3 0.852120 0.907641 0.756629
Si Si4 0.413250 0.064309 0.325696
Si Si5 0.319887 0.429137 0.966780
Si Si6 0.060199 0.392748 0.528595
O O1 0.500000 0.500000 0.500000
O O2 0.654943 0.204545 0.365281
O O3 0.609068 0.272796 0.211002
O O4 0.000000 0.500000 0.000000
O O5 0.692135 0.069869 0.488587
O O6 0.173259 0.327622 0.979614
O O7 0.000000 0.000000 0.000000
O O8 0.916701 0.821369 0.558398
O O9 0.816396 0.725020 0.833666
O O10 0.128517 0.082064 0.553652
O O11 0.573178 0.972924 0.059808
O O12 0.661556 0.488497 0.652764
O O13 0.215413 0.616585 0.125857
O O14 0.000000 0.500000 0.500000
#
# Coordination Sequence:
#
# PCOD8038750 Si02
#       6
#     2   2   2   2   2   2
#     4  12  26  43  62  90 125 165 208 257 312 369
#     4  11  24  42  65  92 127 167 210 258 305 368
#     4  10  18  32  55  86 120 154 193 247 302 358
#     4  11  22  38  62  90 119 159 204 247 302 362
#     4  10  19  31  51  84 121 160 194 241 308 363
#     4  10  18  30  50  84 126 155 186 246 312 360
#
# _framework density 28.547174999999999
#
# number of rings (size 3 to 8) (size 9 to 14) (size 15 to 20)
#    0.000    1.333    0.000   10.500    0.000    5.333 
#    0.000    0.000    0.000    0.000    0.000   23.333 
#    0.000    0.000    0.000    0.333    0.000    0.000 
#
# Total GULP energy -148676.349543 kJ/mol
# GULP energy per Si atom -12389.695795 kJ/mol
# Density = 2.848220 g / cm^3
# Si number density = 28.547175 Si / 1000 Ang^3
#
#
#
# Elastic Constant Matrix: (Units=GPa)
#
#
# Indices 1 2 3 4 5 6 
#
# 1 97.5131 15.2352 25.8918 5.1682 -15.4528 8.9757
# 2 15.2352 135.9292 34.5791 21.0873 -3.9641 27.4394
# 3 25.8918 34.5791 167.3587 23.9090 -22.9660 0.8683
# 4 5.1682 21.0873 23.9090 56.3297 15.5694 -15.4696
# 5 -15.4528 -3.9641 -22.9660 15.5694 39.9248 -3.2884
# 6 8.9757 27.4394 0.8683 -15.4696 -3.2884 36.6852
#
#
#
# Elastic Compliance Matrix: (Units=1/GPa)
#
#
# Indices 1 2 3 4 5 6 
#
# 1 0.011775 0.000398 -0.000651 -0.003559 0.005265 -0.004192
# 2 0.000398 0.011113 -0.000784 -0.007804 0.002909 -0.011421
# 3 -0.000651 -0.000784 0.007748 -0.004835 0.005935 -0.000944
# 4 -0.003559 -0.007804 -0.004835 0.032787 -0.016138 0.019202
# 5 0.005265 0.002909 0.005935 -0.016138 0.036493 -0.007138
# 6 -0.004192 -0.011421 -0.000944 0.019202 -0.007138 0.044307
#
#
# Mechanical properties :
#
#
# Convention : Reuss Voigt Hill
#
# Bulk Modulus (GPa) = 35.01350 61.35702 48.18526
# Shear Modulus (GPa) = 32.08895 48.26094 40.17495
#
# Velocity S-wave (km/s) = 3.35635 4.11611 3.75549
# Velocity P-wave (km/s) = 5.22608 6.64302 5.97669
#
# Compressibility (1/GPa) = 0.02856041
#
# Stress axis : x y z
#
# Youngs Moduli (GPa) = 84.92842 89.98689 129.06578
#
# Poissons Ratio (x) = -0.03580 0.08403
# Poissons Ratio (y) = -0.03379 0.10122
# Poissons Ratio (z) = 0.05529 0.07057
#
# Static dielectric constant tensor:
#      x y z
#    x 6.214610 0.256160 0.102750 
#    y 0.256160 5.873870 -0.014950 
#    z 0.102750 -0.014950 5.112690 
# 
# 
# High freq. dielectric constant tensor:
#      x y z
#    x 2.177870 -0.001360 -0.004720 
#    y -0.001360 2.174900 0.001430 
#    z -0.004720 0.001430 2.159200 
# 
# From -- ./inp_files/526729.got.cif
#   From: 2010.06.25/outbox.cif.g09.slc.cpg/sg2_264_cif.got.tgz:526729.got - 2010.06.27 13:26:56.
