data_PCOD8038625
_publ_section_title
;
Structure prediction by ZEFSAII (Michael W. Deem and Ramdas Pophale) SiO2 
 PCOD8038625
Probable space group: P -1
;
_chemical_formula_sum "Si O2"
_cell_formula_units_Z 16
_cell_length_a 5.368099
_cell_length_b 14.281294
_cell_length_c 17.771544
_cell_angle_alpha 61.500301
_cell_angle_beta 90.720581
_cell_angle_gamma 54.382966
_cell_volume 889.267130
_symmetry_space_group_name_H-M "P -1"
_symmetry_group_IT_number 2
_symmetry_cell_setting 'triclinic'
loop_
_space_group_symop_operation_xyz
x,y,z
-x,-y,-z
loop_
_atom_site_type_symbol
_atom_site_label
_atom_site_fract_x
_atom_site_fract_y
_atom_site_fract_z
Si Si1 0.761984 0.647661 0.486088
Si Si2 0.317583 0.453871 0.845250
Si Si3 0.114152 0.589200 0.090100
Si Si4 0.053421 0.327093 0.371819
Si Si5 0.747469 0.075248 0.400687
Si Si6 0.039936 0.786204 0.454597
Si Si7 0.667547 0.251925 0.205478
Si Si8 0.072525 0.310173 0.119035
O O1 0.819226 0.621549 0.586541
O O2 0.378223 0.726248 0.436319
O O3 0.000000 0.500000 0.500000
O O4 0.849506 0.745150 0.424108
O O5 0.721425 0.351002 0.895500
O O6 0.204020 0.361796 0.880730
O O7 0.205799 0.544976 0.734491
O O8 0.140886 0.550241 0.882680
O O9 0.412412 0.417719 0.164839
O O10 0.010609 0.638834 0.985853
O O11 0.364207 0.187665 0.381907
O O12 0.872186 0.283301 0.434120
O O13 0.824248 0.156155 0.318240
O O14 0.000000 0.000000 0.500000
O O15 0.792249 0.957099 0.395443
O O16 0.468043 0.217926 0.170639
O O17 0.971776 0.216307 0.172117
#
# Coordination Sequence:
#
# PCOD8038625 Si02
#       8
#     2   2   2   2   2   2   2   2
#     4  10  22  39  55  71  95 138 189 225 265 296
#     4  10  18  27  45  65  95 125 174 199 250 295
#     4  10  18  30  44  64  93 137 174 204 246 301
#     4  10  22  32  53  74 106 138 178 206 260 302
#     4  12  21  35  50  79 115 142 182 208 255 319
#     4  10  23  34  55  73 101 140 178 216 256 303
#     4  10  20  28  45  63  96 136 175 202 240 292
#     4  10  18  30  45  62  92 139 178 201 245 299
#
# _framework density 17.992342000000001
#
# number of rings (size 3 to 8) (size 9 to 14) (size 15 to 20)
#    0.750    1.000    3.750    4.500    5.250    2.000 
#    0.000    0.000    0.000    0.000    0.000    0.000 
#    0.000    0.000    0.000   38.250    0.000    0.000 
#
# Total GULP energy -198230.543669 kJ/mol
# GULP energy per Si atom -12389.408979 kJ/mol
# Density = 1.795139 g / cm^3
# Si number density = 17.992342 Si / 1000 Ang^3
#
#
#
# Elastic Constant Matrix: (Units=GPa)
#
#
# Indices 1 2 3 4 5 6 
#
# 1 159.6409 18.8900 24.1452 -0.9265 -7.0452 -3.5665
# 2 18.8900 72.3252 -1.2602 -5.7131 -5.8510 1.5281
# 3 24.1452 -1.2602 87.4026 3.0442 -10.5542 2.2742
# 4 -0.9265 -5.7131 3.0442 4.6918 3.5174 -3.4720
# 5 -7.0452 -5.8510 -10.5542 3.5174 25.7018 3.3385
# 6 -3.5665 1.5281 2.2742 -3.4720 3.3385 11.9764
#
#
#
# Elastic Compliance Matrix: (Units=1/GPa)
#
#
# Indices 1 2 3 4 5 6 
#
# 1 0.006888 -0.001633 -0.002238 0.004186 -0.000500 0.004037
# 2 -0.001633 0.015920 -0.000319 0.023049 -0.000683 0.004415
# 3 -0.002238 -0.000319 0.014959 -0.030963 0.011735 -0.015714
# 4 0.004186 0.023049 -0.030963 0.444217 -0.087555 0.157373
# 5 -0.000500 -0.000683 0.011735 -0.087555 0.061228 -0.044741
# 6 0.004037 0.004415 -0.015714 0.157373 -0.044741 0.145215
#
#
# Mechanical properties :
#
#
# Convention : Reuss Voigt Hill
#
# Bulk Modulus (GPa) = 34.02897 44.76873 39.39885
# Shear Modulus (GPa) = 7.07610 26.98025 17.02818
#
# Velocity S-wave (km/s) = 1.98529 3.87659 3.07972
# Velocity P-wave (km/s) = 4.92029 6.70622 5.88144
#
# Compressibility (1/GPa) = 0.02938672
#
# Stress axis : x y z
#
# Youngs Moduli (GPa) = 145.17648 62.81569 66.84832
#
# Poissons Ratio (x) = 0.10259 0.14958
# Poissons Ratio (y) = 0.23709 0.02135
# Poissons Ratio (z) = 0.32485 0.02006
#
# Static dielectric constant tensor:
#      x y z
#    x 4.585790 0.075160 -0.115280 
#    y 0.075160 2.745220 0.017410 
#    z -0.115280 0.017410 3.364590 
# 
# 
# High freq. dielectric constant tensor:
#      x y z
#    x 1.731510 0.002380 -0.005630 
#    y 0.002380 1.609100 0.013230 
#    z -0.005630 0.013230 1.686900 
# 
# From -- ./inp_files/79654.got.cif
#   From: 2010.06.25/outbox.cif.g09.slc.cpg/sg2_40_cif.got.tgz:79654.got - 2010.06.27 13:26:56.
