data_PCOD8038866
_publ_section_title
;
Structure prediction by ZEFSAII (Michael W. Deem and Ramdas Pophale) SiO2 
 PCOD8038866
Probable space group: P -1
;
_chemical_formula_sum "Si O2"
_cell_formula_units_Z 14
_cell_length_a 14.616714
_cell_length_b 8.527578
_cell_length_c 17.198884
_cell_angle_alpha 139.634028
_cell_angle_beta 27.854883
_cell_angle_gamma 136.421230
_cell_volume 639.526263
_symmetry_space_group_name_H-M "P -1"
_symmetry_group_IT_number 2
_symmetry_cell_setting 'triclinic'
loop_
_space_group_symop_operation_xyz
x,y,z
-x,-y,-z
loop_
_atom_site_type_symbol
_atom_site_label
_atom_site_fract_x
_atom_site_fract_y
_atom_site_fract_z
Si Si1 0.777678 0.957184 0.911943
Si Si2 0.983207 0.249977 0.735847
Si Si3 0.266834 0.120607 0.917719
Si Si4 0.874520 0.341091 0.442606
Si Si5 0.379500 0.678979 0.064409
Si Si6 0.830259 0.206540 0.588327
Si Si7 0.839330 0.232205 0.259877
O O1 0.902542 0.192747 0.863189
O O2 0.916848 0.758343 0.749891
O O3 0.693057 0.017726 0.083617
O O4 0.595955 0.837848 0.947143
O O5 0.791669 0.210980 0.809656
O O6 0.105356 0.522561 0.740687
O O7 0.135586 0.071059 0.527800
O O8 0.319973 0.958052 0.742364
O O9 0.383682 0.398741 0.930259
O O10 0.031859 0.113334 0.087147
O O11 0.745841 0.231963 0.573034
O O12 0.755422 0.284982 0.429209
O O13 0.948438 0.633648 0.506552
O O14 0.331831 0.702301 0.200511
#
# Coordination Sequence:
#
# PCOD8038866 Si02
#       7
#     2   2   2   2   2   2   2
#     4  10  19  32  50  79 105 128 166 206 256 296
#     4  10  20  31  50  78 104 132 163 206 252 299
#     4   9  18  31  51  73 101 132 168 209 242 295
#     4   9  18  32  52  77  96 132 172 208 246 290
#     4  11  19  32  52  81 102 130 162 210 262 290
#     4  10  18  31  51  79 101 126 170 210 253 288
#     4   9  17  33  51  73 101 132 171 204 245 292
#
# _framework density 21.891204999999999
#
# number of rings (size 3 to 8) (size 9 to 14) (size 15 to 20)
#    0.000    2.286    4.286    1.286    0.000    0.571 
#    0.000    1.429    0.000    1.714    0.000    0.000 
#    0.000    1.143    0.000    0.000    0.000    0.000 
#
# Total GULP energy -173455.165596 kJ/mol
# GULP energy per Si atom -12389.654685 kJ/mol
# Density = 2.184138 g / cm^3
# Si number density = 21.891205 Si / 1000 Ang^3
#
#
#
# Elastic Constant Matrix: (Units=GPa)
#
#
# Indices 1 2 3 4 5 6 
#
# 1 98.2971 60.3108 28.9026 13.7999 32.5548 0.0889
# 2 60.3108 99.8459 31.8323 18.4492 15.3198 -5.3929
# 3 28.9026 31.8323 33.1224 10.1929 13.3556 6.8262
# 4 13.7999 18.4492 10.1929 15.7411 4.2078 6.9947
# 5 32.5548 15.3198 13.3556 4.2078 35.9185 0.7908
# 6 0.0889 -5.3929 6.8262 6.9947 0.7908 29.6480
#
#
#
# Elastic Compliance Matrix: (Units=1/GPa)
#
#
# Indices 1 2 3 4 5 6 
#
# 1 0.022263 -0.009752 -0.003638 -0.001781 -0.014453 -0.000197
# 2 -0.009752 0.022668 -0.012816 -0.015974 0.005571 0.010723
# 3 -0.003638 -0.012816 0.055334 -0.009224 -0.010453 -0.012605
# 4 -0.001781 -0.015974 -0.009224 0.100507 0.000622 -0.024505
# 5 -0.014453 0.005571 -0.010453 0.000622 0.042330 0.002187
# 6 -0.000197 0.010723 -0.012605 -0.024505 0.002187 0.044306
#
#
# Mechanical properties :
#
#
# Convention : Reuss Voigt Hill
#
# Bulk Modulus (GPa) = 20.89754 52.59519 36.74637
# Shear Modulus (GPa) = 14.05395 23.60950 18.83172
#
# Velocity S-wave (km/s) = 2.53650 3.28760 2.93617
# Velocity P-wave (km/s) = 4.25973 6.20395 5.32138
#
# Compressibility (1/GPa) = 0.04785251
#
# Stress axis : x y z
#
# Youngs Moduli (GPa) = 44.91689 44.11517 18.07203
#
# Poissons Ratio (x) = 0.43021 0.06575
# Poissons Ratio (y) = 0.43803 0.23161
# Poissons Ratio (z) = 0.16342 0.56539
#
# Static dielectric constant tensor:
#      x y z
#    x 4.452840 -0.022620 0.578210 
#    y -0.022620 3.718720 0.118820 
#    z 0.578210 0.118820 3.818230 
# 
# 
# High freq. dielectric constant tensor:
#      x y z
#    x 1.864130 -0.011340 0.019370 
#    y -0.011340 1.835770 0.004560 
#    z 0.019370 0.004560 1.832040 
# 
# From -- ./inp_files/172991.got.cif
#   From: 2010.06.25/outbox.cif.g09.slc.cpg/sg2_87_cif.got.tgz:172991.got - 2010.06.27 13:26:56.
