data_PCOD8038964
_publ_section_title
;
Structure prediction by ZEFSAII (Michael W. Deem and Ramdas Pophale) SiO2 
 PCOD8038964
Probable space group: P -1
;
_chemical_formula_sum "Si O2"
_cell_formula_units_Z 16
_cell_length_a 10.359247
_cell_length_b 13.783942
_cell_length_c 8.721818
_cell_angle_alpha 129.177555
_cell_angle_beta 52.165070
_cell_angle_gamma 127.020261
_cell_volume 714.096455
_symmetry_space_group_name_H-M "P -1"
_symmetry_group_IT_number 2
_symmetry_cell_setting 'triclinic'
loop_
_space_group_symop_operation_xyz
x,y,z
-x,-y,-z
loop_
_atom_site_type_symbol
_atom_site_label
_atom_site_fract_x
_atom_site_fract_y
_atom_site_fract_z
Si Si1 0.299187 0.585006 0.040833
Si Si2 0.203982 0.292590 0.829578
Si Si3 0.440055 0.954055 0.667984
Si Si4 0.139358 0.911844 0.040459
Si Si5 0.257442 0.187414 0.361984
Si Si6 0.612125 0.557340 0.627193
Si Si7 0.583641 0.336374 0.640972
Si Si8 0.371661 0.819320 0.010989
O O1 0.293272 0.630688 0.266512
O O2 0.255825 0.686720 0.057316
O O3 0.169997 0.431282 0.956612
O O4 0.497133 0.597260 0.876770
O O5 0.210077 0.209291 0.591011
O O6 0.389758 0.335387 0.823283
O O7 0.052748 0.196737 0.953055
O O8 0.439910 0.807226 0.552654
O O9 0.500000 0.000000 0.500000
O O10 0.571738 0.054312 0.790318
O O11 0.242388 0.950907 0.842294
O O12 0.248476 0.846482 0.001732
O O13 0.124746 0.045256 0.260108
O O14 0.230575 0.307151 0.399267
O O15 0.458811 0.197106 0.208198
O O16 0.500000 0.500000 0.500000
O O17 0.674832 0.444781 0.548326
#
# Coordination Sequence:
#
# PCOD8038964 Si02
#       8
#     2   2   2   2   2   2   2   2
#     4  10  21  36  60  88 118 157 202 238 283 357
#     4  11  21  37  60  90 125 150 191 248 309 337
#     4  11  22  41  65  87 115 159 203 238 288 357
#     4  11  24  37  61  91 122 153 191 252 300 346
#     4  10  19  36  60  89 116 150 198 248 283 350
#     4  10  18  31  59  90 110 140 203 247 278 330
#     4  11  21  39  65  83 118 159 200 241 287 350
#     4  10  21  38  63  90 113 154 210 237 285 351
#
# _framework density 22.405937999999999
#
# number of rings (size 3 to 8) (size 9 to 14) (size 15 to 20)
#    0.000    1.500    3.750    4.875    1.750    0.500 
#    0.000    1.250    8.250    0.000    0.000    0.000 
#    0.000    0.000    0.000    0.000    0.000    0.000 
#
# Total GULP energy -198304.455296 kJ/mol
# GULP energy per Si atom -12394.028456 kJ/mol
# Density = 2.235494 g / cm^3
# Si number density = 22.405938 Si / 1000 Ang^3
#
#
#
# Elastic Constant Matrix: (Units=GPa)
#
#
# Indices 1 2 3 4 5 6 
#
# 1 28.6214 22.4919 16.1950 -4.9875 5.5756 -3.6987
# 2 22.4919 157.6454 39.8010 13.7986 -2.7468 -6.8036
# 3 16.1950 39.8010 95.2196 3.2725 16.2747 -5.2748
# 4 -4.9875 13.7986 3.2725 42.5827 -7.0896 -4.7092
# 5 5.5756 -2.7468 16.2747 -7.0896 18.5656 -3.5914
# 6 -3.6987 -6.8036 -5.2748 -4.7092 -3.5914 33.5447
#
#
#
# Elastic Compliance Matrix: (Units=1/GPa)
#
#
# Indices 1 2 3 4 5 6 
#
# 1 0.044925 -0.006017 -0.003820 0.006542 -0.007916 0.003203
# 2 -0.006017 0.008333 -0.003225 -0.002212 0.005170 0.000762
# 3 -0.003820 -0.003225 0.014889 -0.002876 -0.013595 -0.000593
# 4 0.006542 -0.002212 -0.002876 0.027696 0.011766 0.004968
# 5 -0.007916 0.005170 -0.013595 0.011766 0.074907 0.007710
# 6 0.003203 0.000762 -0.000593 0.004968 0.007710 0.031748
#
#
# Mechanical properties :
#
#
# Convention : Reuss Voigt Hill
#
# Bulk Modulus (GPa) = 23.79691 48.71801 36.25746
# Shear Modulus (GPa) = 20.60744 32.47184 26.53964
#
# Velocity S-wave (km/s) = 3.03600 3.81103 3.44538
# Velocity P-wave (km/s) = 4.78890 6.41528 5.66080
#
# Compressibility (1/GPa) = 0.04202227
#
# Stress axis : x y z
#
# Youngs Moduli (GPa) = 22.25924 120.00960 67.16234
#
# Poissons Ratio (x) = 0.72215 0.25657
# Poissons Ratio (y) = 0.13394 0.21659
# Poissons Ratio (z) = 0.08503 0.38701
#
# Static dielectric constant tensor:
#      x y z
#    x 3.447170 -0.310350 0.005180 
#    y -0.310350 4.704940 0.139510 
#    z 0.005180 0.139510 4.156050 
# 
# 
# High freq. dielectric constant tensor:
#      x y z
#    x 1.817960 -0.025400 0.018070 
#    y -0.025400 1.907690 0.017360 
#    z 0.018070 0.017360 1.885950 
# 
# From -- ./inp_files/218604.got.cif
#   From: 2010.06.25/outbox.cif.g09.slc.cpg/sg2_110_cif.got.tgz:218604.got - 2010.06.27 13:26:56.
