data_PCOD8038486
_publ_section_title
;
Structure prediction by ZEFSAII (Michael W. Deem and Ramdas Pophale) SiO2 
 PCOD8038486
Probable space group: P -1
;
_chemical_formula_sum "Si O2"
_cell_formula_units_Z 12
_cell_length_a 12.125328
_cell_length_b 8.631729
_cell_length_c 9.061363
_cell_angle_alpha 67.314691
_cell_angle_beta 66.322866
_cell_angle_gamma 35.022409
_cell_volume 495.540197
_symmetry_space_group_name_H-M "P -1"
_symmetry_group_IT_number 2
_symmetry_cell_setting 'triclinic'
loop_
_space_group_symop_operation_xyz
x,y,z
-x,-y,-z
loop_
_atom_site_type_symbol
_atom_site_label
_atom_site_fract_x
_atom_site_fract_y
_atom_site_fract_z
Si Si1 0.709109 0.738809 0.055310
Si Si2 0.491327 0.932476 0.690099
Si Si3 0.642290 0.464148 0.639068
Si Si4 0.108232 0.388179 0.278160
Si Si5 0.957991 0.833422 0.396251
Si Si6 0.652219 0.457322 0.304629
O O1 0.743728 0.499663 0.136806
O O2 0.703897 0.821813 0.195586
O O3 0.885352 0.619063 0.902907
O O4 0.500000 0.000000 0.000000
O O5 0.514514 0.708263 0.735922
O O6 0.671558 0.815538 0.720505
O O7 0.500000 0.000000 0.500000
O O8 0.625906 0.559199 0.446534
O O9 0.560106 0.363503 0.714034
O O10 0.864862 0.229109 0.660296
O O11 0.046224 0.272939 0.412292
O O12 0.971229 0.686615 0.307603
O O13 0.770637 0.152943 0.355993
#
# Coordination Sequence:
#
# PCOD8038486 Si02
#       6
#     2   2   2   2   2   2
#     4  10  22  39  64  95 131 165 209 268 319 368
#     4  10  17  36  63  91 122 167 213 251 314 387
#     4  10  22  37  67  95 119 164 220 258 305 383
#     4   9  21  39  64  92 132 164 206 273 313 369
#     4  10  21  41  67  93 126 169 217 254 315 388
#     4  11  22  39  67  94 125 171 210 265 314 373
#
# _framework density 24.215996000000001
#
# number of rings (size 3 to 8) (size 9 to 14) (size 15 to 20)
#    0.000    2.000    1.667    1.500    7.000    0.667 
#    0.000    8.333    0.000    0.000    0.000    0.000 
#    0.000    0.000    0.000    0.000    0.000    0.000 
#
# Total GULP energy -148700.099658 kJ/mol
# GULP energy per Si atom -12391.674971 kJ/mol
# Density = 2.416088 g / cm^3
# Si number density = 24.215996 Si / 1000 Ang^3
#
#
#
# Elastic Constant Matrix: (Units=GPa)
#
#
# Indices 1 2 3 4 5 6 
#
# 1 71.4006 19.2620 14.9765 2.8711 4.1467 14.9370
# 2 19.2620 100.9630 59.9642 19.6634 -6.1788 24.4919
# 3 14.9765 59.9642 151.0235 32.4223 -0.0494 24.9550
# 4 2.8711 19.6634 32.4223 41.7046 5.8549 4.7694
# 5 4.1467 -6.1788 -0.0494 5.8549 32.2724 3.9052
# 6 14.9370 24.4919 24.9550 4.7694 3.9052 13.4503
#
#
#
# Elastic Compliance Matrix: (Units=1/GPa)
#
#
# Indices 1 2 3 4 5 6 
#
# 1 0.019152 0.002811 0.002358 -0.001228 0.002045 -0.030921
# 2 0.002811 0.021989 -0.000479 -0.006726 0.010255 -0.042865
# 3 0.002358 -0.000479 0.011735 -0.007038 0.003569 -0.022060
# 4 -0.001228 -0.006726 -0.007038 0.031927 -0.009110 0.017994
# 5 0.002045 0.010255 0.003569 -0.009110 0.038648 -0.035559
# 6 -0.030921 -0.042865 -0.022060 0.017994 -0.035559 0.231612
#
#
# Mechanical properties :
#
#
# Convention : Reuss Voigt Hill
#
# Bulk Modulus (GPa) = 16.06278 56.86581 36.46430
# Shear Modulus (GPa) = 13.64500 32.76444 23.20472
#
# Velocity S-wave (km/s) = 2.37633 3.68232 3.09890
# Velocity P-wave (km/s) = 3.76521 6.45081 5.28156
#
# Compressibility (1/GPa) = 0.06225572
#
# Stress axis : x y z
#
# Youngs Moduli (GPa) = 52.21454 45.47762 85.21409
#
# Poissons Ratio (x) = -0.12782 -0.20097
# Poissons Ratio (y) = -0.14676 0.04083
# Poissons Ratio (z) = -0.12315 0.02179
#
# Static dielectric constant tensor:
#      x y z
#    x 4.256450 0.073650 0.051370 
#    y 0.073650 4.294080 0.233060 
#    z 0.051370 0.233060 4.399330 
# 
# 
# High freq. dielectric constant tensor:
#      x y z
#    x 1.967340 0.003610 0.006650 
#    y 0.003610 1.960130 0.018550 
#    z 0.006650 0.018550 1.941430 
# 
# From -- ./inp_files/155160.got.cif
#   From: 2010.06.25/outbox.cif.g09.slc.cpg/sg2_78_cif.got.tgz:155160.got - 2010.06.27 13:26:56.
