data_PCOD8038253
_publ_section_title
;
Structure prediction by ZEFSAII (Michael W. Deem and Ramdas Pophale) SiO2 
 PCOD8038253
Probable space group: P -1
;
_chemical_formula_sum "Si O2"
_cell_formula_units_Z 16
_cell_length_a 15.499987
_cell_length_b 11.725551
_cell_length_c 8.528731
_cell_angle_alpha 55.890810
_cell_angle_beta 102.282301
_cell_angle_gamma 62.727214
_cell_volume 878.193474
_symmetry_space_group_name_H-M "P -1"
_symmetry_group_IT_number 2
_symmetry_cell_setting 'triclinic'
loop_
_space_group_symop_operation_xyz
x,y,z
-x,-y,-z
loop_
_atom_site_type_symbol
_atom_site_label
_atom_site_fract_x
_atom_site_fract_y
_atom_site_fract_z
Si Si1 0.937629 0.423500 0.550986
Si Si2 0.201143 0.579586 0.761652
Si Si3 0.414030 0.224441 0.335495
Si Si4 0.822619 0.238191 0.098617
Si Si5 0.266248 0.440821 0.404084
Si Si6 0.533849 0.529914 0.826281
Si Si7 0.901952 0.005673 0.030416
Si Si8 0.327107 0.605290 0.518478
O O1 0.890637 0.419778 0.367641
O O2 0.819707 0.562746 0.518502
O O3 0.000000 0.500000 0.500000
O O4 0.049317 0.201196 0.827691
O O5 0.122948 0.761476 0.717058
O O6 0.267408 0.616653 0.647274
O O7 0.303914 0.370537 0.052309
O O8 0.354274 0.258245 0.458380
O O9 0.497342 0.271495 0.337741
O O10 0.500000 0.000000 0.500000
O O11 0.898789 0.031161 0.200938
O O12 0.828009 0.357182 0.884714
O O13 0.680191 0.345631 0.988965
O O14 0.353471 0.443306 0.543723
O O15 0.456204 0.541911 0.649369
O O16 0.500000 0.500000 0.000000
O O17 0.766026 0.181854 0.764882
O O18 0.000000 0.000000 0.000000
#
# Coordination Sequence:
#
# PCOD8038253 Si02
#       8
#     2   2   2   2   2   2   2   2
#     4  11  22  39  55  79 114 146 184 231 277 324
#     4   9  18  36  57  80 111 148 175 228 287 319
#     4  10  21  37  58  80 116 149 179 219 280 344
#     4   9  18  33  59  84 109 142 187 224 282 318
#     4   8  18  36  56  76 112 147 176 226 281 322
#     4  10  18  34  58  86 113 138 180 237 272 320
#     4  11  20  36  58  81 108 147 191 231 260 336
#     4  10  17  34  61  85 108 144 186 229 279 314
#
# _framework density 18.219218999999999
#
# number of rings (size 3 to 8) (size 9 to 14) (size 15 to 20)
#    0.000    2.500    6.250    0.000    0.000    6.000 
#    2.250    5.000    0.000    0.000    0.000    0.000 
#    0.000    0.000    0.000    0.000    0.000    0.000 
#
# Total GULP energy -198247.298573 kJ/mol
# GULP energy per Si atom -12390.456161 kJ/mol
# Density = 1.817775 g / cm^3
# Si number density = 18.219219 Si / 1000 Ang^3
#
#
#
# Elastic Constant Matrix: (Units=GPa)
#
#
# Indices 1 2 3 4 5 6 
#
# 1 123.5374 58.7129 33.1658 7.1504 -5.3114 16.0232
# 2 58.7129 134.5367 41.8012 3.1858 -10.7096 -9.5993
# 3 33.1658 41.8012 62.2498 9.3973 -1.8234 1.2862
# 4 7.1504 3.1858 9.3973 36.8753 6.1481 -0.4875
# 5 -5.3114 -10.7096 -1.8234 6.1481 26.5401 5.0973
# 6 16.0232 -9.5993 1.2862 -0.4875 5.0973 25.7267
#
#
#
# Elastic Compliance Matrix: (Units=1/GPa)
#
#
# Indices 1 2 3 4 5 6 
#
# 1 0.012924 -0.005265 -0.002761 -0.001941 0.002729 -0.010453
# 2 -0.005265 0.012145 -0.005649 0.001234 0.001678 0.007784
# 3 -0.002761 -0.005649 0.022062 -0.004630 0.000062 -0.001591
# 4 -0.001941 0.001234 -0.004630 0.029942 -0.007920 0.004037
# 5 0.002729 0.001678 0.000062 -0.007920 0.042598 -0.009667
# 6 -0.010453 0.007784 -0.001591 0.004037 -0.009667 0.050356
#
#
# Mechanical properties :
#
#
# Convention : Reuss Voigt Hill
#
# Bulk Modulus (GPa) = 50.55147 65.29819 57.92483
# Shear Modulus (GPa) = 24.51331 30.27133 27.39232
#
# Velocity S-wave (km/s) = 3.67204 4.08058 3.88169
# Velocity P-wave (km/s) = 6.76646 7.62362 7.20779
#
# Compressibility (1/GPa) = 0.01978182
#
# Stress axis : x y z
#
# Youngs Moduli (GPa) = 77.37785 82.33648 45.32602
#
# Poissons Ratio (x) = 0.43347 0.12516
# Poissons Ratio (y) = 0.40736 0.25603
# Poissons Ratio (z) = 0.21367 0.46510
#
# Static dielectric constant tensor:
#      x y z
#    x 3.251730 -0.108160 -0.100470 
#    y -0.108160 3.687730 0.462770 
#    z -0.100470 0.462770 2.937620 
# 
# 
# High freq. dielectric constant tensor:
#      x y z
#    x 1.692590 -0.011130 -0.000480 
#    y -0.011130 1.712200 0.024340 
#    z -0.000480 0.024340 1.691710 
# 
# From -- ./inp_files/260647.got.cif
#   From: 2010.06.25/outbox.cif.g09.slc.cpg/sg2_131_cif.got.tgz:260647.got - 2010.06.27 13:26:56.
