data_PCOD8038675
_publ_section_title
;
Structure prediction by ZEFSAII (Michael W. Deem and Ramdas Pophale) SiO2 
 PCOD8038675
Probable space group: P -1
;
_chemical_formula_sum "Si O2"
_cell_formula_units_Z 12
_cell_length_a 5.333532
_cell_length_b 26.134918
_cell_length_c 21.733830
_cell_angle_alpha 11.331399
_cell_angle_beta 54.920962
_cell_angle_gamma 57.064495
_cell_volume 483.417171
_symmetry_space_group_name_H-M "P -1"
_symmetry_group_IT_number 2
_symmetry_cell_setting 'triclinic'
loop_
_space_group_symop_operation_xyz
x,y,z
-x,-y,-z
loop_
_atom_site_type_symbol
_atom_site_label
_atom_site_fract_x
_atom_site_fract_y
_atom_site_fract_z
Si Si1 0.601991 0.022146 0.553299
Si Si2 0.503404 0.415283 0.697312
Si Si3 0.264326 0.512862 0.898702
Si Si4 0.119683 0.485558 0.148493
Si Si5 0.913312 0.871917 0.809451
Si Si6 0.102144 0.715928 0.315339
O O1 0.743406 0.021489 0.603527
O O2 0.236000 0.042383 0.582527
O O3 0.653803 0.767931 0.805400
O O4 0.778931 0.265752 0.204395
O O5 0.274268 0.624916 0.459653
O O6 0.648163 0.281035 0.777507
O O7 0.783515 0.532044 0.564035
O O8 0.302118 0.184114 0.034999
O O9 0.582269 0.663618 0.704897
O O10 0.153583 0.680949 0.657369
O O11 0.000000 0.500000 0.000000
O O12 0.977190 0.584754 0.113985
O O13 0.000000 0.000000 0.000000
#
# Coordination Sequence:
#
# PCOD8038675 Si02
#       6
#     2   2   2   2   2   2
#     4  10  19  33  55  73 104 154 186 221 265 323
#     4  10  21  37  65  90 116 158 184 236 304 337
#     4  10  18  29  48  68  96 132 185 229 262 309
#     4  10  19  33  53  73 100 154 189 217 266 324
#     4  10  18  32  56  78 111 138 186 229 266 336
#     4  10  21  40  65  90 117 149 192 232 291 376
#
# _framework density 24.823277999999998
#
# number of rings (size 3 to 8) (size 9 to 14) (size 15 to 20)
#    0.000    2.000    0.000    7.000    0.000    0.000 
#    0.000    0.000   58.667    0.000    0.000    0.000 
#    0.000    0.000    0.000    0.000    0.000    0.000 
#
# Total GULP energy -148720.036479 kJ/mol
# GULP energy per Si atom -12393.336373 kJ/mol
# Density = 2.476678 g / cm^3
# Si number density = 24.823278 Si / 1000 Ang^3
#
#
#
# Elastic Constant Matrix: (Units=GPa)
#
#
# Indices 1 2 3 4 5 6 
#
# 1 216.7657 50.2081 25.4059 -10.1885 22.4306 -4.6970
# 2 50.2081 80.2020 50.4081 11.1169 12.6516 -20.5786
# 3 25.4059 50.4081 87.6393 2.9543 16.8663 -13.6535
# 4 -10.1885 11.1169 2.9543 37.6515 -13.5490 8.4124
# 5 22.4306 12.6516 16.8663 -13.5490 33.3928 -10.7411
# 6 -4.6970 -20.5786 -13.6535 8.4124 -10.7411 40.8750
#
#
#
# Elastic Compliance Matrix: (Units=1/GPa)
#
#
# Indices 1 2 3 4 5 6 
#
# 1 0.006007 -0.005244 0.001211 0.002832 -0.002398 -0.002758
# 2 -0.005244 0.028446 -0.012167 -0.012304 -0.002383 0.011560
# 3 0.001211 -0.012167 0.018982 0.000575 -0.005989 -0.001338
# 4 0.002832 -0.012304 0.000575 0.038457 0.014966 -0.009659
# 5 -0.002398 -0.002383 -0.005989 0.014966 0.043091 0.004767
# 6 -0.002758 0.011560 -0.001338 -0.009659 0.004767 0.032762
#
#
# Mechanical properties :
#
#
# Convention : Reuss Voigt Hill
#
# Bulk Modulus (GPa) = 47.53712 70.73903 59.13807
# Shear Modulus (GPa) = 24.13619 39.62285 31.87952
#
# Velocity S-wave (km/s) = 3.12159 3.99958 3.58754
# Velocity P-wave (km/s) = 5.67311 7.06313 6.40593
#
# Compressibility (1/GPa) = 0.02103619
#
# Stress axis : x y z
#
# Youngs Moduli (GPa) = 166.45891 35.15424 52.68089
#
# Poissons Ratio (x) = 0.18435 -0.06380
# Poissons Ratio (y) = 0.87290 0.64096
# Poissons Ratio (z) = -0.20159 0.42772
#
# Static dielectric constant tensor:
#      x y z
#    x 6.648100 0.180280 0.025030 
#    y 0.180280 4.928680 -0.646590 
#    z 0.025030 -0.646590 4.316980 
# 
# 
# High freq. dielectric constant tensor:
#      x y z
#    x 2.040960 -0.003770 0.009260 
#    y -0.003770 2.006100 -0.046630 
#    z 0.009260 -0.046630 1.952080 
# 
# From -- ./inp_files/55959.got.cif
#   From: 2010.06.25/outbox.cif.g09.slc.cpg/sg2_28_cif.got.tgz:55959.got - 2010.06.27 13:26:56.
