data_PCOD8038562
_publ_section_title
;
Structure prediction by ZEFSAII (Michael W. Deem and Ramdas Pophale) SiO2 
 PCOD8038562
Probable space group: P -1
;
_chemical_formula_sum "Si O2"
_cell_formula_units_Z 14
_cell_length_a 11.268686
_cell_length_b 12.257028
_cell_length_c 8.965555
_cell_angle_alpha 37.549502
_cell_angle_beta 56.853616
_cell_angle_gamma 52.147910
_cell_volume 591.211047
_symmetry_space_group_name_H-M "P -1"
_symmetry_group_IT_number 2
_symmetry_cell_setting 'triclinic'
loop_
_space_group_symop_operation_xyz
x,y,z
-x,-y,-z
loop_
_atom_site_type_symbol
_atom_site_label
_atom_site_fract_x
_atom_site_fract_y
_atom_site_fract_z
Si Si1 0.907191 0.895796 0.522550
Si Si2 0.822238 0.630589 0.661653
Si Si3 0.975310 0.775886 0.921368
Si Si4 0.365572 0.818936 0.438419
Si Si5 0.556751 0.563463 0.041986
Si Si6 0.279869 0.309800 0.668400
Si Si7 0.358480 0.641916 0.354309
O O1 0.905338 0.766741 0.522411
O O2 0.738855 0.001733 0.590491
O O3 0.002436 0.763204 0.736753
O O4 0.985393 0.041065 0.249615
O O5 0.662711 0.683397 0.800511
O O6 0.796086 0.669450 0.463484
O O7 0.919398 0.409843 0.862529
O O8 0.800636 0.800243 0.051454
O O9 0.539798 0.810072 0.330318
O O10 0.296198 0.825347 0.308890
O O11 0.349223 0.630676 0.726843
O O12 0.500000 0.500000 0.000000
O O13 0.416876 0.695881 0.096935
O O14 0.246445 0.525328 0.522726
O O15 0.500000 0.500000 0.500000
#
# Coordination Sequence:
#
# PCOD8038562 Si02
#       7
#     2   2   2   2   2   2   2
#     4  11  27  43  67  97 128 177 220 263 327 380
#     4  12  23  42  71  94 132 175 214 265 330 387
#     4  11  26  46  62  92 136 175 220 264 313 399
#     4  10  21  42  65  99 133 162 218 270 319 388
#     4  10  17  37  66 100 129 163 212 267 326 382
#     4  10  22  41  69 101 126 171 218 266 335 375
#     4   8  18  34  64  95 127 162 205 261 322 378
#
# _framework density 23.680208
#
# number of rings (size 3 to 8) (size 9 to 14) (size 15 to 20)
#    0.000    2.000    4.286    0.857    6.000    4.000 
#    0.000    1.429    0.000    0.000    0.000    0.000 
#    0.000    0.000    0.000    0.000    0.000    0.000 
#
# Total GULP energy -173502.644707 kJ/mol
# GULP energy per Si atom -12393.046051 kJ/mol
# Density = 2.362631 g / cm^3
# Si number density = 23.680208 Si / 1000 Ang^3
#
#
#
# Elastic Constant Matrix: (Units=GPa)
#
#
# Indices 1 2 3 4 5 6 
#
# 1 112.6725 41.9524 47.3677 -0.5171 -15.8518 33.0306
# 2 41.9524 55.4177 41.4571 7.9067 1.6286 18.1832
# 3 47.3677 41.4571 110.6215 8.3669 -26.7003 18.1525
# 4 -0.5171 7.9067 8.3669 27.7217 1.5827 -0.3635
# 5 -15.8518 1.6286 -26.7003 1.5827 46.8712 6.7913
# 6 33.0306 18.1832 18.1525 -0.3635 6.7913 51.0690
#
#
#
# Elastic Compliance Matrix: (Units=1/GPa)
#
#
# Indices 1 2 3 4 5 6 
#
# 1 0.015790 -0.009646 -0.000628 0.002779 0.006292 -0.007372
# 2 -0.009646 0.034981 -0.010806 -0.006323 -0.010267 -0.001055
# 3 -0.000628 -0.010806 0.016458 -0.002510 0.010051 -0.002951
# 4 0.002779 -0.006323 -0.002510 0.038816 -0.001851 0.001868
# 5 0.006292 -0.010267 0.010051 -0.001851 0.030780 -0.008093
# 6 -0.007372 -0.001055 -0.002951 0.001868 -0.008093 0.026863
#
#
# Mechanical properties :
#
#
# Convention : Reuss Voigt Hill
#
# Bulk Modulus (GPa) = 39.89004 60.02956 49.95980
# Shear Modulus (GPa) = 23.34205 34.99469 29.16837
#
# Velocity S-wave (km/s) = 3.14302 3.84839 3.51345
# Velocity P-wave (km/s) = 5.48209 6.71952 6.13210
#
# Compressibility (1/GPa) = 0.02506891
#
# Stress axis : x y z
#
# Youngs Moduli (GPa) = 63.33108 28.58707 60.75889
#
# Poissons Ratio (x) = 0.27576 0.03816
# Poissons Ratio (y) = 0.61091 0.65656
# Poissons Ratio (z) = 0.03978 0.30891
#
# Static dielectric constant tensor:
#      x y z
#    x 4.152050 0.624330 0.295060 
#    y 0.624330 4.025560 -0.413470 
#    z 0.295060 -0.413470 3.432070 
# 
# 
# High freq. dielectric constant tensor:
#      x y z
#    x 1.942480 0.006660 -0.010790 
#    y 0.006660 1.924250 0.018550 
#    z -0.010790 0.018550 1.933920 
# 
# From -- ./inp_files/255652.got.cif
#   From: 2010.06.25/outbox.cif.g09.slc.cpg/sg2_128_cif.got.tgz:255652.got - 2010.06.27 13:26:56.
