data_PCOD8038696
_publ_section_title
;
Structure prediction by ZEFSAII (Michael W. Deem and Ramdas Pophale) SiO2 
 PCOD8038696
Probable space group: P -1
;
_chemical_formula_sum "Si O2"
_cell_formula_units_Z 16
_cell_length_a 12.186277
_cell_length_b 12.457003
_cell_length_c 10.401662
_cell_angle_alpha 99.388784
_cell_angle_beta 84.508522
_cell_angle_gamma 37.034993
_cell_volume 867.848606
_symmetry_space_group_name_H-M "P -1"
_symmetry_group_IT_number 2
_symmetry_cell_setting 'triclinic'
loop_
_space_group_symop_operation_xyz
x,y,z
-x,-y,-z
loop_
_atom_site_type_symbol
_atom_site_label
_atom_site_fract_x
_atom_site_fract_y
_atom_site_fract_z
Si Si1 0.769737 0.562777 0.440627
Si Si2 0.382514 0.128752 0.305253
Si Si3 0.449644 0.652210 0.469514
Si Si4 0.115031 0.058930 0.697780
Si Si5 0.836176 0.775687 0.125663
Si Si6 0.147798 0.897296 0.347101
Si Si7 0.121554 0.156396 0.439444
Si Si8 0.933526 0.589220 0.821014
O O1 0.639508 0.761402 0.562035
O O2 0.637878 0.572163 0.408660
O O3 0.928812 0.386524 0.487875
O O4 0.877855 0.522719 0.297941
O O5 0.310175 0.072474 0.359174
O O6 0.256161 0.269606 0.222421
O O7 0.611520 0.925265 0.208654
O O8 0.500000 0.500000 0.500000
O O9 0.363633 0.702548 0.345306
O O10 0.303444 0.827284 0.622435
O O11 0.130476 0.123498 0.832234
O O12 0.122820 0.128207 0.583837
O O13 0.917741 0.143515 0.754005
O O14 0.998639 0.578625 0.153674
O O15 0.876095 0.724279 0.961339
O O16 0.123556 0.042789 0.331483
O O17 0.000000 0.000000 0.500000
#
# Coordination Sequence:
#
# PCOD8038696 Si02
#       8
#     2   2   2   2   2   2   2   2
#     4  11  19  33  54  85 109 135 183 231 268 318
#     4  11  21  35  58  83 109 141 183 229 269 321
#     4  10  18  29  51  82 108 134 176 228 275 313
#     4  10  18  33  52  78 106 143 183 216 274 322
#     4  11  22  38  56  78 114 152 179 217 269 335
#     4   8  17  30  47  74 107 141 166 222 274 313
#     4   9  18  31  51  80 112 136 171 234 274 311
#     4  10  24  37  53  82 115 148 177 219 278 322
#
# _framework density 18.436392999999999
#
# number of rings (size 3 to 8) (size 9 to 14) (size 15 to 20)
#    0.000    2.250    1.250    5.625    3.500    1.000 
#    0.000    0.000    0.000    7.500    0.000    0.000 
#    0.000    0.000    0.000    0.000    0.000    0.000 
#
# Total GULP energy -198301.699574 kJ/mol
# GULP energy per Si atom -12393.856223 kJ/mol
# Density = 1.839443 g / cm^3
# Si number density = 18.436393 Si / 1000 Ang^3
#
#
#
# Elastic Constant Matrix: (Units=GPa)
#
#
# Indices 1 2 3 4 5 6 
#
# 1 94.9025 0.1257 16.2301 -0.4588 20.8511 2.6906
# 2 0.1257 48.5534 15.7554 5.2174 5.1928 13.0306
# 3 16.2301 15.7554 75.2523 5.9052 16.8777 0.3198
# 4 -0.4588 5.2174 5.9052 16.5308 7.1055 -1.4170
# 5 20.8511 5.1928 16.8777 7.1055 14.1919 2.7925
# 6 2.6906 13.0306 0.3198 -1.4170 2.7925 29.0288
#
#
#
# Elastic Compliance Matrix: (Units=1/GPa)
#
#
# Indices 1 2 3 4 5 6 
#
# 1 0.019137 0.000599 0.003819 0.017314 -0.042098 0.002810
# 2 0.000599 0.026386 -0.005568 -0.008633 0.002876 -0.012536
# 3 0.003819 -0.005568 0.020429 0.009562 -0.033765 0.005635
# 4 0.017314 -0.008633 0.009562 0.098553 -0.085994 0.015248
# 5 -0.042098 0.002876 -0.033765 -0.085994 0.218854 -0.022268
# 6 0.002810 -0.012536 0.005635 0.015248 -0.022268 0.042640
#
#
# Mechanical properties :
#
#
# Convention : Reuss Voigt Hill
#
# Bulk Modulus (GPa) = 15.71063 31.43673 23.57368
# Shear Modulus (GPa) = 11.12308 24.39010 17.75659
#
# Velocity S-wave (km/s) = 2.45893 3.64116 3.10680
# Velocity P-wave (km/s) = 4.07453 5.89626 5.06792
#
# Compressibility (1/GPa) = 0.06365118
#
# Stress axis : x y z
#
# Youngs Moduli (GPa) = 52.25526 37.89945 48.94925
#
# Poissons Ratio (x) = -0.02270 -0.18691
# Poissons Ratio (y) = -0.03130 0.27254
# Poissons Ratio (z) = -0.19954 0.21102
#
# Static dielectric constant tensor:
#      x y z
#    x 4.233730 0.006380 0.269110 
#    y 0.006380 3.532460 0.109030 
#    z 0.269110 0.109030 3.126050 
# 
# 
# High freq. dielectric constant tensor:
#      x y z
#    x 1.732250 -0.001970 0.007100 
#    y -0.001970 1.725310 0.009230 
#    z 0.007100 0.009230 1.668070 
# 
# From -- ./inp_files/425052.got.cif
#   From: 2010.06.25/outbox.cif.g09.slc.cpg/sg2_213_cif.got.tgz:425052.got - 2010.06.27 13:26:56.
