data_PCOD8038686
_publ_section_title
;
Structure prediction by ZEFSAII (Michael W. Deem and Ramdas Pophale) SiO2 
 PCOD8038686
Probable space group: P -1
;
_chemical_formula_sum "Si O2"
_cell_formula_units_Z 16
_cell_length_a 14.765437
_cell_length_b 9.839060
_cell_length_c 11.934576
_cell_angle_alpha 70.946534
_cell_angle_beta 150.970982
_cell_angle_gamma 104.819026
_cell_volume 793.586530
_symmetry_space_group_name_H-M "P -1"
_symmetry_group_IT_number 2
_symmetry_cell_setting 'triclinic'
loop_
_space_group_symop_operation_xyz
x,y,z
-x,-y,-z
loop_
_atom_site_type_symbol
_atom_site_label
_atom_site_fract_x
_atom_site_fract_y
_atom_site_fract_z
Si Si1 0.633875 0.340791 0.081061
Si Si2 0.630280 0.700444 0.529946
Si Si3 0.029612 0.654999 0.940870
Si Si4 0.622683 0.373916 0.540315
Si Si5 0.813742 0.913868 0.331257
Si Si6 0.688279 0.416655 0.359252
Si Si7 0.994912 0.383919 0.333966
Si Si8 0.489774 0.904222 0.141457
O O1 0.679264 0.313933 0.269268
O O2 0.806994 0.416074 0.192201
O O3 0.450759 0.444076 0.841605
O O4 0.601600 0.190136 0.029421
O O5 0.841370 0.752094 0.742348
O O6 0.622306 0.548333 0.496437
O O7 0.566440 0.679577 0.594718
O O8 0.498930 0.821390 0.291525
O O9 0.062965 0.655765 0.844048
O O10 0.000000 0.500000 0.000000
O O11 0.211686 0.707929 0.185652
O O12 0.637271 0.326412 0.439377
O O13 0.876508 0.745525 0.435485
O O14 0.697385 0.941370 0.315005
O O15 0.000000 0.000000 0.500000
O O16 0.664454 0.959028 0.057130
O O17 0.895812 0.470998 0.585025
#
# Coordination Sequence:
#
# PCOD8038686 Si02
#       8
#     2   2   2   2   2   2   2   2
#     4  11  22  34  55  72 113 151 172 211 259 315
#     4  10  18  31  50  74 107 136 163 222 262 313
#     4  10  18  29  50  74 107 137 162 217 266 312
#     4  10  19  29  50  76 105 141 172 202 271 316
#     4  11  22  33  56  78 108 137 176 226 270 305
#     4  11  22  36  49  80 113 147 176 207 253 331
#     4  12  20  37  52  81 113 138 179 218 265 316
#     4  11  20  37  53  81 109 136 176 222 267 312
#
# _framework density 20.161632999999998
#
# number of rings (size 3 to 8) (size 9 to 14) (size 15 to 20)
#    0.000    1.250    7.500    1.125    3.500    0.000 
#    0.000    0.000    0.000    0.000    0.000    7.000 
#    0.000    0.000    0.000    0.000    0.000    0.000 
#
# Total GULP energy -198299.958539 kJ/mol
# GULP energy per Si atom -12393.747409 kJ/mol
# Density = 2.011574 g / cm^3
# Si number density = 20.161633 Si / 1000 Ang^3
#
#
#
# Elastic Constant Matrix: (Units=GPa)
#
#
# Indices 1 2 3 4 5 6 
#
# 1 139.6468 11.1771 39.4677 17.7074 -12.0709 11.0615
# 2 11.1771 19.9833 4.6113 -1.4771 -8.1858 5.3505
# 3 39.4677 4.6113 78.8029 1.8345 -13.7387 5.6356
# 4 17.7074 -1.4771 1.8345 25.2395 8.0498 -5.8565
# 5 -12.0709 -8.1858 -13.7387 8.0498 41.4103 5.2245
# 6 11.0615 5.3505 5.6356 -5.8565 5.2245 19.5646
#
#
#
# Elastic Compliance Matrix: (Units=1/GPa)
#
#
# Indices 1 2 3 4 5 6 
#
# 1 0.010910 -0.001487 -0.003544 -0.011314 0.005107 -0.009491
# 2 -0.001487 0.063093 0.001777 -0.006126 0.016750 -0.023232
# 3 -0.003544 0.001777 0.015684 -0.001403 0.005408 -0.004864
# 4 -0.011314 -0.006126 -0.001403 0.061560 -0.021045 0.032524
# 5 0.005107 0.016750 0.005408 -0.021045 0.038049 -0.025486
# 6 -0.009491 -0.023232 -0.004864 0.032524 -0.025486 0.080775
#
#
# Mechanical properties :
#
#
# Convention : Reuss Voigt Hill
#
# Bulk Modulus (GPa) = 12.02244 38.77171 25.39708
# Shear Modulus (GPa) = 16.43084 29.45467 22.94276
#
# Velocity S-wave (km/s) = 2.85784 3.82635 3.37700
# Velocity P-wave (km/s) = 4.10678 6.22844 5.27537
#
# Compressibility (1/GPa) = 0.08317780
#
# Stress axis : x y z
#
# Youngs Moduli (GPa) = 91.66221 15.84973 63.75737
#
# Poissons Ratio (x) = 0.02357 0.22598
# Poissons Ratio (y) = 0.13632 -0.11331
# Poissons Ratio (z) = 0.32489 -0.02817
#
# Static dielectric constant tensor:
#      x y z
#    x 3.840250 0.251010 0.195560 
#    y 0.251010 3.212910 -0.002430 
#    z 0.195560 -0.002430 4.268960 
# 
# 
# High freq. dielectric constant tensor:
#      x y z
#    x 1.793650 0.036620 0.011760 
#    y 0.036620 1.715480 -0.007890 
#    z 0.011760 -0.007890 1.804380 
# 
# From -- ./inp_files/258336.got.cif
#   From: 2010.06.25/outbox.cif.g09.slc.cpg/sg2_130_cif.got.tgz:258336.got - 2010.06.27 13:26:56.
