data_PCOD8038074
_publ_section_title
;
Structure prediction by ZEFSAII (Michael W. Deem and Ramdas Pophale) SiO2 
 PCOD8038074
Probable space group: P -1
;
_chemical_formula_sum "Si O2"
_cell_formula_units_Z 16
_cell_length_a 15.000000
_cell_length_b 9.000000
_cell_length_c 15.000000
_cell_angle_alpha 50.000000
_cell_angle_beta 40.000000
_cell_angle_gamma 80.000000
_cell_volume 759.999475
_symmetry_space_group_name_H-M "P -1"
_symmetry_group_IT_number 2
_symmetry_cell_setting 'triclinic'
loop_
_space_group_symop_operation_xyz
x,y,z
-x,-y,-z
loop_
_atom_site_type_symbol
_atom_site_label
_atom_site_fract_x
_atom_site_fract_y
_atom_site_fract_z
Si Si1 0.376749 0.473078 0.207408
Si Si2 0.066602 0.585128 0.639414
Si Si3 0.844403 0.891845 0.938180
Si Si4 0.391314 0.097793 0.264119
Si Si5 0.502235 0.621604 0.541032
Si Si6 0.686275 0.085870 0.108717
Si Si7 0.001489 0.862099 0.464590
Si Si8 0.213910 0.316643 0.572680
O O1 0.400483 0.260272 0.274851
O O2 0.337794 0.507548 0.323481
O O3 0.206455 0.361521 0.316823
O O4 0.560362 0.742066 0.926753
O O5 0.076329 0.716650 0.489446
O O6 0.152352 0.451340 0.619495
O O7 0.189346 0.818819 0.525552
O O8 0.854027 0.363176 0.915079
O O9 0.877278 0.951672 0.783687
O O10 0.699577 0.581840 0.180804
O O11 0.041075 0.032246 0.780108
O O12 0.760991 0.001760 0.010505
O O13 0.548478 0.085169 0.157161
O O14 0.500000 0.500000 0.500000
O O15 0.663656 0.699674 0.450868
O O16 0.565875 0.893698 0.357601
O O17 0.000000 0.000000 0.500000
#
# Coordination Sequence:
#
# PCOD8038074 Si02
#       8
#     2   2   2   2   2   2   2   2
#     4  10  23  39  58  87 131 160 197 249 305 370
#     4  11  22  35  62  91 117 160 194 255 302 354
#     4   9  22  37  63  92 120 163 199 253 301 359
#     4  11  22  38  59  90 124 164 196 247 307 363
#     4  10  21  41  63  90 121 161 206 252 298 356
#     4  10  22  39  61  90 122 157 208 252 295 359
#     4  11  21  39  62  91 129 161 197 245 315 367
#     4  10  23  39  60  93 119 156 206 253 302 356
#
# _framework density 21.052645999999999
#
# number of rings (size 3 to 8) (size 9 to 14) (size 15 to 20)
#    0.000    1.750    2.500    1.500    3.500    7.500 
#    0.000    0.625    0.000    2.250    0.000    0.000 
#    0.000    0.000    0.000    0.000    0.000    0.000 
#
# Total GULP energy -198236.018828 kJ/mol
# GULP energy per Si atom -12389.751177 kJ/mol
# Density = 2.100473 g / cm^3
# Si number density = 21.052646 Si / 1000 Ang^3
#
#
#
# Elastic Constant Matrix: (Units=GPa)
#
#
# Indices 1 2 3 4 5 6 
#
# 1 82.7204 26.7887 35.2286 -7.1317 -5.4266 7.9413
# 2 26.7887 35.4699 29.4001 -15.4361 -1.2045 0.6348
# 3 35.2286 29.4001 172.8875 -30.7949 0.3653 2.8290
# 4 -7.1317 -15.4361 -30.7949 32.9969 -0.5954 -4.1098
# 5 -5.4266 -1.2045 0.3653 -0.5954 29.6054 -1.0362
# 6 7.9413 0.6348 2.8290 -4.1098 -1.0362 17.5599
#
#
#
# Elastic Compliance Matrix: (Units=1/GPa)
#
#
# Indices 1 2 3 4 5 6 
#
# 1 0.018057 -0.014105 -0.002168 -0.005737 0.002349 -0.008511
# 2 -0.014105 0.048715 -0.002206 0.018855 0.000132 0.009394
# 3 -0.002168 -0.002206 0.007604 0.005732 -0.000425 0.001152
# 4 -0.005737 0.018855 0.005732 0.044686 0.000946 0.011504
# 5 0.002349 0.000132 -0.000425 0.000946 0.034282 0.001246
# 6 -0.008511 0.009394 0.001152 0.011504 0.001246 0.063038
#
#
# Mechanical properties :
#
#
# Convention : Reuss Voigt Hill
#
# Bulk Modulus (GPa) = 26.72452 52.65698 39.69075
# Shear Modulus (GPa) = 18.81034 29.34311 24.07672
#
# Velocity S-wave (km/s) = 2.99237 3.73741 3.38545
# Velocity P-wave (km/s) = 4.96596 6.60989 5.84600
#
# Compressibility (1/GPa) = 0.03741882
#
# Stress axis : x y z
#
# Youngs Moduli (GPa) = 55.38132 20.52737 131.50863
#
# Poissons Ratio (x) = 0.28953 0.28516
# Poissons Ratio (y) = 0.78113 0.29008
# Poissons Ratio (z) = 0.12009 0.04528
#
# Static dielectric constant tensor:
#      x y z
#    x 3.928340 0.046220 0.021200 
#    y 0.046220 3.715420 -0.184500 
#    z 0.021200 -0.184500 4.638300 
# 
# 
# High freq. dielectric constant tensor:
#      x y z
#    x 1.819630 -0.000260 -0.016310 
#    y -0.000260 1.798980 -0.011070 
#    z -0.016310 -0.011070 1.850640 
# 
# From -- ./inp_files/454479.got.cif
#   From: 2010.06.25/outbox.ucp.g09.slc.cvg/sg2_228_cif.got.tgz:454479.got - 2010.06.28 11:54:26.
