data_PCOD8038536
_publ_section_title
;
Structure prediction by ZEFSAII (Michael W. Deem and Ramdas Pophale) SiO2 
 PCOD8038536
Probable space group: P -1
;
_chemical_formula_sum "Si O2"
_cell_formula_units_Z 14
_cell_length_a 12.612676
_cell_length_b 9.610945
_cell_length_c 8.933161
_cell_angle_alpha 82.807410
_cell_angle_beta 72.353294
_cell_angle_gamma 42.718069
_cell_volume 692.034879
_symmetry_space_group_name_H-M "P -1"
_symmetry_group_IT_number 2
_symmetry_cell_setting 'triclinic'
loop_
_space_group_symop_operation_xyz
x,y,z
-x,-y,-z
loop_
_atom_site_type_symbol
_atom_site_label
_atom_site_fract_x
_atom_site_fract_y
_atom_site_fract_z
Si Si1 0.361739 0.937079 0.155543
Si Si2 0.391015 0.462100 0.072084
Si Si3 0.153437 0.255196 0.951649
Si Si4 0.695586 0.441014 0.343440
Si Si5 0.569420 0.857535 0.344144
Si Si6 0.932447 0.214524 0.020712
Si Si7 0.631501 0.354861 0.674549
O O1 0.429510 0.962480 0.263975
O O2 0.282038 0.862606 0.257145
O O3 0.230051 0.156078 0.097069
O O4 0.505574 0.769620 0.993440
O O5 0.350400 0.515150 0.259309
O O6 0.500000 0.500000 0.000000
O O7 0.216660 0.614897 0.047380
O O8 0.084874 0.173927 0.925622
O O9 0.284516 0.189735 0.786072
O O10 0.000000 0.500000 0.000000
O O11 0.638600 0.644689 0.401428
O O12 0.870856 0.291503 0.207592
O O13 0.709900 0.312452 0.485423
O O14 0.561629 0.509768 0.270893
O O15 0.500000 0.000000 0.500000
O O16 0.000000 0.000000 0.000000
#
# Coordination Sequence:
#
# PCOD8038536 Si02
#       7
#     2   2   2   2   2   2   2
#     4  10  21  41  66  95 127 172 232 269 319 405
#     4  10  17  37  61  97 125 166 224 263 318 404
#     4  12  25  44  67  93 139 175 217 285 339 391
#     4  10  20  39  59  97 135 164 216 278 325 391
#     4  11  24  44  68  96 128 183 231 267 330 407
#     4  12  23  38  65  99 135 173 220 275 340 391
#     4   9  19  35  67  92 127 160 215 279 319 373
#
# _framework density 20.230194999999998
#
# number of rings (size 3 to 8) (size 9 to 14) (size 15 to 20)
#    0.000    1.429    5.714    2.143    2.000    2.286 
#    0.000    5.000    0.000    0.000    0.000    0.000 
#    0.000    0.000    0.000    0.000    0.000    0.000 
#
# Total GULP energy -173519.025646 kJ/mol
# GULP energy per Si atom -12394.216118 kJ/mol
# Density = 2.018415 g / cm^3
# Si number density = 20.230195 Si / 1000 Ang^3
#
#
#
# Elastic Constant Matrix: (Units=GPa)
#
#
# Indices 1 2 3 4 5 6 
#
# 1 115.1575 38.3919 55.6233 1.1103 3.1793 6.2939
# 2 38.3919 134.7866 58.3162 -0.9756 7.3307 3.8530
# 3 55.6233 58.3162 115.5679 4.3716 5.1694 4.9300
# 4 1.1103 -0.9756 4.3716 33.6619 12.1301 5.6488
# 5 3.1793 7.3307 5.1694 12.1301 34.5932 1.8910
# 6 6.2939 3.8530 4.9300 5.6488 1.8910 27.4025
#
#
#
# Elastic Compliance Matrix: (Units=1/GPa)
#
#
# Indices 1 2 3 4 5 6 
#
# 1 0.011524 -0.001080 -0.004942 0.000592 -0.000206 -0.001714
# 2 -0.001080 0.009737 -0.004349 0.001646 -0.001861 -0.000549
# 3 -0.004942 -0.004349 0.013302 -0.001630 -0.000023 -0.000309
# 4 0.000592 0.001646 -0.001630 0.035453 -0.012234 -0.006538
# 5 -0.000206 -0.001861 -0.000023 -0.012234 0.033586 0.000517
# 6 -0.001714 -0.000549 -0.000309 -0.006538 0.000517 0.038332
#
#
# Mechanical properties :
#
#
# Convention : Reuss Voigt Hill
#
# Bulk Modulus (GPa) = 72.35067 74.46385 73.40726
# Shear Modulus (GPa) = 29.88944 33.34356 31.61650
#
# Velocity S-wave (km/s) = 3.84795 4.06422 3.95756
# Velocity P-wave (km/s) = 7.45545 7.67541 7.56623
#
# Compressibility (1/GPa) = 0.01382157
#
# Stress axis : x y z
#
# Youngs Moduli (GPa) = 86.77176 102.69751 75.17637
#
# Poissons Ratio (x) = 0.11091 0.37152
# Poissons Ratio (y) = 0.09371 0.32696
# Poissons Ratio (z) = 0.42882 0.44666
#
# Static dielectric constant tensor:
#      x y z
#    x 3.697990 0.158430 0.238100 
#    y 0.158430 3.589300 -0.032650 
#    z 0.238100 -0.032650 3.986430 
# 
# 
# High freq. dielectric constant tensor:
#      x y z
#    x 1.790440 0.009730 0.007460 
#    y 0.009730 1.780110 -0.005940 
#    z 0.007460 -0.005940 1.787210 
# 
# From -- ./inp_files/243948.got.cif
#   From: 2010.06.25/outbox.cif.g09.slc.cpg/sg2_122_cif.got.tgz:243948.got - 2010.06.27 13:26:56.
