data_PCOD8038678
_publ_section_title
;
Structure prediction by ZEFSAII (Michael W. Deem and Ramdas Pophale) SiO2 
 PCOD8038678
Probable space group: P -1
;
_chemical_formula_sum "Si O2"
_cell_formula_units_Z 16
_cell_length_a 12.680443
_cell_length_b 22.274543
_cell_length_c 16.035953
_cell_angle_alpha 153.370506
_cell_angle_beta 154.184700
_cell_angle_gamma 32.250676
_cell_volume 864.340275
_symmetry_space_group_name_H-M "P -1"
_symmetry_group_IT_number 2
_symmetry_cell_setting 'triclinic'
loop_
_space_group_symop_operation_xyz
x,y,z
-x,-y,-z
loop_
_atom_site_type_symbol
_atom_site_label
_atom_site_fract_x
_atom_site_fract_y
_atom_site_fract_z
Si Si1 0.924621 0.656626 0.116683
Si Si2 0.869461 0.657063 0.355471
Si Si3 0.279883 0.441854 0.306564
Si Si4 0.537391 0.659383 0.975315
Si Si5 0.542157 0.349407 0.540099
Si Si6 0.194185 0.297225 0.357571
Si Si7 0.996434 0.842554 0.803487
Si Si8 0.763802 0.488618 0.216771
O O1 0.720772 0.724236 0.124898
O O2 0.172154 0.721193 0.368434
O O3 0.806712 0.664758 0.950431
O O4 0.000000 0.500000 0.000000
O O5 0.611027 0.671034 0.139538
O O6 0.888828 0.805096 0.590702
O O7 0.915562 0.558440 0.345823
O O8 0.076640 0.583235 0.346969
O O9 0.500000 0.500000 0.500000
O O10 0.362131 0.355764 0.341030
O O11 0.537315 0.503034 0.759331
O O12 0.267512 0.750608 0.889425
O O13 0.429426 0.255829 0.410707
O O14 0.174168 0.182517 0.269901
O O15 0.261171 0.430384 0.613996
O O16 0.932898 0.338288 0.170930
O O17 0.000000 0.000000 0.000000
O O18 0.500000 0.500000 0.000000
#
# Coordination Sequence:
#
# PCOD8038678 Si02
#       8
#     2   2   2   2   2   2   2   2
#     4  10  19  28  48  82 114 136 155 199 261 324
#     4  11  19  31  52  77 103 135 166 203 261 308
#     4  12  17  28  48  80 113 135 161 188 255 327
#     4  11  19  34  53  79 111 134 168 209 256 314
#     4  11  18  30  51  80 116 131 157 205 265 333
#     4  10  20  32  48  74 102 136 170 210 261 307
#     4  11  24  39  52  69  99 143 189 223 246 285
#     4  10  18  29  48  76 104 132 158 201 266 322
#
# _framework density 18.511227999999999
#
# number of rings (size 3 to 8) (size 9 to 14) (size 15 to 20)
#    0.000    1.250    7.500    3.000    0.000    0.500 
#    0.000    0.000    0.000    0.750    0.000    6.125 
#    0.000    0.000    0.000    0.000    0.000    0.000 
#
# Total GULP energy -198224.633544 kJ/mol
# GULP energy per Si atom -12389.039596 kJ/mol
# Density = 1.846910 g / cm^3
# Si number density = 18.511228 Si / 1000 Ang^3
#
#
#
# Elastic Constant Matrix: (Units=GPa)
#
#
# Indices 1 2 3 4 5 6 
#
# 1 104.4428 11.1340 10.8690 -6.7050 9.1442 3.3533
# 2 11.1340 24.2504 24.2386 -8.8061 0.7256 4.3041
# 3 10.8690 24.2386 56.9685 -22.8539 -12.9319 13.3389
# 4 -6.7050 -8.8061 -22.8539 31.8499 3.8821 0.3204
# 5 9.1442 0.7256 -12.9319 3.8821 37.6425 -13.0899
# 6 3.3533 4.3041 13.3389 0.3204 -13.0899 19.4512
#
#
#
# Elastic Compliance Matrix: (Units=1/GPa)
#
#
# Indices 1 2 3 4 5 6 
#
# 1 0.010525 -0.003679 0.000390 0.001997 -0.003930 -0.003946
# 2 -0.003679 0.079661 -0.038029 -0.004439 -0.013138 0.000318
# 3 0.000390 -0.038029 0.050522 0.025060 0.007992 -0.021333
# 4 0.001997 -0.004439 0.025060 0.049235 -0.003792 -0.019910
# 5 -0.003930 -0.013138 0.007992 -0.003792 0.039521 0.024763
# 6 -0.003946 0.000318 -0.021333 -0.019910 0.024763 0.083642
#
#
# Mechanical properties :
#
#
# Convention : Reuss Voigt Hill
#
# Bulk Modulus (GPa) = 17.22007 30.90499 24.06253
# Shear Modulus (GPa) = 12.04526 27.08339 19.56432
#
# Velocity S-wave (km/s) = 2.55365 3.82917 3.25451
# Velocity P-wave (km/s) = 4.24471 6.02342 5.21052
#
# Compressibility (1/GPa) = 0.05807176
#
# Stress axis : x y z
#
# Youngs Moduli (GPa) = 95.01023 12.55314 19.79335
#
# Poissons Ratio (x) = 0.04619 -0.00773
# Poissons Ratio (y) = 0.34959 0.75273
# Poissons Ratio (z) = -0.03709 0.47739
#
# Static dielectric constant tensor:
#      x y z
#    x 3.740250 0.145810 0.136050 
#    y 0.145810 3.228430 -0.688910 
#    z 0.136050 -0.688910 3.471290 
# 
# 
# High freq. dielectric constant tensor:
#      x y z
#    x 1.745910 -0.002110 -0.002450 
#    y -0.002110 1.661240 -0.058150 
#    z -0.002450 -0.058150 1.699480 
# 
# From -- ./inp_files/428971.got.cif
#   From: 2010.06.25/outbox.cif.g09.slc.cpg/sg2_215_cif.got.tgz:428971.got - 2010.06.27 13:26:56.
