data_PCOD8038796
_publ_section_title
;
Structure prediction by ZEFSAII (Michael W. Deem and Ramdas Pophale) SiO2 
 PCOD8038796
Probable space group: P -1
;
_chemical_formula_sum "Si O2"
_cell_formula_units_Z 16
_cell_length_a 14.551927
_cell_length_b 14.123190
_cell_length_c 9.260421
_cell_angle_alpha 104.627924
_cell_angle_beta 40.311460
_cell_angle_gamma 75.138752
_cell_volume 830.009018
_symmetry_space_group_name_H-M "P -1"
_symmetry_group_IT_number 2
_symmetry_cell_setting 'triclinic'
loop_
_space_group_symop_operation_xyz
x,y,z
-x,-y,-z
loop_
_atom_site_type_symbol
_atom_site_label
_atom_site_fract_x
_atom_site_fract_y
_atom_site_fract_z
Si Si1 0.171876 0.835483 0.249295
Si Si2 0.394972 0.313329 0.282785
Si Si3 0.638178 0.603955 0.129494
Si Si4 0.888460 0.363385 0.257329
Si Si5 0.912902 0.312403 0.531845
Si Si6 0.197099 0.337989 0.248052
Si Si7 0.182674 0.371430 0.825347
Si Si8 0.326175 0.658003 0.709738
O O1 0.081029 0.795763 0.443659
O O2 0.366288 0.790291 0.076261
O O3 0.232541 0.764629 0.993399
O O4 0.000000 0.000000 0.500000
O O5 0.296249 0.469021 0.466503
O O6 0.272682 0.310627 0.310517
O O7 0.374686 0.268366 0.445988
O O8 0.786024 0.561113 0.066475
O O9 0.419727 0.684375 0.487110
O O10 0.731378 0.465717 0.879190
O O11 0.619275 0.709717 0.089908
O O12 0.872805 0.316781 0.411672
O O13 0.858294 0.305676 0.136454
O O14 0.112863 0.302889 0.952947
O O15 0.132941 0.257181 0.269083
O O16 0.000000 0.500000 0.500000
O O17 0.000000 0.500000 0.000000
O O18 0.500000 0.500000 0.500000
#
# Coordination Sequence:
#
# PCOD8038796 Si02
#       8
#     2   2   2   2   2   2   2   2
#     4  12  28  45  59  84 129 176 209 246 305 376
#     4  11  20  36  62  91 129 158 201 250 319 358
#     4  11  18  33  57  92 127 146 193 256 315 358
#     4  11  20  33  61 101 121 151 199 262 319 356
#     4  11  21  37  60  91 131 154 200 260 310 367
#     4  10  19  33  59 100 128 150 190 262 327 359
#     4  10  18  30  54  92 132 147 187 249 316 364
#     4  12  22  37  62  93 118 159 211 259 306 355
#
# _framework density 19.276899
#
# number of rings (size 3 to 8) (size 9 to 14) (size 15 to 20)
#    0.000    1.000    7.500    3.000    3.500    1.000 
#    0.000    1.250    0.000    1.500    0.000    0.000 
#    0.000    0.000    0.000    0.000    0.000    0.000 
#
# Total GULP energy -198311.038771 kJ/mol
# GULP energy per Si atom -12394.439923 kJ/mol
# Density = 1.923302 g / cm^3
# Si number density = 19.276899 Si / 1000 Ang^3
#
#
#
# Elastic Constant Matrix: (Units=GPa)
#
#
# Indices 1 2 3 4 5 6 
#
# 1 116.4978 26.7642 22.3769 1.6931 9.3928 2.5353
# 2 26.7642 102.8200 64.2701 -27.3138 -4.1211 1.9477
# 3 22.3769 64.2701 76.2565 -17.0993 3.5191 -1.0130
# 4 1.6931 -27.3138 -17.0993 34.7293 -0.0547 0.9357
# 5 9.3928 -4.1211 3.5191 -0.0547 32.6857 -13.3058
# 6 2.5353 1.9477 -1.0130 0.9357 -13.3058 20.8965
#
#
#
# Elastic Compliance Matrix: (Units=1/GPa)
#
#
# Indices 1 2 3 4 5 6 
#
# 1 0.009956 -0.002924 -0.001006 -0.003185 -0.004683 -0.003824
# 2 -0.002924 0.024758 -0.017859 0.010814 0.006153 0.000615
# 3 -0.001006 -0.017859 0.028726 0.000140 -0.005080 -0.000062
# 4 -0.003185 0.010814 0.000140 0.037556 0.001878 -0.001100
# 5 -0.004683 0.006153 -0.005080 0.001878 0.044722 0.028141
# 6 -0.003824 0.000615 -0.000062 -0.001100 0.028141 0.066226
#
#
# Mechanical properties :
#
#
# Convention : Reuss Voigt Hill
#
# Bulk Modulus (GPa) = 50.34863 58.04405 54.19634
# Shear Modulus (GPa) = 19.07359 29.80651 24.44005
#
# Velocity S-wave (km/s) = 3.14897 3.93648 3.56454
# Velocity P-wave (km/s) = 6.27668 7.13002 6.71691
#
# Compressibility (1/GPa) = 0.01986151
#
# Stress axis : x y z
#
# Youngs Moduli (GPa) = 100.44274 40.39121 34.81192
#
# Poissons Ratio (x) = 0.11811 0.03501
# Poissons Ratio (y) = 0.29371 0.62171
# Poissons Ratio (z) = 0.10102 0.72135
#
# Static dielectric constant tensor:
#      x y z
#    x 3.727130 0.149250 0.056530 
#    y 0.149250 3.791710 -1.202520 
#    z 0.056530 -1.202520 4.489010 
# 
# 
# High freq. dielectric constant tensor:
#      x y z
#    x 1.770530 0.008580 0.008290 
#    y 0.008580 1.714600 -0.065300 
#    z 0.008290 -0.065300 1.722610 
# 
# From -- ./inp_files/313641.got.cif
#   From: 2010.06.25/outbox.cif.g09.slc.cpg/sg2_157_cif.got.tgz:313641.got - 2010.06.27 13:26:56.
