data_PCOD8038567
_publ_section_title
;
Structure prediction by ZEFSAII (Michael W. Deem and Ramdas Pophale) SiO2 
 PCOD8038567
Probable space group: P -1
;
_chemical_formula_sum "Si O2"
_cell_formula_units_Z 16
_cell_length_a 15.801645
_cell_length_b 12.570829
_cell_length_c 11.703134
_cell_angle_alpha 56.297433
_cell_angle_beta 107.257130
_cell_angle_gamma 152.050962
_cell_volume 786.938181
_symmetry_space_group_name_H-M "P -1"
_symmetry_group_IT_number 2
_symmetry_cell_setting 'triclinic'
loop_
_space_group_symop_operation_xyz
x,y,z
-x,-y,-z
loop_
_atom_site_type_symbol
_atom_site_label
_atom_site_fract_x
_atom_site_fract_y
_atom_site_fract_z
Si Si1 0.517266 0.915529 0.723918
Si Si2 0.365846 0.736837 0.020848
Si Si3 0.806034 0.964077 0.535383
Si Si4 0.138623 0.805127 0.363606
Si Si5 0.808676 0.706128 0.440633
Si Si6 0.106026 0.889615 0.766636
Si Si7 0.474313 0.631452 0.257811
Si Si8 0.759877 0.459415 0.372726
O O1 0.438423 0.855545 0.850603
O O2 0.325230 0.630353 0.734591
O O3 0.658101 0.971066 0.760104
O O4 0.646256 0.198648 0.551438
O O5 0.400778 0.636149 0.130924
O O6 0.124629 0.463780 0.091067
O O7 0.500000 0.000000 0.000000
O O8 0.602440 0.608680 0.669472
O O9 0.785378 0.049425 0.568139
O O10 0.826471 0.059148 0.364949
O O11 0.010530 0.145778 0.525021
O O12 0.000000 0.500000 0.500000
O O13 0.005034 0.743448 0.287506
O O14 0.620230 0.458489 0.602504
O O15 0.731830 0.551890 0.379789
O O16 0.896196 0.961284 0.304941
O O17 0.274541 0.043416 0.826350
#
# Coordination Sequence:
#
# PCOD8038567 Si02
#       8
#     2   2   2   2   2   2   2   2
#     4  10  22  39  60  87 119 157 197 243 298 355
#     4  12  26  44  59  84 129 162 196 243 305 367
#     4  10  18  37  67  92 122 154 202 256 298 341
#     4   9  20  35  60  91 118 150 197 252 291 345
#     4  10  17  37  67  91 121 152 201 255 300 341
#     4  11  23  37  62  94 119 159 200 250 299 357
#     4  11  22  38  61  94 120 158 201 251 299 357
#     4   9  20  38  63  91 111 151 202 252 292 349
#
# _framework density 20.331966000000001
#
# number of rings (size 3 to 8) (size 9 to 14) (size 15 to 20)
#    0.000    1.750    2.500    3.000    7.000    1.500 
#    2.250    1.250    0.000    0.000    0.000    0.000 
#    0.000    0.000    0.000    0.000    0.000    0.000 
#
# Total GULP energy -198397.300116 kJ/mol
# GULP energy per Si atom -12399.831257 kJ/mol
# Density = 2.028569 g / cm^3
# Si number density = 20.331966 Si / 1000 Ang^3
#
#
#
# Elastic Constant Matrix: (Units=GPa)
#
#
# Indices 1 2 3 4 5 6 
#
# 1 58.8243 40.3040 23.3082 -8.4763 -12.8037 -14.3580
# 2 40.3040 147.1037 43.6262 -5.2182 -22.3645 -6.3449
# 3 23.3082 43.6262 66.8121 -0.2425 -14.4386 0.8015
# 4 -8.4763 -5.2182 -0.2425 29.3822 3.3632 -8.3476
# 5 -12.8037 -22.3645 -14.4386 3.3632 14.1800 1.5028
# 6 -14.3580 -6.3449 0.8015 -8.3476 1.5028 43.3897
#
#
#
# Elastic Compliance Matrix: (Units=1/GPa)
#
#
# Indices 1 2 3 4 5 6 
#
# 1 0.027573 -0.003687 -0.004947 0.008855 0.010884 0.010003
# 2 -0.003687 0.010226 -0.003339 -0.000381 0.009496 -0.000065
# 3 -0.004947 -0.003339 0.021955 -0.004562 0.014116 -0.003898
# 4 0.008855 -0.000381 -0.004562 0.040538 -0.008035 0.011036
# 5 0.010884 0.009496 0.014116 -0.008035 0.111677 -0.000684
# 6 0.010003 -0.000065 -0.003898 0.011036 -0.000684 0.028566
#
#
# Mechanical properties :
#
#
# Convention : Reuss Voigt Hill
#
# Bulk Modulus (GPa) = 27.92861 54.13519 41.03190
# Shear Modulus (GPa) = 18.08856 28.42384 23.25620
#
# Velocity S-wave (km/s) = 2.98595 3.74302 3.38572
# Velocity P-wave (km/s) = 5.06498 6.73526 5.95893
#
# Compressibility (1/GPa) = 0.03580558
#
# Stress axis : x y z
#
# Youngs Moduli (GPa) = 36.26787 97.79184 45.54856
#
# Poissons Ratio (x) = 0.36056 0.22534
# Poissons Ratio (y) = 0.13372 0.15210
# Poissons Ratio (z) = 0.17943 0.32656
#
# Static dielectric constant tensor:
#      x y z
#    x 3.908730 0.080550 -0.123590 
#    y 0.080550 4.120380 -0.105640 
#    z -0.123590 -0.105640 3.332640 
# 
# 
# High freq. dielectric constant tensor:
#      x y z
#    x 1.801070 0.001650 -0.009910 
#    y 0.001650 1.816350 -0.008590 
#    z -0.009910 -0.008590 1.748320 
# 
# From -- ./inp_files/271722.got.cif
#   From: 2010.06.25/outbox.cif.g09.slc.cpg/sg2_136_cif.got.tgz:271722.got - 2010.06.27 13:26:56.
