data_PCOD8038302
_publ_section_title
;
Structure prediction by ZEFSAII (Michael W. Deem and Ramdas Pophale) SiO2 
 PCOD8038302
Probable space group: P -1
;
_chemical_formula_sum "Si O2"
_cell_formula_units_Z 16
_cell_length_a 15.655008
_cell_length_b 9.081816
_cell_length_c 10.780650
_cell_angle_alpha 92.883841
_cell_angle_beta 82.656409
_cell_angle_gamma 32.170655
_cell_volume 772.084847
_symmetry_space_group_name_H-M "P -1"
_symmetry_group_IT_number 2
_symmetry_cell_setting 'triclinic'
loop_
_space_group_symop_operation_xyz
x,y,z
-x,-y,-z
loop_
_atom_site_type_symbol
_atom_site_label
_atom_site_fract_x
_atom_site_fract_y
_atom_site_fract_z
Si Si1 0.402254 0.226627 0.420756
Si Si2 0.740874 0.757659 0.229316
Si Si3 0.120214 0.182231 0.477221
Si Si4 0.907248 0.291057 0.363502
Si Si5 0.693857 0.900545 0.729070
Si Si6 0.388428 0.266878 0.947495
Si Si7 0.945335 0.142770 0.884397
Si Si8 0.965936 0.681781 0.230056
O O1 0.250960 0.548611 0.522502
O O2 0.500000 0.000000 0.500000
O O3 0.548801 0.097177 0.312346
O O4 0.306888 0.252514 0.350022
O O5 0.832199 0.543876 0.318526
O O6 0.731286 0.656086 0.114774
O O7 0.856550 0.726799 0.171252
O O8 0.142566 0.119639 0.616826
O O9 0.000000 0.500000 0.500000
O O10 0.049419 0.138453 0.425542
O O11 0.289813 0.984437 0.363795
O O12 0.990091 0.052257 0.247362
O O13 0.513881 0.188403 0.843690
O O14 0.849910 0.659129 0.786692
O O15 0.260319 0.552315 0.066742
O O16 0.500000 0.000000 0.000000
O O17 0.018160 0.198650 0.853411
O O18 0.000000 0.000000 0.000000
#
# Coordination Sequence:
#
# PCOD8038302 Si02
#       8
#     2   2   2   2   2   2   2   2
#     4   9  17  31  59  97 123 158 206 261 324 378
#     4  10  20  37  69  95 121 165 229 267 312 385
#     4  10  17  34  65 101 126 155 218 271 327 376
#     4  11  19  37  64  97 133 170 201 270 332 385
#     4  10  18  36  68  94 126 156 221 280 303 367
#     4  11  23  43  66  93 128 182 229 256 304 399
#     4  12  27  44  61  91 140 178 213 261 333 383
#     4  11  21  40  67  98 124 166 220 275 320 389
#
# _framework density 20.723112
#
# number of rings (size 3 to 8) (size 9 to 14) (size 15 to 20)
#    0.000    1.500    7.500    0.750    0.000    1.000 
#    2.250    1.250    0.000    0.000    0.000    0.000 
#    0.000    0.000    0.000    0.000    0.000    0.000 
#
# Total GULP energy -198289.524728 kJ/mol
# GULP energy per Si atom -12393.095295 kJ/mol
# Density = 2.067595 g / cm^3
# Si number density = 20.723112 Si / 1000 Ang^3
#
#
#
# Elastic Constant Matrix: (Units=GPa)
#
#
# Indices 1 2 3 4 5 6 
#
# 1 110.4553 31.9877 35.6597 17.5641 -19.1084 -24.4280
# 2 31.9877 66.0874 35.1871 20.0478 -11.0867 -10.6837
# 3 35.6597 35.1871 91.8922 37.6605 -18.7549 -8.3165
# 4 17.5641 20.0478 37.6605 48.2059 -1.0090 -3.3181
# 5 -19.1084 -11.0867 -18.7549 -1.0090 37.5458 -6.5183
# 6 -24.4280 -10.6837 -8.3165 -3.3181 -6.5183 27.0831
#
#
#
# Elastic Compliance Matrix: (Units=1/GPa)
#
#
# Indices 1 2 3 4 5 6 
#
# 1 0.015145 -0.002236 -0.000670 -0.002881 0.009139 0.014420
# 2 -0.002236 0.021311 -0.004261 -0.004261 0.003865 0.005490
# 3 -0.000670 -0.004261 0.020620 -0.013587 0.009131 0.004580
# 4 -0.002881 -0.004261 -0.013587 0.033515 -0.009774 -0.006698
# 5 0.009139 0.003865 0.009131 -0.009774 0.040387 0.021095
# 6 0.014420 0.005490 0.004580 -0.006698 0.021095 0.057758
#
#
# Mechanical properties :
#
#
# Convention : Reuss Voigt Hill
#
# Bulk Modulus (GPa) = 23.39556 52.67823 38.03690
# Shear Modulus (GPa) = 23.00778 33.60698 28.30738
#
# Velocity S-wave (km/s) = 3.33565 4.03142 3.69993
# Velocity P-wave (km/s) = 5.11366 6.86622 6.05370
#
# Compressibility (1/GPa) = 0.04274314
#
# Stress axis : x y z
#
# Youngs Moduli (GPa) = 66.02660 46.92521 48.49546
#
# Poissons Ratio (x) = 0.10491 0.03250
# Poissons Ratio (y) = 0.14761 0.20663
# Poissons Ratio (z) = 0.04425 0.19994
#
# Static dielectric constant tensor:
#      x y z
#    x 3.960080 -0.464490 -0.579980 
#    y -0.464490 3.657230 0.378570 
#    z -0.579980 0.378570 5.422560 
# 
# 
# High freq. dielectric constant tensor:
#      x y z
#    x 1.794250 -0.031270 -0.015430 
#    y -0.031270 1.774170 0.000900 
#    z -0.015430 0.000900 1.828670 
# 
# From -- ./inp_files/382747.got.cif
#   From: 2010.06.25/outbox.cif.g09.slc.cpg/sg2_192_cif.got.tgz:382747.got - 2010.06.27 13:26:56.
