data_PCOD8038714
_publ_section_title
;
Structure prediction by ZEFSAII (Michael W. Deem and Ramdas Pophale) SiO2 
 PCOD8038714
Probable space group: P -1
;
_chemical_formula_sum "Si O2"
_cell_formula_units_Z 14
_cell_length_a 22.896875
_cell_length_b 11.701974
_cell_length_c 20.843154
_cell_angle_alpha 37.554515
_cell_angle_beta 19.113365
_cell_angle_gamma 26.352470
_cell_volume 753.824184
_symmetry_space_group_name_H-M "P -1"
_symmetry_group_IT_number 2
_symmetry_cell_setting 'triclinic'
loop_
_space_group_symop_operation_xyz
x,y,z
-x,-y,-z
loop_
_atom_site_type_symbol
_atom_site_label
_atom_site_fract_x
_atom_site_fract_y
_atom_site_fract_z
Si Si1 0.153283 0.179534 0.727601
Si Si2 0.234474 0.805260 0.120042
Si Si3 0.435280 0.342676 0.378380
Si Si4 0.227925 0.540348 0.885453
Si Si5 0.780852 0.280791 0.456841
Si Si6 0.094944 0.310305 0.045244
Si Si7 0.102022 0.876992 0.085152
O O1 0.272369 0.293863 0.540215
O O2 0.052007 0.170545 0.770099
O O3 0.371082 0.875105 0.668393
O O4 0.901420 0.381320 0.945497
O O5 0.118638 0.806233 0.174125
O O6 0.500000 0.500000 0.000000
O O7 0.024718 0.951722 0.332068
O O8 0.285102 0.988386 0.972063
O O9 0.239243 0.648460 0.478251
O O10 0.601048 0.318936 0.161986
O O11 0.518831 0.390277 0.655115
O O12 0.252882 0.317642 0.927224
O O13 0.055815 0.806848 0.899541
O O14 0.829122 0.438228 0.298308
O O15 0.000000 0.500000 0.000000
#
# Coordination Sequence:
#
# PCOD8038714 Si02
#       7
#     2   2   2   2   2   2   2
#     4  10  18  29  55  89 127 140 181 239 304 333
#     4  10  24  43  57  79 123 160 190 239 288 339
#     4  10  18  32  55  88 116 152 179 238 294 346
#     4  11  17  34  58  93 113 146 187 247 288 342
#     4  10  20  36  59  81 120 148 192 233 297 332
#     4  10  21  35  59  83 114 151 195 234 282 341
#     4  11  20  33  57  86 122 144 193 236 291 338
#
# _framework density 18.57197
#
# number of rings (size 3 to 8) (size 9 to 14) (size 15 to 20)
#    0.857    0.857    5.714    0.857    0.000    2.286 
#    2.571    1.429    0.000    1.714    0.000    0.000 
#    0.000    0.000    0.000    0.000    0.000    0.000 
#
# Total GULP energy -173503.079091 kJ/mol
# GULP energy per Si atom -12393.077078 kJ/mol
# Density = 1.852970 g / cm^3
# Si number density = 18.571970 Si / 1000 Ang^3
#
#
#
# Elastic Constant Matrix: (Units=GPa)
#
#
# Indices 1 2 3 4 5 6 
#
# 1 118.1269 45.3920 27.9977 0.9750 -17.9864 27.1781
# 2 45.3920 80.4204 27.7401 12.8701 -1.2617 10.1915
# 3 27.9977 27.7401 100.7611 6.7742 -17.9102 16.5915
# 4 0.9750 12.8701 6.7742 21.4755 13.0053 0.5789
# 5 -17.9864 -1.2617 -17.9102 13.0053 30.1588 -0.5173
# 6 27.1781 10.1915 16.5915 0.5789 -0.5173 21.0633
#
#
#
# Elastic Compliance Matrix: (Units=1/GPa)
#
#
# Indices 1 2 3 4 5 6 
#
# 1 0.017625 -0.007325 0.003619 -0.005725 0.014454 -0.021537
# 2 -0.007325 0.018710 -0.003352 -0.008889 -0.001687 0.003241
# 3 0.003619 -0.003352 0.016259 -0.013252 0.017130 -0.015071
# 4 -0.005725 -0.008889 -0.013252 0.084855 -0.047928 0.018617
# 5 0.014454 -0.001687 0.017130 -0.047928 0.072064 -0.028240
# 6 -0.021537 0.003241 -0.015071 0.018617 -0.028240 0.084363
#
#
# Mechanical properties :
#
#
# Convention : Reuss Voigt Hill
#
# Bulk Modulus (GPa) = 25.98711 55.72977 40.85844
# Shear Modulus (GPa) = 15.58522 27.75142 21.66832
#
# Velocity S-wave (km/s) = 2.90000 3.86976 3.41944
# Velocity P-wave (km/s) = 5.02358 7.07385 6.13497
#
# Compressibility (1/GPa) = 0.03848061
#
# Stress axis : x y z
#
# Youngs Moduli (GPa) = 56.73648 53.44641 61.50502
#
# Poissons Ratio (x) = 0.39147 -0.22261
# Poissons Ratio (y) = 0.41557 0.20616
# Poissons Ratio (z) = -0.20535 0.17915
#
# Static dielectric constant tensor:
#      x y z
#    x 3.300160 0.503520 0.042970 
#    y 0.503520 3.063260 0.066430 
#    z 0.042970 0.066430 3.488750 
# 
# 
# High freq. dielectric constant tensor:
#      x y z
#    x 1.723900 0.039150 -0.003820 
#    y 0.039150 1.672610 0.007860 
#    z -0.003820 0.007860 1.723180 
# 
# From -- ./inp_files/476547.got.cif
#   From: 2010.06.25/outbox.cif.g09.slc.cpg/sg2_239_cif.got.tgz:476547.got - 2010.06.27 13:26:56.
