data_PCOD8038733
_publ_section_title
;
Structure prediction by ZEFSAII (Michael W. Deem and Ramdas Pophale) SiO2 
 PCOD8038733
Probable space group: P -1
;
_chemical_formula_sum "Si O2"
_cell_formula_units_Z 16
_cell_length_a 9.232255
_cell_length_b 21.955289
_cell_length_c 24.633470
_cell_angle_alpha 10.393131
_cell_angle_beta 76.004946
_cell_angle_gamma 76.663404
_cell_volume 873.288824
_symmetry_space_group_name_H-M "P -1"
_symmetry_group_IT_number 2
_symmetry_cell_setting 'triclinic'
loop_
_space_group_symop_operation_xyz
x,y,z
-x,-y,-z
loop_
_atom_site_type_symbol
_atom_site_label
_atom_site_fract_x
_atom_site_fract_y
_atom_site_fract_z
Si Si1 0.005873 0.142933 0.651575
Si Si2 0.081653 0.766358 0.155976
Si Si3 0.439909 0.787588 0.790882
Si Si4 0.960488 0.404896 0.307368
Si Si5 0.761555 0.835197 0.305418
Si Si6 0.515220 0.232716 0.016628
Si Si7 0.280043 0.408973 0.232167
Si Si8 0.642916 0.148335 0.540406
O O1 0.960831 0.473763 0.401031
O O2 0.010691 0.243849 0.500296
O O3 0.170964 0.056361 0.735897
O O4 0.908282 0.795398 0.975179
O O5 0.216243 0.570808 0.345726
O O6 0.000000 0.000000 0.000000
O O7 0.147660 0.981623 0.911616
O O8 0.348949 0.042013 0.538699
O O9 0.582559 0.976299 0.641382
O O10 0.500000 0.500000 0.000000
O O11 0.324022 0.643625 0.972008
O O12 0.821806 0.186499 0.486691
O O13 0.100111 0.386147 0.270373
O O14 0.589115 0.941056 0.228825
O O15 0.650858 0.445381 0.845928
O O16 0.428260 0.487375 0.763028
O O17 0.396602 0.077558 0.205850
#
# Coordination Sequence:
#
# PCOD8038733 Si02
#       8
#     2   2   2   2   2   2   2   2
#     4  10  19  30  53  76 112 134 163 221 264 313
#     4  10  18  30  48  83 111 134 173 222 260 294
#     4  10  21  38  54  76 103 143 179 209 252 313
#     4  12  20  35  51  85 106 134 171 219 278 306
#     4  10  18  30  52  79 105 135 175 218 257 310
#     4  10  18  35  51  78 103 137 172 215 268 306
#     4  10  19  32  58  74 101 138 173 215 259 310
#     4  10  23  33  54  78 111 132 171 222 261 318
#
# _framework density 18.321543999999999
#
# number of rings (size 3 to 8) (size 9 to 14) (size 15 to 20)
#    0.750    1.000    2.500    3.000    3.500    0.000 
#    0.000    1.250    0.000    0.000    0.000   17.500 
#    0.000    0.000    0.000    0.000    0.000    0.000 
#
# Total GULP energy -198233.561688 kJ/mol
# GULP energy per Si atom -12389.597605 kJ/mol
# Density = 1.827984 g / cm^3
# Si number density = 18.321544 Si / 1000 Ang^3
#
#
#
# Elastic Constant Matrix: (Units=GPa)
#
#
# Indices 1 2 3 4 5 6 
#
# 1 89.1975 37.6803 35.3043 -4.5591 -11.6502 -17.2989
# 2 37.6803 57.8696 28.3883 -3.6842 -2.8294 -5.3301
# 3 35.3043 28.3883 106.9372 2.2890 9.4212 -1.6797
# 4 -4.5591 -3.6842 2.2890 35.2514 -2.6848 7.0529
# 5 -11.6502 -2.8294 9.4212 -2.6848 25.5659 4.2518
# 6 -17.2989 -5.3301 -1.6797 7.0529 4.2518 17.8434
#
#
#
# Elastic Compliance Matrix: (Units=1/GPa)
#
#
# Indices 1 2 3 4 5 6 
#
# 1 0.021226 -0.009644 -0.004876 -0.000471 0.007762 0.015575
# 2 -0.009644 0.025233 -0.003660 0.002306 0.000520 -0.003192
# 3 -0.004876 -0.003660 0.012565 -0.001933 -0.007097 -0.002183
# 4 -0.000471 0.002306 -0.001933 0.031994 0.006464 -0.014136
# 5 0.007762 0.000520 -0.007097 0.006464 0.047130 -0.006773
# 6 0.015575 -0.003192 -0.002183 -0.014136 -0.006773 0.077185
#
#
# Mechanical properties :
#
#
# Convention : Reuss Voigt Hill
#
# Bulk Modulus (GPa) = 44.12481 50.75000 47.43741
# Shear Modulus (GPa) = 19.28652 25.90755 22.59703
#
# Velocity S-wave (km/s) = 3.24801 3.76446 3.51573
# Velocity P-wave (km/s) = 6.18077 6.83042 6.51370
#
# Compressibility (1/GPa) = 0.02266298
#
# Stress axis : x y z
#
# Youngs Moduli (GPa) = 47.11312 39.62990 79.58538
#
# Poissons Ratio (x) = 0.38220 0.38808
# Poissons Ratio (y) = 0.45437 0.29128
# Poissons Ratio (z) = 0.22974 0.14504
#
# Static dielectric constant tensor:
#      x y z
#    x 3.150610 -0.001880 0.166900 
#    y -0.001880 3.056920 0.091270 
#    z 0.166900 0.091270 3.773890 
# 
# 
# High freq. dielectric constant tensor:
#      x y z
#    x 1.676810 -0.009360 0.020730 
#    y -0.009360 1.681300 0.017910 
#    z 0.020730 0.017910 1.737350 
# 
# From -- ./inp_files/143154.got.cif
#   From: 2010.06.25/outbox.cif.g09.slc.cpg/sg2_72_cif.got.tgz:143154.got - 2010.06.27 13:26:56.
