data_PCOD8038662
_publ_section_title
;
Structure prediction by ZEFSAII (Michael W. Deem and Ramdas Pophale) SiO2 
 PCOD8038662
Probable space group: P -1
;
_chemical_formula_sum "Si O2"
_cell_formula_units_Z 14
_cell_length_a 9.962082
_cell_length_b 13.676136
_cell_length_c 11.408824
_cell_angle_alpha 149.109325
_cell_angle_beta 55.588541
_cell_angle_gamma 115.689184
_cell_volume 653.483026
_symmetry_space_group_name_H-M "P -1"
_symmetry_group_IT_number 2
_symmetry_cell_setting 'triclinic'
loop_
_space_group_symop_operation_xyz
x,y,z
-x,-y,-z
loop_
_atom_site_type_symbol
_atom_site_label
_atom_site_fract_x
_atom_site_fract_y
_atom_site_fract_z
Si Si1 0.998157 0.787287 0.826887
Si Si2 0.229413 0.454640 0.441485
Si Si3 0.922576 0.810561 0.307772
Si Si4 0.898605 0.551584 0.258057
Si Si5 0.751436 0.348323 0.734253
Si Si6 0.553384 0.644918 0.971138
Si Si7 0.248666 0.087093 0.733853
O O1 0.177482 0.674936 0.651594
O O2 0.913930 0.672793 0.650897
O O3 0.898340 0.785685 0.995217
O O4 0.000000 0.000000 0.000000
O O5 0.239828 0.443727 0.566913
O O6 0.399745 0.367895 0.203924
O O7 0.777350 0.862849 0.339001
O O8 0.837579 0.716490 0.363283
O O9 0.072932 0.659107 0.030962
O O10 0.000000 0.000000 0.500000
O O11 0.073135 0.596127 0.265785
O O12 0.637363 0.376139 0.936592
O O13 0.762477 0.133279 0.459695
O O14 0.672150 0.478085 0.802903
O O15 0.583398 0.846903 0.227632
#
# Coordination Sequence:
#
# PCOD8038662 Si02
#       7
#     2   2   2   2   2   2   2
#     4  10  18  28  52  78 109 139 169 224 277 315
#     4  10  19  34  51  81 112 136 176 226 275 320
#     4  11  22  35  56  82 105 142 188 235 267 306
#     4  11  21  36  58  83 106 140 188 232 266 316
#     4  11  20  35  56  83 113 146 179 215 274 331
#     4  10  22  35  54  84 117 146 170 216 280 339
#     4  11  19  35  53  84 110 140 184 226 263 321
#
# _framework density 21.423662
#
# number of rings (size 3 to 8) (size 9 to 14) (size 15 to 20)
#    0.000    1.429    4.286    3.857    0.000    0.000 
#    0.000    0.000    0.000    4.286    0.000    0.000 
#    0.000    0.000    0.000    0.000    0.000    0.000 
#
# Total GULP energy -173549.654354 kJ/mol
# GULP energy per Si atom -12396.403882 kJ/mol
# Density = 2.137490 g / cm^3
# Si number density = 21.423662 Si / 1000 Ang^3
#
#
#
# Elastic Constant Matrix: (Units=GPa)
#
#
# Indices 1 2 3 4 5 6 
#
# 1 25.6692 13.7272 8.6194 -4.4081 6.1058 -3.0244
# 2 13.7272 103.5489 55.8115 -4.0360 17.0815 -11.4117
# 3 8.6194 55.8115 99.0941 4.2322 23.6547 -2.6155
# 4 -4.4081 -4.0360 4.2322 62.2162 -2.6090 -0.5413
# 5 6.1058 17.0815 23.6547 -2.6090 14.5562 -7.2705
# 6 -3.0244 -11.4117 -2.6155 -0.5413 -7.2705 26.0793
#
#
#
# Elastic Compliance Matrix: (Units=1/GPa)
#
#
# Indices 1 2 3 4 5 6 
#
# 1 0.045033 -0.004624 0.003114 0.001864 -0.019072 -0.001767
# 2 -0.004624 0.015285 -0.008169 0.001276 0.000213 0.005419
# 3 0.003114 -0.008169 0.022393 -0.003348 -0.033956 -0.010504
# 4 0.001864 0.001276 -0.003348 0.016861 0.007642 0.002919
# 5 -0.019072 0.000213 -0.033956 0.007642 0.151403 0.036844
# 6 -0.001767 0.005419 -0.010504 0.002919 0.036844 0.049789
#
#
# Mechanical properties :
#
#
# Convention : Reuss Voigt Hill
#
# Bulk Modulus (GPa) = 15.78469 42.73648 29.26059
# Shear Modulus (GPa) = 14.65242 30.58061 22.61651
#
# Velocity S-wave (km/s) = 2.61805 3.78222 3.25265
# Velocity P-wave (km/s) = 4.06483 6.25021 5.27200
#
# Compressibility (1/GPa) = 0.06335252
#
# Stress axis : x y z
#
# Youngs Moduli (GPa) = 22.20593 65.42395 44.65717
#
# Poissons Ratio (x) = 0.30253 -0.13906
# Poissons Ratio (y) = 0.10268 0.36480
# Poissons Ratio (z) = -0.06915 0.53444
#
# Static dielectric constant tensor:
#      x y z
#    x 3.435370 -0.078050 0.165190 
#    y -0.078050 4.106860 -0.051200 
#    z 0.165190 -0.051200 4.235900 
# 
# 
# High freq. dielectric constant tensor:
#      x y z
#    x 1.783990 -0.010390 0.013350 
#    y -0.010390 1.851560 0.004510 
#    z 0.013350 0.004510 1.858390 
# 
# From -- ./inp_files/423220.got.cif
#   From: 2010.06.25/outbox.cif.g09.slc.cpg/sg2_212_cif.got.tgz:423220.got - 2010.06.27 13:26:56.
