data_PCOD8038832
_publ_section_title
;
Structure prediction by ZEFSAII (Michael W. Deem and Ramdas Pophale) SiO2 
 PCOD8038832
Probable space group: P -1
;
_chemical_formula_sum "Si O2"
_cell_formula_units_Z 14
_cell_length_a 13.704790
_cell_length_b 15.219667
_cell_length_c 5.139609
_cell_angle_alpha 62.900218
_cell_angle_beta 64.502619
_cell_angle_gamma 60.950195
_cell_volume 803.549857
_symmetry_space_group_name_H-M "P -1"
_symmetry_group_IT_number 2
_symmetry_cell_setting 'triclinic'
loop_
_space_group_symop_operation_xyz
x,y,z
-x,-y,-z
loop_
_atom_site_type_symbol
_atom_site_label
_atom_site_fract_x
_atom_site_fract_y
_atom_site_fract_z
Si Si1 0.953927 0.639547 0.104554
Si Si2 0.902498 0.433134 0.465435
Si Si3 0.741912 0.849726 0.151402
Si Si4 0.536558 0.613931 0.045267
Si Si5 0.526948 0.838977 0.642882
Si Si6 0.356096 0.508533 0.423171
Si Si7 0.652971 0.961569 0.592788
O O1 0.053249 0.617905 0.236777
O O2 0.890078 0.555522 0.314794
O O3 0.861452 0.755521 0.092539
O O4 0.008541 0.633238 0.765782
O O5 0.778003 0.426484 0.565047
O O6 0.637436 0.804016 0.365705
O O7 0.748401 0.914537 0.317322
O O8 0.716996 0.932321 0.832347
O O9 0.417897 0.594176 0.261830
O O10 0.630692 0.556011 0.235860
O O11 0.507372 0.738721 0.924383
O O12 0.587137 0.573382 0.760288
O O13 0.553223 0.908982 0.751280
O O14 0.409688 0.911543 0.531148
#
# Coordination Sequence:
#
# PCOD8038832 Si02
#       7
#     2   2   2   2   2   2   2
#     4  10  20  30  48  70  90 132 159 189 250 276
#     4  10  20  32  46  68  98 120 165 202 225 287
#     4  10  18  31  46  71 100 125 154 195 240 294
#     4  10  21  32  54  71  98 132 164 186 247 284
#     4   9  20  30  50  72 102 125 155 197 242 291
#     4  10  21  36  47  75  98 130 164 200 225 293
#     4   9  20  29  47  73 104 120 158 193 247 285
#
# _framework density 17.422691
#
# number of rings (size 3 to 8) (size 9 to 14) (size 15 to 20)
#    0.857    1.429    0.000    3.000    4.000    1.143 
#    0.000    0.000    0.000    0.000    0.000    6.000 
#    0.000    0.000    0.000    0.000    0.000    0.000 
#
# Total GULP energy -173568.194602 kJ/mol
# GULP energy per Si atom -12397.728186 kJ/mol
# Density = 1.738304 g / cm^3
# Si number density = 17.422691 Si / 1000 Ang^3
#
#
#
# Elastic Constant Matrix: (Units=GPa)
#
#
# Indices 1 2 3 4 5 6 
#
# 1 67.4387 19.5140 20.9809 -4.3064 6.4809 -11.6398
# 2 19.5140 68.8002 18.2765 -13.5649 -8.2506 -10.6606
# 3 20.9809 18.2765 62.2051 -7.6728 16.1459 4.8971
# 4 -4.3064 -13.5649 -7.6728 24.5271 1.2690 1.6839
# 5 6.4809 -8.2506 16.1459 1.2690 23.7443 4.3046
# 6 -11.6398 -10.6606 4.8971 1.6839 4.3046 22.5826
#
#
#
# Elastic Compliance Matrix: (Units=1/GPa)
#
#
# Indices 1 2 3 4 5 6 
#
# 1 0.019703 -0.003141 -0.005402 -0.000463 -0.004726 0.010779
# 2 -0.003141 0.021735 -0.008110 0.007789 0.012148 0.007504
# 3 -0.005402 -0.008110 0.026120 0.004285 -0.017660 -0.009230
# 4 -0.000463 0.007789 0.004285 0.046499 -0.002478 -0.000486
# 5 -0.004726 0.012148 -0.017660 -0.002478 0.060533 -0.004225
# 6 0.010779 0.007504 -0.009230 -0.000486 -0.004225 0.056223
#
#
# Mechanical properties :
#
#
# Convention : Reuss Voigt Hill
#
# Bulk Modulus (GPa) = 29.19504 35.10963 32.15233
# Shear Modulus (GPa) = 18.14644 23.48233 20.81438
#
# Velocity S-wave (km/s) = 3.23079 3.67522 3.46015
# Velocity P-wave (km/s) = 5.54172 6.18103 5.87008
#
# Compressibility (1/GPa) = 0.03425240
#
# Stress axis : x y z
#
# Youngs Moduli (GPa) = 50.75424 46.00834 38.28557
#
# Poissons Ratio (x) = 0.14452 0.20681
# Poissons Ratio (y) = 0.15943 0.31048
# Poissons Ratio (z) = 0.27416 0.37311
#
# Static dielectric constant tensor:
#      x y z
#    x 3.044310 -0.042370 0.207020 
#    y -0.042370 3.044910 0.079680 
#    z 0.207020 0.079680 3.220190 
# 
# 
# High freq. dielectric constant tensor:
#      x y z
#    x 1.645960 -0.013380 0.029080 
#    y -0.013380 1.664460 0.011280 
#    z 0.029080 0.011280 1.671670 
# 
# From -- ./inp_files/96776.got.cif
#   From: 2010.06.25/outbox.cif.g09.slc.cpg/sg2_49_cif.got.tgz:96776.got - 2010.06.27 13:26:56.
