data_PCOD8038386
_publ_section_title
;
Structure prediction by ZEFSAII (Michael W. Deem and Ramdas Pophale) SiO2 
 PCOD8038386
Probable space group: P -1
;
_chemical_formula_sum "Si O2"
_cell_formula_units_Z 16
_cell_length_a 15.346804
_cell_length_b 9.354882
_cell_length_c 24.792287
_cell_angle_alpha 50.412849
_cell_angle_beta 18.154465
_cell_angle_gamma 46.094024
_cell_volume 795.287150
_symmetry_space_group_name_H-M "P -1"
_symmetry_group_IT_number 2
_symmetry_cell_setting 'triclinic'
loop_
_space_group_symop_operation_xyz
x,y,z
-x,-y,-z
loop_
_atom_site_type_symbol
_atom_site_label
_atom_site_fract_x
_atom_site_fract_y
_atom_site_fract_z
Si Si1 0.692989 0.105843 0.123797
Si Si2 0.100899 0.577287 0.867947
Si Si3 0.299238 0.561998 0.506868
Si Si4 0.471346 0.876075 0.384269
Si Si5 0.329645 0.361993 0.112652
Si Si6 0.872330 0.449575 0.927037
Si Si7 0.607818 0.867448 0.416401
Si Si8 0.160902 0.972426 0.061583
O O1 0.436337 0.050498 0.319394
O O2 0.625159 0.343615 0.105167
O O3 0.710120 0.013037 0.076800
O O4 0.000000 0.000000 0.000000
O O5 0.461174 0.450208 0.678988
O O6 0.901532 0.558053 0.939096
O O7 0.044468 0.809880 0.849485
O O8 0.000000 0.500000 0.000000
O O9 0.273097 0.746118 0.517331
O O10 0.433009 0.344189 0.507298
O O11 0.949934 0.604941 0.688909
O O12 0.396713 0.978036 0.463009
O O13 0.811295 0.722702 0.229062
O O14 0.221660 0.400565 0.104653
O O15 0.500000 0.500000 0.000000
O O16 0.560614 0.133314 0.036579
O O17 0.957162 0.836587 0.209596
O O18 0.500000 0.000000 0.500000
#
# Coordination Sequence:
#
# PCOD8038386 Si02
#       8
#     2   2   2   2   2   2   2   2
#     4  10  17  35  61  86 113 160 208 247 293 359
#     4  11  25  41  63  96 126 156 205 264 308 350
#     4  11  22  38  63  89 122 160 204 254 303 357
#     4  10  20  35  58  88 119 152 212 254 297 356
#     4  12  22  39  64  91 122 167 207 246 302 375
#     4  10  20  36  64  85 120 166 203 250 304 363
#     4  12  21  33  58  92 122 150 197 264 308 348
#     4  12  22  38  62  92 126 158 203 253 308 363
#
# _framework density 20.118518999999999
#
# number of rings (size 3 to 8) (size 9 to 14) (size 15 to 20)
#    0.000    1.000    7.500    2.625    1.750    0.500 
#    0.000    2.500    0.000    0.750    0.000    0.000 
#    0.000    0.000    0.000    0.000    0.000    0.000 
#
# Total GULP energy -198235.615552 kJ/mol
# GULP energy per Si atom -12389.725972 kJ/mol
# Density = 2.007273 g / cm^3
# Si number density = 20.118519 Si / 1000 Ang^3
#
#
#
# Elastic Constant Matrix: (Units=GPa)
#
#
# Indices 1 2 3 4 5 6 
#
# 1 112.2813 26.9496 42.1401 -2.6701 12.8717 9.2531
# 2 26.9496 63.0075 33.0604 -13.3948 -1.5359 6.7276
# 3 42.1401 33.0604 113.2114 -11.9963 2.9660 4.2054
# 4 -2.6701 -13.3948 -11.9963 29.4524 -1.7690 -5.1102
# 5 12.8717 -1.5359 2.9660 -1.7690 28.8817 -1.3398
# 6 9.2531 6.7276 4.2054 -5.1102 -1.3398 36.0142
#
#
#
# Elastic Compliance Matrix: (Units=1/GPa)
#
#
# Indices 1 2 3 4 5 6 
#
# 1 0.011833 -0.003743 -0.003369 -0.002768 -0.005414 -0.002542
# 2 -0.003743 0.021510 -0.004112 0.007755 0.003647 -0.001340
# 3 -0.003369 -0.004112 0.011537 0.002658 0.000292 0.000675
# 4 -0.002768 0.007755 0.002658 0.039365 0.004002 0.004687
# 5 -0.005414 0.003647 0.000292 0.004002 0.037568 0.002641
# 6 -0.002542 -0.001340 0.000675 0.004687 0.002641 0.029355
#
#
# Mechanical properties :
#
#
# Convention : Reuss Voigt Hill
#
# Bulk Modulus (GPa) = 44.57757 54.75563 49.66660
# Shear Modulus (GPa) = 27.60995 31.29299 29.45147
#
# Velocity S-wave (km/s) = 3.70856 3.94818 3.83024
# Velocity P-wave (km/s) = 6.36738 6.93251 6.65595
#
# Compressibility (1/GPa) = 0.02243280
#
# Stress axis : x y z
#
# Youngs Moduli (GPa) = 84.50842 46.48905 86.67915
#
# Poissons Ratio (x) = 0.17399 0.29199
# Poissons Ratio (y) = 0.31629 0.35646
# Poissons Ratio (z) = 0.28468 0.19118
#
# Static dielectric constant tensor:
#      x y z
#    x 3.806030 -0.013640 0.211640 
#    y -0.013640 3.835630 -0.439150 
#    z 0.211640 -0.439150 4.022270 
# 
# 
# High freq. dielectric constant tensor:
#      x y z
#    x 1.780140 0.013400 0.012500 
#    y 0.013400 1.766940 -0.035970 
#    z 0.012500 -0.035970 1.777530 
# 
# From -- ./inp_files/321077.got.cif
#   From: 2010.06.25/outbox.cif.g09.slc.cpg/sg2_161_cif.got.tgz:321077.got - 2010.06.27 13:26:56.
