data_PCOD8038048
_publ_section_title
;
Structure prediction by ZEFSAII (Michael W. Deem and Ramdas Pophale) SiO2 
 PCOD8038048
Probable space group: P -1
;
_chemical_formula_sum "Si O2"
_cell_formula_units_Z 14
_cell_length_a 8.320442
_cell_length_b 7.076952
_cell_length_c 15.076700
_cell_angle_alpha 58.215334
_cell_angle_beta 105.046873
_cell_angle_gamma 123.782560
_cell_volume 626.519026
_symmetry_space_group_name_H-M "P -1"
_symmetry_group_IT_number 2
_symmetry_cell_setting 'triclinic'
loop_
_space_group_symop_operation_xyz
x,y,z
-x,-y,-z
loop_
_atom_site_type_symbol
_atom_site_label
_atom_site_fract_x
_atom_site_fract_y
_atom_site_fract_z
Si Si1 0.763732 0.700708 0.241474
Si Si2 0.084523 0.677040 0.381238
Si Si3 0.152953 0.502735 0.252555
Si Si4 0.238485 0.645063 0.814521
Si Si5 0.469304 0.020916 0.888069
Si Si6 0.578189 0.627775 0.612782
Si Si7 0.509753 0.875719 0.387861
O O1 0.959902 0.811591 0.301628
O O2 0.782341 0.615560 0.165279
O O3 0.694520 0.905320 0.171624
O O4 0.602617 0.443010 0.332681
O O5 0.000000 0.500000 0.500000
O O6 0.064897 0.504623 0.335484
O O7 0.313399 0.885095 0.377897
O O8 0.328772 0.784489 0.178176
O O9 0.230510 0.299478 0.318856
O O10 0.977249 0.408336 0.180969
O O11 0.373975 0.736203 0.899293
O O12 0.332529 0.872916 0.700243
O O13 0.500000 0.000000 0.000000
O O14 0.608605 0.859992 0.497123
O O15 0.544335 0.376263 0.615413
#
# Coordination Sequence:
#
# PCOD8038048 Si02
#       7
#     2   2   2   2   2   2   2
#     4  10  21  38  60  95 122 158 214 250 300 377
#     4  10  17  33  59  89 130 166 193 245 294 356
#     4   9  21  39  59  93 127 157 211 256 294 377
#     4  11  22  40  63  89 127 159 200 264 308 364
#     4  11  24  47  69  85 119 162 204 270 326 355
#     4   9  17  35  56  87 128 167 209 239 285 371
#     4  10  18  33  60  85 130 175 196 242 301 351
#
# _framework density 22.345690000000001
#
# number of rings (size 3 to 8) (size 9 to 14) (size 15 to 20)
#    0.000    2.000    5.714    0.000    0.000    2.286 
#    5.143    2.857    0.000    0.000    0.000    0.000 
#    0.000    0.000    0.000    0.000    0.000    0.000 
#
# Total GULP energy -173469.479792 kJ/mol
# GULP energy per Si atom -12390.677128 kJ/mol
# Density = 2.229483 g / cm^3
# Si number density = 22.345690 Si / 1000 Ang^3
#
#
#
# Elastic Constant Matrix: (Units=GPa)
#
#
# Indices 1 2 3 4 5 6 
#
# 1 120.4236 22.9267 26.5882 7.1105 3.9395 29.7410
# 2 22.9267 56.8012 12.1405 15.8554 -1.1358 24.8067
# 3 26.5882 12.1405 93.1359 21.7216 -5.5070 5.3870
# 4 7.1105 15.8554 21.7216 22.4500 -3.6359 3.3559
# 5 3.9395 -1.1358 -5.5070 -3.6359 20.3105 5.6050
# 6 29.7410 24.8067 5.3870 3.3559 5.6050 33.7624
#
#
#
# Elastic Compliance Matrix: (Units=1/GPa)
#
#
# Indices 1 2 3 4 5 6 
#
# 1 0.011236 0.000087 -0.002790 0.000468 -0.000218 -0.009526
# 2 0.000087 0.033644 0.002322 -0.021621 0.005215 -0.023883
# 3 -0.002790 0.002322 0.014808 -0.014648 0.002208 -0.000522
# 4 0.000468 -0.021621 -0.014648 0.073228 0.005168 0.009673
# 5 -0.000218 0.005215 0.002208 0.005168 0.054850 -0.013611
# 6 -0.009526 -0.023883 -0.000522 0.009673 -0.013611 0.056940
#
#
# Mechanical properties :
#
#
# Convention : Reuss Voigt Hill
#
# Bulk Modulus (GPa) = 16.97091 43.74125 30.35608
# Shear Modulus (GPa) = 18.86013 29.21826 24.03919
#
# Velocity S-wave (km/s) = 2.90835 3.61994 3.28348
# Velocity P-wave (km/s) = 4.34617 6.09009 5.29048
#
# Compressibility (1/GPa) = 0.05892437
#
# Stress axis : x y z
#
# Youngs Moduli (GPa) = 89.00198 29.72308 67.53194
#
# Poissons Ratio (x) = -0.00257 0.18841
# Poissons Ratio (y) = -0.00770 -0.15681
# Poissons Ratio (z) = 0.24831 -0.06902
#
# Static dielectric constant tensor:
#      x y z
#    x 4.476540 0.222510 0.111050 
#    y 0.222510 3.831640 0.360560 
#    z 0.111050 0.360560 3.974620 
# 
# 
# High freq. dielectric constant tensor:
#      x y z
#    x 1.898940 0.013030 0.000510 
#    y 0.013030 1.858390 0.025260 
#    z 0.000510 0.025260 1.853340 
# 
# From -- ./inp_files/490644.got.cif
#   From: 2010.06.25/outbox.cif.g09.slc.cpg/sg2_246_cif.got.tgz:490644.got - 2010.06.27 13:26:56.
