data_PCOD8038899
_publ_section_title
;
Structure prediction by ZEFSAII (Michael W. Deem and Ramdas Pophale) SiO2 
 PCOD8038899
Probable space group: P -1
;
_chemical_formula_sum "Si O2"
_cell_formula_units_Z 14
_cell_length_a 9.092820
_cell_length_b 32.439235
_cell_length_c 12.380240
_cell_angle_alpha 155.517357
_cell_angle_beta 137.761732
_cell_angle_gamma 27.396940
_cell_volume 651.066872
_symmetry_space_group_name_H-M "P -1"
_symmetry_group_IT_number 2
_symmetry_cell_setting 'triclinic'
loop_
_space_group_symop_operation_xyz
x,y,z
-x,-y,-z
loop_
_atom_site_type_symbol
_atom_site_label
_atom_site_fract_x
_atom_site_fract_y
_atom_site_fract_z
Si Si1 0.404903 0.729338 0.688758
Si Si2 0.265076 0.004186 0.942125
Si Si3 0.635818 0.841745 0.211311
Si Si4 0.742227 0.694496 0.597957
Si Si5 0.771074 0.406330 0.194133
Si Si6 0.595366 0.566084 0.770213
Si Si7 0.789428 0.111253 0.750420
O O1 0.512077 0.693606 0.535368
O O2 0.619558 0.569377 0.484831
O O3 0.476113 0.813355 0.978157
O O4 0.000917 0.848450 0.768666
O O5 0.051591 0.019897 0.774122
O O6 0.494483 0.849973 0.766552
O O7 0.500000 0.000000 0.000000
O O8 0.532738 0.846395 0.289076
O O9 0.500000 0.000000 0.500000
O O10 0.044645 0.697672 0.063497
O O11 0.949620 0.686660 0.779890
O O12 0.005164 0.548819 0.309749
O O13 0.483443 0.427008 0.128126
O O14 0.500000 0.500000 0.500000
O O15 0.352602 0.732295 0.982937
O O16 0.000000 0.000000 0.500000
#
# Coordination Sequence:
#
# PCOD8038899 Si02
#       7
#     2   2   2   2   2   2   2
#     4  10  20  35  55  85 115 144 184 234 279 330
#     4  11  21  35  56  85 115 147 187 236 283 329
#     4  10  19  32  53  80 110 146 184 224 271 328
#     4  10  18  31  53  81 109 140 179 231 276 319
#     4  10  18  33  56  84 110 143 187 233 275 329
#     4  10  18  33  58  84 109 146 190 229 272 333
#     4  11  23  39  56  83 117 152 188 231 281 338
#
# _framework density 21.503166
#
# number of rings (size 3 to 8) (size 9 to 14) (size 15 to 20)
#    0.000    1.714    0.000    9.857    0.000    1.143 
#    0.000    0.714    0.000    1.714    0.000   36.000 
#    0.000    0.000    0.000    0.000    0.000    0.000 
#
# Total GULP energy -173435.898352 kJ/mol
# GULP energy per Si atom -12388.278454 kJ/mol
# Density = 2.145422 g / cm^3
# Si number density = 21.503166 Si / 1000 Ang^3
#
#
#
# Elastic Constant Matrix: (Units=GPa)
#
#
# Indices 1 2 3 4 5 6 
#
# 1 240.5190 45.6265 79.0547 28.9638 -39.8073 4.9305
# 2 45.6265 76.3351 46.1694 38.5077 -2.5830 16.9486
# 3 79.0547 46.1694 143.8174 41.9003 -5.9233 7.2902
# 4 28.9638 38.5077 41.9003 32.2835 -1.2731 4.2174
# 5 -39.8073 -2.5830 -5.9233 -1.2731 58.8952 17.9053
# 6 4.9305 16.9486 7.2902 4.2174 17.9053 30.1159
#
#
#
# Elastic Compliance Matrix: (Units=1/GPa)
#
#
# Indices 1 2 3 4 5 6 
#
# 1 0.006055 -0.001532 -0.002617 0.000249 0.004425 -0.002161
# 2 -0.001532 0.042402 0.003258 -0.050402 0.006511 -0.021214
# 3 -0.002617 0.003258 0.012563 -0.017605 -0.000172 -0.001879
# 4 0.000249 -0.050402 -0.017605 0.110540 -0.008086 0.021914
# 5 0.004425 0.006511 -0.000172 -0.008086 0.025683 -0.018485
# 6 -0.002161 -0.021214 -0.001879 0.021914 -0.018485 0.053874
#
#
# Mechanical properties :
#
#
# Convention : Reuss Voigt Hill
#
# Bulk Modulus (GPa) = 16.88129 89.15253 53.01691
# Shear Modulus (GPa) = 18.33879 43.58031 30.95955
#
# Velocity S-wave (km/s) = 2.92351 4.50676 3.79854
# Velocity P-wave (km/s) = 4.38903 8.28441 6.62929
#
# Compressibility (1/GPa) = 0.05923719
#
# Stress axis : x y z
#
# Youngs Moduli (GPa) = 165.14554 23.58396 79.59651
#
# Poissons Ratio (x) = 0.03614 0.20833
# Poissons Ratio (y) = 0.25307 -0.25934
# Poissons Ratio (z) = 0.43224 -0.07684
#
# Static dielectric constant tensor:
#      x y z
#    x 5.931880 -0.422070 -1.107260 
#    y -0.422070 4.352320 1.258870 
#    z -1.107260 1.258870 4.754070 
# 
# 
# High freq. dielectric constant tensor:
#      x y z
#    x 1.894740 0.002140 -0.021870 
#    y 0.002140 1.785520 0.044090 
#    z -0.021870 0.044090 1.834440 
# 
# From -- ./inp_files/158168.got.cif
#   From: 2010.06.25/outbox.cif.g09.slc.cpg/sg2_80_cif.got.tgz:158168.got - 2010.06.27 13:26:56.
