data_PCOD8038826
_publ_section_title
;
Structure prediction by ZEFSAII (Michael W. Deem and Ramdas Pophale) SiO2 
 PCOD8038826
Probable space group: P -1
;
_chemical_formula_sum "Si O2"
_cell_formula_units_Z 16
_cell_length_a 8.112787
_cell_length_b 18.194135
_cell_length_c 14.496157
_cell_angle_alpha 30.856892
_cell_angle_beta 57.208686
_cell_angle_gamma 78.551197
_cell_volume 725.354975
_symmetry_space_group_name_H-M "P -1"
_symmetry_group_IT_number 2
_symmetry_cell_setting 'triclinic'
loop_
_space_group_symop_operation_xyz
x,y,z
-x,-y,-z
loop_
_atom_site_type_symbol
_atom_site_label
_atom_site_fract_x
_atom_site_fract_y
_atom_site_fract_z
Si Si1 0.149703 0.979525 0.132176
Si Si2 0.741220 0.655413 0.312762
Si Si3 0.996043 0.481244 0.701568
Si Si4 0.374920 0.675282 0.861346
Si Si5 0.807049 0.282738 0.300884
Si Si6 0.713227 0.620503 0.571111
Si Si7 0.630604 0.170192 0.672869
Si Si8 0.732375 0.646423 0.872114
O O1 0.227463 0.918504 0.262954
O O2 0.869909 0.816706 0.361326
O O3 0.158201 0.150740 0.969240
O O4 0.340522 0.024447 0.943299
O O5 0.500000 0.500000 0.500000
O O6 0.668386 0.642923 0.455014
O O7 0.949674 0.628158 0.263333
O O8 0.867107 0.542643 0.611440
O O9 0.247890 0.655881 0.484049
O O10 0.806251 0.342339 0.987567
O O11 0.380237 0.792781 0.649080
O O12 0.262754 0.469873 0.086198
O O13 0.647986 0.761761 0.729496
O O14 0.640064 0.221891 0.508014
O O15 0.000000 0.500000 0.000000
O O16 0.983399 0.219178 0.318756
O O17 0.451445 0.487794 0.846065
#
# Coordination Sequence:
#
# PCOD8038826 Si02
#       8
#     2   2   2   2   2   2   2   2
#     4  10  23  39  58  88 129 162 200 250 310 366
#     4  12  24  36  60  89 120 165 206 247 300 371
#     4  10  19  38  58  85 124 149 203 250 306 358
#     4   9  18  30  53  91 113 152 192 261 299 342
#     4  10  18  30  60  93 117 150 207 261 299 346
#     4  10  23  39  60  90 122 160 201 256 307 361
#     4  10  19  38  60  91 122 162 202 257 304 358
#     4   9  18  32  56  92 121 145 207 262 298 346
#
# _framework density 22.058166
#
# number of rings (size 3 to 8) (size 9 to 14) (size 15 to 20)
#    0.000    2.000    3.750    0.750    7.000    0.000 
#    0.000    0.000    0.000    1.500    0.000    0.000 
#    0.000    0.000    0.000    0.000    0.000    0.000 
#
# Total GULP energy -198354.185947 kJ/mol
# GULP energy per Si atom -12397.136622 kJ/mol
# Density = 2.200796 g / cm^3
# Si number density = 22.058166 Si / 1000 Ang^3
#
#
#
# Elastic Constant Matrix: (Units=GPa)
#
#
# Indices 1 2 3 4 5 6 
#
# 1 101.4696 10.0603 20.8343 0.1715 13.0091 3.4294
# 2 10.0603 62.7622 20.9100 -1.6470 7.1870 -11.6321
# 3 20.8343 20.9100 53.7164 6.9845 18.0265 4.8567
# 4 0.1715 -1.6470 6.9845 33.8240 -2.4177 8.2380
# 5 13.0091 7.1870 18.0265 -2.4177 32.9826 10.3706
# 6 3.4294 -11.6321 4.8567 8.2380 10.3706 26.7682
#
#
#
# Elastic Compliance Matrix: (Units=1/GPa)
#
#
# Indices 1 2 3 4 5 6 
#
# 1 0.010880 -0.000401 -0.003351 0.000515 -0.002258 -0.000244
# 2 -0.000401 0.021409 -0.007790 -0.000735 -0.004282 0.012653
# 3 -0.003351 -0.007790 0.028127 -0.006789 -0.012496 -0.001128
# 4 0.000515 -0.000735 -0.006789 0.035125 0.010675 -0.014099
# 5 -0.002258 -0.004282 -0.012496 0.010675 0.046197 -0.020487
# 6 -0.000244 0.012653 -0.001128 -0.014099 -0.020487 0.055368
#
#
# Mechanical properties :
#
#
# Convention : Reuss Voigt Hill
#
# Bulk Modulus (GPa) = 26.78659 35.72859 31.25759
# Shear Modulus (GPa) = 21.49314 29.79120 25.64217
#
# Velocity S-wave (km/s) = 3.12490 3.67900 3.41321
# Velocity P-wave (km/s) = 5.01896 5.85486 5.45295
#
# Compressibility (1/GPa) = 0.03733211
#
# Stress axis : x y z
#
# Youngs Moduli (GPa) = 91.91348 46.70987 35.55347
#
# Poissons Ratio (x) = 0.01871 0.11914
# Poissons Ratio (y) = 0.03682 0.27696
# Poissons Ratio (z) = 0.30801 0.36387
#
# Static dielectric constant tensor:
#      x y z
#    x 4.913320 -0.207830 0.189480 
#    y -0.207830 3.683000 0.267320 
#    z 0.189480 0.267320 3.773470 
# 
# 
# High freq. dielectric constant tensor:
#      x y z
#    x 1.893960 -0.017430 0.012450 
#    y -0.017430 1.822320 0.035650 
#    z 0.012450 0.035650 1.846490 
# 
# From -- ./inp_files/507650.got.cif
#   From: 2010.06.25/outbox.cif.g09.slc.cpg/sg2_254_cif.got.tgz:507650.got - 2010.06.27 13:26:56.
