data_PCOD8038210
_publ_section_title
;
Structure prediction by ZEFSAII (Michael W. Deem and Ramdas Pophale) SiO2 
 PCOD8038210
Probable space group: P -1
;
_chemical_formula_sum "Si O2"
_cell_formula_units_Z 16
_cell_length_a 20.124697
_cell_length_b 27.770376
_cell_length_c 8.885767
_cell_angle_alpha 44.046740
_cell_angle_beta 147.385799
_cell_angle_gamma 160.236725
_cell_volume 827.227283
_symmetry_space_group_name_H-M "P -1"
_symmetry_group_IT_number 2
_symmetry_cell_setting 'triclinic'
loop_
_space_group_symop_operation_xyz
x,y,z
-x,-y,-z
loop_
_atom_site_type_symbol
_atom_site_label
_atom_site_fract_x
_atom_site_fract_y
_atom_site_fract_z
Si Si1 0.077353 0.138304 0.188365
Si Si2 0.687933 0.112820 0.746121
Si Si3 0.370815 0.334064 0.735284
Si Si4 0.724511 0.628722 0.819455
Si Si5 0.590396 0.907536 0.563408
Si Si6 0.324367 0.654356 0.766180
Si Si7 0.353803 0.142756 0.781852
Si Si8 0.725544 0.004587 0.271179
O O1 0.209262 0.281832 0.125187
O O2 0.298402 0.187678 0.490325
O O3 0.907347 0.031452 0.255247
O O4 0.899035 0.050702 0.893659
O O5 0.587616 0.134899 0.568669
O O6 0.500000 0.000000 0.500000
O O7 0.662318 0.045921 0.983229
O O8 0.002473 0.275697 0.924867
O O9 0.501480 0.456576 0.827884
O O10 0.397032 0.384892 0.512518
O O11 0.056025 0.154852 0.577482
O O12 0.569398 0.368194 0.020735
O O13 0.438494 0.757381 0.614231
O O14 0.597201 0.941524 0.333697
O O15 0.000000 0.500000 0.500000
O O16 0.428294 0.734735 0.945715
O O17 0.444598 0.138206 0.829379
#
# Coordination Sequence:
#
# PCOD8038210 Si02
#       8
#     2   2   2   2   2   2   2   2
#     4  10  17  34  59  83 109 148 202 235 275 333
#     4  11  19  36  61  84 112 151 197 236 278 341
#     4  10  20  34  57  84 118 147 191 244 290 335
#     4  10  18  34  58  87 111 146 196 247 280 329
#     4  11  23  35  59  87 118 150 191 242 293 345
#     4  11  22  38  59  87 114 149 202 244 286 339
#     4  10  18  35  58  82 111 150 193 243 276 341
#     4  11  22  38  56  87 119 153 189 237 296 345
#
# _framework density 19.341722000000001
#
# number of rings (size 3 to 8) (size 9 to 14) (size 15 to 20)
#    0.000    1.500    5.000    3.375    0.000    2.000 
#    0.000    1.250    0.000    0.000    0.000    0.000 
#    0.000    0.000    0.000    0.000    0.000    0.000 
#
# Total GULP energy -198274.552197 kJ/mol
# GULP energy per Si atom -12392.159512 kJ/mol
# Density = 1.929770 g / cm^3
# Si number density = 19.341722 Si / 1000 Ang^3
#
#
#
# Elastic Constant Matrix: (Units=GPa)
#
#
# Indices 1 2 3 4 5 6 
#
# 1 41.7947 22.1674 9.3871 -7.9123 -2.9973 -10.9656
# 2 22.1674 99.5235 28.2763 6.3665 0.8865 -22.3897
# 3 9.3871 28.2763 92.5017 -1.6524 7.5269 2.1652
# 4 -7.9123 6.3665 -1.6524 18.0414 -1.5837 -0.2137
# 5 -2.9973 0.8865 7.5269 -1.5837 31.5982 -5.2429
# 6 -10.9656 -22.3897 2.1652 -0.2137 -5.2429 22.3012
#
#
#
# Elastic Compliance Matrix: (Units=1/GPa)
#
#
# Indices 1 2 3 4 5 6 
#
# 1 0.034734 -0.004985 -0.002613 0.017562 0.007295 0.014211
# 2 -0.004985 0.016565 -0.005256 -0.008120 0.002426 0.015182
# 3 -0.002613 -0.005256 0.013298 0.001410 -0.004681 -0.008939
# 4 0.017562 -0.008120 0.001410 0.066613 0.005265 0.002222
# 5 0.007295 0.002426 -0.004681 0.005265 0.036143 0.015025
# 6 0.014211 0.015182 -0.008939 0.002222 0.015025 0.071492
#
#
# Mechanical properties :
#
#
# Convention : Reuss Voigt Hill
#
# Bulk Modulus (GPa) = 25.71504 39.27574 32.49539
# Shear Modulus (GPa) = 18.01698 25.98743 22.00220
#
# Velocity S-wave (km/s) = 3.05537 3.66948 3.37642
# Velocity P-wave (km/s) = 5.07652 6.18901 5.66016
#
# Compressibility (1/GPa) = 0.03888775
#
# Stress axis : x y z
#
# Youngs Moduli (GPa) = 28.79026 60.36882 75.20124
#
# Poissons Ratio (x) = 0.30096 0.19653
# Poissons Ratio (y) = 0.14353 0.39522
# Poissons Ratio (z) = 0.07524 0.31727
#
# Static dielectric constant tensor:
#      x y z
#    x 4.409120 -0.280380 1.205280 
#    y -0.280380 3.846260 0.073950 
#    z 1.205280 0.073950 4.793060 
# 
# 
# High freq. dielectric constant tensor:
#      x y z
#    x 1.722580 -0.034060 0.007870 
#    y -0.034060 1.745830 -0.005660 
#    z 0.007870 -0.005660 1.763950 
# 
# From -- ./inp_files/256816.got.cif
#   From: 2010.06.25/outbox.cif.g09.slc.cpg/sg2_129_cif.got.tgz:256816.got - 2010.06.27 13:26:56.
