data_PCOD8038077
_publ_section_title
;
Structure prediction by ZEFSAII (Michael W. Deem and Ramdas Pophale) SiO2 
 PCOD8038077
Probable space group: P -1
;
_chemical_formula_sum "Si O2"
_cell_formula_units_Z 16
_cell_length_a 9.577022
_cell_length_b 13.007923
_cell_length_c 8.406619
_cell_angle_alpha 118.971461
_cell_angle_beta 100.956176
_cell_angle_gamma 58.166111
_cell_volume 775.379603
_symmetry_space_group_name_H-M "P -1"
_symmetry_group_IT_number 2
_symmetry_cell_setting 'triclinic'
loop_
_space_group_symop_operation_xyz
x,y,z
-x,-y,-z
loop_
_atom_site_type_symbol
_atom_site_label
_atom_site_fract_x
_atom_site_fract_y
_atom_site_fract_z
Si Si1 0.126807 0.550826 0.036844
Si Si2 0.743233 0.537210 0.537458
Si Si3 0.178629 0.179768 0.413461
Si Si4 0.427938 0.788454 0.514990
Si Si5 0.507762 0.987196 0.182634
Si Si6 0.640447 0.735700 0.235094
Si Si7 0.022842 0.386316 0.255785
Si Si8 0.157370 0.718061 0.450859
O O1 0.153642 0.640185 0.235904
O O2 0.299025 0.415403 0.929504
O O3 0.000000 0.500000 0.000000
O O4 0.043076 0.652407 0.943671
O O5 0.562052 0.661469 0.554752
O O6 0.839112 0.569931 0.723448
O O7 0.744565 0.399081 0.481342
O O8 0.858624 0.514394 0.392377
O O9 0.334528 0.040696 0.279891
O O10 0.230914 0.255583 0.610367
O O11 0.109669 0.261289 0.297999
O O12 0.028374 0.168528 0.450022
O O13 0.405969 0.929066 0.679846
O O14 0.475583 0.775786 0.330005
O O15 0.252909 0.798143 0.499837
O O16 0.612788 0.831643 0.147824
O O17 0.500000 0.000000 0.000000
#
# Coordination Sequence:
#
# PCOD8038077 Si02
#       8
#     2   2   2   2   2   2   2   2
#     4  12  21  34  63  97 128 156 213 251 306 374
#     4  10  17  34  58  89 126 161 200 248 316 368
#     4  10  20  41  64  89 126 163 213 250 313 372
#     4  11  22  43  60  92 130 166 208 254 321 372
#     4  11  26  43  68  91 115 168 225 260 298 368
#     4  11  22  42  64  90 126 170 212 256 298 378
#     4  10  17  33  61  93 117 162 206 256 295 360
#     4  11  24  35  63  98 130 167 194 260 329 368
#
# _framework density 20.635054
#
# number of rings (size 3 to 8) (size 9 to 14) (size 15 to 20)
#    0.000    1.250    6.250    2.625    3.500    0.500 
#    0.000    4.375    0.000    0.000    0.000    0.000 
#    0.000    0.000    0.000    0.000    0.000    0.000 
#
# Total GULP energy -198234.808546 kJ/mol
# GULP energy per Si atom -12389.675534 kJ/mol
# Density = 2.058809 g / cm^3
# Si number density = 20.635054 Si / 1000 Ang^3
#
#
#
# Elastic Constant Matrix: (Units=GPa)
#
#
# Indices 1 2 3 4 5 6 
#
# 1 146.1673 22.0761 37.3883 2.0379 0.5790 10.7418
# 2 22.0761 88.4159 29.5098 -20.2308 4.5280 1.9492
# 3 37.3883 29.5098 92.6616 -6.2031 -3.1787 0.1455
# 4 2.0379 -20.2308 -6.2031 25.7514 -0.6265 -2.4425
# 5 0.5790 4.5280 -3.1787 -0.6265 16.9916 -0.9169
# 6 10.7418 1.9492 0.1455 -2.4425 -0.9169 24.4119
#
#
#
# Elastic Compliance Matrix: (Units=1/GPa)
#
#
# Indices 1 2 3 4 5 6 
#
# 1 0.008176 -0.001605 -0.003008 -0.003009 -0.000729 -0.003780
# 2 -0.001605 0.015840 -0.003773 0.011599 -0.004420 0.000459
# 3 -0.003008 -0.003773 0.013383 0.000756 0.003735 0.001761
# 4 -0.003009 0.011599 0.000756 0.048845 -0.000763 0.005252
# 5 -0.000729 -0.004420 0.003735 -0.000763 0.060880 0.002862
# 6 -0.003780 0.000459 0.001761 0.005252 0.002862 0.043213
#
#
# Mechanical properties :
#
#
# Convention : Reuss Voigt Hill
#
# Bulk Modulus (GPa) = 48.48018 56.13258 52.30638
# Shear Modulus (GPa) = 23.36604 29.31568 26.34086
#
# Velocity S-wave (km/s) = 3.36869 3.77327 3.57670
# Velocity P-wave (km/s) = 6.21899 6.80037 6.51617
#
# Compressibility (1/GPa) = 0.02062698
#
# Stress axis : x y z
#
# Youngs Moduli (GPa) = 122.30873 63.12963 74.72034
#
# Poissons Ratio (x) = 0.10134 0.22478
# Poissons Ratio (y) = 0.19634 0.28191
# Poissons Ratio (z) = 0.36793 0.23818
#
# Static dielectric constant tensor:
#      x y z
#    x 3.792560 -0.136840 -0.278100 
#    y -0.136840 3.872860 -0.175980 
#    z -0.278100 -0.175980 4.191210 
# 
# 
# High freq. dielectric constant tensor:
#      x y z
#    x 1.787390 -0.009250 -0.021080 
#    y -0.009250 1.809530 -0.020960 
#    z -0.021080 -0.020960 1.793460 
# 
# From -- ./inp_files/189340.got.cif
#   From: 2010.06.25/outbox.cif.g09.slc.cpg/sg2_95_cif.got.tgz:189340.got - 2010.06.27 13:26:56.
