data_PCOD8038794
_publ_section_title
;
Structure prediction by ZEFSAII (Michael W. Deem and Ramdas Pophale) SiO2 
 PCOD8038794
Probable space group: P -1
;
_chemical_formula_sum "Si O2"
_cell_formula_units_Z 16
_cell_length_a 11.394751
_cell_length_b 15.376049
_cell_length_c 9.793142
_cell_angle_alpha 134.965453
_cell_angle_beta 84.922011
_cell_angle_gamma 122.873016
_cell_volume 885.038157
_symmetry_space_group_name_H-M "P -1"
_symmetry_group_IT_number 2
_symmetry_cell_setting 'triclinic'
loop_
_space_group_symop_operation_xyz
x,y,z
-x,-y,-z
loop_
_atom_site_type_symbol
_atom_site_label
_atom_site_fract_x
_atom_site_fract_y
_atom_site_fract_z
Si Si1 0.910469 0.693037 0.069933
Si Si2 0.425227 0.444411 0.095484
Si Si3 0.407857 0.825030 0.889262
Si Si4 0.782758 0.118564 0.895009
Si Si5 0.518946 0.785208 0.107175
Si Si6 0.289730 0.684178 0.261398
Si Si7 0.204635 0.882363 0.409409
Si Si8 0.502572 0.247762 0.446202
O O1 0.025728 0.774475 0.013020
O O2 0.022281 0.805088 0.315806
O O3 0.767869 0.687403 0.051970
O O4 0.842963 0.509560 0.899787
O O5 0.492688 0.604627 0.356736
O O6 0.500000 0.500000 0.000000
O O7 0.475542 0.357696 0.073175
O O8 0.387777 0.701100 0.643263
O O9 0.241999 0.770988 0.896951
O O10 0.504626 0.840498 0.024976
O O11 0.500000 0.000000 0.000000
O O12 0.716934 0.091780 0.717518
O O13 0.680403 0.930758 0.759632
O O14 0.369024 0.712184 0.137879
O O15 0.689861 0.942195 0.329591
O O16 0.202620 0.753845 0.351110
O O17 0.428749 0.782766 0.469676
#
# Coordination Sequence:
#
# PCOD8038794 Si02
#       8
#     2   2   2   2   2   2   2   2
#     4   9  20  32  53  85 116 140 172 234 283 316
#     4  11  21  37  55  81 114 146 189 226 262 331
#     4  10  21  35  58  85 109 143 185 229 278 328
#     4   9  17  34  55  82 110 140 175 228 280 318
#     4  12  20  34  59  82 110 148 189 222 269 327
#     4  11  17  33  56  84 111 138 182 235 273 326
#     4  10  18  30  54  84 108 135 179 229 281 312
#     4  10  20  36  55  82 111 151 181 223 273 322
#
# _framework density 18.078315
#
# number of rings (size 3 to 8) (size 9 to 14) (size 15 to 20)
#    0.750    1.000    5.000    2.250    0.000    1.000 
#    0.000    2.500    0.000    9.000    0.000    0.000 
#    0.000    0.000    0.000    0.000    0.000    0.000 
#
# Total GULP energy -198213.429810 kJ/mol
# GULP energy per Si atom -12388.339363 kJ/mol
# Density = 1.803717 g / cm^3
# Si number density = 18.078315 Si / 1000 Ang^3
#
#
#
# Elastic Constant Matrix: (Units=GPa)
#
#
# Indices 1 2 3 4 5 6 
#
# 1 95.5928 43.1810 32.7465 2.7957 -6.5393 9.0903
# 2 43.1810 78.3773 35.6305 -4.6656 -0.2465 2.9214
# 3 32.7465 35.6305 80.1260 -0.3389 -21.2559 12.6531
# 4 2.7957 -4.6656 -0.3389 30.5022 6.7237 0.0226
# 5 -6.5393 -0.2465 -21.2559 6.7237 25.5074 4.9046
# 6 9.0903 2.9214 12.6531 0.0226 4.9046 31.2067
#
#
#
# Elastic Compliance Matrix: (Units=1/GPa)
#
#
# Indices 1 2 3 4 5 6 
#
# 1 0.015216 -0.008185 -0.000548 -0.003792 0.005183 -0.004256
# 2 -0.008185 0.022863 -0.012050 0.007490 -0.015342 0.007535
# 3 -0.000548 -0.012050 0.027538 -0.007516 0.027399 -0.014179
# 4 -0.003792 0.007490 -0.007516 0.038260 -0.018465 0.006325
# 5 0.005183 -0.015342 0.027399 -0.018465 0.072421 -0.022551
# 6 -0.004256 0.007535 -0.014179 0.006325 -0.022551 0.041867
#
#
# Mechanical properties :
#
#
# Convention : Reuss Voigt Hill
#
# Bulk Modulus (GPa) = 41.57683 53.02355 47.30019
# Shear Modulus (GPa) = 18.67432 26.94579 22.81006
#
# Velocity S-wave (km/s) = 3.21747 3.86489 3.55595
# Velocity P-wave (km/s) = 6.07049 7.02212 6.56357
#
# Compressibility (1/GPa) = 0.02405186
#
# Stress axis : x y z
#
# Youngs Moduli (GPa) = 65.71953 43.73935 36.31308
#
# Poissons Ratio (x) = 0.35800 0.01990
# Poissons Ratio (y) = 0.53790 0.43757
# Poissons Ratio (z) = 0.03602 0.52705
#
# Static dielectric constant tensor:
#      x y z
#    x 3.319290 0.097030 -0.167640 
#    y 0.097030 3.361280 -0.063710 
#    z -0.167640 -0.063710 3.371100 
# 
# 
# High freq. dielectric constant tensor:
#      x y z
#    x 1.687320 0.002020 -0.008450 
#    y 0.002020 1.694080 0.007630 
#    z -0.008450 0.007630 1.683320 
# 
# From -- ./inp_files/271096.got.cif
#   From: 2010.06.25/outbox.cif.g09.slc.cpg/sg2_136_cif.got.tgz:271096.got - 2010.06.27 13:26:56.
