data_PCOD8038818
_publ_section_title
;
Structure prediction by ZEFSAII (Michael W. Deem and Ramdas Pophale) SiO2 
 PCOD8038818
Probable space group: P -1
;
_chemical_formula_sum "Si O2"
_cell_formula_units_Z 16
_cell_length_a 14.899321
_cell_length_b 8.626932
_cell_length_c 14.192590
_cell_angle_alpha 137.930044
_cell_angle_beta 57.439663
_cell_angle_gamma 132.514517
_cell_volume 898.507647
_symmetry_space_group_name_H-M "P -1"
_symmetry_group_IT_number 2
_symmetry_cell_setting 'triclinic'
loop_
_space_group_symop_operation_xyz
x,y,z
-x,-y,-z
loop_
_atom_site_type_symbol
_atom_site_label
_atom_site_fract_x
_atom_site_fract_y
_atom_site_fract_z
Si Si1 0.744667 0.411501 0.653201
Si Si2 0.596709 0.294024 0.864664
Si Si3 0.213114 0.822301 0.648980
Si Si4 0.197048 0.671139 0.121758
Si Si5 0.960869 0.527198 0.711999
Si Si6 0.331188 0.105217 0.899662
Si Si7 0.829653 0.003741 0.882320
Si Si8 0.070201 0.093168 0.862490
O O1 0.634454 0.272315 0.726486
O O2 0.709821 0.235894 0.498615
O O3 0.868465 0.430444 0.632512
O O4 0.763291 0.700927 0.748677
O O5 0.666207 0.195800 0.852896
O O6 0.451798 0.105367 0.872213
O O7 0.636571 0.595648 0.004260
O O8 0.089511 0.541920 0.618834
O O9 0.293776 0.940795 0.750060
O O10 0.166514 0.021467 0.723153
O O11 0.102108 0.668188 0.252269
O O12 0.198346 0.827086 0.099735
O O13 0.153164 0.364275 0.990728
O O14 0.991574 0.833830 0.857932
O O15 0.222011 0.967388 0.974489
O O16 0.975887 0.123878 0.860208
#
# Coordination Sequence:
#
# PCOD8038818 Si02
#       8
#     2   2   2   2   2   2   2   2
#     4   9  18  34  50  76  96 133 159 206 238 297
#     4   9  19  34  55  69  99 123 177 204 242 276
#     4  10  18  30  57  71 102 123 170 200 245 276
#     4  11  17  32  50  76 101 133 155 205 247 289
#     4   8  17  28  52  72  97 128 162 195 242 284
#     4  10  19  34  51  78  90 132 168 213 234 284
#     4  10  21  30  51  74 108 125 162 193 254 297
#     4   9  18  29  51  76  99 127 159 204 239 290
#
# _framework density 17.807306000000001
#
# number of rings (size 3 to 8) (size 9 to 14) (size 15 to 20)
#    0.750    1.750    1.250    2.625    0.000    1.000 
#    0.000    0.625    5.500    0.750    0.000    0.000 
#    0.000    0.000    0.000    0.000    0.000    0.000 
#
# Total GULP energy -198215.385246 kJ/mol
# GULP energy per Si atom -12388.461578 kJ/mol
# Density = 1.776678 g / cm^3
# Si number density = 17.807306 Si / 1000 Ang^3
#
#
#
# Elastic Constant Matrix: (Units=GPa)
#
#
# Indices 1 2 3 4 5 6 
#
# 1 90.1925 26.4286 26.5684 -4.0805 4.3154 3.9103
# 2 26.4286 35.8992 21.5286 -2.8897 5.3038 -6.1676
# 3 26.5684 21.5286 94.5759 -14.2838 14.9197 -1.0254
# 4 -4.0805 -2.8897 -14.2838 11.1770 -0.2281 -0.5373
# 5 4.3154 5.3038 14.9197 -0.2281 18.6911 -6.1002
# 6 3.9103 -6.1676 -1.0254 -0.5373 -6.1002 14.7622
#
#
#
# Elastic Compliance Matrix: (Units=1/GPa)
#
#
# Indices 1 2 3 4 5 6 
#
# 1 0.015585 -0.012065 -0.001294 0.000372 -0.002490 -0.010275
# 2 -0.012065 0.044314 -0.007090 -0.000861 0.003207 0.022511
# 3 -0.001294 -0.007090 0.017573 0.019574 -0.013526 -0.006275
# 4 0.000372 -0.000861 0.019574 0.114062 -0.014362 -0.000882
# 5 -0.002490 0.003207 -0.013526 -0.014362 0.073934 0.031089
# 6 -0.010275 0.022511 -0.006275 -0.000882 0.031089 0.092246
#
#
# Mechanical properties :
#
#
# Convention : Reuss Voigt Hill
#
# Bulk Modulus (GPa) = 27.34149 41.07987 34.21068
# Shear Modulus (GPa) = 12.17125 18.66887 15.42006
#
# Velocity S-wave (km/s) = 2.61721 3.24139 2.94588
# Velocity P-wave (km/s) = 4.95182 6.09327 5.55196
#
# Compressibility (1/GPa) = 0.03657446
#
# Stress axis : x y z
#
# Youngs Moduli (GPa) = 64.16248 22.56619 56.90569
#
# Poissons Ratio (x) = 0.27226 0.07365
# Poissons Ratio (y) = 0.77412 0.40345
# Poissons Ratio (z) = 0.08304 0.15999
#
# Static dielectric constant tensor:
#      x y z
#    x 3.249610 0.224170 -0.026000 
#    y 0.224170 3.007910 -0.100030 
#    z -0.026000 -0.100030 3.047530 
# 
# 
# High freq. dielectric constant tensor:
#      x y z
#    x 1.685890 0.015990 0.006450 
#    y 0.015990 1.653990 -0.012020 
#    z 0.006450 -0.012020 1.669860 
# 
# From -- ./inp_files/227149.got.cif
#   From: 2010.06.25/outbox.cif.g09.slc.cpg/sg2_114_cif.got.tgz:227149.got - 2010.06.27 13:26:56.
