data_PCOD8038096
_publ_section_title
;
Structure prediction by ZEFSAII (Michael W. Deem and Ramdas Pophale) SiO2 
 PCOD8038096
Probable space group: P -1
;
_chemical_formula_sum "Si O2"
_cell_formula_units_Z 14
_cell_length_a 16.502077
_cell_length_b 11.452688
_cell_length_c 8.497487
_cell_angle_alpha 121.077961
_cell_angle_beta 43.461737
_cell_angle_gamma 138.191956
_cell_volume 735.352084
_symmetry_space_group_name_H-M "P -1"
_symmetry_group_IT_number 2
_symmetry_cell_setting 'triclinic'
loop_
_space_group_symop_operation_xyz
x,y,z
-x,-y,-z
loop_
_atom_site_type_symbol
_atom_site_label
_atom_site_fract_x
_atom_site_fract_y
_atom_site_fract_z
Si Si1 0.257177 0.823928 0.683451
Si Si2 0.384405 0.329282 0.148402
Si Si3 0.857489 0.021339 0.879234
Si Si4 0.139260 0.532315 0.408810
Si Si5 0.546929 0.239778 0.048503
Si Si6 0.921161 0.782496 0.561688
Si Si7 0.538076 0.074407 0.246135
O O1 0.170900 0.633251 0.598011
O O2 0.321244 0.822448 0.760625
O O3 0.383865 0.970468 0.488639
O O4 0.141327 0.866472 0.904951
O O5 0.236990 0.316349 0.385874
O O6 0.319808 0.149250 0.019641
O O7 0.500000 0.500000 0.000000
O O8 0.470423 0.331484 0.182069
O O9 0.937006 0.146532 0.700838
O O10 0.949022 0.946211 0.731794
O O11 0.281078 0.637016 0.166400
O O12 0.094149 0.345138 0.377317
O O13 0.000000 0.500000 0.500000
O O14 0.452259 0.052723 0.964008
O O15 0.545510 0.212970 0.219414
#
# Coordination Sequence:
#
# PCOD8038096 Si02
#       7
#     2   2   2   2   2   2   2
#     4  10  20  37  59  88 118 157 194 249 297 345
#     4  10  17  33  64  86 112 155 201 231 285 356
#     4   9  19  36  60  85 111 160 200 232 289 360
#     4  11  24  37  57  87 121 157 199 246 299 351
#     4  10  18  35  58  89 114 156 196 244 291 355
#     4   9  20  37  59  84 118 159 198 228 298 366
#     4   9  19  32  58  89 117 144 198 248 299 343
#
# _framework density 19.038499000000002
#
# number of rings (size 3 to 8) (size 9 to 14) (size 15 to 20)
#    0.857    1.429    2.857    0.000    2.000    1.714 
#    0.000    0.714    0.000    4.286    0.000    0.000 
#    0.000    0.000    0.000    0.000    0.000    0.000 
#
# Total GULP energy -173454.454654 kJ/mol
# GULP energy per Si atom -12389.603904 kJ/mol
# Density = 1.899517 g / cm^3
# Si number density = 19.038499 Si / 1000 Ang^3
#
#
#
# Elastic Constant Matrix: (Units=GPa)
#
#
# Indices 1 2 3 4 5 6 
#
# 1 134.0366 40.6149 33.6681 -9.1860 3.9431 -23.8031
# 2 40.6149 61.0244 18.1305 -18.3257 8.6500 -16.2151
# 3 33.6681 18.1305 74.0277 2.1298 2.6584 -9.3161
# 4 -9.1860 -18.3257 2.1298 26.3290 -0.8180 0.1208
# 5 3.9431 8.6500 2.6584 -0.8180 29.9766 -3.2892
# 6 -23.8031 -16.2151 -9.3161 0.1208 -3.2892 33.7390
#
#
#
# Elastic Compliance Matrix: (Units=1/GPa)
#
#
# Indices 1 2 3 4 5 6 
#
# 1 0.010485 -0.004887 -0.003077 0.000511 0.000787 0.004274
# 2 -0.004887 0.030003 -0.004314 0.019296 -0.006106 0.009117
# 3 -0.003077 -0.004314 0.016146 -0.005381 0.000098 0.000243
# 4 0.000511 0.019296 -0.005381 0.051899 -0.002899 0.007680
# 5 0.000787 -0.006106 0.000098 -0.002899 0.035048 0.001075
# 6 0.004274 0.009117 0.000243 0.007680 0.001075 0.037180
#
#
# Mechanical properties :
#
#
# Convention : Reuss Voigt Hill
#
# Bulk Modulus (GPa) = 31.17319 50.43509 40.80414
# Shear Modulus (GPa) = 23.14689 29.78724 26.46707
#
# Velocity S-wave (km/s) = 3.49061 3.95977 3.73257
# Velocity P-wave (km/s) = 5.71446 6.88876 6.32890
#
# Compressibility (1/GPa) = 0.03207884
#
# Stress axis : x y z
#
# Youngs Moduli (GPa) = 95.37310 33.32954 61.93345
#
# Poissons Ratio (x) = 0.16287 0.19056
# Poissons Ratio (y) = 0.46606 0.26720
# Poissons Ratio (z) = 0.29346 0.14380
#
# Static dielectric constant tensor:
#      x y z
#    x 3.427390 -0.116170 -0.104480 
#    y -0.116170 3.472650 -0.063490 
#    z -0.104480 -0.063490 3.374590 
# 
# 
# High freq. dielectric constant tensor:
#      x y z
#    x 1.723460 -0.020070 -0.017040 
#    y -0.020070 1.733660 -0.018130 
#    z -0.017040 -0.018130 1.728210 
# 
# From -- ./inp_files/303603.got.cif
#   From: 2010.06.25/outbox.cif.g09.slc.cpg/sg2_152_cif.got.tgz:303603.got - 2010.06.27 13:26:56.
