data_PCOD8038339
_publ_section_title
;
Structure prediction by ZEFSAII (Michael W. Deem and Ramdas Pophale) SiO2 
 PCOD8038339
Probable space group: P -1
;
_chemical_formula_sum "Si O2"
_cell_formula_units_Z 16
_cell_length_a 8.912534
_cell_length_b 14.258073
_cell_length_c 10.575818
_cell_angle_alpha 146.871848
_cell_angle_beta 104.866782
_cell_angle_gamma 66.451408
_cell_volume 665.096326
_symmetry_space_group_name_H-M "P -1"
_symmetry_group_IT_number 2
_symmetry_cell_setting 'triclinic'
loop_
_space_group_symop_operation_xyz
x,y,z
-x,-y,-z
loop_
_atom_site_type_symbol
_atom_site_label
_atom_site_fract_x
_atom_site_fract_y
_atom_site_fract_z
Si Si1 0.517757 0.653989 0.560237
Si Si2 0.771579 0.307473 0.318893
Si Si3 0.424086 0.795663 0.299306
Si Si4 0.671406 0.923845 0.877433
Si Si5 0.696209 0.916964 0.599237
Si Si6 0.986449 0.670287 0.779704
Si Si7 0.665910 0.460375 0.829079
Si Si8 0.976007 0.405490 0.678839
O O1 0.635285 0.512313 0.527394
O O2 0.351478 0.801723 0.776719
O O3 0.637272 0.738819 0.610240
O O4 0.434036 0.556730 0.336061
O O5 0.915464 0.289798 0.430510
O O6 0.854115 0.268051 0.152256
O O7 0.516013 0.896949 0.523535
O O8 0.318626 0.703347 0.255319
O O9 0.292157 0.936772 0.337092
O O10 0.568139 0.653094 0.087285
O O11 0.708005 0.000291 0.836096
O O12 0.828286 0.852354 0.925156
O O13 0.500000 0.000000 0.000000
O O14 0.843458 0.724949 0.386242
O O15 0.987045 0.595964 0.838650
O O16 0.000000 0.500000 0.500000
O O17 0.849792 0.453865 0.824277
#
# Coordination Sequence:
#
# PCOD8038339 Si02
#       8
#     2   2   2   2   2   2   2   2
#     4  10  18  34  59  86 119 158 194 244 294 357
#     4   9  17  30  59  85 115 153 191 230 298 359
#     4  10  24  41  62  87 115 160 211 249 290 351
#     4  12  23  35  61  91 125 158 195 243 309 366
#     4  11  22  41  62  86 125 158 193 256 306 336
#     4  10  17  35  56  89 117 157 193 235 297 370
#     4  10  22  40  64  86 112 158 212 247 287 354
#     4  10  19  34  63  86 120 155 193 249 299 358
#
# _framework density 24.056667000000001
#
# number of rings (size 3 to 8) (size 9 to 14) (size 15 to 20)
#    0.000    1.750    6.250    0.000    1.750    1.000 
#    0.000    0.625    5.500    0.000    0.000    0.000 
#    0.000    0.000    0.000    0.000    0.000    0.000 
#
# Total GULP energy -198216.723547 kJ/mol
# GULP energy per Si atom -12388.545222 kJ/mol
# Density = 2.400191 g / cm^3
# Si number density = 24.056667 Si / 1000 Ang^3
#
#
#
# Elastic Constant Matrix: (Units=GPa)
#
#
# Indices 1 2 3 4 5 6 
#
# 1 159.4444 54.3861 12.2855 12.7995 -21.5816 32.9373
# 2 54.3861 170.7447 33.3041 27.0908 -20.6396 18.8545
# 3 12.2855 33.3041 47.9722 3.9218 -21.2432 8.8543
# 4 12.7995 27.0908 3.9218 31.6991 -1.7565 -6.4489
# 5 -21.5816 -20.6396 -21.2432 -1.7565 38.5677 -2.5902
# 6 32.9373 18.8545 8.8543 -6.4489 -2.5902 40.5227
#
#
#
# Elastic Compliance Matrix: (Units=1/GPa)
#
#
# Indices 1 2 3 4 5 6 
#
# 1 0.009142 -0.001271 0.002599 -0.004218 0.005154 -0.007749
# 2 -0.001271 0.008632 -0.003998 -0.006943 0.001179 -0.003139
# 3 0.002599 -0.003998 0.031426 -0.001929 0.016107 -0.006396
# 4 -0.004218 -0.006943 -0.001929 0.041924 -0.004324 0.013475
# 5 0.005154 0.001179 0.016107 -0.004324 0.037679 -0.006537
# 6 -0.007749 -0.003139 -0.006396 0.013475 -0.006537 0.035561
#
#
# Mechanical properties :
#
#
# Convention : Reuss Voigt Hill
#
# Bulk Modulus (GPa) = 22.80013 64.23473 43.51743
# Shear Modulus (GPa) = 27.12604 40.70360 33.91482
#
# Velocity S-wave (km/s) = 3.36160 4.11784 3.75879
# Velocity P-wave (km/s) = 4.95635 7.02625 6.08003
#
# Compressibility (1/GPa) = 0.04385940
#
# Stress axis : x y z
#
# Youngs Moduli (GPa) = 109.38492 115.84701 31.82061
#
# Poissons Ratio (x) = 0.14723 -0.08269
# Poissons Ratio (y) = 0.13902 0.12722
# Poissons Ratio (z) = -0.28424 0.46317
#
# Static dielectric constant tensor:
#      x y z
#    x 7.112160 1.791490 1.955220 
#    y 1.791490 5.211470 1.422140 
#    z 1.955220 1.422140 6.110020 
# 
# 
# High freq. dielectric constant tensor:
#      x y z
#    x 1.979890 0.020420 -0.006310 
#    y 0.020420 1.953580 0.017050 
#    z -0.006310 0.017050 1.929130 
# 
# From -- ./inp_files/399811.got.cif
#   From: 2010.06.25/outbox.cif.g09.slc.cpg/sg2_200_cif.got.tgz:399811.got - 2010.06.27 13:26:56.
