data_PCOD8038013
_publ_section_title
;
Structure prediction by ZEFSAII (Michael W. Deem and Ramdas Pophale) SiO2 
 PCOD8038013
Probable space group: P -1
;
_chemical_formula_sum "Si O2"
_cell_formula_units_Z 14
_cell_length_a 13.693824
_cell_length_b 11.646352
_cell_length_c 11.016393
_cell_angle_alpha 64.886400
_cell_angle_beta 147.015610
_cell_angle_gamma 128.097083
_cell_volume 734.725632
_symmetry_space_group_name_H-M "P -1"
_symmetry_group_IT_number 2
_symmetry_cell_setting 'triclinic'
loop_
_space_group_symop_operation_xyz
x,y,z
-x,-y,-z
loop_
_atom_site_type_symbol
_atom_site_label
_atom_site_fract_x
_atom_site_fract_y
_atom_site_fract_z
Si Si1 0.930782 0.766484 0.068635
Si Si2 0.736085 0.532596 0.439018
Si Si3 0.114243 0.633100 0.963432
Si Si4 0.144173 0.435797 0.711350
Si Si5 0.621996 0.444802 0.867580
Si Si6 0.434099 0.184225 0.308413
Si Si7 0.694021 0.111654 0.774901
O O1 0.974743 0.722415 0.268652
O O2 0.781172 0.612726 0.906885
O O3 0.151781 0.862083 0.188997
O O4 0.802814 0.850761 0.903989
O O5 0.768211 0.592973 0.308313
O O6 0.594539 0.353320 0.358314
O O7 0.960361 0.589985 0.708073
O O8 0.619384 0.595605 0.371445
O O9 0.334176 0.658570 0.127251
O O10 0.177216 0.791411 0.017229
O O11 0.000000 0.500000 0.000000
O O12 0.330100 0.559678 0.937021
O O13 0.000000 0.500000 0.500000
O O14 0.525886 0.156832 0.540663
O O15 0.421071 0.067381 0.244145
#
# Coordination Sequence:
#
# PCOD8038013 Si02
#       7
#     2   2   2   2   2   2   2
#     4   9  19  34  54  83 103 136 183 223 263 305
#     4  11  20  35  55  85 104 138 179 227 264 312
#     4  12  20  34  53  78 116 139 175 220 271 317
#     4  10  17  33  58  83 106 134 182 233 262 306
#     4   9  20  31  52  83 104 135 175 221 269 305
#     4  10  21  34  55  80 109 141 180 215 269 316
#     4  11  21  36  53  80 113 144 173 217 267 328
#
# _framework density 19.054732999999999
#
# number of rings (size 3 to 8) (size 9 to 14) (size 15 to 20)
#    0.857    0.857    4.286    1.714    0.000    1.714 
#    0.000    0.000    0.000    1.714    0.000    0.000 
#    0.000    0.000    0.000    0.000    0.000    0.000 
#
# Total GULP energy -173436.961767 kJ/mol
# GULP energy per Si atom -12388.354412 kJ/mol
# Density = 1.901136 g / cm^3
# Si number density = 19.054733 Si / 1000 Ang^3
#
#
#
# Elastic Constant Matrix: (Units=GPa)
#
#
# Indices 1 2 3 4 5 6 
#
# 1 109.1032 40.9573 35.3769 -4.2374 3.0506 -11.7160
# 2 40.9573 63.9207 30.4557 3.0167 -0.8808 -15.7176
# 3 35.3769 30.4557 67.7865 -14.9312 10.9872 -7.7158
# 4 -4.2374 3.0167 -14.9312 29.6343 -10.5081 -3.0073
# 5 3.0506 -0.8808 10.9872 -10.5081 33.6955 -1.0439
# 6 -11.7160 -15.7176 -7.7158 -3.0073 -1.0439 20.6590
#
#
#
# Elastic Compliance Matrix: (Units=1/GPa)
#
#
# Indices 1 2 3 4 5 6 
#
# 1 0.012839 -0.006227 -0.003588 0.000851 0.000152 0.001335
# 2 -0.006227 0.027779 -0.009542 -0.006151 0.002895 0.013290
# 3 -0.003588 -0.009542 0.024220 0.011266 -0.004272 0.001175
# 4 0.000851 -0.006151 0.011266 0.044489 0.010180 0.007001
# 5 0.000152 0.002895 -0.004272 0.010180 0.034428 0.003914
# 6 0.001335 0.013290 0.001175 0.007001 0.003914 0.060930
#
#
# Mechanical properties :
#
#
# Convention : Reuss Voigt Hill
#
# Bulk Modulus (GPa) = 38.28003 50.48780 44.38392
# Shear Modulus (GPa) = 19.83294 25.73246 22.78270
#
# Velocity S-wave (km/s) = 3.22971 3.67883 3.46156
# Velocity P-wave (km/s) = 5.83448 6.67823 6.27056
#
# Compressibility (1/GPa) = 0.02612328
#
# Stress axis : x y z
#
# Youngs Moduli (GPa) = 77.88947 35.99852 41.28881
#
# Poissons Ratio (x) = 0.22415 0.14814
# Poissons Ratio (y) = 0.48499 0.39400
# Poissons Ratio (z) = 0.27946 0.34351
#
# Static dielectric constant tensor:
#      x y z
#    x 3.474490 -0.113510 0.168970 
#    y -0.113510 3.295520 -0.116510 
#    z 0.168970 -0.116510 3.540710 
# 
# 
# High freq. dielectric constant tensor:
#      x y z
#    x 1.730820 -0.013350 0.019430 
#    y -0.013350 1.706700 -0.011090 
#    z 0.019430 -0.011090 1.742540 
# 
# From -- ./inp_files/421894.got.cif
#   From: 2010.06.25/outbox.cif.g09.slc.cpg/sg2_211_cif.got.tgz:421894.got - 2010.06.27 13:26:56.
