data_PCOD8038859
_publ_section_title
;
Structure prediction by ZEFSAII (Michael W. Deem and Ramdas Pophale) SiO2 
 PCOD8038859
Probable space group: P -1
;
_chemical_formula_sum "Si O2"
_cell_formula_units_Z 16
_cell_length_a 14.220135
_cell_length_b 14.147836
_cell_length_c 17.426824
_cell_angle_alpha 157.890630
_cell_angle_beta 40.259533
_cell_angle_gamma 129.262502
_cell_volume 812.199416
_symmetry_space_group_name_H-M "P -1"
_symmetry_group_IT_number 2
_symmetry_cell_setting 'triclinic'
loop_
_space_group_symop_operation_xyz
x,y,z
-x,-y,-z
loop_
_atom_site_type_symbol
_atom_site_label
_atom_site_fract_x
_atom_site_fract_y
_atom_site_fract_z
Si Si1 0.623462 0.965741 0.331513
Si Si2 0.194979 0.587415 0.245187
Si Si3 0.669456 0.227955 0.051715
Si Si4 0.597024 0.856763 0.930320
Si Si5 0.695147 0.474610 0.709424
Si Si6 0.923789 0.917071 0.559865
Si Si7 0.575350 0.147836 0.755576
Si Si8 0.326919 0.253173 0.482376
O O1 0.535003 0.985001 0.320654
O O2 0.500000 0.000000 0.500000
O O3 0.709030 0.186600 0.450726
O O4 0.753417 0.681487 0.038747
O O5 0.181265 0.539091 0.309294
O O6 0.325512 0.733393 0.273395
O O7 0.042725 0.772705 0.442062
O O8 0.507000 0.303848 0.165820
O O9 0.673597 0.457583 0.278718
O O10 0.692403 0.960470 0.885692
O O11 0.807717 0.178743 0.867368
O O12 0.717808 0.661598 0.766215
O O13 0.484124 0.112948 0.235064
O O14 0.522745 0.611821 0.949942
O O15 0.824385 0.723267 0.455211
O O16 0.000000 0.000000 0.500000
O O17 0.687655 0.919112 0.564115
#
# Coordination Sequence:
#
# PCOD8038859 Si02
#       8
#     2   2   2   2   2   2   2   2
#     4  11  18  29  53  79 106 143 184 224 275 330
#     4  11  21  34  49  77 116 145 178 221 272 330
#     4  10  21  39  60  85 109 148 191 229 281 334
#     4   9  20  38  63  85 111 137 187 249 281 315
#     4  10  19  34  53  81 109 140 178 233 284 318
#     4  11  24  39  53  79 121 156 182 224 274 337
#     4  10  18  31  50  80 111 139 175 228 276 323
#     4  10  20  36  60  84 111 146 188 230 279 330
#
# _framework density 19.699596
#
# number of rings (size 3 to 8) (size 9 to 14) (size 15 to 20)
#    0.000    1.750    3.750    1.875    0.000    2.500 
#    0.000    0.625    0.000    1.500    0.000    0.000 
#    0.000    0.000    0.000    0.000    0.000    0.000 
#
# Total GULP energy -198367.001852 kJ/mol
# GULP energy per Si atom -12397.937616 kJ/mol
# Density = 1.965476 g / cm^3
# Si number density = 19.699596 Si / 1000 Ang^3
#
#
#
# Elastic Constant Matrix: (Units=GPa)
#
#
# Indices 1 2 3 4 5 6 
#
# 1 110.1774 21.6920 35.5717 15.5857 -3.1582 -11.1460
# 2 21.6920 64.0785 21.6749 1.1416 -0.4831 -13.8319
# 3 35.5717 21.6749 68.9630 13.8582 18.1806 15.3048
# 4 15.5857 1.1416 13.8582 21.4102 -0.9681 1.0542
# 5 -3.1582 -0.4831 18.1806 -0.9681 36.4396 7.8357
# 6 -11.1460 -13.8319 15.3048 1.0542 7.8357 29.9043
#
#
#
# Elastic Compliance Matrix: (Units=1/GPa)
#
#
# Indices 1 2 3 4 5 6 
#
# 1 0.013669 0.000769 -0.009590 -0.004079 0.003828 0.009499
# 2 0.000769 0.023692 -0.013981 0.006555 0.003840 0.017163
# 3 -0.009590 -0.013981 0.035957 -0.014995 -0.014149 -0.024208
# 4 -0.004079 0.006555 -0.014995 0.059130 0.007692 0.005086
# 5 0.003828 0.003840 -0.014149 0.007692 0.034866 0.001038
# 6 0.009499 0.017163 -0.024208 0.005086 0.001038 0.056857
#
#
# Mechanical properties :
#
#
# Convention : Reuss Voigt Hill
#
# Bulk Modulus (GPa) = 36.08446 44.56624 40.32535
# Shear Modulus (GPa) = 17.92031 28.50285 23.21158
#
# Velocity S-wave (km/s) = 3.01936 3.80791 3.43633
# Velocity P-wave (km/s) = 5.52381 6.48117 6.02155
#
# Compressibility (1/GPa) = 0.02771276
#
# Stress axis : x y z
#
# Youngs Moduli (GPa) = 73.15977 42.20847 27.81097
#
# Poissons Ratio (x) = -0.03244 0.26670
# Poissons Ratio (y) = -0.05622 0.38883
# Poissons Ratio (z) = 0.70158 0.59013
#
# Static dielectric constant tensor:
#      x y z
#    x 3.705680 -0.241670 0.173310 
#    y -0.241670 3.424150 0.073920 
#    z 0.173310 0.073920 3.482680 
# 
# 
# High freq. dielectric constant tensor:
#      x y z
#    x 1.773600 -0.021110 0.014940 
#    y -0.021110 1.745590 0.010380 
#    z 0.014940 0.010380 1.753500 
# 
# From -- ./inp_files/71973.got.cif
#   From: 2010.06.25/outbox.cif.g09.slc.cpg/sg2_36_cif.got.tgz:71973.got - 2010.06.27 13:26:56.
