data_PCOD8038135
_publ_section_title
;
Structure prediction by ZEFSAII (Michael W. Deem and Ramdas Pophale) SiO2 
 PCOD8038135
Probable space group: P -1
;
_chemical_formula_sum "Si O2"
_cell_formula_units_Z 16
_cell_length_a 13.718976
_cell_length_b 20.979697
_cell_length_c 11.840976
_cell_angle_alpha 129.711798
_cell_angle_beta 150.175817
_cell_angle_gamma 32.341126
_cell_volume 848.193248
_symmetry_space_group_name_H-M "P -1"
_symmetry_group_IT_number 2
_symmetry_cell_setting 'triclinic'
loop_
_space_group_symop_operation_xyz
x,y,z
-x,-y,-z
loop_
_atom_site_type_symbol
_atom_site_label
_atom_site_fract_x
_atom_site_fract_y
_atom_site_fract_z
Si Si1 0.821278 0.582413 0.025130
Si Si2 0.429488 0.737875 0.367061
Si Si3 0.978267 0.803284 0.128424
Si Si4 0.611515 0.095093 0.331109
Si Si5 0.229710 0.557287 0.028140
Si Si6 0.882245 0.628868 0.538744
Si Si7 0.172602 0.552267 0.519505
Si Si8 0.772423 0.161930 0.383741
O O1 0.833870 0.507248 0.046078
O O2 0.476060 0.714007 0.801088
O O3 0.000000 0.500000 0.000000
O O4 0.980397 0.610410 0.276081
O O5 0.506311 0.792585 0.582881
O O6 0.521820 0.738621 0.333644
O O7 0.657152 0.590511 0.459528
O O8 0.088430 0.814681 0.135098
O O9 0.119288 0.666637 0.122087
O O10 0.109073 0.813430 0.374207
O O11 0.617620 0.909278 0.894038
O O12 0.632909 0.123460 0.256485
O O13 0.943776 0.955476 0.542336
O O14 0.587524 0.450704 0.247935
O O15 0.062528 0.616920 0.806844
O O16 0.000000 0.500000 0.500000
O O17 0.946523 0.649743 0.505855
#
# Coordination Sequence:
#
# PCOD8038135 Si02
#       8
#     2   2   2   2   2   2   2   2
#     4  12  22  36  50  77 116 146 168 210 261 326
#     4   9  17  31  53  81 101 132 171 221 263 304
#     4  10  18  32  53  79 103 134 178 217 266 307
#     4  10  18  37  51  74 105 138 183 223 258 296
#     4  11  20  33  55  81 108 141 171 216 268 317
#     4  10  17  34  55  81 108 134 174 226 261 310
#     4  10  21  34  54  83 109 138 178 212 269 314
#     4  10  23  32  53  75 107 145 180 214 254 317
#
# _framework density 18.863627999999999
#
# number of rings (size 3 to 8) (size 9 to 14) (size 15 to 20)
#    0.000    1.750    3.750    3.750    0.000    3.000 
#    0.000    0.000    0.000    0.750    0.000    1.750 
#    0.000    0.000    0.000    0.000    0.000    0.000 
#
# Total GULP energy -198217.795518 kJ/mol
# GULP energy per Si atom -12388.612220 kJ/mol
# Density = 1.882069 g / cm^3
# Si number density = 18.863628 Si / 1000 Ang^3
#
#
#
# Elastic Constant Matrix: (Units=GPa)
#
#
# Indices 1 2 3 4 5 6 
#
# 1 103.3572 14.6115 56.1720 -3.7992 21.5464 -27.7351
# 2 14.6115 39.2463 21.4874 -0.9502 0.3372 -9.7251
# 3 56.1720 21.4874 93.8393 1.7168 21.2738 -10.5137
# 4 -3.7992 -0.9502 1.7168 24.6971 -2.5206 4.3477
# 5 21.5464 0.3372 21.2738 -2.5206 36.1907 -3.1045
# 6 -27.7351 -9.7251 -10.5137 4.3477 -3.1045 25.5927
#
#
#
# Elastic Compliance Matrix: (Units=1/GPa)
#
#
# Indices 1 2 3 4 5 6 
#
# 1 0.020665 0.002263 -0.009659 0.000140 -0.005036 0.018652
# 2 0.002263 0.032089 -0.008390 0.000560 0.004322 0.011629
# 3 -0.009659 -0.008390 0.019113 -0.002690 -0.006116 -0.006089
# 4 0.000140 0.000560 -0.002690 0.042427 0.003805 -0.007486
# 5 -0.005036 0.004322 -0.006116 0.003805 0.034207 -0.002825
# 6 0.018652 0.011629 -0.006089 -0.007486 -0.002825 0.062134
#
#
# Mechanical properties :
#
#
# Convention : Reuss Voigt Hill
#
# Bulk Modulus (GPa) = 24.81640 46.77605 35.79623
# Shear Modulus (GPa) = 19.55888 26.90756 23.23322
#
# Velocity S-wave (km/s) = 3.22352 3.78090 3.51328
# Velocity P-wave (km/s) = 5.19991 6.62654 5.95609
#
# Compressibility (1/GPa) = 0.04029593
#
# Stress axis : x y z
#
# Youngs Moduli (GPa) = 48.39087 31.16346 52.31999
#
# Poissons Ratio (x) = -0.07054 0.50538
# Poissons Ratio (y) = -0.10953 0.43895
# Poissons Ratio (z) = 0.46742 0.26145
#
# Static dielectric constant tensor:
#      x y z
#    x 3.405890 0.122570 0.797840 
#    y 0.122570 2.941980 -0.200750 
#    z 0.797840 -0.200750 3.303350 
# 
# 
# High freq. dielectric constant tensor:
#      x y z
#    x 1.725660 -0.031720 0.041660 
#    y -0.031720 1.715620 0.022440 
#    z 0.041660 0.022440 1.718080 
# 
# From -- ./inp_files/452404.got.cif
#   From: 2010.06.25/outbox.cif.g09.slc.cpg/sg2_227_cif.got.tgz:452404.got - 2010.06.27 13:26:56.
