data_PCOD8038075
_publ_section_title
;
Structure prediction by ZEFSAII (Michael W. Deem and Ramdas Pophale) SiO2 
 PCOD8038075
Probable space group: P -1
;
_chemical_formula_sum "Si O2"
_cell_formula_units_Z 16
_cell_length_a 9.000000
_cell_length_b 15.000000
_cell_length_c 27.000000
_cell_angle_alpha 20.000000
_cell_angle_beta 140.000000
_cell_angle_gamma 130.000000
_cell_volume 750.501489
_symmetry_space_group_name_H-M "P -1"
_symmetry_group_IT_number 2
_symmetry_cell_setting 'triclinic'
loop_
_space_group_symop_operation_xyz
x,y,z
-x,-y,-z
loop_
_atom_site_type_symbol
_atom_site_label
_atom_site_fract_x
_atom_site_fract_y
_atom_site_fract_z
Si Si1 0.442729 0.856016 0.966609
Si Si2 0.797859 0.996897 0.856079
Si Si3 0.757359 0.428119 0.348985
Si Si4 0.502358 0.396481 0.991228
Si Si5 0.270846 0.479740 0.255902
Si Si6 0.913519 0.180490 0.284277
Si Si7 0.543325 0.359758 0.689534
Si Si8 0.957341 0.268864 0.670796
O O1 0.570908 0.079613 0.872511
O O2 0.625112 0.656738 0.155911
O O3 0.442334 0.658413 0.023477
O O4 0.159371 0.007148 0.832055
O O5 0.705451 0.255287 0.736191
O O6 0.781558 0.149280 0.720315
O O7 0.617146 0.820632 0.903354
O O8 0.085480 0.799784 0.036982
O O9 0.531341 0.385470 0.342876
O O10 0.911255 0.553270 0.358645
O O11 0.955372 0.149261 0.520286
O O12 0.306529 0.713350 0.785310
O O13 0.768313 0.338569 0.115498
O O14 0.339348 0.450243 0.347440
O O15 0.136069 0.276645 0.308057
O O16 0.246247 0.516281 0.528428
#
# Coordination Sequence:
#
# PCOD8038075 Si02
#       8
#     2   2   2   2   2   2   2   2
#     4  11  22  40  64  95 124 159 204 260 313 362
#     4  10  21  41  64  94 124 160 202 260 317 361
#     4  12  23  39  63  94 131 162 202 256 309 372
#     4   9  22  45  69  89 121 164 211 255 303 369
#     4  11  22  40  62  90 129 165 206 252 305 371
#     4  10  23  43  65  87 123 173 207 248 307 364
#     4  11  23  38  64  95 125 164 207 253 312 368
#     4  12  23  39  66  96 128 158 202 262 316 364
#
# _framework density 21.319078000000001
#
# number of rings (size 3 to 8) (size 9 to 14) (size 15 to 20)
#    0.000    1.250    2.500    4.125    1.750    2.500 
#    0.000    4.375    0.000    0.000    0.000    0.000 
#    0.000    0.000    0.000    0.000    0.000    0.000 
#
# Total GULP energy -198241.694203 kJ/mol
# GULP energy per Si atom -12390.105888 kJ/mol
# Density = 2.127056 g / cm^3
# Si number density = 21.319078 Si / 1000 Ang^3
#
#
#
# Elastic Constant Matrix: (Units=GPa)
#
#
# Indices 1 2 3 4 5 6 
#
# 1 85.5886 23.2276 32.0107 -11.1349 28.5780 -15.2282
# 2 23.2276 120.7496 32.2203 6.4890 18.2267 -26.2609
# 3 32.0107 32.2203 134.9974 -3.6258 46.5591 -17.9275
# 4 -11.1349 6.4890 -3.6258 23.6655 -5.7958 5.4029
# 5 28.5780 18.2267 46.5591 -5.7958 43.1003 -2.8810
# 6 -15.2282 -26.2609 -17.9275 5.4029 -2.8810 25.7219
#
#
#
# Elastic Compliance Matrix: (Units=1/GPa)
#
#
# Indices 1 2 3 4 5 6 
#
# 1 0.017153 -0.000138 0.001231 0.003438 -0.011591 0.008852
# 2 -0.000138 0.012612 0.000921 -0.008244 -0.006379 0.014453
# 3 0.001231 0.000921 0.013544 -0.003749 -0.015663 0.010142
# 4 0.003438 -0.008244 -0.003749 0.052561 0.011069 -0.018795
# 5 -0.011591 -0.006379 -0.015663 0.011069 0.050592 -0.020949
# 6 0.008852 0.014453 0.010142 -0.018795 -0.020949 0.067544
#
#
# Mechanical properties :
#
#
# Convention : Reuss Voigt Hill
#
# Bulk Modulus (GPa) = 21.12563 57.36142 39.24352
# Shear Modulus (GPa) = 22.14768 35.42269 28.78518
#
# Velocity S-wave (km/s) = 3.22664 4.08063 3.67850
# Velocity P-wave (km/s) = 4.87979 7.01189 6.04066
#
# Compressibility (1/GPa) = 0.04733587
#
# Stress axis : x y z
#
# Youngs Moduli (GPa) = 58.29773 79.29195 73.83398
#
# Poissons Ratio (x) = 0.01095 -0.09090
# Poissons Ratio (y) = 0.00805 -0.06796
# Poissons Ratio (z) = -0.07177 -0.07299
#
# Static dielectric constant tensor:
#      x y z
#    x 4.024390 -0.219850 0.491010 
#    y -0.219850 3.941540 0.023320 
#    z 0.491010 0.023320 4.064880 
# 
# 
# High freq. dielectric constant tensor:
#      x y z
#    x 1.835810 -0.010820 0.041250 
#    y -0.010820 1.847270 0.008650 
#    z 0.041250 0.008650 1.847030 
# 
# From -- ./inp_files/306760.got.cif
#   From: 2010.06.25/outbox.ucp.g09.slc.cvg/sg2_154_cif.got.tgz:306760.got - 2010.06.28 11:54:26.
