data_PCOD8038086
_publ_section_title
;
Structure prediction by ZEFSAII (Michael W. Deem and Ramdas Pophale) SiO2 
 PCOD8038086
Probable space group: P -1
;
_chemical_formula_sum "Si O2"
_cell_formula_units_Z 16
_cell_length_a 15.897302
_cell_length_b 15.249462
_cell_length_c 9.789491
_cell_angle_alpha 110.550597
_cell_angle_beta 143.818488
_cell_angle_gamma 43.595236
_cell_volume 791.309107
_symmetry_space_group_name_H-M "P -1"
_symmetry_group_IT_number 2
_symmetry_cell_setting 'triclinic'
loop_
_space_group_symop_operation_xyz
x,y,z
-x,-y,-z
loop_
_atom_site_type_symbol
_atom_site_label
_atom_site_fract_x
_atom_site_fract_y
_atom_site_fract_z
Si Si1 0.815014 0.756104 0.546756
Si Si2 0.690419 0.159939 0.815062
Si Si3 0.370249 0.863164 0.705108
Si Si4 0.847695 0.574773 0.702915
Si Si5 0.931356 0.897220 0.793293
Si Si6 0.154599 0.311929 0.757677
Si Si7 0.014259 0.054699 0.680249
Si Si8 0.689940 0.958039 0.050437
O O1 0.850289 0.670372 0.675429
O O2 0.976029 0.762708 0.791593
O O3 0.897216 0.663365 0.460171
O O4 0.543637 0.936046 0.288463
O O5 0.411077 0.318384 0.527402
O O6 0.775803 0.019052 0.779484
O O7 0.813467 0.185448 0.919607
O O8 0.772515 0.107271 0.048899
O O9 0.244271 0.825899 0.521173
O O10 0.218738 0.008080 0.487677
O O11 0.371343 0.915574 0.879298
O O12 0.649593 0.711663 0.953504
O O13 0.930964 0.451615 0.636151
O O14 0.000000 0.500000 0.000000
O O15 0.256899 0.156762 0.846099
O O16 0.077561 0.131825 0.782408
O O17 0.000000 0.000000 0.500000
#
# Coordination Sequence:
#
# PCOD8038086 Si02
#       8
#     2   2   2   2   2   2   2   2
#     4  11  21  40  64  90 117 163 212 253 293 356
#     4  10  22  39  59  91 121 158 196 254 307 360
#     4   9  16  32  58  89 116 150 195 251 298 341
#     4  12  27  42  57  87 136 166 196 244 312 369
#     4  10  19  37  66  88 115 149 210 253 300 351
#     4  11  21  38  61  93 126 160 202 248 306 366
#     4   9  18  32  58  89 121 144 195 261 298 341
#     4  10  17  33  62  93 113 147 212 255 285 349
#
# _framework density 20.219657999999999
#
# number of rings (size 3 to 8) (size 9 to 14) (size 15 to 20)
#    0.000    1.750    3.750    1.875    0.000    1.500 
#    0.000    2.500    0.000    0.000    0.000    0.000 
#    0.000    0.000    0.000    0.000    0.000    0.000 
#
# Total GULP energy -198214.337048 kJ/mol
# GULP energy per Si atom -12388.396065 kJ/mol
# Density = 2.017364 g / cm^3
# Si number density = 20.219658 Si / 1000 Ang^3
#
#
#
# Elastic Constant Matrix: (Units=GPa)
#
#
# Indices 1 2 3 4 5 6 
#
# 1 113.3687 38.8129 57.4316 1.6320 9.1351 1.1505
# 2 38.8129 64.3964 32.4712 7.1664 5.3621 -10.2874
# 3 57.4316 32.4712 109.2537 3.1366 6.4919 -6.8533
# 4 1.6320 7.1664 3.1366 20.6661 2.7731 5.0100
# 5 9.1351 5.3621 6.4919 2.7731 35.0063 -8.2783
# 6 1.1505 -10.2874 -6.8533 5.0100 -8.2783 25.0588
#
#
#
# Elastic Compliance Matrix: (Units=1/GPa)
#
#
# Indices 1 2 3 4 5 6 
#
# 1 0.014576 -0.007180 -0.005899 0.004515 -0.003707 -0.007357
# 2 -0.007180 0.024077 -0.002433 -0.010775 0.002449 0.012512
# 3 -0.005899 -0.002433 0.013208 -0.001548 0.000369 0.003316
# 4 0.004515 -0.010775 -0.001548 0.057833 -0.008409 -0.019394
# 5 -0.003707 0.002449 0.000369 -0.008409 0.033037 0.013872
# 6 -0.007357 0.012512 0.003316 -0.019394 0.013872 0.054747
#
#
# Mechanical properties :
#
#
# Convention : Reuss Voigt Hill
#
# Bulk Modulus (GPa) = 47.99236 60.49447 54.24341
# Shear Modulus (GPa) = 21.23631 26.69979 23.96805
#
# Velocity S-wave (km/s) = 3.24432 3.63779 3.44668
# Velocity P-wave (km/s) = 6.14989 6.90133 6.53642
#
# Compressibility (1/GPa) = 0.02083665
#
# Stress axis : x y z
#
# Youngs Moduli (GPa) = 68.60809 41.53369 75.71418
#
# Poissons Ratio (x) = 0.29819 0.44664
# Poissons Ratio (y) = 0.49258 0.18422
# Poissons Ratio (z) = 0.40472 0.10106
#
# Static dielectric constant tensor:
#      x y z
#    x 4.648270 0.101660 0.617150 
#    y 0.101660 3.247190 0.231420 
#    z 0.617150 0.231420 4.153480 
# 
# 
# High freq. dielectric constant tensor:
#      x y z
#    x 1.810980 0.003820 0.004940 
#    y 0.003820 1.740240 0.022240 
#    z 0.004940 0.022240 1.791190 
# 
# From -- ./inp_files/308413.got.cif
#   From: 2010.06.25/outbox.cif.g09.slc.cpg/sg2_155_cif.got.tgz:308413.got - 2010.06.27 13:26:56.
