data_PCOD8038167
_publ_section_title
;
Structure prediction by ZEFSAII (Michael W. Deem and Ramdas Pophale) SiO2 
 PCOD8038167
Probable space group: P -1
;
_chemical_formula_sum "Si O2"
_cell_formula_units_Z 16
_cell_length_a 15.284191
_cell_length_b 24.382334
_cell_length_c 14.675683
_cell_angle_alpha 151.070350
_cell_angle_beta 153.003166
_cell_angle_gamma 20.886591
_cell_volume 853.698644
_symmetry_space_group_name_H-M "P -1"
_symmetry_group_IT_number 2
_symmetry_cell_setting 'triclinic'
loop_
_space_group_symop_operation_xyz
x,y,z
-x,-y,-z
loop_
_atom_site_type_symbol
_atom_site_label
_atom_site_fract_x
_atom_site_fract_y
_atom_site_fract_z
Si Si1 0.725600 0.430243 0.353536
Si Si2 0.507902 0.034262 0.410728
Si Si3 0.964063 0.643674 0.643548
Si Si4 0.175053 0.748358 0.323390
Si Si5 0.653566 0.690598 0.732631
Si Si6 0.831073 0.813204 0.945276
Si Si7 0.888972 0.924262 0.762711
Si Si8 0.308385 0.138931 0.853712
O O1 0.398684 0.554725 0.235932
O O2 0.815548 0.504148 0.603823
O O3 0.808006 0.414830 0.302144
O O4 0.859266 0.265877 0.284119
O O5 0.746801 0.989109 0.626786
O O6 0.638162 0.900203 0.259695
O O7 0.335111 0.210698 0.465874
O O8 0.321898 0.027728 0.287027
O O9 0.990955 0.716365 0.860479
O O10 0.000000 0.500000 0.500000
O O11 0.335639 0.798736 0.568615
O O12 0.979242 0.798800 0.298866
O O13 0.010151 0.827970 0.191313
O O14 0.790266 0.717144 0.825943
O O15 0.685979 0.730044 0.921622
O O16 0.538932 0.987030 0.908879
O O17 0.000000 0.000000 0.000000
#
# Coordination Sequence:
#
# PCOD8038167 Si02
#       8
#     2   2   2   2   2   2   2   2
#     4   9  20  36  55  84 111 144 192 224 278 332
#     4   9  22  39  60  86 106 145 189 224 278 336
#     4  10  17  34  57  83 117 141 180 233 275 328
#     4   9  19  33  50  79 113 148 180 221 271 326
#     4   9  18  34  50  79 117 145 179 226 264 330
#     4  10  19  31  53  81 112 155 182 218 274 331
#     4  10  21  43  62  79 108 144 187 239 274 322
#     4  10  20  35  55  81 114 146 186 219 272 334
#
# _framework density 18.741976999999999
#
# number of rings (size 3 to 8) (size 9 to 14) (size 15 to 20)
#    0.750    1.750    1.250    1.500    0.000    4.500 
#    6.750   10.000    0.000    0.000    0.000    0.000 
#    0.000    0.000    0.000    0.000    0.000    0.000 
#
# Total GULP energy -198288.322594 kJ/mol
# GULP energy per Si atom -12393.020162 kJ/mol
# Density = 1.869932 g / cm^3
# Si number density = 18.741977 Si / 1000 Ang^3
#
#
#
# Elastic Constant Matrix: (Units=GPa)
#
#
# Indices 1 2 3 4 5 6 
#
# 1 76.7739 46.2971 43.8996 -0.2821 -24.8819 -5.7035
# 2 46.2971 88.9098 30.6614 5.4162 -7.9177 -5.1820
# 3 43.8996 30.6614 114.9647 2.1243 -14.1281 3.2733
# 4 -0.2821 5.4162 2.1243 34.1923 1.1168 -0.0961
# 5 -24.8819 -7.9177 -14.1281 1.1168 27.0851 5.2371
# 6 -5.7035 -5.1820 3.2733 -0.0961 5.2371 33.9381
#
#
#
# Elastic Compliance Matrix: (Units=1/GPa)
#
#
# Indices 1 2 3 4 5 6 
#
# 1 0.030692 -0.012118 -0.005911 0.001843 0.021381 0.000584
# 2 -0.012118 0.017521 -0.000870 -0.002598 -0.006695 0.001749
# 3 -0.005911 -0.000870 0.011354 -0.000646 0.000715 -0.002334
# 4 0.001843 -0.002598 -0.000646 0.029735 -0.000660 0.000162
# 5 0.021381 -0.006695 0.000715 -0.000660 0.056199 -0.006172
# 6 0.000584 0.001749 -0.002334 0.000162 -0.006172 0.031008
#
#
# Mechanical properties :
#
#
# Convention : Reuss Voigt Hill
#
# Bulk Modulus (GPa) = 45.93693 58.04053 51.98873
# Shear Modulus (GPa) = 22.56664 29.69578 26.13121
#
# Velocity S-wave (km/s) = 3.47373 3.98484 3.73803
# Velocity P-wave (km/s) = 6.37593 7.22546 6.81395
#
# Compressibility (1/GPa) = 0.02176898
#
# Stress axis : x y z
#
# Youngs Moduli (GPa) = 32.58137 57.07293 88.07474
#
# Poissons Ratio (x) = 0.69160 0.52063
# Poissons Ratio (y) = 0.39481 0.07666
# Poissons Ratio (z) = 0.19260 0.04967
#
# Static dielectric constant tensor:
#      x y z
#    x 3.316360 -0.146710 -0.250770 
#    y -0.146710 3.498040 0.047840 
#    z -0.250770 0.047840 3.448510 
# 
# 
# High freq. dielectric constant tensor:
#      x y z
#    x 1.714400 -0.018100 -0.015110 
#    y -0.018100 1.727000 0.004880 
#    z -0.015110 0.004880 1.722240 
# 
# From -- ./inp_files/535419.got.cif
#   From: 2010.06.25/outbox.cif.g09.slc.cpg/sg2_268_cif.got.tgz:535419.got - 2010.06.27 13:26:56.
