data_PCOD8038877
_publ_section_title
;
Structure prediction by ZEFSAII (Michael W. Deem and Ramdas Pophale) SiO2 
 PCOD8038877
Probable space group: P -1
;
_chemical_formula_sum "Si O2"
_cell_formula_units_Z 12
_cell_length_a 12.292327
_cell_length_b 11.353449
_cell_length_c 11.119835
_cell_angle_alpha 123.391678
_cell_angle_beta 33.709791
_cell_angle_gamma 106.355588
_cell_volume 665.070959
_symmetry_space_group_name_H-M "P -1"
_symmetry_group_IT_number 2
_symmetry_cell_setting 'triclinic'
loop_
_space_group_symop_operation_xyz
x,y,z
-x,-y,-z
loop_
_atom_site_type_symbol
_atom_site_label
_atom_site_fract_x
_atom_site_fract_y
_atom_site_fract_z
Si Si1 0.666198 0.544538 0.296593
Si Si2 0.129419 0.955227 0.478546
Si Si3 0.960180 0.712757 0.510236
Si Si4 0.445691 0.298243 0.015656
Si Si5 0.400089 0.454709 0.911676
Si Si6 0.898040 0.729016 0.301202
O O1 0.500000 0.500000 0.500000
O O2 0.710869 0.682508 0.395495
O O3 0.582644 0.603706 0.273477
O O4 0.875975 0.393739 0.011595
O O5 0.111738 0.108520 0.652338
O O6 0.379445 0.854329 0.173965
O O7 0.000000 0.000000 0.500000
O O8 0.029406 0.846327 0.576363
O O9 0.860864 0.751476 0.490308
O O10 0.161218 0.554933 0.229458
O O11 0.786964 0.700462 0.752712
O O12 0.454561 0.446139 0.157782
O O13 0.484829 0.310566 0.843192
#
# Coordination Sequence:
#
# PCOD8038877 Si02
#       6
#     2   2   2   2   2   2
#     4  10  19  33  52  69  92 129 163 197 240 280
#     4   9  19  32  47  73 102 124 160 201 234 285
#     4   9  17  31  52  74  97 126 157 197 244 283
#     4  10  18  31  52  73  99 130 154 195 250 284
#     4   9  19  32  48  76 101 121 163 202 231 287
#     4   9  19  32  47  72  98 120 161 205 231 279
#
# _framework density 18.043187
#
# number of rings (size 3 to 8) (size 9 to 14) (size 15 to 20)
#    0.000    2.667    0.000    2.500    0.000    4.000 
#    0.000    0.833    0.000    2.000    0.000    0.000 
#    0.000    0.000    0.000    0.000    0.000    0.000 
#
# Total GULP energy -148730.950354 kJ/mol
# GULP energy per Si atom -12394.245863 kJ/mol
# Density = 1.800212 g / cm^3
# Si number density = 18.043187 Si / 1000 Ang^3
#
#
#
# Elastic Constant Matrix: (Units=GPa)
#
#
# Indices 1 2 3 4 5 6 
#
# 1 97.0505 50.9855 20.9597 -3.9422 -0.4848 11.9510
# 2 50.9855 96.9177 45.8290 -4.7729 1.9639 21.1568
# 3 20.9597 45.8290 54.6148 -13.1920 -7.3622 4.1569
# 4 -3.9422 -4.7729 -13.1920 30.6924 3.5708 -6.5945
# 5 -0.4848 1.9639 -7.3622 3.5708 21.1942 3.4842
# 6 11.9510 21.1568 4.1569 -6.5945 3.4842 34.1925
#
#
#
# Elastic Compliance Matrix: (Units=1/GPa)
#
#
# Indices 1 2 3 4 5 6 
#
# 1 0.014402 -0.008636 0.002252 0.001305 0.001673 0.000118
# 2 -0.008636 0.027562 -0.021750 -0.007989 -0.006951 -0.012224
# 3 0.002252 -0.021750 0.040171 0.014804 0.011978 0.009422
# 4 0.001305 -0.007989 0.014804 0.040495 -0.002681 0.010771
# 5 0.001673 -0.006951 0.011978 -0.002681 0.053080 -0.003666
# 6 0.000118 -0.012224 0.009422 0.010771 -0.003666 0.038074
#
#
# Mechanical properties :
#
#
# Convention : Reuss Voigt Hill
#
# Bulk Modulus (GPa) = 38.66270 53.79236 46.22753
# Shear Modulus (GPa) = 17.94201 25.93641 21.93921
#
# Velocity S-wave (km/s) = 3.15682 3.79550 3.49080
# Velocity P-wave (km/s) = 5.89591 7.00611 6.47485
#
# Compressibility (1/GPa) = 0.02586472
#
# Stress axis : x y z
#
# Youngs Moduli (GPa) = 69.43671 36.28145 24.89381
#
# Poissons Ratio (x) = 0.31334 -0.05606
# Poissons Ratio (y) = 0.59969 0.54145
# Poissons Ratio (z) = -0.15637 0.78914
#
# Static dielectric constant tensor:
#      x y z
#    x 3.425530 0.184160 -0.208610 
#    y 0.184160 3.554660 0.084340 
#    z -0.208610 0.084340 3.099510 
# 
# 
# High freq. dielectric constant tensor:
#      x y z
#    x 1.686380 0.010140 -0.024690 
#    y 0.010140 1.702690 -0.004580 
#    z -0.024690 -0.004580 1.678420 
# 
# From -- ./inp_files/71524.got.cif
#   From: 2010.06.25/outbox.cif.g09.slc.cpg/sg2_36_cif.got.tgz:71524.got - 2010.06.27 13:26:56.
