data_PCOD8038380
_publ_section_title
;
Structure prediction by ZEFSAII (Michael W. Deem and Ramdas Pophale) SiO2 
 PCOD8038380
Probable space group: P -1
;
_chemical_formula_sum "Si O2"
_cell_formula_units_Z 16
_cell_length_a 20.358412
_cell_length_b 8.632302
_cell_length_c 10.476465
_cell_angle_alpha 120.812724
_cell_angle_beta 126.177046
_cell_angle_gamma 34.181512
_cell_volume 833.785766
_symmetry_space_group_name_H-M "P -1"
_symmetry_group_IT_number 2
_symmetry_cell_setting 'triclinic'
loop_
_space_group_symop_operation_xyz
x,y,z
-x,-y,-z
loop_
_atom_site_type_symbol
_atom_site_label
_atom_site_fract_x
_atom_site_fract_y
_atom_site_fract_z
Si Si1 0.709801 0.163848 0.873745
Si Si2 0.216232 0.124761 0.893943
Si Si3 0.549029 0.428184 0.165822
Si Si4 0.752751 0.735347 0.592276
Si Si5 0.536493 0.867800 0.350384
Si Si6 0.736115 0.613728 0.796456
Si Si7 0.116083 0.929203 0.138824
Si Si8 0.026070 0.458609 0.362851
O O1 0.563597 0.467333 0.834673
O O2 0.802780 0.163526 0.933714
O O3 0.706697 0.005656 0.702994
O O4 0.759622 0.028716 0.014110
O O5 0.091370 0.279301 0.743869
O O6 0.325966 0.901625 0.821680
O O7 0.200512 0.358321 0.016855
O O8 0.576198 0.593046 0.294159
O O9 0.500000 0.500000 0.000000
O O10 0.653573 0.796073 0.412835
O O11 0.778360 0.578027 0.684064
O O12 0.871563 0.562896 0.565104
O O13 0.500000 0.000000 0.500000
O O14 0.411797 0.109526 0.226337
O O15 0.787087 0.329890 0.763983
O O16 0.068557 0.188193 0.260540
O O17 0.000000 0.000000 0.000000
O O18 0.000000 0.500000 0.500000
#
# Coordination Sequence:
#
# PCOD8038380 Si02
#       8
#     2   2   2   2   2   2   2   2
#     4   9  19  37  62  93 112 154 205 239 295 346
#     4  10  20  38  65  83 119 161 193 243 296 352
#     4  10  17  35  60  92 117 146 196 249 288 346
#     4   9  20  38  65  84 119 160 195 241 289 363
#     4  10  17  35  61  90 118 143 201 245 283 354
#     4  10  19  37  63  95 109 156 204 239 296 342
#     4  11  23  39  63  87 122 151 204 254 277 351
#     4  11  25  44  55  87 127 157 194 243 304 348
#
# _framework density 19.189579999999999
#
# number of rings (size 3 to 8) (size 9 to 14) (size 15 to 20)
#    0.000    2.000    6.250    0.000    1.750    3.500 
#    6.750    3.125    0.000    0.000    0.000    0.000 
#    0.000    0.000    0.000    0.000    0.000    0.000 
#
# Total GULP energy -198216.623857 kJ/mol
# GULP energy per Si atom -12388.538991 kJ/mol
# Density = 1.914590 g / cm^3
# Si number density = 19.189580 Si / 1000 Ang^3
#
#
#
# Elastic Constant Matrix: (Units=GPa)
#
#
# Indices 1 2 3 4 5 6 
#
# 1 142.4429 60.7564 47.9409 -7.7383 12.3750 -29.9613
# 2 60.7564 98.4044 17.1520 -0.9535 -0.6534 -12.7976
# 3 47.9409 17.1520 74.0677 -5.1584 7.7688 -14.8540
# 4 -7.7383 -0.9535 -5.1584 27.5967 -6.5672 5.2846
# 5 12.3750 -0.6534 7.7688 -6.5672 28.3893 -1.8855
# 6 -29.9613 -12.7976 -14.8540 5.2846 -1.8855 34.5548
#
#
#
# Elastic Compliance Matrix: (Units=1/GPa)
#
#
# Indices 1 2 3 4 5 6 
#
# 1 0.013335 -0.006462 -0.005373 0.000301 -0.003984 0.006596
# 2 -0.006462 0.014074 0.000608 -0.000554 0.002854 0.000111
# 3 -0.005373 0.000608 0.017704 0.000755 -0.002118 0.002945
# 4 0.000301 -0.000554 0.000755 0.039443 0.008429 -0.005192
# 5 -0.003984 0.002854 -0.002118 0.008429 0.039394 -0.002447
# 6 0.006596 0.000111 0.002945 -0.005192 -0.002447 0.036626
#
#
# Mechanical properties :
#
#
# Convention : Reuss Voigt Hill
#
# Bulk Modulus (GPa) = 44.13511 62.95708 53.54610
# Shear Modulus (GPa) = 26.23531 30.71253 28.47392
#
# Velocity S-wave (km/s) = 3.70153 4.00494 3.85622
# Velocity P-wave (km/s) = 6.42790 7.36649 6.91314
#
# Compressibility (1/GPa) = 0.02265770
#
# Stress axis : x y z
#
# Youngs Moduli (GPa) = 74.99113 71.05214 56.48557
#
# Poissons Ratio (x) = 0.45917 0.30350
# Poissons Ratio (y) = 0.48462 -0.03434
# Poissons Ratio (z) = 0.40294 -0.04320
#
# Static dielectric constant tensor:
#      x y z
#    x 4.339260 -1.203660 0.728530 
#    y -1.203660 4.800740 -0.580530 
#    z 0.728530 -0.580530 4.282060 
# 
# 
# High freq. dielectric constant tensor:
#      x y z
#    x 1.733160 -0.020020 0.014340 
#    y -0.020020 1.747030 0.000670 
#    z 0.014340 0.000670 1.741070 
# 
# From -- ./inp_files/225468.got.cif
#   From: 2010.06.25/outbox.cif.g09.slc.cpg/sg2_113_cif.got.tgz:225468.got - 2010.06.27 13:26:56.
