data_PCOD8038525
_publ_section_title
;
Structure prediction by ZEFSAII (Michael W. Deem and Ramdas Pophale) SiO2 
 PCOD8038525
Probable space group: P -1
;
_chemical_formula_sum "Si O2"
_cell_formula_units_Z 14
_cell_length_a 16.778217
_cell_length_b 15.061394
_cell_length_c 9.540640
_cell_angle_alpha 36.480587
_cell_angle_beta 67.039531
_cell_angle_gamma 40.043853
_cell_volume 745.023682
_symmetry_space_group_name_H-M "P -1"
_symmetry_group_IT_number 2
_symmetry_cell_setting 'triclinic'
loop_
_space_group_symop_operation_xyz
x,y,z
-x,-y,-z
loop_
_atom_site_type_symbol
_atom_site_label
_atom_site_fract_x
_atom_site_fract_y
_atom_site_fract_z
Si Si1 0.285554 0.181880 0.956257
Si Si2 0.374071 0.802578 0.184152
Si Si3 0.504783 0.116869 0.547298
Si Si4 0.894863 0.978083 0.007396
Si Si5 0.773889 0.432937 0.662612
Si Si6 0.638086 0.981620 0.341260
Si Si7 0.035396 0.411691 0.425433
O O1 0.280817 0.342728 0.669323
O O2 0.114694 0.354351 0.865461
O O3 0.392667 0.911557 0.142186
O O4 0.356301 0.105473 0.156978
O O5 0.500000 0.500000 0.500000
O O6 0.206526 0.962473 0.116297
O O7 0.390933 0.836896 0.970078
O O8 0.363601 0.412521 0.333306
O O9 0.443499 0.044157 0.636044
O O10 0.569971 0.114193 0.372844
O O11 0.916905 0.831909 0.308242
O O12 0.067932 0.768329 0.102108
O O13 0.801841 0.257786 0.759388
O O14 0.822499 0.689923 0.596596
O O15 0.000000 0.500000 0.500000
#
# Coordination Sequence:
#
# PCOD8038525 Si02
#       7
#     2   2   2   2   2   2   2
#     4  11  21  34  61  84 110 150 198 234 272 328
#     4  11  21  36  58  86 110 146 194 239 275 339
#     4  11  22  35  56  86 119 150 182 240 287 337
#     4   9  19  32  56  88 106 148 189 235 279 319
#     4  10  19  34  57  86 114 145 196 233 269 343
#     4  10  22  38  56  83 117 153 185 229 301 333
#     4  10  17  37  59  82 111 149 192 232 275 343
#
# _framework density 18.791349
#
# number of rings (size 3 to 8) (size 9 to 14) (size 15 to 20)
#    0.000    1.714    4.286    2.143    2.000    0.571 
#    0.000    6.429    0.000    2.571    0.000    0.000 
#    0.000    0.000    0.000    0.000    0.000    0.000 
#
# Total GULP energy -173487.356338 kJ/mol
# GULP energy per Si atom -12391.954024 kJ/mol
# Density = 1.874858 g / cm^3
# Si number density = 18.791349 Si / 1000 Ang^3
#
#
#
# Elastic Constant Matrix: (Units=GPa)
#
#
# Indices 1 2 3 4 5 6 
#
# 1 95.5245 44.4013 37.5971 -3.7912 12.0412 -5.3419
# 2 44.4013 116.0876 49.8154 -3.4753 10.8635 -10.6376
# 3 37.5971 49.8154 89.0873 -16.8049 2.2507 3.1383
# 4 -3.7912 -3.4753 -16.8049 24.0358 3.5615 -3.1140
# 5 12.0412 10.8635 2.2507 3.5615 37.7281 -13.0146
# 6 -5.3419 -10.6376 3.1383 -3.1140 -13.0146 27.2331
#
#
#
# Elastic Compliance Matrix: (Units=1/GPa)
#
#
# Indices 1 2 3 4 5 6 
#
# 1 0.014004 -0.003276 -0.004137 -0.000649 -0.003081 0.000397
# 2 -0.003276 0.013085 -0.006567 -0.002537 -0.000465 0.004713
# 3 -0.004137 -0.006567 0.018912 0.011111 -0.000532 -0.004540
# 4 -0.000649 -0.002537 0.011111 0.049668 -0.003930 0.001403
# 5 -0.003081 -0.000465 -0.000532 -0.003930 0.033073 0.014631
# 6 0.000397 0.004713 -0.004540 0.001403 0.014631 0.046315
#
#
# Mechanical properties :
#
#
# Convention : Reuss Voigt Hill
#
# Bulk Modulus (GPa) = 55.42704 62.70300 59.06502
# Shear Modulus (GPa) = 23.92006 29.05844 26.48925
#
# Velocity S-wave (km/s) = 3.57168 3.93666 3.75861
# Velocity P-wave (km/s) = 6.82417 7.35551 7.09482
#
# Compressibility (1/GPa) = 0.01804174
#
# Stress axis : x y z
#
# Youngs Moduli (GPa) = 71.40669 76.42617 52.87574
#
# Poissons Ratio (x) = 0.25035 0.21875
# Poissons Ratio (y) = 0.23391 0.34723
# Poissons Ratio (z) = 0.29541 0.50188
#
# Static dielectric constant tensor:
#      x y z
#    x 3.830250 -0.191130 0.133120 
#    y -0.191130 3.499010 -0.293640 
#    z 0.133120 -0.293640 3.418870 
# 
# 
# High freq. dielectric constant tensor:
#      x y z
#    x 1.752530 -0.009470 0.009810 
#    y -0.009470 1.700540 -0.034690 
#    z 0.009810 -0.034690 1.712090 
# 
# From -- ./inp_files/266406.got.cif
#   From: 2010.06.25/outbox.cif.g09.slc.cpg/sg2_134_cif.got.tgz:266406.got - 2010.06.27 13:26:56.
