data_PCOD8038195
_publ_section_title
;
Structure prediction by ZEFSAII (Michael W. Deem and Ramdas Pophale) SiO2 
 PCOD8038195
Probable space group: P -1
;
_chemical_formula_sum "Si O2"
_cell_formula_units_Z 16
_cell_length_a 8.566184
_cell_length_b 14.082803
_cell_length_c 8.659634
_cell_angle_alpha 51.162124
_cell_angle_beta 70.196590
_cell_angle_gamma 70.226637
_cell_volume 754.219462
_symmetry_space_group_name_H-M "P -1"
_symmetry_group_IT_number 2
_symmetry_cell_setting 'triclinic'
loop_
_space_group_symop_operation_xyz
x,y,z
-x,-y,-z
loop_
_atom_site_type_symbol
_atom_site_label
_atom_site_fract_x
_atom_site_fract_y
_atom_site_fract_z
Si Si1 0.583276 0.367120 0.163727
Si Si2 0.630396 0.838609 0.516667
Si Si3 0.451916 0.414922 0.470004
Si Si4 0.661512 0.954489 0.697083
Si Si5 0.522910 0.206627 0.878379
Si Si6 0.236867 0.637818 0.183565
Si Si7 0.942272 0.810755 0.244096
Si Si8 0.833387 0.034353 0.827029
O O1 0.462466 0.266923 0.274092
O O2 0.605909 0.377029 0.332128
O O3 0.500000 0.500000 0.000000
O O4 0.752718 0.336022 0.033004
O O5 0.715171 0.907512 0.555100
O O6 0.775457 0.777054 0.412767
O O7 0.500619 0.938346 0.365382
O O8 0.500000 0.500000 0.500000
O O9 0.423976 0.286488 0.688864
O O10 0.287952 0.491072 0.358775
O O11 0.815313 0.004897 0.680338
O O12 0.619508 0.838574 0.926123
O O13 0.626758 0.290259 0.858582
O O14 0.646265 0.086638 0.896789
O O15 0.050448 0.687135 0.259449
O O16 0.046884 0.864753 0.290226
O O17 0.905377 0.909459 0.019818
#
# Coordination Sequence:
#
# PCOD8038195 Si02
#       8
#     2   2   2   2   2   2   2   2
#     4  10  20  38  61  86 116 155 206 250 293 350
#     4  11  23  38  61  97 120 160 205 261 301 362
#     4   9  19  33  60  90 109 152 206 251 289 355
#     4  11  22  35  61  92 125 154 214 254 297 357
#     4  10  17  34  58  89 118 147 208 255 290 350
#     4   9  19  38  58  86 118 163 192 250 304 361
#     4  10  22  38  59  87 133 160 197 243 318 373
#     4  10  21  36  57  88 122 173 188 248 311 366
#
# _framework density 21.213985000000001
#
# number of rings (size 3 to 8) (size 9 to 14) (size 15 to 20)
#    0.000    2.000    2.500    1.125    1.750    0.500 
#    0.000    6.250    0.000    0.750    0.000    0.000 
#    0.000    0.000    0.000    0.000    0.000    0.000 
#
# Total GULP energy -198257.152658 kJ/mol
# GULP energy per Si atom -12391.072041 kJ/mol
# Density = 2.116570 g / cm^3
# Si number density = 21.213985 Si / 1000 Ang^3
#
#
#
# Elastic Constant Matrix: (Units=GPa)
#
#
# Indices 1 2 3 4 5 6 
#
# 1 53.8246 36.2655 26.8053 13.5781 13.1740 -2.2876
# 2 36.2655 106.8916 41.9088 16.9033 11.4558 -13.0752
# 3 26.8053 41.9088 111.8565 1.3175 9.6144 -17.8598
# 4 13.5781 16.9033 1.3175 39.5607 0.4021 3.5168
# 5 13.1740 11.4558 9.6144 0.4021 26.9063 9.8458
# 6 -2.2876 -13.0752 -17.8598 3.5168 9.8458 40.8026
#
#
#
# Elastic Compliance Matrix: (Units=1/GPa)
#
#
# Indices 1 2 3 4 5 6 
#
# 1 0.028830 -0.005959 -0.003438 -0.007252 -0.010763 0.001424
# 2 -0.005959 0.014023 -0.002817 -0.004184 -0.003495 0.004131
# 3 -0.003438 -0.002817 0.011812 0.001606 -0.003074 0.004678
# 4 -0.007252 -0.004184 0.001606 0.029893 0.006183 -0.005113
# 5 -0.010763 -0.003495 -0.003074 0.006183 0.050727 -0.015842
# 6 0.001424 0.004131 0.004678 -0.005113 -0.015842 0.032223
#
#
# Mechanical properties :
#
#
# Convention : Reuss Voigt Hill
#
# Bulk Modulus (GPa) = 33.07218 53.61464 43.34341
# Shear Modulus (GPa) = 24.75076 32.62681 28.68879
#
# Velocity S-wave (km/s) = 3.41943 3.92597 3.68142
# Velocity P-wave (km/s) = 5.58692 6.77341 6.20857
#
# Compressibility (1/GPa) = 0.03023690
#
# Stress axis : x y z
#
# Youngs Moduli (GPa) = 34.68569 71.31228 84.66324
#
# Poissons Ratio (x) = 0.42494 0.29111
# Poissons Ratio (y) = 0.20669 0.23846
# Poissons Ratio (z) = 0.11926 0.20086
#
# Static dielectric constant tensor:
#      x y z
#    x 3.528980 0.124000 0.280890 
#    y 0.124000 4.448290 0.159530 
#    z 0.280890 0.159530 4.211990 
# 
# 
# High freq. dielectric constant tensor:
#      x y z
#    x 1.785220 0.012150 0.015600 
#    y 0.012150 1.849310 0.000830 
#    z 0.015600 0.000830 1.836230 
# 
# From -- ./inp_files/199412.got.cif
#   From: 2010.06.25/outbox.cif.g09.slc.cpg/sg2_100_cif.got.tgz:199412.got - 2010.06.27 13:26:56.
