data_PCOD8038134
_publ_section_title
;
Structure prediction by ZEFSAII (Michael W. Deem and Ramdas Pophale) SiO2 
 PCOD8038134
Probable space group: P -1
;
_chemical_formula_sum "Si O2"
_cell_formula_units_Z 16
_cell_length_a 24.416447
_cell_length_b 9.042724
_cell_length_c 15.457134
_cell_angle_alpha 127.832426
_cell_angle_beta 19.226484
_cell_angle_gamma 129.548566
_cell_volume 865.590120
_symmetry_space_group_name_H-M "P -1"
_symmetry_group_IT_number 2
_symmetry_cell_setting 'triclinic'
loop_
_space_group_symop_operation_xyz
x,y,z
-x,-y,-z
loop_
_atom_site_type_symbol
_atom_site_label
_atom_site_fract_x
_atom_site_fract_y
_atom_site_fract_z
Si Si1 0.607382 0.028826 0.937421
Si Si2 0.748384 0.993698 0.165457
Si Si3 0.543125 0.310854 0.830445
Si Si4 0.498099 0.752997 0.327559
Si Si5 0.870815 0.196998 0.319413
Si Si6 0.140175 0.043338 0.588221
Si Si7 0.234802 0.203821 0.761472
Si Si8 0.571782 0.661877 0.639691
O O1 0.798339 0.013185 0.618940
O O2 0.588490 0.234629 0.076339
O O3 0.500000 0.000000 0.000000
O O4 0.536439 0.870648 0.057700
O O5 0.659306 0.909302 0.179042
O O6 0.707680 0.819429 0.233969
O O7 0.674766 0.173832 0.372093
O O8 0.949142 0.075432 0.878816
O O9 0.468244 0.272604 0.832686
O O10 0.749345 0.343483 0.534207
O O11 0.500000 0.500000 0.000000
O O12 0.488793 0.554096 0.318209
O O13 0.853713 0.135058 0.422787
O O14 0.811025 0.012387 0.282544
O O15 0.067232 0.295534 0.040884
O O16 0.265184 0.234699 0.508685
O O17 0.379050 0.335073 0.534496
#
# Coordination Sequence:
#
# PCOD8038134 Si02
#       8
#     2   2   2   2   2   2   2   2
#     4  10  17  34  55  81 106 139 187 230 270 316
#     4  10  21  40  56  77 119 152 179 221 283 342
#     4  12  21  34  56  82 117 147 178 230 282 334
#     4  11  24  36  54  85 117 150 178 221 290 338
#     4   9  16  30  56  83 105 137 188 229 276 311
#     4   9  18  34  60  81 106 148 186 237 267 313
#     4   9  16  34  58  77 103 145 187 233 263 314
#     4  10  19  33  57  86 109 138 193 237 266 317
#
# _framework density 18.484500000000001
#
# number of rings (size 3 to 8) (size 9 to 14) (size 15 to 20)
#    0.000    2.000    5.000    2.250    0.000    1.000 
#    2.250    1.250    0.000    0.000    0.000    0.000 
#    0.000    0.000    0.000    0.000    0.000    0.000 
#
# Total GULP energy -198325.691338 kJ/mol
# GULP energy per Si atom -12395.355709 kJ/mol
# Density = 1.844243 g / cm^3
# Si number density = 18.484500 Si / 1000 Ang^3
#
#
#
# Elastic Constant Matrix: (Units=GPa)
#
#
# Indices 1 2 3 4 5 6 
#
# 1 78.1971 22.3362 36.7647 12.0564 13.3475 -2.3516
# 2 22.3362 65.2434 27.9544 16.7049 3.5490 -8.5747
# 3 36.7647 27.9544 114.4554 20.1185 4.5502 4.8366
# 4 12.0564 16.7049 20.1185 23.9834 -5.9712 -0.1749
# 5 13.3475 3.5490 4.5502 -5.9712 30.2666 -1.3003
# 6 -2.3516 -8.5747 4.8366 -0.1749 -1.3003 22.5554
#
#
#
# Elastic Compliance Matrix: (Units=1/GPa)
#
#
# Indices 1 2 3 4 5 6 
#
# 1 0.017546 -0.002226 -0.003749 -0.006124 -0.008067 0.001274
# 2 -0.002226 0.021686 -0.002590 -0.012573 -0.003296 0.008280
# 3 -0.003749 -0.002590 0.011982 -0.006727 -0.001347 -0.004075
# 4 -0.006124 -0.012573 -0.006727 0.063543 0.017616 -0.002467
# 5 -0.008067 -0.003296 -0.001347 0.017616 0.040691 0.000677
# 6 0.001274 0.008280 -0.004075 -0.002467 0.000677 0.048509
#
#
# Mechanical properties :
#
#
# Convention : Reuss Voigt Hill
#
# Bulk Modulus (GPa) = 29.34018 48.00071 38.67045
# Shear Modulus (GPa) = 21.51008 26.75046 24.13027
#
# Velocity S-wave (km/s) = 3.41498 3.80831 3.61700
# Velocity P-wave (km/s) = 5.60863 6.73514 6.19754
#
# Compressibility (1/GPa) = 0.03408295
#
# Stress axis : x y z
#
# Youngs Moduli (GPa) = 56.99258 46.11280 83.45757
#
# Poissons Ratio (x) = 0.10267 0.31289
# Poissons Ratio (y) = 0.12689 0.21617
# Poissons Ratio (z) = 0.21367 0.11944
#
# Static dielectric constant tensor:
#      x y z
#    x 3.587220 -0.111330 0.244190 
#    y -0.111330 3.004250 0.203710 
#    z 0.244190 0.203710 4.028970 
# 
# 
# High freq. dielectric constant tensor:
#      x y z
#    x 1.711630 -0.017030 0.013430 
#    y -0.017030 1.676140 0.014750 
#    z 0.013430 0.014750 1.729640 
# 
# From -- ./inp_files/278680.got.cif
#   From: 2010.06.25/outbox.cif.g09.slc.cpg/sg2_140_cif.got.tgz:278680.got - 2010.06.27 13:26:56.
