data_PCOD8038443
_publ_section_title
;
Structure prediction by ZEFSAII (Michael W. Deem and Ramdas Pophale) SiO2 
 PCOD8038443
Probable space group: P -1
;
_chemical_formula_sum "Si O2"
_cell_formula_units_Z 16
_cell_length_a 7.837641
_cell_length_b 10.000963
_cell_length_c 22.897369
_cell_angle_alpha 50.888622
_cell_angle_beta 139.233281
_cell_angle_gamma 135.051743
_cell_volume 810.280963
_symmetry_space_group_name_H-M "P -1"
_symmetry_group_IT_number 2
_symmetry_cell_setting 'triclinic'
loop_
_space_group_symop_operation_xyz
x,y,z
-x,-y,-z
loop_
_atom_site_type_symbol
_atom_site_label
_atom_site_fract_x
_atom_site_fract_y
_atom_site_fract_z
Si Si1 0.860530 0.466753 0.322569
Si Si2 0.850637 0.104989 0.730802
Si Si3 0.819770 0.956896 0.635427
Si Si4 0.537771 0.881614 0.095020
Si Si5 0.746452 0.165826 0.169562
Si Si6 0.488243 0.757346 0.803842
Si Si7 0.832942 0.299524 0.479218
Si Si8 0.725488 0.549405 0.847345
O O1 0.820318 0.366567 0.276304
O O2 0.920956 0.342114 0.422089
O O3 0.554265 0.475632 0.258215
O O4 0.128859 0.682444 0.328805
O O5 0.757599 0.995853 0.675147
O O6 0.154076 0.121566 0.828899
O O7 0.613374 0.977497 0.752432
O O8 0.939688 0.148850 0.573767
O O9 0.517993 0.791201 0.576631
O O10 0.074533 0.891357 0.720394
O O11 0.288171 0.659327 0.086374
O O12 0.521433 0.980950 0.124800
O O13 0.500000 0.000000 0.000000
O O14 0.562886 0.247988 0.138210
O O15 0.966986 0.326826 0.138564
O O16 0.708558 0.663097 0.870863
O O17 0.000000 0.500000 0.500000
#
# Coordination Sequence:
#
# PCOD8038443 Si02
#       8
#     2   2   2   2   2   2   2   2
#     4   9  17  33  54  79 107 149 187 232 274 331
#     4  10  17  36  58  76 115 149 186 227 284 332
#     4  10  19  31  53  84 107 148 190 233 275 336
#     4  10  21  38  63  88 114 147 185 235 284 334
#     4  11  21  39  61  84 114 151 193 228 282 340
#     4  10  20  36  61  82 110 157 190 227 280 341
#     4  11  18  28  56  84 108 147 195 231 285 327
#     4   9  19  38  61  78 113 146 189 225 281 334
#
# _framework density 19.746237000000001
#
# number of rings (size 3 to 8) (size 9 to 14) (size 15 to 20)
#    0.750    1.250    6.250    0.000    0.000    1.500 
#    0.000    1.875    0.000    1.500    0.000    0.000 
#    0.000    0.000    0.000    0.000    0.000    0.000 
#
# Total GULP energy -198270.275684 kJ/mol
# GULP energy per Si atom -12391.892230 kJ/mol
# Density = 1.970129 g / cm^3
# Si number density = 19.746237 Si / 1000 Ang^3
#
#
#
# Elastic Constant Matrix: (Units=GPa)
#
#
# Indices 1 2 3 4 5 6 
#
# 1 112.3780 45.1652 19.5391 -11.8432 -20.9174 -8.4973
# 2 45.1652 127.6784 20.4394 -28.2405 -5.0772 -3.2975
# 3 19.5391 20.4394 83.1542 -22.1400 -7.5913 -3.3049
# 4 -11.8432 -28.2405 -22.1400 29.6729 2.2420 -3.3633
# 5 -20.9174 -5.0772 -7.5913 2.2420 10.5919 3.1181
# 6 -8.4973 -3.2975 -3.3049 -3.3633 3.1181 16.3299
#
#
#
# Elastic Compliance Matrix: (Units=1/GPa)
#
#
# Indices 1 2 3 4 5 6 
#
# 1 0.016398 -0.004515 0.000136 0.000344 0.029637 0.002060
# 2 -0.004515 0.011481 0.000581 0.010415 -0.006206 0.003417
# 3 0.000136 0.000581 0.016103 0.012515 0.008121 0.004474
# 4 0.000344 0.010415 0.012515 0.055103 -0.001888 0.016524
# 5 0.029637 -0.006206 0.008121 -0.001888 0.160676 -0.015257
# 6 0.002060 0.003417 0.004474 0.016524 -0.015257 0.070221
#
#
# Mechanical properties :
#
#
# Convention : Reuss Voigt Hill
#
# Bulk Modulus (GPa) = 27.48358 54.83312 41.15835
# Shear Modulus (GPa) = 14.29769 27.19008 20.74388
#
# Velocity S-wave (km/s) = 2.69378 3.71479 3.24469
# Velocity P-wave (km/s) = 4.86044 6.79917 5.90985
#
# Compressibility (1/GPa) = 0.03638536
#
# Stress axis : x y z
#
# Youngs Moduli (GPa) = 60.98370 87.09885 62.10196
#
# Poissons Ratio (x) = 0.39321 -0.00842
# Poissons Ratio (y) = 0.27532 -0.03607
# Poissons Ratio (z) = -0.00827 -0.05059
#
# Static dielectric constant tensor:
#      x y z
#    x 3.068700 -0.102710 -0.121390 
#    y -0.102710 3.928310 -0.104990 
#    z -0.121390 -0.104990 3.523120 
# 
# 
# High freq. dielectric constant tensor:
#      x y z
#    x 1.713130 -0.002550 -0.019930 
#    y -0.002550 1.791280 -0.008410 
#    z -0.019930 -0.008410 1.756250 
# 
# From -- ./inp_files/607551.got.cif
#   From: 2010.06.25/outbox.cif.g09.slc.cpg/sg2_304_cif.got.tgz:607551.got - 2010.06.27 13:26:56.
