data_PCOD8038221
_publ_section_title
;
Structure prediction by ZEFSAII (Michael W. Deem and Ramdas Pophale) SiO2 
 PCOD8038221
Probable space group: P -1
;
_chemical_formula_sum "Si O2"
_cell_formula_units_Z 16
_cell_length_a 11.135954
_cell_length_b 9.735466
_cell_length_c 15.141194
_cell_angle_alpha 46.657498
_cell_angle_beta 73.797994
_cell_angle_gamma 46.106969
_cell_volume 797.322029
_symmetry_space_group_name_H-M "P -1"
_symmetry_group_IT_number 2
_symmetry_cell_setting 'triclinic'
loop_
_space_group_symop_operation_xyz
x,y,z
-x,-y,-z
loop_
_atom_site_type_symbol
_atom_site_label
_atom_site_fract_x
_atom_site_fract_y
_atom_site_fract_z
Si Si1 0.770525 0.565097 0.857382
Si Si2 0.708242 0.020255 0.065386
Si Si3 0.681914 0.058640 0.642897
Si Si4 0.825139 0.241430 0.830911
Si Si5 0.650477 0.530932 0.155592
Si Si6 0.778162 0.194564 0.122523
Si Si7 0.941890 0.472915 0.186203
Si Si8 0.467440 0.546020 0.341540
O O1 0.806821 0.448750 0.802291
O O2 0.953918 0.459860 0.908211
O O3 0.627508 0.894753 0.734416
O O4 0.701418 0.475467 0.974474
O O5 0.680620 0.123924 0.125659
O O6 0.814361 0.705839 0.184896
O O7 0.824261 0.060614 0.975526
O O8 0.523324 0.186107 0.978447
O O9 0.571836 0.269653 0.493398
O O10 0.642860 0.202618 0.680125
O O11 0.898080 0.838557 0.673312
O O12 0.663902 0.410866 0.719756
O O13 0.008267 0.050814 0.822144
O O14 0.713199 0.274170 0.202318
O O15 0.813986 0.503087 0.130508
O O16 0.610951 0.516449 0.271042
#
# Coordination Sequence:
#
# PCOD8038221 Si02
#       8
#     2   2   2   2   2   2   2   2
#     4   9  19  34  58  81 100 144 181 211 257 313
#     4  10  19  36  52  81 112 140 173 214 265 315
#     4   9  20  40  59  73 102 142 184 223 257 310
#     4  10  17  34  60  78 106 138 182 216 252 321
#     4  11  24  31  52  83 113 139 171 220 266 316
#     4  11  18  35  57  80 112 142 168 214 268 322
#     4  10  19  37  53  79 106 144 175 217 260 314
#     4  10  22  38  54  81 103 138 184 223 263 304
#
# _framework density 20.067173
#
# number of rings (size 3 to 8) (size 9 to 14) (size 15 to 20)
#    0.750    1.250    2.500    2.250    0.000    4.500 
#    0.000    0.000    0.000    3.000    0.000    0.000 
#    0.000    0.000    0.000    0.000    0.000    0.000 
#
# Total GULP energy -198228.516796 kJ/mol
# GULP energy per Si atom -12389.282300 kJ/mol
# Density = 2.002150 g / cm^3
# Si number density = 20.067173 Si / 1000 Ang^3
#
#
#
# Elastic Constant Matrix: (Units=GPa)
#
#
# Indices 1 2 3 4 5 6 
#
# 1 68.8808 34.3054 32.1418 -2.7756 15.9425 13.4499
# 2 34.3054 114.9930 54.1688 -14.2020 -0.1901 16.5648
# 3 32.1418 54.1688 63.3856 -11.9699 6.5976 10.5588
# 4 -2.7756 -14.2020 -11.9699 33.4663 3.1999 -0.2986
# 5 15.9425 -0.1901 6.5976 3.1999 14.0311 -1.3514
# 6 13.4499 16.5648 10.5588 -0.2986 -1.3514 27.9712
#
#
#
# Elastic Compliance Matrix: (Units=1/GPa)
#
#
# Indices 1 2 3 4 5 6 
#
# 1 0.028619 -0.004252 -0.005567 0.001478 -0.031320 -0.010639
# 2 -0.004252 0.016186 -0.012108 0.001185 0.010236 -0.002463
# 3 -0.005567 -0.012108 0.031747 0.006741 -0.010551 -0.002574
# 4 0.001478 0.001185 0.006741 0.034125 -0.013022 -0.004222
# 5 -0.031320 0.010236 -0.010551 -0.013022 0.116706 0.018480
# 6 -0.010639 -0.002463 -0.002574 -0.004222 0.018480 0.044145
#
#
# Mechanical properties :
#
#
# Convention : Reuss Voigt Hill
#
# Bulk Modulus (GPa) = 30.58285 54.27683 42.42984
# Shear Modulus (GPa) = 15.32413 23.53662 19.43038
#
# Velocity S-wave (km/s) = 2.76641 3.42847 3.11507
# Velocity P-wave (km/s) = 5.04751 6.54055 5.84192
#
# Compressibility (1/GPa) = 0.03269807
#
# Stress axis : x y z
#
# Youngs Moduli (GPa) = 34.94140 61.78028 31.49897
#
# Poissons Ratio (x) = 0.26269 0.17537
# Poissons Ratio (y) = 0.14857 0.38139
# Poissons Ratio (z) = 0.19453 0.74804
#
# Static dielectric constant tensor:
#      x y z
#    x 3.600790 0.145140 0.150730 
#    y 0.145140 3.913070 -0.119790 
#    z 0.150730 -0.119790 3.231000 
# 
# 
# High freq. dielectric constant tensor:
#      x y z
#    x 1.783140 0.010830 0.023580 
#    y 0.010830 1.803970 -0.016460 
#    z 0.023580 -0.016460 1.730230 
# 
# From -- ./inp_files/260694.got.cif
#   From: 2010.06.25/outbox.cif.g09.slc.cpg/sg2_131_cif.got.tgz:260694.got - 2010.06.27 13:26:56.
