data_PCOD8038493
_publ_section_title
;
Structure prediction by ZEFSAII (Michael W. Deem and Ramdas Pophale) SiO2 
 PCOD8038493
Probable space group: P -1
;
_chemical_formula_sum "Si O2"
_cell_formula_units_Z 16
_cell_length_a 12.407318
_cell_length_b 8.651208
_cell_length_c 12.307761
_cell_angle_alpha 130.683360
_cell_angle_beta 46.351606
_cell_angle_gamma 118.134095
_cell_volume 724.342443
_symmetry_space_group_name_H-M "P -1"
_symmetry_group_IT_number 2
_symmetry_cell_setting 'triclinic'
loop_
_space_group_symop_operation_xyz
x,y,z
-x,-y,-z
loop_
_atom_site_type_symbol
_atom_site_label
_atom_site_fract_x
_atom_site_fract_y
_atom_site_fract_z
Si Si1 0.301564 0.370390 0.823176
Si Si2 0.599272 0.509380 0.600281
Si Si3 0.166570 0.748454 0.976970
Si Si4 0.880055 0.379208 0.455307
Si Si5 0.969021 0.621732 0.858620
Si Si6 0.022108 0.167826 0.652586
Si Si7 0.285769 0.010207 0.518022
Si Si8 0.454377 0.820113 0.698812
O O1 0.471591 0.455346 0.754975
O O2 0.217155 0.520402 0.866799
O O3 0.306396 0.137206 0.672714
O O4 0.210879 0.367505 0.998912
O O5 0.757751 0.528355 0.559483
O O6 0.564993 0.719370 0.661802
O O7 0.601950 0.334190 0.426865
O O8 0.306652 0.886908 0.896143
O O9 0.039249 0.727615 0.964939
O O10 0.100632 0.862099 0.179234
O O11 0.000000 0.500000 0.500000
O O12 0.970774 0.271043 0.244740
O O13 0.791303 0.209731 0.510272
O O14 0.012588 0.388430 0.706946
O O15 0.186586 0.148628 0.574922
O O16 0.000000 0.000000 0.500000
O O17 0.448114 0.992876 0.338040
#
# Coordination Sequence:
#
# PCOD8038493 Si02
#       8
#     2   2   2   2   2   2   2   2
#     4   9  18  34  64  94 112 144 207 266 299 339
#     4   9  18  36  59  89 121 152 199 252 311 351
#     4  10  17  36  64  96 118 149 204 257 302 345
#     4  12  26  39  54  83 130 172 198 238 307 370
#     4  11  19  39  63  86 120 161 205 253 295 350
#     4  11  21  36  61  90 125 158 199 250 303 364
#     4  11  21  36  55  91 120 157 206 245 301 356
#     4   9  18  34  66  90 112 149 207 263 296 341
#
# _framework density 22.089001
#
# number of rings (size 3 to 8) (size 9 to 14) (size 15 to 20)
#    0.000    1.750    3.750    3.000    0.000    2.500 
#    0.000    1.250    0.000    3.000    0.000    0.000 
#    0.000    0.000    0.000    0.000    0.000    0.000 
#
# Total GULP energy -198302.930466 kJ/mol
# GULP energy per Si atom -12393.933154 kJ/mol
# Density = 2.203873 g / cm^3
# Si number density = 22.089001 Si / 1000 Ang^3
#
#
#
# Elastic Constant Matrix: (Units=GPa)
#
#
# Indices 1 2 3 4 5 6 
#
# 1 101.2342 25.5842 38.8326 -13.0146 -2.2227 13.9121
# 2 25.5842 107.3881 45.8185 -31.0847 7.2523 27.0540
# 3 38.8326 45.8185 121.8743 -38.1674 2.9080 19.0420
# 4 -13.0146 -31.0847 -38.1674 44.7299 10.2704 -9.6996
# 5 -2.2227 7.2523 2.9080 10.2704 24.9693 -3.4202
# 6 13.9121 27.0540 19.0420 -9.6996 -3.4202 17.9072
#
#
#
# Elastic Compliance Matrix: (Units=1/GPa)
#
#
# Indices 1 2 3 4 5 6 
#
# 1 0.011833 -0.000495 -0.003063 -0.000982 0.001205 -0.005490
# 2 -0.000495 0.020739 0.001058 0.012554 -0.015215 -0.028179
# 3 -0.003063 0.001058 0.014158 0.011792 -0.008379 -0.009488
# 4 -0.000982 0.012554 0.011792 0.044032 -0.024812 -0.011632
# 5 0.001205 -0.015215 -0.008379 -0.024812 0.059719 0.028926
# 6 -0.005490 -0.028179 -0.009488 -0.011632 0.028926 0.111995
#
#
# Mechanical properties :
#
#
# Convention : Reuss Voigt Hill
#
# Bulk Modulus (GPa) = 23.96252 61.21857 42.59055
# Shear Modulus (GPa) = 17.76928 32.20538 24.98733
#
# Velocity S-wave (km/s) = 2.83934 3.82250 3.36700
# Velocity P-wave (km/s) = 4.64983 6.87435 5.86845
#
# Compressibility (1/GPa) = 0.04173183
#
# Stress axis : x y z
#
# Youngs Moduli (GPa) = 84.51197 48.21865 70.62950
#
# Poissons Ratio (x) = 0.02386 0.21631
# Poissons Ratio (y) = 0.04181 -0.07475
# Poissons Ratio (z) = 0.25882 -0.05103
#
# Static dielectric constant tensor:
#      x y z
#    x 3.387100 0.083210 -1.019420 
#    y 0.083210 3.941660 -0.459350 
#    z -1.019420 -0.459350 2.803560 
# 
# 
# High freq. dielectric constant tensor:
#      x y z
#    x 1.843620 0.004990 -0.024370 
#    y 0.004990 1.860460 -0.041580 
#    z -0.024370 -0.041580 1.857620 
# 
# From -- ./inp_files/419908.got.cif
#   From: 2010.06.25/outbox.cif.g09.slc.cpg/sg2_210_cif.got.tgz:419908.got - 2010.06.27 13:26:56.
