data_PCOD8038981
_publ_section_title
;
Structure prediction by ZEFSAII (Michael W. Deem and Ramdas Pophale) SiO2 
 PCOD8038981
Probable space group: P -1
;
_chemical_formula_sum "Si O2"
_cell_formula_units_Z 16
_cell_length_a 8.645112
_cell_length_b 20.191873
_cell_length_c 11.493786
_cell_angle_alpha 32.125795
_cell_angle_beta 119.539715
_cell_angle_gamma 126.250450
_cell_volume 860.287077
_symmetry_space_group_name_H-M "P -1"
_symmetry_group_IT_number 2
_symmetry_cell_setting 'triclinic'
loop_
_space_group_symop_operation_xyz
x,y,z
-x,-y,-z
loop_
_atom_site_type_symbol
_atom_site_label
_atom_site_fract_x
_atom_site_fract_y
_atom_site_fract_z
Si Si1 0.262848 0.671693 0.885449
Si Si2 0.139103 0.091057 0.182370
Si Si3 0.028732 0.185015 0.776570
Si Si4 0.315688 0.059467 0.972532
Si Si5 0.385069 0.170584 0.358722
Si Si6 0.249003 0.161201 0.578127
Si Si7 0.523301 0.091659 0.221962
Si Si8 0.884092 0.630976 0.667630
O O1 0.427788 0.706820 0.797049
O O2 0.323042 0.776181 0.859626
O O3 0.073766 0.673171 0.752865
O O4 0.232388 0.527533 0.142212
O O5 0.203287 0.165823 0.219062
O O6 0.311594 0.051666 0.255859
O O7 0.096844 0.193997 0.923578
O O8 0.961191 0.953537 0.340446
O O9 0.148312 0.116727 0.847959
O O10 0.066688 0.325233 0.515219
O O11 0.798142 0.100644 0.812754
O O12 0.376276 0.103661 0.795434
O O13 0.502734 0.116275 0.039451
O O14 0.352054 0.195265 0.442455
O O15 0.409519 0.030484 0.552873
O O16 0.246709 0.299263 0.423493
#
# Coordination Sequence:
#
# PCOD8038981 Si02
#       8
#     2   2   2   2   2   2   2   2
#     4  10  21  33  51  72  92 127 165 197 235 279
#     4   9  17  31  50  73  97 125 161 194 235 282
#     4   8  14  28  50  70  92 122 160 200 229 271
#     4   8  15  28  48  73  96 122 156 193 238 282
#     4  11  20  30  49  76 102 124 153 200 243 276
#     4  10  19  31  50  75 101 128 153 188 242 292
#     4  10  18  32  50  71  99 122 159 207 236 267
#     4  10  19  35  52  68  94 128 164 195 233 287
#
# _framework density 18.598441000000001
#
# number of rings (size 3 to 8) (size 9 to 14) (size 15 to 20)
#    0.000    2.500    0.000    6.375    0.000    1.000 
#    0.000   10.000    0.000    0.000    0.000    7.000 
#    0.000    0.000    0.000    0.000    0.000    0.000 
#
# Total GULP energy -198286.821915 kJ/mol
# GULP energy per Si atom -12392.926370 kJ/mol
# Density = 1.855611 g / cm^3
# Si number density = 18.598441 Si / 1000 Ang^3
#
#
#
# Elastic Constant Matrix: (Units=GPa)
#
#
# Indices 1 2 3 4 5 6 
#
# 1 29.7032 28.1582 38.1747 4.6328 -11.7798 -2.2520
# 2 28.1582 105.0698 61.5557 17.8982 -14.6097 2.3068
# 3 38.1747 61.5557 141.4049 6.4832 -15.1887 -9.2858
# 4 4.6328 17.8982 6.4832 31.8679 -5.9765 -10.1333
# 5 -11.7798 -14.6097 -15.1887 -5.9765 17.5848 9.1327
# 6 -2.2520 2.3068 -9.2858 -10.1333 9.1327 15.8469
#
#
#
# Elastic Compliance Matrix: (Units=1/GPa)
#
#
# Indices 1 2 3 4 5 6 
#
# 1 0.072806 -0.002226 -0.015294 -0.006877 0.046770 -0.029643
# 2 -0.002226 0.019989 -0.007285 -0.014720 0.017985 -0.027272
# 3 -0.015294 -0.007285 0.014036 0.007121 -0.011149 0.018090
# 4 -0.006877 -0.014720 0.007121 0.051233 -0.018639 0.048841
# 5 0.046770 0.017985 -0.011149 -0.018639 0.135103 -0.092285
# 6 -0.029643 -0.027272 0.018090 0.048841 -0.092285 0.157877
#
#
# Mechanical properties :
#
#
# Convention : Reuss Voigt Hill
#
# Bulk Modulus (GPa) = 17.47597 59.10611 38.29104
# Shear Modulus (GPa) = 9.62044 22.94587 16.28316
#
# Velocity S-wave (km/s) = 2.27683 3.51629 2.96212
# Velocity P-wave (km/s) = 4.04089 6.95233 5.68611
#
# Compressibility (1/GPa) = 0.05722144
#
# Stress axis : x y z
#
# Youngs Moduli (GPa) = 13.73515 50.02797 71.24668
#
# Poissons Ratio (x) = 0.11137 1.08963
# Poissons Ratio (y) = 0.03058 0.51901
# Poissons Ratio (z) = 0.21006 0.36444
#
# Static dielectric constant tensor:
#      x y z
#    x 3.117890 -0.018780 -0.193990 
#    y -0.018780 3.612770 0.437830 
#    z -0.193990 0.437830 3.618290 
# 
# 
# High freq. dielectric constant tensor:
#      x y z
#    x 1.688130 0.008050 -0.013940 
#    y 0.008050 1.719780 0.033170 
#    z -0.013940 0.033170 1.720470 
# 
# From -- ./inp_files/252029.got.cif
#   From: 2010.06.25/outbox.cif.g09.slc.cpg/sg2_127_cif.got.tgz:252029.got - 2010.06.27 13:26:56.
