data_PCOD8038670
_publ_section_title
;
Structure prediction by ZEFSAII (Michael W. Deem and Ramdas Pophale) SiO2 
 PCOD8038670
Probable space group: P -1
;
_chemical_formula_sum "Si O2"
_cell_formula_units_Z 16
_cell_length_a 10.973429
_cell_length_b 5.198842
_cell_length_c 23.113902
_cell_angle_alpha 83.613545
_cell_angle_beta 136.798140
_cell_angle_gamma 76.868533
_cell_volume 799.711013
_symmetry_space_group_name_H-M "P -1"
_symmetry_group_IT_number 2
_symmetry_cell_setting 'triclinic'
loop_
_space_group_symop_operation_xyz
x,y,z
-x,-y,-z
loop_
_atom_site_type_symbol
_atom_site_label
_atom_site_fract_x
_atom_site_fract_y
_atom_site_fract_z
Si Si1 0.906851 0.085370 0.402931
Si Si2 0.670940 0.419112 0.012890
Si Si3 0.960204 0.843963 0.773574
Si Si4 0.257995 0.280877 0.703608
Si Si5 0.687329 0.148664 0.512148
Si Si6 0.454615 0.811617 0.407734
Si Si7 0.468972 0.958614 0.094774
Si Si8 0.095881 0.287421 0.763646
O O1 0.764015 0.429873 0.342593
O O2 0.078689 0.991514 0.416565
O O3 0.000000 0.000000 0.500000
O O4 0.766247 0.930530 0.346289
O O5 0.650141 0.698237 0.963492
O O6 0.660263 0.195708 0.968390
O O7 0.500000 0.500000 0.000000
O O8 0.895264 0.267185 0.118794
O O9 0.960690 0.574550 0.745153
O O10 0.028892 0.037042 0.752788
O O11 0.727464 0.038514 0.705338
O O12 0.082224 0.366908 0.688952
O O13 0.472043 0.117381 0.814981
O O14 0.581614 0.477027 0.443657
O O15 0.653823 0.143900 0.568858
O O16 0.596795 0.965774 0.450770
O O17 0.325177 0.163949 0.868594
#
# Coordination Sequence:
#
# PCOD8038670 Si02
#       8
#     2   2   2   2   2   2   2   2
#     4  12  23  37  59  82 104 131 170 227 281 308
#     4  12  17  29  41  70 104 137 180 210 252 298
#     4  12  20  28  48  72 106 138 188 213 248 304
#     4  10  20  35  50  74 104 134 167 202 261 332
#     4  10  21  37  54  72 105 134 182 215 245 321
#     4  10  21  35  51  76 100 149 176 206 250 295
#     4  10  20  29  45  66  99 147 167 202 256 309
#     4  10  18  29  46  68  97 150 168 209 242 305
#
# _framework density 20.007228000000001
#
# number of rings (size 3 to 8) (size 9 to 14) (size 15 to 20)
#    0.750    0.500    2.500    6.000    0.000    2.000 
#    0.000    0.000    0.000    0.000    0.000    0.000 
#    0.000   20.000    0.000    0.000    0.000    0.000 
#
# Total GULP energy -198359.765395 kJ/mol
# GULP energy per Si atom -12397.485337 kJ/mol
# Density = 1.996169 g / cm^3
# Si number density = 20.007228 Si / 1000 Ang^3
#
#
#
# Elastic Constant Matrix: (Units=GPa)
#
#
# Indices 1 2 3 4 5 6 
#
# 1 9.7670 8.4549 1.3007 0.1569 -1.6993 3.8346
# 2 8.4549 161.2025 62.2010 -5.4034 -7.0366 27.0842
# 3 1.3007 62.2010 135.8480 -1.4884 -3.2068 12.2827
# 4 0.1569 -5.4034 -1.4884 35.0560 -2.4009 -3.8015
# 5 -1.6993 -7.0366 -3.2068 -2.4009 27.2269 -2.2803
# 6 3.8346 27.0842 12.2827 -3.8015 -2.2803 13.0848
#
#
#
# Elastic Compliance Matrix: (Units=1/GPa)
#
#
# Indices 1 2 3 4 5 6 
#
# 1 0.117572 -0.001328 0.002670 -0.004104 0.004041 -0.034702
# 2 -0.001328 0.010649 -0.003161 -0.000468 0.000689 -0.018703
# 3 0.002670 -0.003161 0.009037 -0.000411 0.000142 -0.002816
# 4 -0.004104 -0.000468 -0.000411 0.029956 0.003206 0.011818
# 5 0.004041 0.000689 0.000142 0.003206 0.037859 0.004785
# 6 -0.034702 -0.018703 -0.002816 0.011818 0.004785 0.132218
#
#
# Mechanical properties :
#
#
# Convention : Reuss Voigt Hill
#
# Bulk Modulus (GPa) = 7.48387 50.08119 28.78253
# Shear Modulus (GPa) = 12.97124 30.73092 21.85108
#
# Velocity S-wave (km/s) = 2.54899 3.92342 3.30837
# Velocity P-wave (km/s) = 3.52304 6.75353 5.38619
#
# Compressibility (1/GPa) = 0.13362074
#
# Stress axis : x y z
#
# Youngs Moduli (GPa) = 8.50542 93.90113 110.66181
#
# Poissons Ratio (x) = 0.12466 -0.29548
# Poissons Ratio (y) = 0.01129 0.34983
# Poissons Ratio (z) = -0.02271 0.29685
#
# Static dielectric constant tensor:
#      x y z
#    x 2.962710 0.193430 0.157500 
#    y 0.193430 3.765570 -0.074010 
#    z 0.157500 -0.074010 3.809930 
# 
# 
# High freq. dielectric constant tensor:
#      x y z
#    x 1.699150 0.024030 0.010370 
#    y 0.024030 1.802440 -0.003290 
#    z 0.010370 -0.003290 1.793010 
# 
# From -- ./inp_files/592504.got.cif
#   From: 2010.06.25/outbox.cif.g09.slc.cpg/sg2_297_cif.got.tgz:592504.got - 2010.06.27 13:26:56.
