data_PCOD8038986
_publ_section_title
;
Structure prediction by ZEFSAII (Michael W. Deem and Ramdas Pophale) SiO2 
 PCOD8038986
Probable space group: P -1
;
_chemical_formula_sum "Si O2"
_cell_formula_units_Z 16
_cell_length_a 23.711794
_cell_length_b 11.103452
_cell_length_c 20.296117
_cell_angle_alpha 46.478334
_cell_angle_beta 16.841552
_cell_angle_gamma 38.278531
_cell_volume 898.630508
_symmetry_space_group_name_H-M "P -1"
_symmetry_group_IT_number 2
_symmetry_cell_setting 'triclinic'
loop_
_space_group_symop_operation_xyz
x,y,z
-x,-y,-z
loop_
_atom_site_type_symbol
_atom_site_label
_atom_site_fract_x
_atom_site_fract_y
_atom_site_fract_z
Si Si1 0.864472 0.483860 0.491143
Si Si2 0.014942 0.921653 0.085137
Si Si3 0.413416 0.037325 0.381539
Si Si4 0.703522 0.549701 0.025197
Si Si5 0.140205 0.014610 0.036506
Si Si6 0.708888 0.093093 0.558409
Si Si7 0.941689 0.348775 0.599101
Si Si8 0.411183 0.544056 0.940765
O O1 0.713520 0.726288 0.587482
O O2 0.942274 0.343399 0.521826
O O3 0.693934 0.444788 0.656880
O O4 0.085325 0.418602 0.220252
O O5 0.753055 0.979388 0.375412
O O6 0.212606 0.672756 0.958797
O O7 0.083843 0.043989 0.009706
O O8 0.000000 0.000000 0.000000
O O9 0.442994 0.916036 0.327448
O O10 0.674383 0.938355 0.162623
O O11 0.478223 0.720292 0.255705
O O12 0.634112 0.580621 0.013412
O O13 0.243812 0.778752 0.016443
O O14 0.888923 0.145181 0.309725
O O15 0.857073 0.882417 0.513644
O O16 0.000000 0.500000 0.500000
O O17 0.673956 0.451916 0.890953
#
# Coordination Sequence:
#
# PCOD8038986 Si02
#       8
#     2   2   2   2   2   2   2   2
#     4  10  18  32  51  70  95 132 170 201 233 281
#     4   9  18  34  56  77  94 121 162 201 238 288
#     4   9  17  33  53  71  97 132 165 193 234 288
#     4  10  20  34  49  72 102 127 155 200 253 288
#     4   8  17  33  52  72  96 131 164 191 233 293
#     4  10  20  32  49  72 102 132 158 198 243 283
#     4  11  17  32  51  71  95 129 173 203 229 278
#     4   9  18  32  50  69  96 130 167 202 235 282
#
# _framework density 17.804870999999999
#
# number of rings (size 3 to 8) (size 9 to 14) (size 15 to 20)
#    0.000    2.500    2.500    1.875    0.000    2.000 
#    0.000    3.125    0.000    1.500    0.000    0.000 
#    0.000    0.000    0.000    0.000    0.000    0.000 
#
# Total GULP energy -198270.290847 kJ/mol
# GULP energy per Si atom -12391.893178 kJ/mol
# Density = 1.776435 g / cm^3
# Si number density = 17.804871 Si / 1000 Ang^3
#
#
#
# Elastic Constant Matrix: (Units=GPa)
#
#
# Indices 1 2 3 4 5 6 
#
# 1 98.6320 27.6107 56.6368 -1.7257 6.7856 -4.0295
# 2 27.6107 42.9202 39.5903 2.2173 3.1669 1.5504
# 3 56.6368 39.5903 128.4708 6.1969 -3.5820 10.7451
# 4 -1.7257 2.2173 6.1969 24.5985 7.7298 3.2149
# 5 6.7856 3.1669 -3.5820 7.7298 30.0709 -10.0753
# 6 -4.0295 1.5504 10.7451 3.2149 -10.0753 21.4170
#
#
#
# Elastic Compliance Matrix: (Units=1/GPa)
#
#
# Indices 1 2 3 4 5 6 
#
# 1 0.015245 -0.004395 -0.005969 0.003419 -0.003167 0.004178
# 2 -0.004395 0.034513 -0.008746 0.000154 -0.004008 -0.000846
# 3 -0.005969 -0.008746 0.013816 -0.003294 0.002896 -0.005565
# 4 0.003419 0.000154 -0.003294 0.049324 -0.018488 -0.013817
# 5 -0.003167 -0.004008 0.002896 -0.018488 0.047282 0.023260
# 6 0.004178 -0.000846 -0.005565 -0.013817 0.023260 0.063347
#
#
# Mechanical properties :
#
#
# Convention : Reuss Voigt Hill
#
# Bulk Modulus (GPa) = 39.44434 57.52204 48.48319
# Shear Modulus (GPa) = 18.50487 24.96295 21.73391
#
# Velocity S-wave (km/s) = 3.22734 3.74843 3.49760
# Velocity P-wave (km/s) = 6.00744 7.14922 6.60306
#
# Compressibility (1/GPa) = 0.02535218
#
# Stress axis : x y z
#
# Youngs Moduli (GPa) = 65.59532 28.97493 72.38122
#
# Poissons Ratio (x) = 0.12735 0.43205
# Poissons Ratio (y) = 0.28829 0.63308
# Poissons Ratio (z) = 0.39154 0.25343
#
# Static dielectric constant tensor:
#      x y z
#    x 3.364470 0.605950 0.675150 
#    y 0.605950 2.903510 -0.031820 
#    z 0.675150 -0.031820 3.898910 
# 
# 
# High freq. dielectric constant tensor:
#      x y z
#    x 1.690250 0.007450 -0.003540 
#    y 0.007450 1.650350 -0.015150 
#    z -0.003540 -0.015150 1.693340 
# 
# From -- ./inp_files/267277.got.cif
#   From: 2010.06.25/outbox.cif.g09.slc.cpg/sg2_134_cif.got.tgz:267277.got - 2010.06.27 13:26:56.
