data_PCOD8038844
_publ_section_title
;
Structure prediction by ZEFSAII (Michael W. Deem and Ramdas Pophale) SiO2 
 PCOD8038844
Probable space group: P -1
;
_chemical_formula_sum "Si O2"
_cell_formula_units_Z 16
_cell_length_a 13.783501
_cell_length_b 16.683367
_cell_length_c 10.995008
_cell_angle_alpha 31.221241
_cell_angle_beta 132.861542
_cell_angle_gamma 135.107459
_cell_volume 905.637441
_symmetry_space_group_name_H-M "P -1"
_symmetry_group_IT_number 2
_symmetry_cell_setting 'triclinic'
loop_
_space_group_symop_operation_xyz
x,y,z
-x,-y,-z
loop_
_atom_site_type_symbol
_atom_site_label
_atom_site_fract_x
_atom_site_fract_y
_atom_site_fract_z
Si Si1 0.167620 0.913819 0.184928
Si Si2 0.130421 0.097866 0.136988
Si Si3 0.758165 0.673631 0.862240
Si Si4 0.176791 0.629681 0.730448
Si Si5 0.399465 0.119321 0.650943
Si Si6 0.185331 0.842844 0.678461
Si Si7 0.958711 0.307127 0.009368
Si Si8 0.690023 0.090351 0.926740
O O1 0.175731 0.747353 0.465941
O O2 0.283322 0.971308 0.103387
O O3 0.200062 0.060388 0.120891
O O4 0.013813 0.872557 0.051579
O O5 0.237656 0.260843 0.080286
O O6 0.100956 0.942229 0.404237
O O7 0.644030 0.722690 0.622968
O O8 0.915143 0.764221 0.822653
O O9 0.722339 0.476510 0.082177
O O10 0.234253 0.728953 0.774439
O O11 0.018285 0.504230 0.782964
O O12 0.566020 0.168324 0.713898
O O13 0.324888 0.967058 0.696265
O O14 0.353427 0.067184 0.817714
O O15 0.082762 0.731444 0.836028
O O16 0.828217 0.232206 0.906154
#
# Coordination Sequence:
#
# PCOD8038844 Si02
#       8
#     2   2   2   2   2   2   2   2
#     4  10  18  31  49  72 106 133 157 203 254 291
#     4   9  18  29  47  76 100 124 166 209 239 287
#     4   9  18  32  51  75  97 129 165 212 240 283
#     4   9  19  31  49  76 101 131 163 204 247 297
#     4   9  20  34  53  75 100 126 170 210 240 291
#     4   9  17  32  51  75 100 127 168 209 244 289
#     4   9  18  29  55  75  97 129 164 206 253 283
#     4  10  19  33  52  77  99 133 163 203 253 293
#
# _framework density 17.667114000000002
#
# number of rings (size 3 to 8) (size 9 to 14) (size 15 to 20)
#    0.750    2.000    1.250    0.375    1.750    3.500 
#    0.000    6.250    0.000   11.250    0.000    0.000 
#    0.000    0.000    0.000    0.000    0.000    0.000 
#
# Total GULP energy -198312.643745 kJ/mol
# GULP energy per Si atom -12394.540234 kJ/mol
# Density = 1.762690 g / cm^3
# Si number density = 17.667114 Si / 1000 Ang^3
#
#
#
# Elastic Constant Matrix: (Units=GPa)
#
#
# Indices 1 2 3 4 5 6 
#
# 1 105.4113 36.2511 57.0400 7.5732 -3.2040 -19.6037
# 2 36.2511 39.1417 36.6604 3.4560 5.4596 -13.7315
# 3 57.0400 36.6604 115.7718 10.5378 16.1472 -16.1149
# 4 7.5732 3.4560 10.5378 27.1288 -2.8860 6.7760
# 5 -3.2040 5.4596 16.1472 -2.8860 27.1586 5.5874
# 6 -19.6037 -13.7315 -16.1149 6.7760 5.5874 28.5395
#
#
#
# Elastic Compliance Matrix: (Units=1/GPa)
#
#
# Indices 1 2 3 4 5 6 
#
# 1 0.016741 -0.010400 -0.005462 -0.001102 0.006711 0.002359
# 2 -0.010400 0.048677 -0.005685 -0.006578 -0.011817 0.016942
# 3 -0.005462 -0.005685 0.016223 -0.006869 -0.011214 0.006499
# 4 -0.001102 -0.006578 -0.006869 0.047768 0.014890 -0.022057
# 5 0.006711 -0.011817 -0.011214 0.014890 0.052608 -0.021243
# 6 0.002359 0.016942 0.006499 -0.022057 -0.021243 0.057877
#
#
# Mechanical properties :
#
#
# Convention : Reuss Voigt Hill
#
# Bulk Modulus (GPa) = 25.94220 57.80309 41.87265
# Shear Modulus (GPa) = 16.90121 25.25694 21.07908
#
# Velocity S-wave (km/s) = 3.09633 3.78511 3.45791
# Velocity P-wave (km/s) = 5.24393 7.20359 6.30041
#
# Compressibility (1/GPa) = 0.03854723
#
# Stress axis : x y z
#
# Youngs Moduli (GPa) = 59.73503 20.54348 61.64051
#
# Poissons Ratio (x) = 0.21364 0.33669
# Poissons Ratio (y) = 0.62122 0.35044
# Poissons Ratio (z) = 0.32628 0.11679
#
# Static dielectric constant tensor:
#      x y z
#    x 3.255360 -0.271940 -0.030900 
#    y -0.271940 3.107140 0.121140 
#    z -0.030900 0.121140 3.243470 
# 
# 
# High freq. dielectric constant tensor:
#      x y z
#    x 1.675390 -0.024490 -0.001290 
#    y -0.024490 1.661970 0.012320 
#    z -0.001290 0.012320 1.682200 
# 
# From -- ./inp_files/396429.got.cif
#   From: 2010.06.25/outbox.cif.g09.slc.cpg/sg2_199_cif.got.tgz:396429.got - 2010.06.27 13:26:56.
