data_PCOD8038464
_publ_section_title
;
Structure prediction by ZEFSAII (Michael W. Deem and Ramdas Pophale) SiO2 
 PCOD8038464
Probable space group: P -1
;
_chemical_formula_sum "Si O2"
_cell_formula_units_Z 16
_cell_length_a 13.717081
_cell_length_b 9.691775
_cell_length_c 15.599671
_cell_angle_alpha 45.570753
_cell_angle_beta 28.721466
_cell_angle_gamma 39.933537
_cell_volume 637.154153
_symmetry_space_group_name_H-M "P -1"
_symmetry_group_IT_number 2
_symmetry_cell_setting 'triclinic'
loop_
_space_group_symop_operation_xyz
x,y,z
-x,-y,-z
loop_
_atom_site_type_symbol
_atom_site_label
_atom_site_fract_x
_atom_site_fract_y
_atom_site_fract_z
Si Si1 0.008913 0.711183 0.333653
Si Si2 0.490384 0.608639 0.173689
Si Si3 0.918435 0.415710 0.412841
Si Si4 0.698359 0.934341 0.632515
Si Si5 0.241820 0.978522 0.078610
Si Si6 0.267438 0.385923 0.849374
Si Si7 0.201031 0.688387 0.626984
Si Si8 0.531802 0.638267 0.842015
O O1 0.912343 0.641460 0.353754
O O2 0.817230 0.868789 0.476494
O O3 0.191164 0.490543 0.336629
O O4 0.149133 0.851322 0.139051
O O5 0.255753 0.650782 0.378153
O O6 0.676459 0.575772 0.114429
O O7 0.593216 0.381469 0.139054
O O8 0.437754 0.808419 0.063102
O O9 0.860239 0.434160 0.348951
O O10 0.160396 0.213482 0.332906
O O11 0.480179 0.877952 0.811563
O O12 0.653673 0.183646 0.574596
O O13 0.034855 0.138051 0.227626
O O14 0.352969 0.126050 0.883052
O O15 0.351273 0.507305 0.660681
O O16 0.000000 0.500000 0.000000
O O17 0.500000 0.500000 0.000000
#
# Coordination Sequence:
#
# PCOD8038464 Si02
#       8
#     2   2   2   2   2   2   2   2
#     4   9  17  35  60  86 113 152 189 244 294 340
#     4  11  20  37  63  86 110 156 201 242 289 349
#     4  11  18  33  63  91 113 147 206 238 286 345
#     4  10  17  36  60  85 119 153 193 238 292 349
#     4   9  19  38  63  85 111 156 198 235 297 347
#     4  10  23  40  54  80 126 156 189 242 302 345
#     4  10  21  35  58  88 118 159 188 239 287 345
#     4  10  19  32  56  93 120 143 191 253 296 334
#
# _framework density 25.111661000000002
#
# number of rings (size 3 to 8) (size 9 to 14) (size 15 to 20)
#    0.000    2.000    5.000    1.500    0.000    4.500 
#    4.500    1.250    0.000    0.000    0.000    0.000 
#    0.000    0.000    0.000    0.000    0.000    0.000 
#
# Total GULP energy -198249.951866 kJ/mol
# GULP energy per Si atom -12390.621992 kJ/mol
# Density = 2.505451 g / cm^3
# Si number density = 25.111661 Si / 1000 Ang^3
#
#
#
# Elastic Constant Matrix: (Units=GPa)
#
#
# Indices 1 2 3 4 5 6 
#
# 1 198.2066 109.3945 43.1531 -45.4054 -12.3147 33.5164
# 2 109.3945 89.0004 25.8681 -20.0112 -0.9219 24.6805
# 3 43.1531 25.8681 123.5747 -46.4895 -12.7988 5.1285
# 4 -45.4054 -20.0112 -46.4895 35.1769 4.6237 -4.2172
# 5 -12.3147 -0.9219 -12.7988 4.6237 30.4764 -7.4092
# 6 33.5164 24.6805 5.1285 -4.2172 -7.4092 46.6631
#
#
#
# Elastic Compliance Matrix: (Units=1/GPa)
#
#
# Indices 1 2 3 4 5 6 
#
# 1 0.023841 -0.025519 0.007072 0.024453 0.007893 -0.000941
# 2 -0.025519 0.042472 -0.007773 -0.018393 -0.011132 -0.006710
# 3 0.007072 -0.007773 0.018616 0.028556 0.006244 0.000558
# 4 0.024453 -0.018393 0.028556 0.086009 0.007791 -0.001964
# 5 0.007893 -0.011132 0.006244 0.007791 0.038655 0.006374
# 6 -0.000941 -0.006710 0.000558 -0.001964 0.006374 0.026428
#
#
# Mechanical properties :
#
#
# Convention : Reuss Voigt Hill
#
# Bulk Modulus (GPa) = 30.77900 85.29032 58.03466
# Shear Modulus (GPa) = 16.70613 37.95434 27.33023
#
# Velocity S-wave (km/s) = 2.58209 3.89192 3.30259
# Velocity P-wave (km/s) = 4.60142 7.36439 6.14033
#
# Compressibility (1/GPa) = 0.03248969
#
# Stress axis : x y z
#
# Youngs Moduli (GPa) = 41.94379 23.54490 53.71636
#
# Poissons Ratio (x) = 0.60085 -0.37991
# Poissons Ratio (y) = 1.07038 0.41754
# Poissons Ratio (z) = -0.29664 0.18302
#
# Static dielectric constant tensor:
#      x y z
#    x 4.856000 0.562460 -0.247120 
#    y 0.562460 5.884430 0.696510 
#    z -0.247120 0.696510 7.610860 
# 
# 
# High freq. dielectric constant tensor:
#      x y z
#    x 1.966620 0.047880 -0.015870 
#    y 0.047880 2.010360 0.012710 
#    z -0.015870 0.012710 2.050320 
# 
# From -- ./inp_files/508055.got.cif
#   From: 2010.06.25/outbox.cif.g09.slc.cpg/sg2_255_cif.got.tgz:508055.got - 2010.06.27 13:26:56.
