data_PCOD8038920
_publ_section_title
;
Structure prediction by ZEFSAII (Michael W. Deem and Ramdas Pophale) SiO2 
 PCOD8038920
Probable space group: P -1
;
_chemical_formula_sum "Si O2"
_cell_formula_units_Z 14
_cell_length_a 11.816887
_cell_length_b 19.397481
_cell_length_c 9.457636
_cell_angle_alpha 133.847713
_cell_angle_beta 143.657456
_cell_angle_gamma 29.921173
_cell_volume 640.711451
_symmetry_space_group_name_H-M "P -1"
_symmetry_group_IT_number 2
_symmetry_cell_setting 'triclinic'
loop_
_space_group_symop_operation_xyz
x,y,z
-x,-y,-z
loop_
_atom_site_type_symbol
_atom_site_label
_atom_site_fract_x
_atom_site_fract_y
_atom_site_fract_z
Si Si1 0.412058 0.653117 0.771484
Si Si2 0.124311 0.756464 0.086489
Si Si3 0.803257 0.707868 0.553715
Si Si4 0.285349 0.432061 0.532692
Si Si5 0.221531 0.857746 0.101203
Si Si6 0.733486 0.648973 0.890079
Si Si7 0.889861 0.327240 0.758818
O O1 0.510021 0.717068 0.886118
O O2 0.659870 0.487219 0.810457
O O3 0.184340 0.688025 0.490419
O O4 0.283554 0.735131 0.906599
O O5 0.901463 0.772767 0.805444
O O6 0.452102 0.612908 0.190415
O O7 0.101225 0.870617 0.153602
O O8 0.063605 0.771449 0.215234
O O9 0.817961 0.626605 0.579180
O O10 0.496633 0.823064 0.344190
O O11 0.025706 0.597884 0.500789
O O12 0.384469 0.368786 0.385932
O O13 0.000000 0.000000 0.000000
O O14 0.000000 0.500000 0.000000
O O15 0.812257 0.728862 0.042659
#
# Coordination Sequence:
#
# PCOD8038920 Si02
#       7
#     2   2   2   2   2   2   2
#     4  10  22  37  59  90 129 157 192 251 309 372
#     4  11  22  36  65  91 126 156 200 259 306 372
#     4  10  21  35  60  88 124 158 201 249 307 360
#     4  10  19  32  55  99 128 151 186 250 321 372
#     4  11  27  45  60  84 122 174 217 248 292 357
#     4  10  18  31  54  86 132 154 182 236 313 378
#     4  10  20  35  62 100 120 150 193 251 329 365
#
# _framework density 21.850708999999998
#
# number of rings (size 3 to 8) (size 9 to 14) (size 15 to 20)
#    0.000    1.714    2.857    2.143    6.000    1.714 
#    0.000    0.714    0.000    1.714    0.000    0.000 
#    0.000    0.000    0.000    0.000    0.000    0.000 
#
# Total GULP energy -173453.963102 kJ/mol
# GULP energy per Si atom -12389.568793 kJ/mol
# Density = 2.180098 g / cm^3
# Si number density = 21.850709 Si / 1000 Ang^3
#
#
#
# Elastic Constant Matrix: (Units=GPa)
#
#
# Indices 1 2 3 4 5 6 
#
# 1 94.0773 7.7599 23.3474 -9.1961 -2.6454 18.4629
# 2 7.7599 40.4441 25.6793 -19.1344 1.0100 11.3004
# 3 23.3474 25.6793 132.2770 -18.7519 14.4895 4.2183
# 4 -9.1961 -19.1344 -18.7519 27.1844 -2.6235 -6.8019
# 5 -2.6454 1.0100 14.4895 -2.6235 34.4428 -2.1486
# 6 18.4629 11.3004 4.2183 -6.8019 -2.1486 17.2115
#
#
#
# Elastic Compliance Matrix: (Units=1/GPa)
#
#
# Indices 1 2 3 4 5 6 
#
# 1 0.014502 0.004716 -0.002759 0.002201 0.001246 -0.016951
# 2 0.004716 0.045272 -0.005687 0.023757 0.001753 -0.023781
# 3 -0.002759 -0.005687 0.009774 0.002681 -0.003647 0.004902
# 4 0.002201 0.023757 0.002681 0.057515 0.003006 0.004489
# 5 0.001246 0.001753 -0.003647 0.003006 0.031058 0.003470
# 6 -0.016951 -0.023781 0.004902 0.004489 0.003470 0.092904
#
#
# Mechanical properties :
#
#
# Convention : Reuss Voigt Hill
#
# Bulk Modulus (GPa) = 16.10626 42.26352 29.18489
# Shear Modulus (GPa) = 17.90952 29.76853 23.83902
#
# Velocity S-wave (km/s) = 2.86603 3.69502 3.30661
# Velocity P-wave (km/s) = 4.28243 6.13092 5.28807
#
# Compressibility (1/GPa) = 0.06208767
#
# Stress axis : x y z
#
# Youngs Moduli (GPa) = 68.95499 22.08870 102.31152
#
# Poissons Ratio (x) = -0.10417 0.28229
# Poissons Ratio (y) = -0.32518 0.58184
# Poissons Ratio (z) = 0.19026 0.12562
#
# Static dielectric constant tensor:
#      x y z
#    x 4.726500 0.046600 0.372260 
#    y 0.046600 3.119060 -0.239550 
#    z 0.372260 -0.239550 3.950090 
# 
# 
# High freq. dielectric constant tensor:
#      x y z
#    x 1.885060 0.005130 0.006670 
#    y 0.005130 1.767020 -0.019450 
#    z 0.006670 -0.019450 1.876210 
# 
# From -- ./inp_files/184727.got.cif
#   From: 2010.06.25/outbox.cif.g09.slc.cpg/sg2_93_cif.got.tgz:184727.got - 2010.06.27 13:26:56.
