data_PCOD8038985
_publ_section_title
;
Structure prediction by ZEFSAII (Michael W. Deem and Ramdas Pophale) SiO2 
 PCOD8038985
Probable space group: P -1
;
_chemical_formula_sum "Si O2"
_cell_formula_units_Z 14
_cell_length_a 27.101728
_cell_length_b 15.545913
_cell_length_c 15.679185
_cell_angle_alpha 18.367763
_cell_angle_beta 16.207723
_cell_angle_gamma 20.554302
_cell_volume 557.053187
_symmetry_space_group_name_H-M "P -1"
_symmetry_group_IT_number 2
_symmetry_cell_setting 'triclinic'
loop_
_space_group_symop_operation_xyz
x,y,z
-x,-y,-z
loop_
_atom_site_type_symbol
_atom_site_label
_atom_site_fract_x
_atom_site_fract_y
_atom_site_fract_z
Si Si1 0.752255 0.571596 0.770526
Si Si2 0.287024 0.667684 0.178226
Si Si3 0.703572 0.983930 0.017091
Si Si4 0.851357 0.743701 0.618735
Si Si5 0.354577 0.551932 0.451442
Si Si6 0.695398 0.375835 0.336685
Si Si7 0.290096 0.124075 0.613249
O O1 0.728899 0.728681 0.752828
O O2 0.766832 0.811479 0.451832
O O3 0.936139 0.304366 0.716068
O O4 0.576826 0.446886 0.164904
O O5 0.185409 0.886229 0.217742
O O6 0.245809 0.850784 0.985848
O O7 0.500000 0.500000 0.000000
O O8 0.193513 0.411790 0.558755
O O9 0.749353 0.646599 0.240896
O O10 0.507686 0.073673 0.304039
O O11 0.717173 0.130767 0.765637
O O12 0.764288 0.038877 0.531763
O O13 0.844633 0.499136 0.926887
O O14 0.311101 0.541893 0.631528
O O15 0.500000 0.500000 0.500000
#
# Coordination Sequence:
#
# PCOD8038985 Si02
#       7
#     2   2   2   2   2   2   2
#     4  10  24  41  62  93 122 165 206 249 304 356
#     4  10  18  32  50  85 124 156 185 245 313 359
#     4  10  19  32  54  85 120 153 194 243 302 356
#     4  11  26  43  62  87 128 164 205 252 298 364
#     4  11  22  36  61  89 120 158 200 248 295 358
#     4  12  25  42  63  88 121 164 207 250 307 353
#     4  10  19  30  55  82 123 157 192 242 305 363
#
# _framework density 25.132249999999999
#
# number of rings (size 3 to 8) (size 9 to 14) (size 15 to 20)
#    0.000    1.429    1.429    6.429    4.000    6.857 
#    0.000    0.000    0.000    0.000    0.000   20.000 
#    0.000    0.000    0.000    0.000    0.000    0.000 
#
# Total GULP energy -173478.091421 kJ/mol
# GULP energy per Si atom -12391.292244 kJ/mol
# Density = 2.507505 g / cm^3
# Si number density = 25.132250 Si / 1000 Ang^3
#
#
#
# Elastic Constant Matrix: (Units=GPa)
#
#
# Indices 1 2 3 4 5 6 
#
# 1 105.3419 15.0114 21.5863 -3.8228 30.6949 23.0207
# 2 15.0114 61.3902 23.2131 -17.0597 0.0183 16.6593
# 3 21.5863 23.2131 77.0038 -22.5196 13.1870 1.2062
# 4 -3.8228 -17.0597 -22.5196 35.5172 0.8157 0.6316
# 5 30.6949 0.0183 13.1870 0.8157 32.9162 -6.6750
# 6 23.0207 16.6593 1.2062 0.6316 -6.6750 35.2055
#
#
#
# Elastic Compliance Matrix: (Units=1/GPa)
#
#
# Indices 1 2 3 4 5 6 
#
# 1 0.019835 0.001131 -0.001089 0.002800 -0.021706 -0.017634
# 2 0.001131 0.023414 -0.004204 0.008968 -0.002087 -0.012232
# 3 -0.001089 -0.004204 0.018510 0.009738 -0.006505 0.000659
# 4 0.002800 0.008968 0.009738 0.039310 -0.009291 -0.008875
# 5 -0.021706 -0.002087 -0.006505 -0.009291 0.058880 0.026734
# 6 -0.017634 -0.012232 0.000659 -0.008875 0.026734 0.050929
#
#
# Mechanical properties :
#
#
# Convention : Reuss Voigt Hill
#
# Bulk Modulus (GPa) = 18.71378 40.37303 29.54340
# Shear Modulus (GPa) = 21.09586 32.98946 27.04266
#
# Velocity S-wave (km/s) = 2.90037 3.62696 3.28382
# Velocity P-wave (km/s) = 4.32186 5.79990 5.11456
#
# Compressibility (1/GPa) = 0.05343656
#
# Stress axis : x y z
#
# Youngs Moduli (GPa) = 50.41686 42.70884 54.02349
#
# Poissons Ratio (x) = -0.04832 0.05884
# Poissons Ratio (y) = -0.05705 0.22710
# Poissons Ratio (z) = 0.05491 0.17954
#
# Static dielectric constant tensor:
#      x y z
#    x 4.800280 0.251160 -0.066380 
#    y 0.251160 4.335920 -0.386610 
#    z -0.066380 -0.386610 4.601610 
# 
# 
# High freq. dielectric constant tensor:
#      x y z
#    x 2.016690 0.019430 0.009540 
#    y 0.019430 1.979690 -0.028850 
#    z 0.009540 -0.028850 1.984140 
# 
# From -- ./inp_files/544223.got.cif
#   From: 2010.06.25/outbox.cif.g09.slc.cpg/sg2_273_cif.got.tgz:544223.got - 2010.06.27 13:26:56.
