data_PCOD8038830
_publ_section_title
;
Structure prediction by ZEFSAII (Michael W. Deem and Ramdas Pophale) SiO2 
 PCOD8038830
Probable space group: P -1
;
_chemical_formula_sum "Si O2"
_cell_formula_units_Z 14
_cell_length_a 12.942863
_cell_length_b 15.735178
_cell_length_c 13.837153
_cell_angle_alpha 56.953474
_cell_angle_beta 21.974778
_cell_angle_gamma 59.375813
_cell_volume 883.858207
_symmetry_space_group_name_H-M "P -1"
_symmetry_group_IT_number 2
_symmetry_cell_setting 'triclinic'
loop_
_space_group_symop_operation_xyz
x,y,z
-x,-y,-z
loop_
_atom_site_type_symbol
_atom_site_label
_atom_site_fract_x
_atom_site_fract_y
_atom_site_fract_z
Si Si1 0.463692 0.430285 0.294786
Si Si2 0.494819 0.408762 0.987011
Si Si3 0.871858 0.304098 0.127032
Si Si4 0.097481 0.316287 0.527296
Si Si5 0.181438 0.888559 0.815582
Si Si6 0.817480 0.882842 0.319124
Si Si7 0.420746 0.407894 0.558762
O O1 0.557724 0.539726 0.103943
O O2 0.732066 0.356235 0.120125
O O3 0.239830 0.378174 0.452205
O O4 0.332138 0.449121 0.503553
O O5 0.780572 0.347823 0.775447
O O6 0.500000 0.500000 0.000000
O O7 0.248815 0.335732 0.280937
O O8 0.893495 0.183470 0.164954
O O9 0.682543 0.330345 0.368401
O O10 0.172458 0.347711 0.859958
O O11 0.110502 0.196228 0.610012
O O12 0.499797 0.873925 0.573293
O O13 0.113120 0.004446 0.773132
O O14 0.997963 0.855158 0.086117
O O15 0.500000 0.500000 0.500000
#
# Coordination Sequence:
#
# PCOD8038830 Si02
#       7
#     2   2   2   2   2   2   2
#     4   9  20  28  48  62  93 125 150 183 222 268
#     4  10  21  28  42  65  91 125 161 179 210 269
#     4  10  19  30  50  62  96 118 152 184 231 279
#     4  11  19  30  43  66  95 125 158 179 215 256
#     4  10  18  31  44  68  87 128 156 182 231 265
#     4  10  19  28  46  64  95 120 162 190 209 268
#     4  10  21  32  48  68  90 119 152 195 237 273
#
# _framework density 15.839646
#
# number of rings (size 3 to 8) (size 9 to 14) (size 15 to 20)
#    0.857    1.143    1.429    4.714    8.000    0.000 
#    0.000    0.000    0.000    0.000    0.000    0.000 
#    0.000    6.857    0.000    0.000    0.000    0.000 
#
# Total GULP energy -173506.112386 kJ/mol
# GULP energy per Si atom -12393.293742 kJ/mol
# Density = 1.580359 g / cm^3
# Si number density = 15.839646 Si / 1000 Ang^3
#
#
#
# Elastic Constant Matrix: (Units=GPa)
#
#
# Indices 1 2 3 4 5 6 
#
# 1 23.3160 18.2877 5.3032 -0.9425 2.0055 5.3882
# 2 18.2877 105.5296 33.3261 -0.5933 0.3859 2.7126
# 3 5.3032 33.3261 109.5173 8.3792 -4.7618 0.9566
# 4 -0.9425 -0.5933 8.3792 28.9510 -2.1225 1.2142
# 5 2.0055 0.3859 -4.7618 -2.1225 15.9347 -4.8554
# 6 5.3882 2.7126 0.9566 1.2142 -4.8554 32.2355
#
#
#
# Elastic Compliance Matrix: (Units=1/GPa)
#
#
# Indices 1 2 3 4 5 6 
#
# 1 0.052906 -0.008783 -0.000312 0.001354 -0.009266 -0.009542
# 2 -0.008783 0.012033 -0.003305 0.000903 0.000110 0.000536
# 3 -0.000312 -0.003305 0.010503 -0.002919 0.003048 0.000588
# 4 0.001354 0.000903 -0.002919 0.035740 0.003375 -0.001053
# 5 -0.009266 0.000110 0.003048 0.003375 0.068843 0.011691
# 6 -0.009542 0.000536 0.000588 -0.001053 0.011691 0.034355
#
#
# Mechanical properties :
#
#
# Convention : Reuss Voigt Hill
#
# Bulk Modulus (GPa) = 19.74726 39.13300 29.44013
# Shear Modulus (GPa) = 19.52673 27.52061 23.52367
#
# Velocity S-wave (km/s) = 3.51490 4.17280 3.85790
# Velocity P-wave (km/s) = 5.38208 6.92645 6.20252
#
# Compressibility (1/GPa) = 0.05063995
#
# Stress axis : x y z
#
# Youngs Moduli (GPa) = 18.90161 83.10667 95.21445
#
# Poissons Ratio (x) = 0.72991 0.02974
# Poissons Ratio (y) = 0.16601 0.31471
# Poissons Ratio (z) = 0.00590 0.27469
#
# Static dielectric constant tensor:
#      x y z
#    x 2.648290 -0.205970 0.174220 
#    y -0.205970 3.134110 -0.116930 
#    z 0.174220 -0.116930 3.411960 
# 
# 
# High freq. dielectric constant tensor:
#      x y z
#    x 1.547590 -0.011220 0.000270 
#    y -0.011220 1.602610 0.004110 
#    z 0.000270 0.004110 1.633200 
# 
# From -- ./inp_files/96645.got.cif
#   From: 2010.06.25/outbox.cif.g09.slc.cpg/sg2_49_cif.got.tgz:96645.got - 2010.06.27 13:26:56.
