data_PCOD8038905
_publ_section_title
;
Structure prediction by ZEFSAII (Michael W. Deem and Ramdas Pophale) SiO2 
 PCOD8038905
Probable space group: P -1
;
_chemical_formula_sum "Si O2"
_cell_formula_units_Z 16
_cell_length_a 18.046910
_cell_length_b 11.434925
_cell_length_c 8.727743
_cell_angle_alpha 119.773570
_cell_angle_beta 148.981770
_cell_angle_gamma 57.142811
_cell_volume 777.568857
_symmetry_space_group_name_H-M "P -1"
_symmetry_group_IT_number 2
_symmetry_cell_setting 'triclinic'
loop_
_space_group_symop_operation_xyz
x,y,z
-x,-y,-z
loop_
_atom_site_type_symbol
_atom_site_label
_atom_site_fract_x
_atom_site_fract_y
_atom_site_fract_z
Si Si1 0.018267 0.493402 0.781164
Si Si2 0.397304 0.079191 0.237147
Si Si3 0.579815 0.670517 0.381295
Si Si4 0.471574 0.817529 0.739563
Si Si5 0.216158 0.401273 0.800182
Si Si6 0.171780 0.603390 0.383112
Si Si7 0.342349 0.837760 0.844890
Si Si8 0.611490 0.392158 0.734053
O O1 0.884903 0.605869 0.531360
O O2 0.957798 0.391644 0.720361
O O3 0.125622 0.387914 0.785071
O O4 0.109429 0.586959 0.092854
O O5 0.336957 0.237483 0.300143
O O6 0.490512 0.071716 0.238396
O O7 0.500000 0.000000 0.500000
O O8 0.281489 0.985561 0.927525
O O9 0.696253 0.533969 0.435634
O O10 0.458400 0.620885 0.233165
O O11 0.497559 0.753701 0.143347
O O12 0.379162 0.880436 0.766351
O O13 0.358433 0.750909 0.399368
O O14 0.627361 0.712516 0.000647
O O15 0.239967 0.558137 0.943307
O O16 0.223302 0.746066 0.575632
O O17 0.500000 0.500000 0.500000
#
# Coordination Sequence:
#
# PCOD8038905 Si02
#       8
#     2   2   2   2   2   2   2   2
#     4  10  21  31  47  72 106 139 173 211 242 289
#     4   9  20  34  50  77 108 133 157 199 263 320
#     4  10  19  33  53  77 106 134 164 206 261 312
#     4  10  18  31  54  76 102 131 164 208 258 309
#     4  10  18  32  49  74 104 138 171 203 252 299
#     4  11  20  33  51  76 105 135 171 211 250 289
#     4  11  20  32  53  81 105 128 166 213 259 304
#     4   9  16  28  49  75 100 128 162 205 253 302
#
# _framework density 20.576955999999999
#
# number of rings (size 3 to 8) (size 9 to 14) (size 15 to 20)
#    0.000    2.000    0.000    6.750    0.000    0.000 
#    0.000    0.000    0.000    7.500    0.000    3.500 
#    0.000    0.000    0.000    0.000    0.000    0.000 
#
# Total GULP energy -198211.823144 kJ/mol
# GULP energy per Si atom -12388.238947 kJ/mol
# Density = 2.053012 g / cm^3
# Si number density = 20.576956 Si / 1000 Ang^3
#
#
#
# Elastic Constant Matrix: (Units=GPa)
#
#
# Indices 1 2 3 4 5 6 
#
# 1 75.6395 8.2601 12.9508 9.9936 -7.4338 12.8327
# 2 8.2601 46.8900 18.2444 28.7138 1.3034 11.2608
# 3 12.9508 18.2444 95.7026 23.3223 -7.5161 6.9478
# 4 9.9936 28.7138 23.3223 38.6380 3.7929 -2.6363
# 5 -7.4338 1.3034 -7.5161 3.7929 22.2481 -6.4658
# 6 12.8327 11.2608 6.9478 -2.6363 -6.4658 25.1283
#
#
#
# Elastic Compliance Matrix: (Units=1/GPa)
#
#
# Indices 1 2 3 4 5 6 
#
# 1 0.015977 0.005133 0.000118 -0.009087 0.003567 -0.010528
# 2 0.005133 0.056362 0.002162 -0.046567 -0.002825 -0.034089
# 3 0.000118 0.002162 0.013276 -0.010437 0.004856 -0.004545
# 4 -0.009087 -0.046567 -0.010437 0.072085 -0.006132 0.034379
# 5 0.003567 -0.002825 0.004856 -0.006132 0.052152 0.010877
# 6 -0.010528 -0.034089 -0.004545 0.034379 0.010877 0.068111
#
#
# Mechanical properties :
#
#
# Convention : Reuss Voigt Hill
#
# Bulk Modulus (GPa) = 9.95606 33.01587 21.48597
# Shear Modulus (GPa) = 16.85671 29.12133 22.98902
#
# Velocity S-wave (km/s) = 2.86528 3.76605 3.34611
# Velocity P-wave (km/s) = 3.97434 5.91530 5.03915
#
# Compressibility (1/GPa) = 0.10044135
#
# Stress axis : x y z
#
# Youngs Moduli (GPa) = 62.58959 17.74246 75.32481
#
# Poissons Ratio (x) = -0.09108 -0.00891
# Poissons Ratio (y) = -0.32128 -0.16283
# Poissons Ratio (z) = -0.00740 -0.03835
#
# Static dielectric constant tensor:
#      x y z
#    x 3.826080 0.194600 -0.200590 
#    y 0.194600 3.768580 0.559340 
#    z -0.200590 0.559340 4.031210 
# 
# 
# High freq. dielectric constant tensor:
#      x y z
#    x 1.813950 0.022670 -0.027620 
#    y 0.022670 1.768680 0.027900 
#    z -0.027620 0.027900 1.802360 
# 
# From -- ./inp_files/256511.got.cif
#   From: 2010.06.25/outbox.cif.g09.slc.cpg/sg2_129_cif.got.tgz:256511.got - 2010.06.27 13:26:56.
