data_PCOD8038910
_publ_section_title
;
Structure prediction by ZEFSAII (Michael W. Deem and Ramdas Pophale) SiO2 
 PCOD8038910
Probable space group: P -1
;
_chemical_formula_sum "Si O2"
_cell_formula_units_Z 12
_cell_length_a 15.735361
_cell_length_b 7.435978
_cell_length_c 11.157795
_cell_angle_alpha 100.394450
_cell_angle_beta 136.500897
_cell_angle_gamma 49.431484
_cell_volume 566.874095
_symmetry_space_group_name_H-M "P -1"
_symmetry_group_IT_number 2
_symmetry_cell_setting 'triclinic'
loop_
_space_group_symop_operation_xyz
x,y,z
-x,-y,-z
loop_
_atom_site_type_symbol
_atom_site_label
_atom_site_fract_x
_atom_site_fract_y
_atom_site_fract_z
Si Si1 0.316478 0.611541 0.681778
Si Si2 0.739101 0.571201 0.176109
Si Si3 0.363737 0.744793 0.213962
Si Si4 0.658432 0.992945 0.287569
Si Si5 0.329614 0.867581 0.444966
Si Si6 0.995253 0.979555 0.758664
O O1 0.322611 0.523277 0.809397
O O2 0.505660 0.325250 0.768580
O O3 0.308496 0.840820 0.708187
O O4 0.122833 0.770133 0.432140
O O5 0.792650 0.693337 0.320159
O O6 0.918673 0.301415 0.249116
O O7 0.562817 0.813579 0.936159
O O8 0.338573 0.918066 0.320154
O O9 0.467499 0.450893 0.343182
O O10 0.156103 0.926628 0.972559
O O11 0.704113 0.929134 0.470190
O O12 0.156312 0.916188 0.283841
#
# Coordination Sequence:
#
# PCOD8038910 Si02
#       6
#     2   2   2   2   2   2
#     4  10  21  34  55  81 105 141 168 216 266 305
#     4  11  19  35  54  81 109 133 179 211 261 318
#     4   9  17  33  53  76 107 135 178 213 254 314
#     4   9  20  34  55  77 105 144 170 213 263 304
#     4   9  18  32  52  79 103 139 176 213 258 305
#     4  10  18  31  54  82 103 139 171 217 263 304
#
# _framework density 21.168721999999999
#
# number of rings (size 3 to 8) (size 9 to 14) (size 15 to 20)
#    0.000    2.667    3.333    1.500    0.000    2.667 
#    0.000    0.833    0.000    1.000    0.000    0.000 
#    0.000    0.000    0.000    0.000    0.000    0.000 
#
# Total GULP energy -148679.330045 kJ/mol
# GULP energy per Si atom -12389.944170 kJ/mol
# Density = 2.112054 g / cm^3
# Si number density = 21.168722 Si / 1000 Ang^3
#
#
#
# Elastic Constant Matrix: (Units=GPa)
#
#
# Indices 1 2 3 4 5 6 
#
# 1 42.0576 30.9592 -0.8750 4.8694 1.6448 -6.0631
# 2 30.9592 84.1947 27.6162 25.3933 -5.1586 -9.5307
# 3 -0.8750 27.6162 125.9258 8.1010 12.4490 -10.9495
# 4 4.8694 25.3933 8.1010 32.5046 -9.5573 -1.0608
# 5 1.6448 -5.1586 12.4490 -9.5573 16.5495 0.9383
# 6 -6.0631 -9.5307 -10.9495 -1.0608 0.9383 22.1161
#
#
#
# Elastic Compliance Matrix: (Units=1/GPa)
#
#
# Indices 1 2 3 4 5 6 
#
# 1 0.036736 -0.015971 0.005300 0.002464 -0.011557 0.006421
# 2 -0.015971 0.024049 -0.004695 -0.013817 0.004476 0.002808
# 3 0.005300 -0.004695 0.010898 -0.003319 -0.012399 0.005193
# 4 0.002464 -0.013817 -0.003319 0.049774 0.027011 -0.005681
# 5 -0.011557 0.004476 -0.012399 0.027011 0.088452 -0.009835
# 6 0.006421 0.002808 0.005193 -0.005681 -0.009835 0.050902
#
#
# Mechanical properties :
#
#
# Convention : Reuss Voigt Hill
#
# Bulk Modulus (GPa) = 24.41831 40.84209 32.63020
# Shear Modulus (GPa) = 16.38305 27.19923 21.79114
#
# Velocity S-wave (km/s) = 2.78497 3.58841 3.21191
# Velocity P-wave (km/s) = 4.67991 6.04189 5.40398
#
# Compressibility (1/GPa) = 0.04095287
#
# Stress axis : x y z
#
# Youngs Moduli (GPa) = 27.22117 41.58126 91.75702
#
# Poissons Ratio (x) = 0.66410 -0.48633
# Poissons Ratio (y) = 0.43475 0.43076
# Poissons Ratio (z) = -0.14428 0.19520
#
# Static dielectric constant tensor:
#      x y z
#    x 3.436170 -0.518710 -0.124810 
#    y -0.518710 3.978500 0.150480 
#    z -0.124810 0.150480 4.022470 
# 
# 
# High freq. dielectric constant tensor:
#      x y z
#    x 1.783090 -0.041510 0.002020 
#    y -0.041510 1.815470 0.006950 
#    z 0.002020 0.006950 1.847190 
# 
# From -- ./inp_files/249666.got.cif
#   From: 2010.06.25/outbox.cif.g09.slc.cpg/sg2_125_cif.got.tgz:249666.got - 2010.06.27 13:26:56.
