data_PCOD8038397
_publ_section_title
;
Structure prediction by ZEFSAII (Michael W. Deem and Ramdas Pophale) SiO2 
 PCOD8038397
Probable space group: P -1
;
_chemical_formula_sum "Si O2"
_cell_formula_units_Z 16
_cell_length_a 8.597596
_cell_length_b 11.219650
_cell_length_c 13.124755
_cell_angle_alpha 51.052622
_cell_angle_beta 49.297684
_cell_angle_gamma 80.733957
_cell_volume 676.672700
_symmetry_space_group_name_H-M "P -1"
_symmetry_group_IT_number 2
_symmetry_cell_setting 'triclinic'
loop_
_space_group_symop_operation_xyz
x,y,z
-x,-y,-z
loop_
_atom_site_type_symbol
_atom_site_label
_atom_site_fract_x
_atom_site_fract_y
_atom_site_fract_z
Si Si1 0.985320 0.786347 0.100435
Si Si2 0.078128 0.554109 0.787982
Si Si3 0.095444 0.751742 0.281762
Si Si4 0.520041 0.148608 0.179019
Si Si5 0.201957 0.803958 0.421672
Si Si6 0.564979 0.370686 0.857384
Si Si7 0.627182 0.372475 0.194464
Si Si8 0.350788 0.118312 0.919918
O O1 0.899730 0.614961 0.164223
O O2 0.866026 0.900549 0.046221
O O3 0.915821 0.735769 0.277624
O O4 0.259749 0.889022 0.917870
O O5 0.073683 0.663102 0.634659
O O6 0.292082 0.662372 0.710648
O O7 0.844840 0.511016 0.969319
O O8 0.025590 0.767519 0.420421
O O9 0.189969 0.607548 0.303594
O O10 0.316049 0.931382 0.070324
O O11 0.516334 0.197450 0.272898
O O12 0.286449 0.988621 0.337981
O O13 0.542008 0.310506 0.016620
O O14 0.420719 0.785287 0.293905
O O15 0.557020 0.551201 0.755755
O O16 0.362025 0.232310 0.952174
#
# Coordination Sequence:
#
# PCOD8038397 Si02
#       8
#     2   2   2   2   2   2   2   2
#     4  10  20  35  59  88 113 156 186 222 287 344
#     4  10  23  39  56  85 118 149 191 241 279 330
#     4  10  20  35  62  88 117 145 185 235 287 344
#     4  10  20  36  62  85 114 148 193 234 275 339
#     4  11  21  37  58  88 121 144 183 241 290 328
#     4  10  17  35  62  87 105 151 194 229 278 341
#     4  10  21  40  61  79 110 158 199 228 276 339
#     4  11  18  35  64  87 114 150 185 233 284 346
#
# _framework density 23.645108
#
# number of rings (size 3 to 8) (size 9 to 14) (size 15 to 20)
#    0.000    1.750    5.000    1.500    0.000    1.500 
#    0.000    0.625    2.750    0.000    0.000    0.000 
#    0.000    0.000    0.000    0.000    0.000    0.000 
#
# Total GULP energy -198345.172337 kJ/mol
# GULP energy per Si atom -12396.573271 kJ/mol
# Density = 2.359129 g / cm^3
# Si number density = 23.645108 Si / 1000 Ang^3
#
#
#
# Elastic Constant Matrix: (Units=GPa)
#
#
# Indices 1 2 3 4 5 6 
#
# 1 74.2567 16.4181 2.2491 15.8192 24.4803 8.0770
# 2 16.4181 91.7754 4.0968 7.7582 10.2015 11.7605
# 3 2.2491 4.0968 58.0067 10.8258 17.4147 2.5300
# 4 15.8192 7.7582 10.8258 15.5626 9.8667 11.7293
# 5 24.4803 10.2015 17.4147 9.8667 30.2890 3.9071
# 6 8.0770 11.7605 2.5300 11.7293 3.9071 41.2956
#
#
#
# Elastic Compliance Matrix: (Units=1/GPa)
#
#
# Indices 1 2 3 4 5 6 
#
# 1 0.022754 -0.001277 0.007613 -0.019263 -0.016381 0.002468
# 2 -0.001277 0.011812 0.000289 -0.001429 -0.002323 -0.002506
# 3 0.007613 0.000289 0.024655 -0.018192 -0.014951 0.003500
# 4 -0.019263 -0.001429 -0.018192 0.126370 -0.010840 -0.029578
# 5 -0.016381 -0.002323 -0.014951 -0.010840 0.058869 0.002291
# 6 0.002468 -0.002506 0.003500 -0.029578 0.002291 0.032417
#
#
# Mechanical properties :
#
#
# Convention : Reuss Voigt Hill
#
# Bulk Modulus (GPa) = 13.79877 29.95185 21.87531
# Shear Modulus (GPa) = 17.37412 30.84776 24.11094
#
# Velocity S-wave (km/s) = 2.71364 3.61586 3.19674
# Velocity P-wave (km/s) = 3.95814 5.48884 4.78509
#
# Compressibility (1/GPa) = 0.07247025
#
# Stress axis : x y z
#
# Youngs Moduli (GPa) = 43.94798 84.65976 40.55973
#
# Poissons Ratio (x) = 0.10815 -0.30879
# Poissons Ratio (y) = 0.05614 -0.01171
# Poissons Ratio (z) = -0.33459 -0.02445
#
# Static dielectric constant tensor:
#      x y z
#    x 4.441480 0.525220 0.356910 
#    y 0.525220 4.304350 0.162150 
#    z 0.356910 0.162150 3.717200 
# 
# 
# High freq. dielectric constant tensor:
#      x y z
#    x 1.943860 0.035400 0.026120 
#    y 0.035400 1.942030 0.001560 
#    z 0.026120 0.001560 1.892310 
# 
# From -- ./inp_files/208376.got.cif
#   From: 2010.06.25/outbox.cif.g09.slc.cpg/sg2_105_cif.got.tgz:208376.got - 2010.06.27 13:26:56.
