data_PCOD8038724
_publ_section_title
;
Structure prediction by ZEFSAII (Michael W. Deem and Ramdas Pophale) SiO2 
 PCOD8038724
Probable space group: P -1
;
_chemical_formula_sum "Si O2"
_cell_formula_units_Z 10
_cell_length_a 5.198200
_cell_length_b 12.199957
_cell_length_c 10.503317
_cell_angle_alpha 102.805990
_cell_angle_beta 84.563743
_cell_angle_gamma 96.024056
_cell_volume 644.185283
_symmetry_space_group_name_H-M "P -1"
_symmetry_group_IT_number 2
_symmetry_cell_setting 'triclinic'
loop_
_space_group_symop_operation_xyz
x,y,z
-x,-y,-z
loop_
_atom_site_type_symbol
_atom_site_label
_atom_site_fract_x
_atom_site_fract_y
_atom_site_fract_z
Si Si1 0.911346 0.325537 0.482213
Si Si2 0.971489 0.871207 0.429488
Si Si3 0.081367 0.522655 0.706935
Si Si4 0.543643 0.237971 0.670569
Si Si5 0.458958 0.532075 0.154106
O O1 0.081069 0.418807 0.582269
O O2 0.621312 0.306917 0.553020
O O3 0.044901 0.207340 0.462128
O O4 0.898064 0.361056 0.345273
O O5 0.714542 0.845451 0.351150
O O6 0.219606 0.838626 0.325930
O O7 0.000000 0.000000 0.500000
O O8 0.826345 0.517188 0.803638
O O9 0.331820 0.524079 0.783912
O O10 0.507556 0.331379 0.804192
O O11 0.500000 0.500000 0.000000
#
# Coordination Sequence:
#
# PCOD8038724 Si02
#       5
#     2   2   2   2   2
#     4   8  19  28  50  70 100 119 153 188 254 276
#     4  10  18  30  47  72  98 121 153 191 240 283
#     4  10  19  30  48  70 100 125 149 196 238 284
#     4   9  18  31  45  71  97 119 158 189 235 277
#     4  11  20  32  47  70  99 131 159 185 230 283
#
# _framework density 15.523482
#
# number of rings (size 3 to 8) (size 9 to 14) (size 15 to 20)
#    1.200    1.200    2.000    1.200    2.800    2.400 
#    0.000    0.000    0.000    0.000    0.000    8.400 
#    0.000    0.000    0.000    0.000    0.000    0.000 
#
# Total GULP energy -123898.128397 kJ/mol
# GULP energy per Si atom -12389.812840 kJ/mol
# Density = 1.548815 g / cm^3
# Si number density = 15.523482 Si / 1000 Ang^3
#
#
#
# Elastic Constant Matrix: (Units=GPa)
#
#
# Indices 1 2 3 4 5 6 
#
# 1 92.2848 21.4375 15.9436 11.2388 -1.2585 -4.7967
# 2 21.4375 96.6942 34.5297 12.7238 -0.2264 -3.2642
# 3 15.9436 34.5297 71.8777 9.9385 -2.1056 -4.5687
# 4 11.2388 12.7238 9.9385 17.1248 -2.2957 4.9714
# 5 -1.2585 -0.2264 -2.1056 -2.2957 17.6503 -0.4992
# 6 -4.7967 -3.2642 -4.5687 4.9714 -0.4992 20.8109
#
#
#
# Elastic Compliance Matrix: (Units=1/GPa)
#
#
# Indices 1 2 3 4 5 6 
#
# 1 0.012481 -0.001281 -0.000753 -0.008112 -0.000146 0.004445
# 2 -0.001281 0.013450 -0.005091 -0.007065 -0.001379 0.002351
# 3 -0.000753 -0.005091 0.017871 -0.007306 0.001196 0.004725
# 4 -0.008112 -0.007065 -0.007306 0.081233 0.008352 -0.023787
# 5 -0.000146 -0.001379 0.001196 0.008352 0.057840 -0.000595
# 6 0.004445 0.002351 0.004725 -0.023787 -0.000595 0.056150
#
#
# Mechanical properties :
#
#
# Convention : Reuss Voigt Hill
#
# Bulk Modulus (GPa) = 33.83983 44.96425 39.40204
# Shear Modulus (GPa) = 19.00230 23.71361 21.35796
#
# Velocity S-wave (km/s) = 3.50251 3.91269 3.71327
# Velocity P-wave (km/s) = 6.18088 7.03138 6.61980
#
# Compressibility (1/GPa) = 0.02955098
#
# Stress axis : x y z
#
# Youngs Moduli (GPa) = 80.12415 74.35075 55.95700
#
# Poissons Ratio (x) = 0.09524 0.04215
# Poissons Ratio (y) = 0.10263 0.28488
# Poissons Ratio (z) = 0.06035 0.37852
#
# Static dielectric constant tensor:
#      x y z
#    x 3.054650 -0.028380 -0.046160 
#    y -0.028380 2.866480 -0.015140 
#    z -0.046160 -0.015140 2.658000 
# 
# 
# High freq. dielectric constant tensor:
#      x y z
#    x 1.613540 -0.002740 -0.003750 
#    y -0.002740 1.580050 0.005030 
#    z -0.003750 0.005030 1.550010 
# 
# From -- ./inp_files/816.got.cif
#   From: 2010.06.25/outbox.cif.g09.slc.cpg/sg2_1_cif.got.tgz:816.got - 2010.06.27 13:26:56.
