data_PCOD8038751
_publ_section_title
;
Structure prediction by ZEFSAII (Michael W. Deem and Ramdas Pophale) SiO2 
 PCOD8038751
Probable space group: P -1
;
_chemical_formula_sum "Si O2"
_cell_formula_units_Z 16
_cell_length_a 11.859170
_cell_length_b 14.778793
_cell_length_c 11.717068
_cell_angle_alpha 84.644404
_cell_angle_beta 37.753474
_cell_angle_gamma 58.501239
_cell_volume 847.426584
_symmetry_space_group_name_H-M "P -1"
_symmetry_group_IT_number 2
_symmetry_cell_setting 'triclinic'
loop_
_space_group_symop_operation_xyz
x,y,z
-x,-y,-z
loop_
_atom_site_type_symbol
_atom_site_label
_atom_site_fract_x
_atom_site_fract_y
_atom_site_fract_z
Si Si1 0.605171 0.586473 0.497487
Si Si2 0.373671 0.686542 0.020015
Si Si3 0.864758 0.107321 0.194558
Si Si4 0.183197 0.403510 0.467648
Si Si5 0.800174 0.430623 0.142107
Si Si6 0.740171 0.471842 0.931935
Si Si7 0.785217 0.869317 0.150836
Si Si8 0.182632 0.054653 0.635805
O O1 0.424653 0.744097 0.625528
O O2 0.819724 0.521254 0.436406
O O3 0.763793 0.519998 0.258247
O O4 0.433492 0.559416 0.661404
O O5 0.383579 0.583845 0.965336
O O6 0.060861 0.830020 0.268997
O O7 0.513369 0.709792 0.818180
O O8 0.532236 0.619704 0.021519
O O9 0.816465 0.055422 0.343092
O O10 0.071238 0.115355 0.057738
O O11 0.000000 0.000000 0.000000
O O12 0.000000 0.500000 0.500000
O O13 0.038022 0.366000 0.641342
O O14 0.778183 0.488054 0.030640
O O15 0.093015 0.275938 0.939642
O O16 0.854937 0.881279 0.220357
O O17 0.467201 0.983234 0.362779
#
# Coordination Sequence:
#
# PCOD8038751 Si02
#       8
#     2   2   2   2   2   2   2   2
#     4  10  20  34  56  82 110 142 175 220 275 315
#     4  10  19  35  51  79 110 136 183 220 266 317
#     4   9  18  31  49  74 104 136 171 219 264 311
#     4  10  20  33  52  79 109 137 176 220 266 315
#     4  10  19  36  55  80 114 140 175 222 268 328
#     4  10  20  32  55  76 109 145 171 222 273 313
#     4   9  18  31  47  77 103 134 177 216 265 310
#     4  10  18  30  51  72 105 135 176 222 260 309
#
# _framework density 18.880690999999999
#
# number of rings (size 3 to 8) (size 9 to 14) (size 15 to 20)
#    0.000    2.250    2.500    1.500    1.750    2.500 
#    0.000    0.000    0.000    0.750    3.250    2.625 
#    0.000    0.000    0.000    0.000    0.000    0.000 
#
# Total GULP energy -198222.400802 kJ/mol
# GULP energy per Si atom -12388.900050 kJ/mol
# Density = 1.883772 g / cm^3
# Si number density = 18.880691 Si / 1000 Ang^3
#
#
#
# Elastic Constant Matrix: (Units=GPa)
#
#
# Indices 1 2 3 4 5 6 
#
# 1 83.0263 36.3574 44.6126 12.0572 0.3602 -16.0373
# 2 36.3574 79.6522 42.4267 5.2476 -0.5290 -10.9274
# 3 44.6126 42.4267 103.1881 4.8263 -11.4949 -9.9653
# 4 12.0572 5.2476 4.8263 29.2583 2.0972 1.0542
# 5 0.3602 -0.5290 -11.4949 2.0972 32.3471 0.6839
# 6 -16.0373 -10.9274 -9.9653 1.0542 0.6839 19.3316
#
#
#
# Elastic Compliance Matrix: (Units=1/GPa)
#
#
# Indices 1 2 3 4 5 6 
#
# 1 0.020310 -0.004054 -0.005875 -0.006949 -0.002183 0.011985
# 2 -0.004054 0.017839 -0.005336 -0.000680 -0.001601 0.004064
# 3 -0.005875 -0.005336 0.014947 0.000550 0.005262 -0.000401
# 4 -0.006949 -0.000680 0.000550 0.037499 -0.002004 -0.007840
# 5 -0.002183 -0.001601 0.005262 -0.002004 0.032935 -0.001059
# 6 0.011985 0.004064 -0.000401 -0.007840 -0.001059 0.064227
#
#
# Mechanical properties :
#
#
# Convention : Reuss Voigt Hill
#
# Bulk Modulus (GPa) = 44.31407 56.96221 50.63814
# Shear Modulus (GPa) = 22.14267 25.68539 23.91403
#
# Velocity S-wave (km/s) = 3.42829 3.69237 3.56277
# Velocity P-wave (km/s) = 6.26038 6.95796 6.61837
#
# Compressibility (1/GPa) = 0.02256620
#
# Stress axis : x y z
#
# Youngs Moduli (GPa) = 49.23712 56.05740 66.90433
#
# Poissons Ratio (x) = 0.22724 0.39305
# Poissons Ratio (y) = 0.19959 0.35701
# Poissons Ratio (z) = 0.28926 0.29913
#
# Static dielectric constant tensor:
#      x y z
#    x 3.351450 0.040500 -0.251500 
#    y 0.040500 3.631830 -0.362670 
#    z -0.251500 -0.362670 3.842450 
# 
# 
# High freq. dielectric constant tensor:
#      x y z
#    x 1.697550 -0.002030 -0.030620 
#    y -0.002030 1.724060 -0.021150 
#    z -0.030620 -0.021150 1.733390 
# 
# From -- ./inp_files/335087.got.cif
#   From: 2010.06.25/outbox.cif.g09.slc.cpg/sg2_168_cif.got.tgz:335087.got - 2010.06.27 13:26:56.
