data_PCOD8038331
_publ_section_title
;
Structure prediction by ZEFSAII (Michael W. Deem and Ramdas Pophale) SiO2 
 PCOD8038331
Probable space group: P -1
;
_chemical_formula_sum "Si O2"
_cell_formula_units_Z 14
_cell_length_a 11.793144
_cell_length_b 17.622145
_cell_length_c 21.682473
_cell_angle_alpha 16.435092
_cell_angle_beta 35.872985
_cell_angle_gamma 35.596811
_cell_volume 729.328068
_symmetry_space_group_name_H-M "P -1"
_symmetry_group_IT_number 2
_symmetry_cell_setting 'triclinic'
loop_
_space_group_symop_operation_xyz
x,y,z
-x,-y,-z
loop_
_atom_site_type_symbol
_atom_site_label
_atom_site_fract_x
_atom_site_fract_y
_atom_site_fract_z
Si Si1 0.084086 0.823505 0.659077
Si Si2 0.459428 0.843315 0.080493
Si Si3 0.866224 0.808581 0.885015
Si Si4 0.526551 0.717564 0.531779
Si Si5 0.965055 0.032491 0.797443
Si Si6 0.871735 0.439274 0.686903
Si Si7 0.185036 0.933071 0.891023
O O1 0.310592 0.842170 0.557794
O O2 0.958254 0.943511 0.681859
O O3 0.059228 0.517347 0.895856
O O4 0.000000 0.000000 0.500000
O O5 0.493727 0.511399 0.332476
O O6 0.227206 0.959100 0.079649
O O7 0.624151 0.897046 0.916524
O O8 0.500000 0.000000 0.000000
O O9 0.946410 0.897854 0.844805
O O10 0.671911 0.565593 0.639647
O O11 0.608951 0.966486 0.271357
O O12 0.997090 0.338031 0.531973
O O13 0.147021 0.860844 0.892238
O O14 0.005929 0.189682 0.785438
O O15 0.805601 0.331880 0.864776
#
# Coordination Sequence:
#
# PCOD8038331 Si02
#       7
#     2   2   2   2   2   2   2
#     4  10  22  40  57  78 103 146 193 226 261 315
#     4   9  16  30  54  79 107 140 171 214 274 323
#     4   9  21  36  57  78 107 147 180 226 272 313
#     4  10  18  35  56  75 111 142 178 225 268 318
#     4  10  17  35  55  82 117 138 171 224 276 324
#     4  10  19  32  54  84 112 143 177 213 275 325
#     4  10  19  31  54  86 110 145 175 215 267 334
#
# _framework density 19.195751999999999
#
# number of rings (size 3 to 8) (size 9 to 14) (size 15 to 20)
#    0.000    2.286    2.857    0.857    0.000    4.571 
#    0.000    2.857    0.000   12.857    0.000    0.000 
#    0.000    0.000    0.000    0.000    0.000    0.000 
#
# Total GULP energy -173439.218025 kJ/mol
# GULP energy per Si atom -12388.515573 kJ/mol
# Density = 1.915206 g / cm^3
# Si number density = 19.195752 Si / 1000 Ang^3
#
#
#
# Elastic Constant Matrix: (Units=GPa)
#
#
# Indices 1 2 3 4 5 6 
#
# 1 97.0941 44.7178 61.0965 16.9186 -7.9587 5.1328
# 2 44.7178 93.7216 40.9468 30.9632 -0.7167 -3.1126
# 3 61.0965 40.9468 110.9992 27.2468 3.6562 -3.5251
# 4 16.9186 30.9632 27.2468 29.8793 -2.3684 -1.7060
# 5 -7.9587 -0.7167 3.6562 -2.3684 33.1089 2.9651
# 6 5.1328 -3.1126 -3.5251 -1.7060 2.9651 28.2275
#
#
#
# Elastic Compliance Matrix: (Units=1/GPa)
#
#
# Indices 1 2 3 4 5 6 
#
# 1 0.019731 -0.006954 -0.010016 0.005351 0.006616 -0.005977
# 2 -0.006954 0.019204 0.001109 -0.017040 -0.002847 0.002790
# 3 -0.010016 0.001109 0.017212 -0.011378 -0.005455 0.003978
# 4 0.005351 -0.017040 -0.011378 0.058909 0.006513 -0.001397
# 5 0.006616 -0.002847 -0.005455 0.006513 0.033275 -0.005300
# 6 -0.005977 0.002790 0.003978 -0.001397 -0.005300 0.037790
#
#
# Mechanical properties :
#
#
# Convention : Reuss Voigt Hill
#
# Bulk Modulus (GPa) = 40.94312 66.14856 53.54584
# Shear Modulus (GPa) = 22.12537 28.58006 25.35272
#
# Velocity S-wave (km/s) = 3.39871 3.86278 3.63815
# Velocity P-wave (km/s) = 6.06442 7.37764 6.75303
#
# Compressibility (1/GPa) = 0.02442413
#
# Stress axis : x y z
#
# Youngs Moduli (GPa) = 50.68294 52.07231 58.09814
#
# Poissons Ratio (x) = 0.36210 0.58192
# Poissons Ratio (y) = 0.35244 -0.06440
# Poissons Ratio (z) = 0.50765 -0.05772
#
# Static dielectric constant tensor:
#      x y z
#    x 3.576100 -0.109330 -0.323520 
#    y -0.109330 3.672890 0.414290 
#    z -0.323520 0.414290 3.737400 
# 
# 
# High freq. dielectric constant tensor:
#      x y z
#    x 1.744440 -0.002880 -0.023860 
#    y -0.002880 1.729550 0.021610 
#    z -0.023860 0.021610 1.742770 
# 
# From -- ./inp_files/451694.got.cif
#   From: 2010.06.25/outbox.cif.g09.slc.cpg/sg2_226_cif.got.tgz:451694.got - 2010.06.27 13:26:56.
