data_PCOD8038708
_publ_section_title
;
Structure prediction by ZEFSAII (Michael W. Deem and Ramdas Pophale) SiO2 
 PCOD8038708
Probable space group: P -1
;
_chemical_formula_sum "Si O2"
_cell_formula_units_Z 12
_cell_length_a 9.557187
_cell_length_b 17.270015
_cell_length_c 20.216011
_cell_angle_alpha 160.070689
_cell_angle_beta 143.766929
_cell_angle_gamma 36.335165
_cell_volume 653.506837
_symmetry_space_group_name_H-M "P -1"
_symmetry_group_IT_number 2
_symmetry_cell_setting 'triclinic'
loop_
_space_group_symop_operation_xyz
x,y,z
-x,-y,-z
loop_
_atom_site_type_symbol
_atom_site_label
_atom_site_fract_x
_atom_site_fract_y
_atom_site_fract_z
Si Si1 0.805161 0.175226 0.023799
Si Si2 0.870850 0.365608 0.065797
Si Si3 0.631952 0.994144 0.339033
Si Si4 0.555584 0.397535 0.725605
Si Si5 0.914245 0.353993 0.719023
Si Si6 0.431872 0.767304 0.263568
O O1 0.940555 0.229451 0.051960
O O2 0.700466 0.408689 0.214373
O O3 0.577435 0.063384 0.831929
O O4 0.000000 0.000000 0.000000
O O5 0.669061 0.600041 0.189485
O O6 0.094260 0.454533 0.188556
O O7 0.778712 0.193588 0.840904
O O8 0.805810 0.753913 0.239122
O O9 0.507313 0.155309 0.482833
O O10 0.794934 0.141073 0.477585
O O11 0.756521 0.480471 0.823245
O O12 0.659178 0.353932 0.804519
O O13 0.500000 0.000000 0.500000
#
# Coordination Sequence:
#
# PCOD8038708 Si02
#       6
#     2   2   2   2   2   2
#     4  11  23  38  54  72 106 155 187 208 248 311
#     4  10  20  33  50  78 109 132 178 225 250 310
#     4   9  19  35  57  82 112 131 168 221 272 323
#     4   9  19  34  56  81 106 138 170 213 279 315
#     4   9  18  36  57  84 112 128 161 233 286 305
#     4  10  18  29  53  81 108 134 168 212 275 319
#
# _framework density 18.362469999999998
#
# number of rings (size 3 to 8) (size 9 to 14) (size 15 to 20)
#    1.000    1.333    0.000    5.000    0.000    3.333 
#    0.000    1.667    0.000    0.000    0.000    0.000 
#    0.000    0.000    0.000    0.000    0.000    0.000 
#
# Total GULP energy -148675.179805 kJ/mol
# GULP energy per Si atom -12389.598317 kJ/mol
# Density = 1.832068 g / cm^3
# Si number density = 18.362470 Si / 1000 Ang^3
#
#
#
# Elastic Constant Matrix: (Units=GPa)
#
#
# Indices 1 2 3 4 5 6 
#
# 1 138.5529 43.6200 30.3874 8.9216 15.7831 16.1708
# 2 43.6200 98.5319 19.3469 7.3496 4.5367 11.6567
# 3 30.3874 19.3469 70.9703 0.9592 3.0952 2.3199
# 4 8.9216 7.3496 0.9592 19.8545 -5.6068 2.1719
# 5 15.7831 4.5367 3.0952 -5.6068 33.6748 8.7347
# 6 16.1708 11.6567 2.3199 2.1719 8.7347 20.2560
#
#
#
# Elastic Compliance Matrix: (Units=1/GPa)
#
#
# Indices 1 2 3 4 5 6 
#
# 1 0.009921 -0.002858 -0.003131 -0.003829 -0.003588 -0.003959
# 2 -0.002858 0.012531 -0.002032 -0.002565 0.000628 -0.004693
# 3 -0.003131 -0.002032 0.015911 0.001216 0.000041 0.001699
# 4 -0.003829 -0.002565 0.001216 0.057661 0.013616 -0.007660
# 5 -0.003588 0.000628 0.000041 0.013616 0.037479 -0.015123
# 6 -0.003959 -0.004693 0.001699 -0.007660 -0.015123 0.062378
#
#
# Mechanical properties :
#
#
# Convention : Reuss Voigt Hill
#
# Bulk Modulus (GPa) = 44.79989 54.97372 49.88680
# Shear Modulus (GPa) = 22.79328 29.07045 25.93187
#
# Velocity S-wave (km/s) = 3.52703 3.98319 3.76203
# Velocity P-wave (km/s) = 6.40602 7.15245 6.78950
#
# Compressibility (1/GPa) = 0.02232149
#
# Stress axis : x y z
#
# Youngs Moduli (GPa) = 100.79233 79.80362 62.84889
#
# Poissons Ratio (x) = 0.22809 0.19680
# Poissons Ratio (y) = 0.28808 0.12768
# Poissons Ratio (z) = 0.31561 0.16212
#
# Static dielectric constant tensor:
#      x y z
#    x 3.629280 0.095480 -0.088880 
#    y 0.095480 2.879060 0.113150 
#    z -0.088880 0.113150 3.402710 
# 
# 
# High freq. dielectric constant tensor:
#      x y z
#    x 1.725210 0.006890 0.000150 
#    y 0.006890 1.648880 0.009030 
#    z 0.000150 0.009030 1.718170 
# 
# From -- ./inp_files/423954.got.cif
#   From: 2010.06.25/outbox.cif.g09.slc.cpg/sg2_212_cif.got.tgz:423954.got - 2010.06.27 13:26:56.
