data_PCOD8038296
_publ_section_title
;
Structure prediction by ZEFSAII (Michael W. Deem and Ramdas Pophale) SiO2 
 PCOD8038296
Probable space group: P -1
;
_chemical_formula_sum "Si O2"
_cell_formula_units_Z 16
_cell_length_a 15.292947
_cell_length_b 8.922114
_cell_length_c 9.105538
_cell_angle_alpha 80.700368
_cell_angle_beta 88.323765
_cell_angle_gamma 141.769801
_cell_volume 733.490178
_symmetry_space_group_name_H-M "P -1"
_symmetry_group_IT_number 2
_symmetry_cell_setting 'triclinic'
loop_
_space_group_symop_operation_xyz
x,y,z
-x,-y,-z
loop_
_atom_site_type_symbol
_atom_site_label
_atom_site_fract_x
_atom_site_fract_y
_atom_site_fract_z
Si Si1 0.503325 0.695023 0.360617
Si Si2 0.921379 0.673145 0.152779
Si Si3 0.616197 0.700969 0.082968
Si Si4 0.888353 0.961915 0.165434
Si Si5 0.105037 0.740040 0.355424
Si Si6 0.386358 0.840845 0.849343
Si Si7 0.740947 0.855411 0.477798
Si Si8 0.659738 0.064559 0.875746
O O1 0.529821 0.602971 0.252293
O O2 0.623422 0.827055 0.459046
O O3 0.337952 0.421218 0.462567
O O4 0.520702 0.888633 0.266337
O O5 0.934500 0.852552 0.206938
O O6 0.752648 0.386187 0.208319
O O7 0.014566 0.680225 0.234093
O O8 0.980957 0.768368 0.967549
O O9 0.746410 0.762301 0.094888
O O10 0.500000 0.500000 0.000000
O O11 0.690669 0.959168 0.986901
O O12 0.856297 0.003042 0.313827
O O13 0.220495 0.775222 0.284082
O O14 0.000000 0.500000 0.500000
O O15 0.177854 0.981335 0.403020
O O16 0.498594 0.854104 0.841636
O O17 0.330569 0.786076 0.029038
#
# Coordination Sequence:
#
# PCOD8038296 Si02
#       8
#     2   2   2   2   2   2   2   2
#     4   9  20  37  62  92 124 167 217 260 327 372
#     4  11  24  43  65  98 129 170 222 265 328 385
#     4  10  17  34  64  91 122 166 210 270 308 378
#     4  10  23  41  64  95 129 175 213 264 327 386
#     4  12  26  42  65 100 135 174 211 266 334 393
#     4  10  22  41  67  95 128 171 218 278 313 379
#     4  10  22  42  62  94 131 171 212 265 327 392
#     4  10  22  40  60  99 126 166 223 259 324 377
#
# _framework density 21.813516
#
# number of rings (size 3 to 8) (size 9 to 14) (size 15 to 20)
#    0.000    1.750    1.250    2.250    1.750    4.000 
#    4.500    1.875    0.000    0.000    0.000    0.000 
#    0.000    0.000    0.000    0.000    0.000    0.000 
#
# Total GULP energy -198316.703517 kJ/mol
# GULP energy per Si atom -12394.793970 kJ/mol
# Density = 2.176387 g / cm^3
# Si number density = 21.813516 Si / 1000 Ang^3
#
#
#
# Elastic Constant Matrix: (Units=GPa)
#
#
# Indices 1 2 3 4 5 6 
#
# 1 105.1849 27.1916 41.4588 -4.9824 -8.0499 15.3926
# 2 27.1916 83.3544 37.8045 -3.2712 2.6652 14.3896
# 3 41.4588 37.8045 97.2712 -14.6939 -9.3364 4.2112
# 4 -4.9824 -3.2712 -14.6939 33.4334 4.1927 7.5463
# 5 -8.0499 2.6652 -9.3364 4.1927 30.0115 -1.5184
# 6 15.3926 14.3896 4.2112 7.5463 -1.5184 26.1545
#
#
#
# Elastic Compliance Matrix: (Units=1/GPa)
#
#
# Indices 1 2 3 4 5 6 
#
# 1 0.012607 -0.001042 -0.004372 0.001085 0.001641 -0.006361
# 2 -0.001042 0.016588 -0.005858 0.001261 -0.004165 -0.008175
# 3 -0.004372 -0.005858 0.015362 0.004576 0.003599 0.002211
# 4 0.001085 0.001261 0.004576 0.035542 -0.003998 -0.012556
# 5 0.001641 -0.004165 0.003599 -0.003998 0.036011 0.003990
# 6 -0.006361 -0.008175 0.002211 -0.012556 0.003990 0.049974
#
#
# Mechanical properties :
#
#
# Convention : Reuss Voigt Hill
#
# Bulk Modulus (GPa) = 45.42721 55.41336 50.42028
# Shear Modulus (GPa) = 25.51485 29.87692 27.69588
#
# Velocity S-wave (km/s) = 3.42377 3.70490 3.56710
# Velocity P-wave (km/s) = 6.04153 6.61514 6.33483
#
# Compressibility (1/GPa) = 0.02201324
#
# Stress axis : x y z
#
# Youngs Moduli (GPa) = 79.31928 60.28566 65.09701
#
# Poissons Ratio (x) = 0.06280 0.28459
# Poissons Ratio (y) = 0.08263 0.38135
# Poissons Ratio (z) = 0.34677 0.35316
#
# Static dielectric constant tensor:
#      x y z
#    x 3.566140 0.145860 -0.153720 
#    y 0.145860 3.763300 -0.019420 
#    z -0.153720 -0.019420 4.143440 
# 
# 
# High freq. dielectric constant tensor:
#      x y z
#    x 1.853050 0.013010 0.001920 
#    y 0.013010 1.840110 -0.007910 
#    z 0.001920 -0.007910 1.862640 
# 
# From -- ./inp_files/279204.got.cif
#   From: 2010.06.25/outbox.cif.g09.slc.cpg/sg2_140_cif.got.tgz:279204.got - 2010.06.27 13:26:56.
