data_PCOD8038727
_publ_section_title
;
Structure prediction by ZEFSAII (Michael W. Deem and Ramdas Pophale) SiO2 
 PCOD8038727
Probable space group: P -1
;
_chemical_formula_sum "Si O2"
_cell_formula_units_Z 16
_cell_length_a 10.533230
_cell_length_b 32.997360
_cell_length_c 17.398402
_cell_angle_alpha 16.935688
_cell_angle_beta 150.020045
_cell_angle_gamma 145.540099
_cell_volume 879.875244
_symmetry_space_group_name_H-M "P -1"
_symmetry_group_IT_number 2
_symmetry_cell_setting 'triclinic'
loop_
_space_group_symop_operation_xyz
x,y,z
-x,-y,-z
loop_
_atom_site_type_symbol
_atom_site_label
_atom_site_fract_x
_atom_site_fract_y
_atom_site_fract_z
Si Si1 0.280984 0.870782 0.327223
Si Si2 0.285394 0.176371 0.837096
Si Si3 0.045397 0.776001 0.631197
Si Si4 0.208363 0.146958 0.135972
Si Si5 0.750278 0.585542 0.735989
Si Si6 0.530099 0.305893 0.121150
Si Si7 0.421366 0.848704 0.815449
Si Si8 0.742314 0.055789 0.983518
O O1 0.466039 0.768561 0.658811
O O2 0.995266 0.822434 0.277481
O O3 0.338532 0.028258 0.094521
O O4 0.344175 0.854990 0.298279
O O5 0.325765 0.299413 0.575191
O O6 0.493237 0.208097 0.954082
O O7 0.817853 0.665530 0.706355
O O8 0.932778 0.931569 0.280559
O O9 0.231379 0.754447 0.694554
O O10 0.196190 0.758407 0.822854
O O11 0.272860 0.271775 0.001842
O O12 0.334895 0.163524 0.089209
O O13 0.321313 0.006288 0.488802
O O14 0.903783 0.147094 0.962838
O O15 0.530418 0.472832 0.832704
O O16 0.000000 0.500000 0.000000
O O17 0.500000 0.000000 0.000000
#
# Coordination Sequence:
#
# PCOD8038727 Si02
#       8
#     2   2   2   2   2   2   2   2
#     4  11  18  29  50  77  99 127 171 207 241 296
#     4  11  17  28  50  80 103 126 167 204 252 301
#     4   9  17  32  49  75 103 132 158 201 258 293
#     4   9  17  30  47  74 104 129 162 204 260 292
#     4  10  18  30  47  80 110 130 154 199 263 310
#     4  10  18  32  54  79 105 129 156 206 266 300
#     4   9  16  26  50  74 101 128 155 208 257 294
#     4  11  21  33  51  74 101 134 172 211 243 288
#
# _framework density 18.184394999999999
#
# number of rings (size 3 to 8) (size 9 to 14) (size 15 to 20)
#    0.000    2.000    6.250    1.500    0.000    0.000 
#    0.000    7.500    0.000    1.500    0.000    0.000 
#    0.000    0.000    0.000    0.000    0.000    0.000 
#
# Total GULP energy -198288.985862 kJ/mol
# GULP energy per Si atom -12393.061616 kJ/mol
# Density = 1.814301 g / cm^3
# Si number density = 18.184395 Si / 1000 Ang^3
#
#
#
# Elastic Constant Matrix: (Units=GPa)
#
#
# Indices 1 2 3 4 5 6 
#
# 1 36.2648 40.1610 21.9603 5.0435 -19.5037 1.0955
# 2 40.1610 186.3105 60.4437 -0.0008 -24.8533 -19.3035
# 3 21.9603 60.4437 92.7098 -4.4428 -29.6664 -9.6451
# 4 5.0435 -0.0008 -4.4428 29.3468 -4.3112 -4.4235
# 5 -19.5037 -24.8533 -29.6664 -4.3112 19.2974 3.0559
# 6 1.0955 -19.3035 -9.6451 -4.4235 3.0559 20.0146
#
#
#
# Elastic Compliance Matrix: (Units=1/GPa)
#
#
# Indices 1 2 3 4 5 6 
#
# 1 0.088582 -0.013895 0.018784 -0.000871 0.104325 -0.025319
# 2 -0.013895 0.009625 -0.005632 0.001257 -0.011508 0.009364
# 3 0.018784 -0.005632 0.029564 0.010103 0.059285 0.000968
# 4 -0.000871 0.001257 0.010103 0.040965 0.023588 0.011581
# 5 0.104325 -0.011508 0.059285 0.023588 0.242014 -0.019977
# 6 -0.025319 0.009364 0.000968 0.011581 -0.019977 0.066457
#
#
# Mechanical properties :
#
#
# Convention : Reuss Voigt Hill
#
# Bulk Modulus (GPa) = 7.91858 62.26835 35.09347
# Shear Modulus (GPa) = 9.60084 26.57977 18.09031
#
# Velocity S-wave (km/s) = 2.30026 3.82734 3.15751
# Velocity P-wave (km/s) = 3.37920 7.33815 5.71259
#
# Compressibility (1/GPa) = 0.12628524
#
# Stress axis : x y z
#
# Youngs Moduli (GPa) = 11.28903 103.89818 33.82462
#
# Poissons Ratio (x) = 1.44369 -0.63537
# Poissons Ratio (y) = 0.15686 0.19049
# Poissons Ratio (z) = -0.21205 0.58511
#
# Static dielectric constant tensor:
#      x y z
#    x 2.776670 -0.248450 -0.197340 
#    y -0.248450 4.058960 -0.151350 
#    z -0.197340 -0.151350 3.201740 
# 
# 
# High freq. dielectric constant tensor:
#      x y z
#    x 1.643040 -0.024000 -0.018880 
#    y -0.024000 1.727850 0.004720 
#    z -0.018880 0.004720 1.679630 
# 
# From -- ./inp_files/276689.got.cif
#   From: 2010.06.25/outbox.cif.g09.slc.cpg/sg2_139_cif.got.tgz:276689.got - 2010.06.27 13:26:56.
