data_PCOD8038677
_publ_section_title
;
Structure prediction by ZEFSAII (Michael W. Deem and Ramdas Pophale) SiO2 
 PCOD8038677
Probable space group: P -1
;
_chemical_formula_sum "Si O2"
_cell_formula_units_Z 16
_cell_length_a 11.886537
_cell_length_b 6.860549
_cell_length_c 23.802135
_cell_angle_alpha 93.104803
_cell_angle_beta 30.368531
_cell_angle_gamma 98.922067
_cell_volume 957.021959
_symmetry_space_group_name_H-M "P -1"
_symmetry_group_IT_number 2
_symmetry_cell_setting 'triclinic'
loop_
_space_group_symop_operation_xyz
x,y,z
-x,-y,-z
loop_
_atom_site_type_symbol
_atom_site_label
_atom_site_fract_x
_atom_site_fract_y
_atom_site_fract_z
Si Si1 0.758708 0.925882 0.940216
Si Si2 0.369363 0.038761 0.334794
Si Si3 0.131870 0.329084 0.952792
Si Si4 0.348086 0.126191 0.140605
Si Si5 0.962664 0.712059 0.499550
Si Si6 0.845186 0.989224 0.148461
Si Si7 0.782720 0.146522 0.711842
Si Si8 0.495408 0.424691 0.887543
O O1 0.775284 0.934612 0.866244
O O2 0.011898 0.014606 0.856122
O O3 0.667986 0.698241 0.996302
O O4 0.590063 0.060490 0.038686
O O5 0.601867 0.043941 0.268578
O O6 0.288407 0.251829 0.375433
O O7 0.159029 0.874930 0.449735
O O8 0.405984 0.975404 0.253053
O O9 0.359121 0.436411 0.888986
O O10 0.195716 0.229305 0.866122
O O11 0.000000 0.500000 0.000000
O O12 0.979989 0.158145 0.052563
O O13 0.393637 0.361441 0.132422
O O14 0.177970 0.014912 0.260931
O O15 0.994678 0.747713 0.418511
O O16 0.000000 0.500000 0.500000
O O17 0.700679 0.319386 0.783353
#
# Coordination Sequence:
#
# PCOD8038677 Si02
#       8
#     2   2   2   2   2   2   2   2
#     4   9  20  34  45  71  98 141 167 192 229 273
#     4   9  19  32  49  73  99 122 153 200 254 295
#     4  10  19  26  44  71  98 132 155 191 241 284
#     4  10  19  32  51  67 101 132 172 201 222 275
#     4   9  19  33  50  73 100 119 154 201 257 303
#     4  10  19  32  45  68 105 124 161 196 236 299
#     4   9  19  30  49  76  91 123 160 198 252 283
#     4  10  18  29  48  72  99 127 164 199 232 279
#
# _framework density 16.718527999999999
#
# number of rings (size 3 to 8) (size 9 to 14) (size 15 to 20)
#    0.750    1.750    1.250    1.125    5.250    1.000 
#    0.000    0.000    0.000    0.750    0.000    1.750 
#    0.000    0.000    0.000    0.000    0.000    0.000 
#
# Total GULP energy -198279.921081 kJ/mol
# GULP energy per Si atom -12392.495068 kJ/mol
# Density = 1.668048 g / cm^3
# Si number density = 16.718528 Si / 1000 Ang^3
#
#
#
# Elastic Constant Matrix: (Units=GPa)
#
#
# Indices 1 2 3 4 5 6 
#
# 1 94.8868 28.3914 35.6054 3.7524 -2.4077 -7.2606
# 2 28.3914 87.0374 23.2056 18.0437 2.7294 -5.6537
# 3 35.6054 23.2056 64.8509 12.1725 -6.7075 -0.9414
# 4 3.7524 18.0437 12.1725 21.0004 -8.7872 1.2934
# 5 -2.4077 2.7294 -6.7075 -8.7872 25.9056 -0.4547
# 6 -7.2606 -5.6537 -0.9414 1.2934 -0.4547 18.8166
#
#
#
# Elastic Compliance Matrix: (Units=1/GPa)
#
#
# Indices 1 2 3 4 5 6 
#
# 1 0.014558 -0.003677 -0.007451 0.005350 0.001693 0.003813
# 2 -0.003677 0.017209 -0.001764 -0.016840 -0.008243 0.004622
# 3 -0.007451 -0.001764 0.022013 -0.008917 0.002140 -0.001639
# 4 0.005350 -0.016840 -0.008917 0.077764 0.026197 -0.008154
# 5 0.001693 -0.008243 0.002140 0.026197 0.049027 -0.002332
# 6 0.003813 0.004622 -0.001639 -0.008154 -0.002332 0.056427
#
#
# Mechanical properties :
#
#
# Convention : Reuss Voigt Hill
#
# Bulk Modulus (GPa) = 35.71811 46.79777 41.25794
# Shear Modulus (GPa) = 18.37476 23.78269 21.07872
#
# Velocity S-wave (km/s) = 3.31881 3.77574 3.55463
# Velocity P-wave (km/s) = 6.00806 6.86008 6.44816
#
# Compressibility (1/GPa) = 0.02799700
#
# Stress axis : x y z
#
# Youngs Moduli (GPa) = 68.69028 58.11004 45.42753
#
# Poissons Ratio (x) = 0.21366 0.33848
# Poissons Ratio (y) = 0.25256 0.08012
# Poissons Ratio (z) = 0.51181 0.10248
#
# Static dielectric constant tensor:
#      x y z
#    x 3.096680 -0.068850 0.043540 
#    y -0.068850 3.167960 0.105840 
#    z 0.043540 0.105840 2.911560 
# 
# 
# High freq. dielectric constant tensor:
#      x y z
#    x 1.621980 -0.006040 0.005410 
#    y -0.006040 1.652310 0.013270 
#    z 0.005410 0.013270 1.616120 
# 
# From -- ./inp_files/617789.got.cif
#   From: 2010.06.25/outbox.cif.g09.slc.cpg/sg2_309_cif.got.tgz:617789.got - 2010.06.27 13:26:56.
