data_PCOD8038129
_publ_section_title
;
Structure prediction by ZEFSAII (Michael W. Deem and Ramdas Pophale) SiO2 
 PCOD8038129
Probable space group: P -1
;
_chemical_formula_sum "Si O2"
_cell_formula_units_Z 12
_cell_length_a 9.644112
_cell_length_b 21.035838
_cell_length_c 11.897990
_cell_angle_alpha 160.196759
_cell_angle_beta 52.784133
_cell_angle_gamma 129.826927
_cell_volume 628.005155
_symmetry_space_group_name_H-M "P -1"
_symmetry_group_IT_number 2
_symmetry_cell_setting 'triclinic'
loop_
_space_group_symop_operation_xyz
x,y,z
-x,-y,-z
loop_
_atom_site_type_symbol
_atom_site_label
_atom_site_fract_x
_atom_site_fract_y
_atom_site_fract_z
Si Si1 0.007916 0.657818 0.103605
Si Si2 0.761464 0.275783 0.108342
Si Si3 0.446063 0.063436 0.754277
Si Si4 0.650360 0.644945 0.856206
Si Si5 0.720521 0.350684 0.850791
Si Si6 0.001330 0.066740 0.737287
O O1 0.160755 0.616171 0.039672
O O2 0.069150 0.630642 0.900975
O O3 0.980820 0.873167 0.500743
O O4 0.817955 0.499635 0.954534
O O5 0.676896 0.435953 0.468685
O O6 0.615066 0.120313 0.848879
O O7 0.833069 0.164960 0.992003
O O8 0.500000 0.000000 0.500000
O O9 0.305415 0.870230 0.551070
O O10 0.363600 0.246202 0.075247
O O11 0.471125 0.610063 0.961250
O O12 0.815379 0.773451 0.059406
O O13 0.000000 0.000000 0.500000
#
# Coordination Sequence:
#
# PCOD8038129 Si02
#       6
#     2   2   2   2   2   2
#     4  10  19  35  55  81 106 143 179 222 262 316
#     4  11  21  35  56  83 110 138 179 224 267 312
#     4  10  17  34  55  79 102 144 182 210 255 324
#     4  11  20  35  57  83 107 139 182 223 263 313
#     4  10  19  34  57  80 106 140 185 219 261 315
#     4  10  20  37  57  79 107 147 180 211 265 332
#
# _framework density 19.108122999999999
#
# number of rings (size 3 to 8) (size 9 to 14) (size 15 to 20)
#    0.000    1.667    5.000    4.000    0.000    0.000 
#    0.000   10.833    0.000    0.000    0.000    0.000 
#    0.000    0.000    0.000    0.000    0.000    0.000 
#
# Total GULP energy -148731.917703 kJ/mol
# GULP energy per Si atom -12394.326475 kJ/mol
# Density = 1.906463 g / cm^3
# Si number density = 19.108123 Si / 1000 Ang^3
#
#
#
# Elastic Constant Matrix: (Units=GPa)
#
#
# Indices 1 2 3 4 5 6 
#
# 1 112.3983 26.4503 28.7849 5.7938 -3.4207 21.0965
# 2 26.4503 64.8759 28.1230 18.6172 10.7707 18.3439
# 3 28.7849 28.1230 93.9904 10.3213 -11.7216 16.0021
# 4 5.7938 18.6172 10.3213 21.7592 6.6941 4.6773
# 5 -3.4207 10.7707 -11.7216 6.6941 34.9145 4.8617
# 6 21.0965 18.3439 16.0021 4.6773 4.8617 22.8865
#
#
#
# Elastic Compliance Matrix: (Units=1/GPa)
#
#
# Indices 1 2 3 4 5 6 
#
# 1 0.011370 -0.002342 -0.001072 0.000525 0.002560 -0.008505
# 2 -0.002342 0.027238 -0.004176 -0.016469 -0.005165 -0.012290
# 3 -0.001072 -0.004176 0.014826 -0.004132 0.007909 -0.006867
# 4 0.000525 -0.016469 -0.004132 0.063696 -0.009097 0.004520
# 5 0.002560 -0.005165 0.007909 -0.009097 0.036220 -0.009585
# 6 -0.008505 -0.012290 -0.006867 0.004520 -0.009585 0.067299
#
#
# Mechanical properties :
#
#
# Convention : Reuss Voigt Hill
#
# Bulk Modulus (GPa) = 26.14026 48.66454 37.40240
# Shear Modulus (GPa) = 20.11445 28.43915 24.27680
#
# Velocity S-wave (km/s) = 3.24800 3.86207 3.56827
# Velocity P-wave (km/s) = 5.27028 6.73875 6.04924
#
# Compressibility (1/GPa) = 0.03825517
#
# Stress axis : x y z
#
# Youngs Moduli (GPa) = 87.95298 36.71392 67.44791
#
# Poissons Ratio (x) = 0.08598 0.07228
# Poissons Ratio (y) = 0.20597 0.28165
# Poissons Ratio (z) = 0.09425 0.15331
#
# Static dielectric constant tensor:
#      x y z
#    x 3.942080 0.000390 -0.463630 
#    y 0.000390 3.453130 0.549530 
#    z -0.463630 0.549530 4.017800 
# 
# 
# High freq. dielectric constant tensor:
#      x y z
#    x 1.757160 0.013730 -0.011760 
#    y 0.013730 1.699740 0.028950 
#    z -0.011760 0.028950 1.746070 
# 
# From -- ./inp_files/145989.got.cif
#   From: 2010.06.25/outbox.cif.g09.slc.cpg/sg2_73_cif.got.tgz:145989.got - 2010.06.27 13:26:56.
