data_PCOD8038996
_publ_section_title
;
Structure prediction by ZEFSAII (Michael W. Deem and Ramdas Pophale) SiO2 
 PCOD8038996
Probable space group: P -1
;
_chemical_formula_sum "Si O2"
_cell_formula_units_Z 14
_cell_length_a 11.088750
_cell_length_b 14.641812
_cell_length_c 12.347212
_cell_angle_alpha 104.019656
_cell_angle_beta 24.451891
_cell_angle_gamma 100.418447
_cell_volume 801.138652
_symmetry_space_group_name_H-M "P -1"
_symmetry_group_IT_number 2
_symmetry_cell_setting 'triclinic'
loop_
_space_group_symop_operation_xyz
x,y,z
-x,-y,-z
loop_
_atom_site_type_symbol
_atom_site_label
_atom_site_fract_x
_atom_site_fract_y
_atom_site_fract_z
Si Si1 0.422452 0.753610 0.156699
Si Si2 0.340879 0.510541 0.311621
Si Si3 0.336849 0.967848 0.227931
Si Si4 0.891554 0.286021 0.385562
Si Si5 0.216335 0.887719 0.693164
Si Si6 0.829870 0.423497 0.767305
Si Si7 0.418306 0.005538 0.740662
O O1 0.230470 0.764742 0.425079
O O2 0.267274 0.682180 0.185141
O O3 0.409154 0.855153 0.141750
O O4 0.757901 0.711756 0.892818
O O5 0.271018 0.608727 0.461403
O O6 0.251479 0.519737 0.261031
O O7 0.180712 0.429799 0.484092
O O8 0.686430 0.475692 0.007564
O O9 0.445394 0.019857 0.260990
O O10 0.000000 0.000000 0.500000
O O11 0.500000 0.000000 0.000000
O O12 0.800421 0.224828 0.339384
O O13 0.380753 0.908932 0.676978
O O14 0.377383 0.929526 0.472371
O O15 0.889299 0.935318 0.974201
#
# Coordination Sequence:
#
# PCOD8038996 Si02
#       7
#     2   2   2   2   2   2   2
#     4  11  20  30  45  64  92 128 160 187 231 279
#     4   9  16  24  40  64  90 121 144 180 225 277
#     4  12  23  35  49  68  96 126 169 204 231 272
#     4  11  17  28  47  69  95 119 155 186 230 293
#     4  10  18  32  52  69  95 120 160 195 233 300
#     4   9  16  27  38  59  92 123 150 176 222 284
#     4  10  20  34  49  69  91 127 159 197 244 271
#
# _framework density 17.475127000000001
#
# number of rings (size 3 to 8) (size 9 to 14) (size 15 to 20)
#    0.000    1.714    2.857    6.000    0.000    0.000 
#    0.000    0.000    0.000    0.000    0.000    0.000 
#    0.000    6.857    0.000    0.000    0.000    1.286 
#
# Total GULP energy -173470.731115 kJ/mol
# GULP energy per Si atom -12390.766508 kJ/mol
# Density = 1.743535 g / cm^3
# Si number density = 17.475127 Si / 1000 Ang^3
#
#
#
# Elastic Constant Matrix: (Units=GPa)
#
#
# Indices 1 2 3 4 5 6 
#
# 1 83.2826 33.0239 25.3090 -1.9808 6.4628 18.5784
# 2 33.0239 105.3294 27.4679 -1.5471 6.1277 33.2390
# 3 25.3090 27.4679 120.5003 -10.9108 2.3886 12.7448
# 4 -1.9808 -1.5471 -10.9108 28.8331 2.4913 5.0297
# 5 6.4628 6.1277 2.3886 2.4913 18.5642 2.0305
# 6 18.5784 33.2390 12.7448 5.0297 2.0305 26.4521
#
#
#
# Elastic Compliance Matrix: (Units=1/GPa)
#
#
# Indices 1 2 3 4 5 6 
#
# 1 0.015304 -0.001536 -0.001746 0.002060 -0.003991 -0.008062
# 2 -0.001536 0.016844 -0.000931 0.004251 -0.003267 -0.020196
# 3 -0.001746 -0.000931 0.009561 0.004005 -0.000532 -0.002931
# 4 0.002060 0.004251 0.004005 0.039868 -0.006255 -0.015818
# 5 -0.003991 -0.003267 -0.000532 -0.006255 0.056806 0.003993
# 6 -0.008062 -0.020196 -0.002931 -0.015818 0.003993 0.072958
#
#
# Mechanical properties :
#
#
# Convention : Reuss Voigt Hill
#
# Bulk Modulus (GPa) = 30.04585 53.41264 41.72924
# Shear Modulus (GPa) = 21.65798 29.65730 25.65764
#
# Velocity S-wave (km/s) = 3.52427 4.12408 3.83592
# Velocity P-wave (km/s) = 5.81305 7.30128 6.59925
#
# Compressibility (1/GPa) = 0.03328247
#
# Stress axis : x y z
#
# Youngs Moduli (GPa) = 65.34128 59.36708 104.59278
#
# Poissons Ratio (x) = 0.09121 0.18261
# Poissons Ratio (y) = 0.10039 0.09740
# Poissons Ratio (z) = 0.11408 0.05529
#
# Static dielectric constant tensor:
#      x y z
#    x 2.917640 0.418870 0.012210 
#    y 0.418870 3.262860 -0.036710 
#    z 0.012210 -0.036710 3.783330 
# 
# 
# High freq. dielectric constant tensor:
#      x y z
#    x 1.602750 0.043870 0.002700 
#    y 0.043870 1.667840 -0.004010 
#    z 0.002700 -0.004010 1.716120 
# 
# From -- ./inp_files/434100.got.cif
#   From: 2010.06.25/outbox.cif.g09.slc.cpg/sg2_218_cif.got.tgz:434100.got - 2010.06.27 13:26:56.
