data_PCOD8038527
_publ_section_title
;
Structure prediction by ZEFSAII (Michael W. Deem and Ramdas Pophale) SiO2 
 PCOD8038527
Probable space group: P -1
;
_chemical_formula_sum "Si O2"
_cell_formula_units_Z 16
_cell_length_a 16.125813
_cell_length_b 11.903148
_cell_length_c 5.320741
_cell_angle_alpha 108.893138
_cell_angle_beta 120.421513
_cell_angle_gamma 74.962535
_cell_volume 827.520541
_symmetry_space_group_name_H-M "P -1"
_symmetry_group_IT_number 2
_symmetry_cell_setting 'triclinic'
loop_
_space_group_symop_operation_xyz
x,y,z
-x,-y,-z
loop_
_atom_site_type_symbol
_atom_site_label
_atom_site_fract_x
_atom_site_fract_y
_atom_site_fract_z
Si Si1 0.396537 0.392995 0.401068
Si Si2 0.218075 0.821865 0.218825
Si Si3 0.870113 0.270817 0.493050
Si Si4 0.755982 0.699541 0.193603
Si Si5 0.743285 0.495355 0.357289
Si Si6 0.611513 0.366455 0.726251
Si Si7 0.833126 0.908502 0.692040
Si Si8 0.911199 0.810502 0.251622
O O1 0.315877 0.399174 0.497699
O O2 0.503424 0.336624 0.610071
O O3 0.398323 0.530729 0.423630
O O4 0.355539 0.306824 0.067498
O O5 0.159013 0.805548 0.370884
O O6 0.325946 0.753018 0.367802
O O7 0.227575 0.961590 0.301827
O O8 0.165070 0.775455 0.861144
O O9 0.826267 0.409618 0.566984
O O10 0.985236 0.266493 0.661408
O O11 0.793104 0.568234 0.270085
O O12 0.758261 0.808733 0.474478
O O13 0.829538 0.719370 0.091211
O O14 0.664343 0.411150 0.081923
O O15 0.906497 0.896643 0.554923
O O16 0.892456 0.888908 0.027936
#
# Coordination Sequence:
#
# PCOD8038527 Si02
#       8
#     2   2   2   2   2   2   2   2
#     4  10  17  37  60  83 120 149 192 236 296 351
#     4  11  22  40  59  90 121 148 191 251 287 343
#     4  11  23  37  62  90 118 148 197 243 299 334
#     4   9  22  37  57  84 116 163 194 234 282 348
#     4  10  19  36  59  86 123 149 187 248 291 347
#     4   9  20  33  59  92 112 150 188 241 301 345
#     4  10  22  40  60  80 123 157 198 233 287 338
#     4  10  22  40  58  89 112 161 200 231 288 346
#
# _framework density 19.334866000000002
#
# number of rings (size 3 to 8) (size 9 to 14) (size 15 to 20)
#    0.750    1.250    1.250    2.625    0.000    3.500 
#    0.000    1.875    0.000    1.500    0.000    0.000 
#    0.000    0.000    0.000    0.000    0.000    0.000 
#
# Total GULP energy -198259.169192 kJ/mol
# GULP energy per Si atom -12391.198075 kJ/mol
# Density = 1.929086 g / cm^3
# Si number density = 19.334866 Si / 1000 Ang^3
#
#
#
# Elastic Constant Matrix: (Units=GPa)
#
#
# Indices 1 2 3 4 5 6 
#
# 1 94.6666 56.9566 40.5509 -10.4415 6.7646 -15.2950
# 2 56.9566 99.9321 44.8324 -7.9904 20.3420 -5.0286
# 3 40.5509 44.8324 77.6443 -13.4841 -6.2124 0.8491
# 4 -10.4415 -7.9904 -13.4841 23.7047 2.9989 -0.0545
# 5 6.7646 20.3420 -6.2124 2.9989 35.2799 -6.8927
# 6 -15.2950 -5.0286 0.8491 -0.0545 -6.8927 24.8302
#
#
#
# Elastic Compliance Matrix: (Units=1/GPa)
#
#
# Indices 1 2 3 4 5 6 
#
# 1 0.019919 -0.008985 -0.004650 0.002808 0.002514 0.011313
# 2 -0.008985 0.021460 -0.008700 -0.000030 -0.013063 -0.004517
# 3 -0.004650 -0.008700 0.022194 0.006539 0.008682 -0.002961
# 4 0.002808 -0.000030 0.006539 0.047548 -0.003275 0.000695
# 5 0.002514 -0.013063 0.008682 -0.003275 0.039045 0.009438
# 6 0.011313 -0.004517 -0.002961 0.000695 0.009438 0.049050
#
#
# Mechanical properties :
#
#
# Convention : Reuss Voigt Hill
#
# Bulk Modulus (GPa) = 52.90010 61.88029 57.39019
# Shear Modulus (GPa) = 19.98518 25.42318 22.70418
#
# Velocity S-wave (km/s) = 3.21851 3.63007 3.43047
# Velocity P-wave (km/s) = 6.42114 7.04584 6.74073
#
# Compressibility (1/GPa) = 0.01890356
#
# Stress axis : x y z
#
# Youngs Moduli (GPa) = 50.20396 46.59886 45.05798
#
# Poissons Ratio (x) = 0.41867 0.20952
# Poissons Ratio (y) = 0.45106 0.39199
# Poissons Ratio (z) = 0.23345 0.40540
#
# Static dielectric constant tensor:
#      x y z
#    x 3.489350 -0.051980 -0.093630 
#    y -0.051980 3.436890 -0.104370 
#    z -0.093630 -0.104370 3.497160 
# 
# 
# High freq. dielectric constant tensor:
#      x y z
#    x 1.741590 0.002450 -0.009540 
#    y 0.002450 1.738490 -0.008800 
#    z -0.009540 -0.008800 1.752580 
# 
# From -- ./inp_files/92366.got.cif
#   From: 2010.06.25/outbox.cif.g09.slc.cpg/sg2_47_cif.got.tgz:92366.got - 2010.06.27 13:26:56.
