data_PCOD8038930
_publ_section_title
;
Structure prediction by ZEFSAII (Michael W. Deem and Ramdas Pophale) SiO2 
 PCOD8038930
Probable space group: P -1
;
_chemical_formula_sum "Si O2"
_cell_formula_units_Z 16
_cell_length_a 9.270765
_cell_length_b 11.146698
_cell_length_c 10.947684
_cell_angle_alpha 127.153895
_cell_angle_beta 66.641190
_cell_angle_gamma 113.578180
_cell_volume 807.605921
_symmetry_space_group_name_H-M "P -1"
_symmetry_group_IT_number 2
_symmetry_cell_setting 'triclinic'
loop_
_space_group_symop_operation_xyz
x,y,z
-x,-y,-z
loop_
_atom_site_type_symbol
_atom_site_label
_atom_site_fract_x
_atom_site_fract_y
_atom_site_fract_z
Si Si1 0.129456 0.884032 0.027231
Si Si2 0.845837 0.298244 0.442025
Si Si3 0.221423 0.126577 0.946085
Si Si4 0.957852 0.460321 0.128362
Si Si5 0.777579 0.010561 0.677975
Si Si6 0.858854 0.594819 0.753101
Si Si7 0.554321 0.017784 0.353722
Si Si8 0.024971 0.236275 0.582717
O O1 0.938571 0.879768 0.084352
O O2 0.208870 0.980050 0.175595
O O3 0.157683 0.709566 0.921927
O O4 0.211600 0.972549 0.934982
O O5 0.790692 0.456605 0.596853
O O6 0.685106 0.175918 0.391581
O O7 0.958735 0.322104 0.298899
O O8 0.953016 0.242632 0.476160
O O9 0.366812 0.126087 0.802081
O O10 0.251195 0.278007 0.118313
O O11 0.881487 0.595459 0.296157
O O12 0.123338 0.469741 0.156161
O O13 0.000000 0.500000 0.000000
O O14 0.592321 0.979575 0.684525
O O15 0.843796 0.866042 0.519720
O O16 0.877000 0.167665 0.680689
O O17 0.500000 0.000000 0.500000
#
# Coordination Sequence:
#
# PCOD8038930 Si02
#       8
#     2   2   2   2   2   2   2   2
#     4  10  20  38  64  85 111 150 200 244 285 347
#     4  10  19  40  62  87 115 151 202 243 288 345
#     4  10  21  39  61  88 113 152 201 242 291 349
#     4  10  18  31  55  87 112 138 188 251 286 326
#     4  11  22  34  55  84 114 158 189 238 290 343
#     4   9  20  36  67  87 108 155 203 245 280 343
#     4  12  24  36  55  86 128 157 189 242 299 350
#     4  10  20  35  57  80 113 151 201 235 279 349
#
# _framework density 19.811644000000001
#
# number of rings (size 3 to 8) (size 9 to 14) (size 15 to 20)
#    0.000    1.750    2.500    3.750    1.750    0.500 
#    0.000    1.875    0.000   14.250    0.000    0.000 
#    0.000    0.000    0.000    0.000    0.000    0.000 
#
# Total GULP energy -198326.783259 kJ/mol
# GULP energy per Si atom -12395.423954 kJ/mol
# Density = 1.976655 g / cm^3
# Si number density = 19.811644 Si / 1000 Ang^3
#
#
#
# Elastic Constant Matrix: (Units=GPa)
#
#
# Indices 1 2 3 4 5 6 
#
# 1 90.2899 27.5955 45.0218 -4.0976 1.1153 2.2763
# 2 27.5955 90.3046 52.1162 13.0497 -7.7146 -11.6269
# 3 45.0218 52.1162 139.0177 15.3029 -13.3246 1.3441
# 4 -4.0976 13.0497 15.3029 37.5666 -7.8095 1.9257
# 5 1.1153 -7.7146 -13.3246 -7.8095 30.2873 -4.2371
# 6 2.2763 -11.6269 1.3441 1.9257 -4.2371 25.8100
#
#
#
# Elastic Compliance Matrix: (Units=1/GPa)
#
#
# Indices 1 2 3 4 5 6 
#
# 1 0.014412 -0.003252 -0.004105 0.004003 -0.002587 -0.003246
# 2 -0.003252 0.016654 -0.004573 -0.004208 0.002489 0.008750
# 3 -0.004105 -0.004573 0.010811 -0.002588 0.002851 -0.001600
# 4 0.004003 -0.004208 -0.002588 0.030813 0.005087 -0.003578
# 5 -0.002587 0.002489 0.002851 0.005087 0.037283 0.006942
# 6 -0.003246 0.008750 -0.001600 -0.003578 0.006942 0.044462
#
#
# Mechanical properties :
#
#
# Convention : Reuss Voigt Hill
#
# Bulk Modulus (GPa) = 55.50672 63.23102 59.36887
# Shear Modulus (GPa) = 27.12945 31.72470 29.42707
#
# Velocity S-wave (km/s) = 3.70451 4.00599 3.85820
# Velocity P-wave (km/s) = 6.80999 7.30634 7.06253
#
# Compressibility (1/GPa) = 0.01801584
#
# Stress axis : x y z
#
# Youngs Moduli (GPa) = 69.38705 60.04633 92.49887
#
# Poissons Ratio (x) = 0.19527 0.37975
# Poissons Ratio (y) = 0.22565 0.42299
# Poissons Ratio (z) = 0.28486 0.27459
#
# Static dielectric constant tensor:
#      x y z
#    x 3.320890 -0.218900 0.067550 
#    y -0.218900 3.777100 0.172540 
#    z 0.067550 0.172540 3.901900 
# 
# 
# High freq. dielectric constant tensor:
#      x y z
#    x 1.729930 -0.027140 0.018530 
#    y -0.027140 1.770130 0.011520 
#    z 0.018530 0.011520 1.796380 
# 
# From -- ./inp_files/391293.got.cif
#   From: 2010.06.25/outbox.cif.g09.slc.cpg/sg2_196_cif.got.tgz:391293.got - 2010.06.27 13:26:56.
