data_PCOD8038595
_publ_section_title
;
Structure prediction by ZEFSAII (Michael W. Deem and Ramdas Pophale) SiO2 
 PCOD8038595
Probable space group: P -1
;
_chemical_formula_sum "Si O2"
_cell_formula_units_Z 14
_cell_length_a 8.367057
_cell_length_b 14.354446
_cell_length_c 21.884843
_cell_angle_alpha 18.782925
_cell_angle_beta 45.413436
_cell_angle_gamma 43.813189
_cell_volume 583.826906
_symmetry_space_group_name_H-M "P -1"
_symmetry_group_IT_number 2
_symmetry_cell_setting 'triclinic'
loop_
_space_group_symop_operation_xyz
x,y,z
-x,-y,-z
loop_
_atom_site_type_symbol
_atom_site_label
_atom_site_fract_x
_atom_site_fract_y
_atom_site_fract_z
Si Si1 0.403130 0.738340 0.628932
Si Si2 0.676144 0.647666 0.300072
Si Si3 0.470238 0.120792 0.681130
Si Si4 0.802615 0.842357 0.672254
Si Si5 0.170829 0.279618 0.915362
Si Si6 0.872797 0.822184 0.478825
Si Si7 0.049317 0.150232 0.696399
O O1 0.343544 0.441623 0.803282
O O2 0.661720 0.655752 0.638038
O O3 0.409796 0.992496 0.417208
O O4 0.204276 0.883596 0.641119
O O5 0.480471 0.465890 0.451862
O O6 0.577876 0.904528 0.217655
O O7 0.733310 0.806459 0.124972
O O8 0.905533 0.413799 0.408178
O O9 0.275995 0.017544 0.758710
O O10 0.717123 0.906730 0.725663
O O11 0.907101 0.490719 0.852883
O O12 0.000000 0.000000 0.500000
O O13 0.160272 0.978122 0.140592
O O14 0.923910 0.937863 0.326815
O O15 0.000000 0.500000 0.500000
#
# Coordination Sequence:
#
# PCOD8038595 Si02
#       7
#     2   2   2   2   2   2   2
#     4  10  20  39  71 100 132 177 226 270 341 391
#     4  11  21  40  71  99 127 182 221 273 331 403
#     4  11  22  40  68  97 137 171 221 268 345 392
#     4  10  17  38  68  96 125 168 218 269 322 396
#     4  11  23  43  71  99 133 179 228 271 325 407
#     4  11  21  40  69  97 140 175 216 281 335 395
#     4  12  26  45  65  95 141 179 221 279 338 389
#
# _framework density 23.979711000000002
#
# number of rings (size 3 to 8) (size 9 to 14) (size 15 to 20)
#    0.000    1.143    7.143    0.857    0.000    1.714 
#    0.000    4.286    0.000    0.000    0.000    0.000 
#    0.000    0.000    0.000    0.000    0.000    0.000 
#
# Total GULP energy -173522.036471 kJ/mol
# GULP energy per Si atom -12394.431177 kJ/mol
# Density = 2.392513 g / cm^3
# Si number density = 23.979711 Si / 1000 Ang^3
#
#
#
# Elastic Constant Matrix: (Units=GPa)
#
#
# Indices 1 2 3 4 5 6 
#
# 1 78.5898 20.6412 24.4363 14.3036 -10.5943 12.1152
# 2 20.6412 182.1791 50.2197 45.6705 5.2531 37.1186
# 3 24.4363 50.2197 115.0976 23.2746 -7.8040 17.6335
# 4 14.3036 45.6705 23.2746 36.1735 2.4047 12.3893
# 5 -10.5943 5.2531 -7.8040 2.4047 13.1528 9.0110
# 6 12.1152 37.1186 17.6335 12.3893 9.0110 40.8707
#
#
#
# Elastic Compliance Matrix: (Units=1/GPa)
#
#
# Indices 1 2 3 4 5 6 
#
# 1 0.017920 0.000763 -0.000061 -0.006438 0.021237 -0.008709
# 2 0.000763 0.009165 -0.001335 -0.009225 0.001643 -0.005539
# 3 -0.000061 -0.001335 0.011863 -0.005004 0.011852 -0.004984
# 4 -0.006438 -0.009225 -0.005004 0.045380 -0.013981 0.001772
# 5 0.021237 0.001643 0.011852 -0.013981 0.127218 -0.036711
# 6 -0.008709 -0.005539 -0.004984 0.001772 -0.036711 0.041786
#
#
# Mechanical properties :
#
#
# Convention : Reuss Voigt Hill
#
# Bulk Modulus (GPa) = 26.53922 62.94011 44.73966
# Shear Modulus (GPa) = 18.71541 36.74402 27.72971
#
# Velocity S-wave (km/s) = 2.79672 3.91870 3.40425
# Velocity P-wave (km/s) = 4.63899 6.83953 5.84377
#
# Compressibility (1/GPa) = 0.03768008
#
# Stress axis : x y z
#
# Youngs Moduli (GPa) = 55.80291 109.11491 84.29731
#
# Poissons Ratio (x) = -0.08321 0.00516
# Poissons Ratio (y) = -0.04255 0.11254
# Poissons Ratio (z) = 0.00342 0.14568
#
# Static dielectric constant tensor:
#      x y z
#    x 5.026900 0.002010 0.273600 
#    y 0.002010 4.712230 0.199000 
#    z 0.273600 0.199000 3.962110 
# 
# 
# High freq. dielectric constant tensor:
#      x y z
#    x 1.958030 0.001240 -0.003950 
#    y 0.001240 1.973720 0.022490 
#    z -0.003950 0.022490 1.897620 
# 
# From -- ./inp_files/590380.got.cif
#   From: 2010.06.25/outbox.cif.g09.slc.cpg/sg2_296_cif.got.tgz:590380.got - 2010.06.27 13:26:56.
