data_PCOD8038383
_publ_section_title
;
Structure prediction by ZEFSAII (Michael W. Deem and Ramdas Pophale) SiO2 
 PCOD8038383
Probable space group: P -1
;
_chemical_formula_sum "Si O2"
_cell_formula_units_Z 16
_cell_length_a 8.565126
_cell_length_b 13.905504
_cell_length_c 9.032279
_cell_angle_alpha 95.200869
_cell_angle_beta 67.050581
_cell_angle_gamma 118.285729
_cell_volume 866.437853
_symmetry_space_group_name_H-M "P -1"
_symmetry_group_IT_number 2
_symmetry_cell_setting 'triclinic'
loop_
_space_group_symop_operation_xyz
x,y,z
-x,-y,-z
loop_
_atom_site_type_symbol
_atom_site_label
_atom_site_fract_x
_atom_site_fract_y
_atom_site_fract_z
Si Si1 0.908076 0.275477 0.577272
Si Si2 0.919625 0.727994 0.203642
Si Si3 0.964422 0.221346 0.158081
Si Si4 0.726559 0.050572 0.442130
Si Si5 0.623700 0.488350 0.322619
Si Si6 0.267899 0.671863 0.597831
Si Si7 0.265352 0.304780 0.296429
Si Si8 0.712058 0.831779 0.486244
O O1 0.803602 0.149249 0.544575
O O2 0.804938 0.340262 0.548997
O O3 0.915247 0.276608 0.753361
O O4 0.131017 0.337843 0.450564
O O5 0.756144 0.603909 0.211475
O O6 0.829560 0.797587 0.322910
O O7 0.020952 0.787104 0.023401
O O8 0.833074 0.098296 0.252372
O O9 0.861527 0.293719 0.247673
O O10 0.180265 0.275456 0.157905
O O11 0.500000 0.000000 0.500000
O O12 0.785306 0.961003 0.465516
O O13 0.500000 0.500000 0.500000
O O14 0.755261 0.440875 0.341934
O O15 0.482875 0.406023 0.236258
O O16 0.487138 0.765965 0.522912
O O17 0.258400 0.196850 0.360439
#
# Coordination Sequence:
#
# PCOD8038383 Si02
#       8
#     2   2   2   2   2   2   2   2
#     4   9  18  34  54  86 106 135 187 224 259 318
#     4  11  23  35  53  84 120 132 175 237 267 303
#     4  10  22  38  52  84 115 137 176 231 266 316
#     4  10  18  35  64  75 103 148 184 215 270 326
#     4  11  18  35  60  80 106 146 182 219 263 316
#     4   9  18  35  60  77 104 144 189 210 258 334
#     4   8  18  34  55  80 107 140 185 211 259 331
#     4  10  17  35  61  81 100 145 187 219 260 324
#
# _framework density 18.466412999999999
#
# number of rings (size 3 to 8) (size 9 to 14) (size 15 to 20)
#    0.000    2.500    6.250    0.000    0.000    6.500 
#    0.000    3.125    0.000    0.000    0.000    0.000 
#    0.000    0.000    0.000    0.000    0.000    0.000 
#
# Total GULP energy -198280.413183 kJ/mol
# GULP energy per Si atom -12392.525824 kJ/mol
# Density = 1.842438 g / cm^3
# Si number density = 18.466413 Si / 1000 Ang^3
#
#
#
# Elastic Constant Matrix: (Units=GPa)
#
#
# Indices 1 2 3 4 5 6 
#
# 1 105.6984 16.1860 26.2660 4.5620 16.7722 0.8293
# 2 16.1860 58.5915 9.5789 -10.9682 -3.6330 -3.4979
# 3 26.2660 9.5789 89.3183 3.9568 14.8177 14.1595
# 4 4.5620 -10.9682 3.9568 21.1567 3.5086 2.1812
# 5 16.7722 -3.6330 14.8177 3.5086 22.5044 1.3101
# 6 0.8293 -3.4979 14.1595 2.1812 1.3101 34.2175
#
#
#
# Elastic Compliance Matrix: (Units=1/GPa)
#
#
# Indices 1 2 3 4 5 6 
#
# 1 0.011891 -0.004050 -0.001685 -0.003080 -0.007955 0.000496
# 2 -0.004050 0.021347 -0.003102 0.011155 0.006617 0.002600
# 3 -0.001685 -0.003102 0.014366 -0.001999 -0.008056 -0.005785
# 4 -0.003080 0.011155 -0.001999 0.054729 -0.003042 -0.001330
# 5 -0.007955 0.006617 -0.008056 -0.003042 0.057083 0.002211
# 6 0.000496 0.002600 -0.005785 -0.001330 0.002211 0.031873
#
#
# Mechanical properties :
#
#
# Convention : Reuss Voigt Hill
#
# Bulk Modulus (GPa) = 33.41113 39.74110 36.57611
# Shear Modulus (GPa) = 22.83731 29.01421 25.92576
#
# Velocity S-wave (km/s) = 3.52048 3.96812 3.75099
# Velocity P-wave (km/s) = 5.88704 6.52397 6.21367
#
# Compressibility (1/GPa) = 0.02993015
#
# Stress axis : x y z
#
# Youngs Moduli (GPa) = 84.09617 46.84514 69.60748
#
# Poissons Ratio (x) = 0.18971 0.11728
# Poissons Ratio (y) = 0.34057 0.21595
# Poissons Ratio (z) = 0.14170 0.14533
#
# Static dielectric constant tensor:
#      x y z
#    x 3.874950 0.080050 0.237570 
#    y 0.080050 3.565470 -0.195610 
#    z 0.237570 -0.195610 3.076810 
# 
# 
# High freq. dielectric constant tensor:
#      x y z
#    x 1.734210 0.004320 0.020120 
#    y 0.004320 1.709850 -0.016610 
#    z 0.020120 -0.016610 1.676960 
# 
# From -- ./inp_files/196545.got.cif
#   From: 2010.06.25/outbox.cif.g09.slc.cpg/sg2_99_cif.got.tgz:196545.got - 2010.06.27 13:26:56.
