data_PCOD8038406
_publ_section_title
;
Structure prediction by ZEFSAII (Michael W. Deem and Ramdas Pophale) SiO2 
 PCOD8038406
Probable space group: P -1
;
_chemical_formula_sum "Si O2"
_cell_formula_units_Z 16
_cell_length_a 13.400023
_cell_length_b 9.316379
_cell_length_c 28.140184
_cell_angle_alpha 139.917322
_cell_angle_beta 158.091820
_cell_angle_gamma 49.819033
_cell_volume 812.858755
_symmetry_space_group_name_H-M "P -1"
_symmetry_group_IT_number 2
_symmetry_cell_setting 'triclinic'
loop_
_space_group_symop_operation_xyz
x,y,z
-x,-y,-z
loop_
_atom_site_type_symbol
_atom_site_label
_atom_site_fract_x
_atom_site_fract_y
_atom_site_fract_z
Si Si1 0.481380 0.826902 0.609081
Si Si2 0.177949 0.514497 0.954492
Si Si3 0.802792 0.692277 0.631545
Si Si4 0.986651 0.893483 0.354786
Si Si5 0.312853 0.607885 0.881829
Si Si6 0.815484 0.024775 0.640329
Si Si7 0.578676 0.093346 0.908528
Si Si8 0.966724 0.107954 0.961715
O O1 0.629105 0.813999 0.620618
O O2 0.363405 0.574818 0.516448
O O3 0.224103 0.940659 0.512929
O O4 0.695020 0.971068 0.778096
O O5 0.957749 0.276406 0.787153
O O6 0.479386 0.464688 0.082195
O O7 0.205838 0.693449 0.968551
O O8 0.072949 0.634006 0.984100
O O9 0.107546 0.726299 0.795081
O O10 0.872797 0.817752 0.643909
O O11 0.114223 0.009431 0.391662
O O12 0.865827 0.616116 0.225037
O O13 0.717983 0.994544 0.272960
O O14 0.491674 0.803098 0.046137
O O15 0.500000 0.000000 0.500000
O O16 0.744025 0.895058 0.938192
O O17 0.000000 0.000000 0.000000
#
# Coordination Sequence:
#
# PCOD8038406 Si02
#       8
#     2   2   2   2   2   2   2   2
#     4  10  20  38  57  85 120 150 199 234 290 346
#     4  10  21  36  56  91 116 148 189 240 295 343
#     4  10  22  32  60  90 114 151 194 248 284 334
#     4  10  19  35  60  87 114 151 196 242 284 338
#     4  10  17  36  62  85 113 149 204 239 280 334
#     4  12  22  33  57  91 121 145 191 247 294 333
#     4  10  17  35  63  88 111 154 199 238 280 341
#     4  10  22  35  62  88 118 150 195 243 287 342
#
# _framework density 19.683616000000001
#
# number of rings (size 3 to 8) (size 9 to 14) (size 15 to 20)
#    0.000    1.750    5.000    0.750    3.500    0.500 
#    0.000   10.625    0.000    0.750    0.000    0.000 
#    0.000    0.000    0.000    0.000    0.000    0.000 
#
# Total GULP energy -198216.962601 kJ/mol
# GULP energy per Si atom -12388.560163 kJ/mol
# Density = 1.963882 g / cm^3
# Si number density = 19.683616 Si / 1000 Ang^3
#
#
#
# Elastic Constant Matrix: (Units=GPa)
#
#
# Indices 1 2 3 4 5 6 
#
# 1 65.4545 47.7823 35.7232 -5.1406 4.6083 -1.9074
# 2 47.7823 93.6782 50.2672 -24.3629 8.9820 -10.1882
# 3 35.7232 50.2672 115.5394 -28.6526 2.5082 -5.9140
# 4 -5.1406 -24.3629 -28.6526 37.2795 -2.0982 10.0120
# 5 4.6083 8.9820 2.5082 -2.0982 28.8556 -1.8418
# 6 -1.9074 -10.1882 -5.9140 10.0120 -1.8418 41.0055
#
#
#
# Elastic Compliance Matrix: (Units=1/GPa)
#
#
# Indices 1 2 3 4 5 6 
#
# 1 0.027032 -0.013582 -0.004586 -0.008500 -0.000355 -0.000719
# 2 -0.013582 0.022243 -0.002889 0.009714 -0.003673 0.001941
# 3 -0.004586 -0.002889 0.013234 0.007954 0.001001 -0.000920
# 4 -0.008500 0.009714 0.007954 0.039885 0.000123 -0.006567
# 5 -0.000355 -0.003673 0.001001 0.000123 0.035828 0.000794
# 6 -0.000719 0.001941 -0.000920 -0.006567 0.000794 0.026342
#
#
# Mechanical properties :
#
#
# Convention : Reuss Voigt Hill
#
# Bulk Modulus (GPa) = 49.03523 60.24639 54.64081
# Shear Modulus (GPa) = 23.42164 30.82143 27.12153
#
# Velocity S-wave (km/s) = 3.45324 3.96136 3.71600
# Velocity P-wave (km/s) = 6.39262 7.18311 6.79936
#
# Compressibility (1/GPa) = 0.02039350
#
# Stress axis : x y z
#
# Youngs Moduli (GPa) = 36.99270 44.95789 75.56433
#
# Poissons Ratio (x) = 0.61064 0.34653
# Poissons Ratio (y) = 0.50245 0.21834
# Poissons Ratio (z) = 0.16964 0.12990
#
# Static dielectric constant tensor:
#      x y z
#    x 4.231830 -0.208120 -0.238410 
#    y -0.208120 3.873710 -0.437160 
#    z -0.238410 -0.437160 3.799990 
# 
# 
# High freq. dielectric constant tensor:
#      x y z
#    x 1.741480 -0.011920 0.013610 
#    y -0.011920 1.757890 -0.032950 
#    z 0.013610 -0.032950 1.763580 
# 
# From -- ./inp_files/279387.got.cif
#   From: 2010.06.25/outbox.cif.g09.slc.cpg/sg2_140_cif.got.tgz:279387.got - 2010.06.27 13:26:56.
