data_PCOD8038663
_publ_section_title
;
Structure prediction by ZEFSAII (Michael W. Deem and Ramdas Pophale) SiO2 
 PCOD8038663
Probable space group: P -1
;
_chemical_formula_sum "Si O2"
_cell_formula_units_Z 16
_cell_length_a 13.050351
_cell_length_b 9.120522
_cell_length_c 22.288202
_cell_angle_alpha 47.153977
_cell_angle_beta 154.095246
_cell_angle_gamma 123.153556
_cell_volume 832.164884
_symmetry_space_group_name_H-M "P -1"
_symmetry_group_IT_number 2
_symmetry_cell_setting 'triclinic'
loop_
_space_group_symop_operation_xyz
x,y,z
-x,-y,-z
loop_
_atom_site_type_symbol
_atom_site_label
_atom_site_fract_x
_atom_site_fract_y
_atom_site_fract_z
Si Si1 0.686903 0.115662 0.037298
Si Si2 0.347642 0.289388 0.310710
Si Si3 0.187445 0.893952 0.324519
Si Si4 0.311076 0.718080 0.133667
Si Si5 0.115697 0.538812 0.905148
Si Si6 0.476766 0.731798 0.349665
Si Si7 0.854669 0.887511 0.907885
Si Si8 0.848414 0.445905 0.689151
O O1 0.692659 0.318534 0.022933
O O2 0.592996 0.186068 0.901163
O O3 0.948622 0.968681 0.217043
O O4 0.500000 0.000000 0.000000
O O5 0.610633 0.256043 0.488822
O O6 0.330941 0.474327 0.202698
O O7 0.137738 0.348993 0.232014
O O8 0.308035 0.083754 0.313503
O O9 0.107803 0.772346 0.259963
O O10 0.454212 0.752958 0.259842
O O11 0.029382 0.829525 0.958489
O O12 0.086371 0.500656 0.828756
O O13 0.213162 0.317737 0.046358
O O14 0.746957 0.633842 0.538700
O O15 0.320460 0.571394 0.336857
O O16 0.393691 0.950329 0.278774
O O17 0.000000 0.000000 0.000000
#
# Coordination Sequence:
#
# PCOD8038663 Si02
#       8
#     2   2   2   2   2   2   2   2
#     4  11  26  42  55  72 107 160 203 234 259 311
#     4   9  17  35  54  93 113 140 175 225 292 341
#     4  10  20  32  60  84 119 144 177 224 284 337
#     4  10  18  35  54  78 114 144 187 223 273 331
#     4  10  20  35  56  85 118 141 177 225 283 342
#     4  10  18  28  53  87 122 139 160 214 289 352
#     4   9  16  30  52  91 116 138 165 217 298 344
#     4  11  17  31  53  87 117 140 167 217 286 345
#
# _framework density 19.226956999999999
#
# number of rings (size 3 to 8) (size 9 to 14) (size 15 to 20)
#    0.000    2.000    5.000    1.500    1.750    5.500 
#    0.000    1.250    0.000    0.750    0.000    0.000 
#    0.000    0.000    0.000    0.000    0.000    0.000 
#
# Total GULP energy -198253.384475 kJ/mol
# GULP energy per Si atom -12390.836530 kJ/mol
# Density = 1.918320 g / cm^3
# Si number density = 19.226957 Si / 1000 Ang^3
#
#
#
# Elastic Constant Matrix: (Units=GPa)
#
#
# Indices 1 2 3 4 5 6 
#
# 1 74.4593 58.6641 37.8496 1.8763 -18.0691 7.9641
# 2 58.6641 139.5126 46.8576 -9.4523 -8.2393 -1.8263
# 3 37.8496 46.8576 75.1468 -16.2361 -13.3915 5.1465
# 4 1.8763 -9.4523 -16.2361 32.9400 -5.2936 -1.5926
# 5 -18.0691 -8.2393 -13.3915 -5.2936 23.3424 3.4496
# 6 7.9641 -1.8263 5.1465 -1.5926 3.4496 30.2824
#
#
#
# Elastic Compliance Matrix: (Units=1/GPa)
#
#
# Indices 1 2 3 4 5 6 
#
# 1 0.029320 -0.009726 -0.006490 -0.005594 0.015642 -0.009271
# 2 -0.009726 0.012369 -0.003819 0.001531 -0.005699 0.004683
# 3 -0.006490 -0.003819 0.023759 0.012532 0.010560 -0.003105
# 4 -0.005594 0.001531 0.012532 0.039273 0.012291 0.000099
# 5 0.015642 -0.005699 0.010560 0.012291 0.063683 -0.012860
# 6 -0.009271 0.004683 -0.003105 0.000099 -0.012860 0.037741
#
#
# Mechanical properties :
#
#
# Convention : Reuss Voigt Hill
#
# Bulk Modulus (GPa) = 39.40275 63.98458 51.69367
# Shear Modulus (GPa) = 19.63294 27.02946 23.33120
#
# Velocity S-wave (km/s) = 3.19896 3.75348 3.48726
# Velocity P-wave (km/s) = 5.84657 7.22050 6.56955
#
# Compressibility (1/GPa) = 0.02537894
#
# Stress axis : x y z
#
# Youngs Moduli (GPa) = 34.10645 80.84949 42.08852
#
# Poissons Ratio (x) = 0.78633 0.27314
# Poissons Ratio (y) = 0.33171 0.16074
# Poissons Ratio (z) = 0.22134 0.30877
#
# Static dielectric constant tensor:
#      x y z
#    x 3.055050 -0.454160 -0.156610 
#    y -0.454160 3.808130 -0.334740 
#    z -0.156610 -0.334740 3.830290 
# 
# 
# High freq. dielectric constant tensor:
#      x y z
#    x 1.689450 -0.045160 -0.034510 
#    y -0.045160 1.750990 -0.028210 
#    z -0.034510 -0.028210 1.751620 
# 
# From -- ./inp_files/593504.got.cif
#   From: 2010.06.25/outbox.cif.g09.slc.cpg/sg2_297_cif.got.tgz:593504.got - 2010.06.27 13:26:56.
