data_PCOD8038166
_publ_section_title
;
Structure prediction by ZEFSAII (Michael W. Deem and Ramdas Pophale) SiO2 
 PCOD8038166
Probable space group: P -1
;
_chemical_formula_sum "Si O2"
_cell_formula_units_Z 14
_cell_length_a 11.168043
_cell_length_b 24.396973
_cell_length_c 14.085776
_cell_angle_alpha 21.173086
_cell_angle_beta 42.193778
_cell_angle_gamma 32.507245
_cell_volume 724.180651
_symmetry_space_group_name_H-M "P -1"
_symmetry_group_IT_number 2
_symmetry_cell_setting 'triclinic'
loop_
_space_group_symop_operation_xyz
x,y,z
-x,-y,-z
loop_
_atom_site_type_symbol
_atom_site_label
_atom_site_fract_x
_atom_site_fract_y
_atom_site_fract_z
Si Si1 0.187925 0.306899 0.012050
Si Si2 0.031920 0.056466 0.740337
Si Si3 0.636595 0.271369 0.289331
Si Si4 0.943049 0.971368 0.442548
Si Si5 0.276220 0.216685 0.307500
Si Si6 0.253684 0.284933 0.416745
Si Si7 0.314834 0.905846 0.993744
O O1 0.167807 0.135273 0.301980
O O2 0.208034 0.354426 0.033603
O O3 0.411342 0.237710 0.934109
O O4 0.977123 0.499239 0.772793
O O5 0.074527 0.964175 0.760046
O O6 0.059809 0.222980 0.446964
O O7 0.777837 0.150511 0.775751
O O8 0.220721 0.892214 0.969932
O O9 0.451873 0.234926 0.451671
O O10 0.787719 0.176259 0.449346
O O11 0.809673 0.168155 0.264819
O O12 0.500000 0.500000 0.000000
O O13 0.326560 0.284167 0.265034
O O14 0.500000 0.000000 0.500000
O O15 0.213602 0.128793 0.708660
#
# Coordination Sequence:
#
# PCOD8038166 Si02
#       7
#     2   2   2   2   2   2   2
#     4  11  19  33  58  84 108 143 181 227 279 331
#     4   9  19  37  59  81 113 150 174 222 282 332
#     4  11  21  36  57  85 109 143 190 238 269 312
#     4  10  21  37  59  83 109 143 189 231 275 316
#     4  10  17  34  57  83 110 141 180 228 281 324
#     4  11  20  33  56  82 111 145 184 227 275 324
#     4  10  20  37  57  81 119 145 175 220 281 339
#
# _framework density 19.332193
#
# number of rings (size 3 to 8) (size 9 to 14) (size 15 to 20)
#    0.000    1.714    5.714    1.286    0.000    0.000 
#    0.000    8.571    0.000    1.714    0.000    0.000 
#    0.000    0.000    0.000    0.000    0.000    0.000 
#
# Total GULP energy -173533.568747 kJ/mol
# GULP energy per Si atom -12395.254911 kJ/mol
# Density = 1.928819 g / cm^3
# Si number density = 19.332193 Si / 1000 Ang^3
#
#
#
# Elastic Constant Matrix: (Units=GPa)
#
#
# Indices 1 2 3 4 5 6 
#
# 1 97.5523 39.6931 20.5005 0.5511 1.3271 -8.5365
# 2 39.6931 125.8760 47.3017 4.6149 1.2620 -16.0241
# 3 20.5005 47.3017 56.0405 -6.8521 -0.9336 -2.1589
# 4 0.5511 4.6149 -6.8521 34.3405 -2.2211 -1.6415
# 5 1.3271 1.2620 -0.9336 -2.2211 19.1039 -3.1079
# 6 -8.5365 -16.0241 -2.1589 -1.6415 -3.1079 33.6191
#
#
#
# Elastic Compliance Matrix: (Units=1/GPa)
#
#
# Indices 1 2 3 4 5 6 
#
# 1 0.011953 -0.002833 -0.001952 -0.000162 -0.000513 0.001504
# 2 -0.002833 0.013647 -0.010771 -0.003764 -0.000883 0.004828
# 3 -0.001952 -0.010771 0.028444 0.007165 0.002547 -0.003218
# 4 -0.000162 -0.003764 0.007165 0.031366 0.004348 0.000558
# 5 -0.000513 -0.000883 0.002547 0.004348 0.053851 0.004803
# 6 0.001504 0.004828 -0.003218 0.000558 0.004803 0.032693
#
#
# Mechanical properties :
#
#
# Convention : Reuss Voigt Hill
#
# Bulk Modulus (GPa) = 43.60681 54.93994 49.27337
# Shear Modulus (GPa) = 23.72920 28.87760 26.30340
#
# Velocity S-wave (km/s) = 3.50729 3.86911 3.69263
# Velocity P-wave (km/s) = 6.24556 6.95993 6.61240
#
# Compressibility (1/GPa) = 0.02293220
#
# Stress axis : x y z
#
# Youngs Moduli (GPa) = 83.65797 73.27653 35.15631
#
# Poissons Ratio (x) = 0.20763 0.06861
# Poissons Ratio (y) = 0.23704 0.37868
# Poissons Ratio (z) = 0.16326 0.78928
#
# Static dielectric constant tensor:
#      x y z
#    x 3.913420 -0.087430 0.057760 
#    y -0.087430 3.578700 0.005500 
#    z 0.057760 0.005500 3.204320 
# 
# 
# High freq. dielectric constant tensor:
#      x y z
#    x 1.757380 -0.012730 0.001840 
#    y -0.012730 1.748840 -0.012670 
#    z 0.001840 -0.012670 1.710500 
# 
# From -- ./inp_files/457473.got.cif
#   From: 2010.06.25/outbox.cif.g09.slc.cpg/sg2_229_cif.got.tgz:457473.got - 2010.06.27 13:26:56.
