data_PCOD8038666
_publ_section_title
;
Structure prediction by ZEFSAII (Michael W. Deem and Ramdas Pophale) SiO2 
 PCOD8038666
Probable space group: P -1
;
_chemical_formula_sum "Si O2"
_cell_formula_units_Z 16
_cell_length_a 21.707098
_cell_length_b 15.225892
_cell_length_c 23.830926
_cell_angle_alpha 139.856620
_cell_angle_beta 11.486920
_cell_angle_gamma 141.288147
_cell_volume 980.963995
_symmetry_space_group_name_H-M "P -1"
_symmetry_group_IT_number 2
_symmetry_cell_setting 'triclinic'
loop_
_space_group_symop_operation_xyz
x,y,z
-x,-y,-z
loop_
_atom_site_type_symbol
_atom_site_label
_atom_site_fract_x
_atom_site_fract_y
_atom_site_fract_z
Si Si1 0.801032 0.845712 0.589646
Si Si2 0.492190 0.341832 0.414958
Si Si3 0.335984 0.782500 0.516117
Si Si4 0.270790 0.668190 0.035639
Si Si5 0.273940 0.800732 0.761028
Si Si6 0.780585 0.281588 0.014048
Si Si7 0.256433 0.049289 0.668494
Si Si8 0.132654 0.368288 0.055823
O O1 0.513057 0.852512 0.805675
O O2 0.020645 0.750987 0.322285
O O3 0.628148 0.772645 0.765509
O O4 0.000000 0.000000 0.500000
O O5 0.500000 0.500000 0.500000
O O6 0.687672 0.276543 0.253573
O O7 0.676206 0.351406 0.196450
O O8 0.126230 0.247401 0.695860
O O9 0.476750 0.878466 0.490009
O O10 0.587934 0.711409 0.227390
O O11 0.214694 0.880875 0.627025
O O12 0.050556 0.659727 0.735171
O O13 0.183113 0.616282 0.023702
O O14 0.272266 0.534966 0.007642
O O15 0.615865 0.887673 0.475206
O O16 0.079189 0.917378 0.003287
O O17 0.093531 0.684249 0.821172
#
# Coordination Sequence:
#
# PCOD8038666 Si02
#       8
#     2   2   2   2   2   2   2   2
#     4  10  20  35  54  70  90 128 161 198 251 296
#     4  12  22  33  45  68  97 137 169 203 227 263
#     4   9  17  27  46  58  89 115 163 195 242 271
#     4  10  19  32  50  69  99 117 160 194 239 297
#     4  10  20  28  45  59  93 125 171 193 228 257
#     4  10  21  34  48  66  95 128 166 201 232 275
#     4   9  17  31  40  63  80 124 163 205 226 275
#     4  10  18  29  43  69  88 127 152 199 231 281
#
# _framework density 16.310486999999998
#
# number of rings (size 3 to 8) (size 9 to 14) (size 15 to 20)
#    0.750    1.250    1.250    3.750    0.000    5.000 
#    0.000    0.000    0.000    0.000    0.000    0.000 
#    0.000    0.000    0.000   78.750    0.000    0.000 
#
# Total GULP energy -198236.671227 kJ/mol
# GULP energy per Si atom -12389.791952 kJ/mol
# Density = 1.627336 g / cm^3
# Si number density = 16.310487 Si / 1000 Ang^3
#
#
#
# Elastic Constant Matrix: (Units=GPa)
#
#
# Indices 1 2 3 4 5 6 
#
# 1 32.1941 22.5428 13.3119 0.6115 5.6835 -7.3865
# 2 22.5428 90.0379 26.7099 -4.1278 -6.1237 -13.1951
# 3 13.3119 26.7099 73.5403 -9.5054 12.7154 -0.4014
# 4 0.6115 -4.1278 -9.5054 23.2272 -5.7407 1.1523
# 5 5.6835 -6.1237 12.7154 -5.7407 24.0862 -2.4398
# 6 -7.3865 -13.1951 -0.4014 1.1523 -2.4398 17.9021
#
#
#
# Elastic Compliance Matrix: (Units=1/GPa)
#
#
# Indices 1 2 3 4 5 6 
#
# 1 0.043667 -0.009711 -0.003254 -0.007626 -0.011895 0.009656
# 2 -0.009711 0.017933 -0.006356 0.003300 0.012057 0.010499
# 3 -0.003254 -0.006356 0.018841 0.004440 -0.010478 -0.007319
# 4 -0.007626 0.003300 0.004440 0.048649 0.011671 -0.002155
# 5 -0.011895 0.012057 -0.010478 0.011671 0.056790 0.010732
# 6 0.009656 0.010499 -0.007319 -0.002155 0.010732 0.069020
#
#
# Mechanical properties :
#
#
# Convention : Reuss Voigt Hill
#
# Bulk Modulus (GPa) = 23.92373 35.65572 29.78973
# Shear Modulus (GPa) = 16.26145 21.92362 19.09254
#
# Velocity S-wave (km/s) = 3.16095 3.67023 3.42507
# Velocity P-wave (km/s) = 5.29355 6.31418 5.82626
#
# Compressibility (1/GPa) = 0.04179950
#
# Stress axis : x y z
#
# Youngs Moduli (GPa) = 22.90052 55.76161 53.07530
#
# Poissons Ratio (x) = 0.54151 0.17268
# Poissons Ratio (y) = 0.22239 0.33736
# Poissons Ratio (z) = 0.07451 0.35444
#
# Static dielectric constant tensor:
#      x y z
#    x 2.868940 -0.274610 0.154670 
#    y -0.274610 3.047100 -0.034180 
#    z 0.154670 -0.034180 3.300490 
# 
# 
# High freq. dielectric constant tensor:
#      x y z
#    x 1.585350 -0.028360 0.028380 
#    y -0.028360 1.605160 0.000140 
#    z 0.028380 0.000140 1.646010 
# 
# From -- ./inp_files/99101.got.cif
#   From: 2010.06.25/outbox.cif.g09.slc.cpg/sg2_50_cif.got.tgz:99101.got - 2010.06.27 13:26:56.
