data_PCOD8038150
_publ_section_title
;
Structure prediction by ZEFSAII (Michael W. Deem and Ramdas Pophale) SiO2 
 PCOD8038150
Probable space group: P -1
;
_chemical_formula_sum "Si O2"
_cell_formula_units_Z 14
_cell_length_a 16.307055
_cell_length_b 13.486945
_cell_length_c 10.141860
_cell_angle_alpha 109.689390
_cell_angle_beta 142.892594
_cell_angle_gamma 40.817468
_cell_volume 648.101622
_symmetry_space_group_name_H-M "P -1"
_symmetry_group_IT_number 2
_symmetry_cell_setting 'triclinic'
loop_
_space_group_symop_operation_xyz
x,y,z
-x,-y,-z
loop_
_atom_site_type_symbol
_atom_site_label
_atom_site_fract_x
_atom_site_fract_y
_atom_site_fract_z
Si Si1 0.407258 0.237605 0.989745
Si Si2 0.093206 0.640135 0.705024
Si Si3 0.089940 0.104412 0.187821
Si Si4 0.743809 0.858815 0.105711
Si Si5 0.583017 0.309453 0.590187
Si Si6 0.618979 0.306539 0.340350
Si Si7 0.954147 0.263274 0.802078
O O1 0.144558 0.480678 0.725370
O O2 0.342937 0.204924 0.016952
O O3 0.650285 0.158203 0.300118
O O4 0.493087 0.103726 0.919214
O O5 0.895792 0.817436 0.643439
O O6 0.970916 0.738695 0.449090
O O7 0.385237 0.501394 0.028718
O O8 0.351732 0.857606 0.417745
O O9 0.834001 0.200914 0.927716
O O10 0.091148 0.161038 0.073176
O O11 0.849735 0.802197 0.068861
O O12 0.517193 0.401581 0.401879
O O13 0.327607 0.489437 0.437240
O O14 0.893701 0.188178 0.622198
#
# Coordination Sequence:
#
# PCOD8038150 Si02
#       7
#     2   2   2   2   2   2   2
#     4   9  21  41  53  78 107 153 184 219 262 343
#     4  10  19  37  58  79 104 153 180 218 262 338
#     4  10  19  33  59  79 112 148 179 213 281 320
#     4  11  23  35  60  78 113 142 186 222 281 305
#     4  10  17  34  56  82 111 148 177 218 269 337
#     4   9  18  36  59  77 114 138 186 217 269 320
#     4  11  20  36  53  91 112 136 174 243 261 319
#
# _framework density 21.601548999999999
#
# number of rings (size 3 to 8) (size 9 to 14) (size 15 to 20)
#    0.857    1.143    2.857    2.143    0.000    2.286 
#    0.000    2.857    0.000    5.143    0.000    0.000 
#    0.000    0.000    0.000    0.000    0.000    0.000 
#
# Total GULP energy -173466.800703 kJ/mol
# GULP energy per Si atom -12390.485765 kJ/mol
# Density = 2.155238 g / cm^3
# Si number density = 21.601549 Si / 1000 Ang^3
#
#
#
# Elastic Constant Matrix: (Units=GPa)
#
#
# Indices 1 2 3 4 5 6 
#
# 1 90.5009 29.7449 -1.9582 -21.4663 2.0965 -12.8942
# 2 29.7449 97.9451 1.4306 -17.7734 -1.2416 11.0048
# 3 -1.9582 1.4306 34.4587 -0.4684 -11.4897 4.5616
# 4 -21.4663 -17.7734 -0.4684 29.2814 0.7325 0.7511
# 5 2.0965 -1.2416 -11.4897 0.7325 22.1161 -0.9044
# 6 -12.8942 11.0048 4.5616 0.7511 -0.9044 24.7947
#
#
#
# Elastic Compliance Matrix: (Units=1/GPa)
#
#
# Indices 1 2 3 4 5 6 
#
# 1 0.016086 -0.004426 -0.000815 0.008885 -0.002077 0.010135
# 2 -0.004426 0.013443 0.000734 0.005119 0.001038 -0.008520
# 3 -0.000815 0.000734 0.036019 0.000132 0.018552 -0.006704
# 4 0.008885 0.005119 0.000132 0.043798 -0.001899 0.000928
# 5 -0.002077 0.001038 0.018552 -0.001899 0.055054 -0.002888
# 6 0.010135 -0.008520 -0.006704 0.000928 -0.002888 0.050483
#
#
# Mechanical properties :
#
#
# Convention : Reuss Voigt Hill
#
# Bulk Modulus (GPa) = 17.68903 31.25993 24.47448
# Shear Modulus (GPa) = 20.59794 28.15094 24.37444
#
# Velocity S-wave (km/s) = 3.09129 3.61389 3.36276
# Velocity P-wave (km/s) = 4.57690 5.64944 5.14122
#
# Compressibility (1/GPa) = 0.05653221
#
# Stress axis : x y z
#
# Youngs Moduli (GPa) = 62.16458 74.39031 27.76336
#
# Poissons Ratio (x) = 0.32926 0.02264
# Poissons Ratio (y) = 0.27514 -0.02037
# Poissons Ratio (z) = 0.05069 -0.05459
#
# Static dielectric constant tensor:
#      x y z
#    x 3.418880 0.267390 -0.027080 
#    y 0.267390 4.006610 -0.000380 
#    z -0.027080 -0.000380 3.748190 
# 
# 
# High freq. dielectric constant tensor:
#      x y z
#    x 1.799610 0.022160 -0.010080 
#    y 0.022160 1.857250 0.002720 
#    z -0.010080 0.002720 1.842640 
# 
# From -- ./inp_files/315498.got.cif
#   From: 2010.06.25/outbox.cif.g09.slc.cpg/sg2_158_cif.got.tgz:315498.got - 2010.06.27 13:26:56.
