data_PCOD8038921
_publ_section_title
;
Structure prediction by ZEFSAII (Michael W. Deem and Ramdas Pophale) SiO2 
 PCOD8038921
Probable space group: P -1
;
_chemical_formula_sum "Si O2"
_cell_formula_units_Z 16
_cell_length_a 18.758274
_cell_length_b 8.558333
_cell_length_c 14.837487
_cell_angle_alpha 88.718496
_cell_angle_beta 19.710433
_cell_angle_gamma 88.907018
_cell_volume 803.155672
_symmetry_space_group_name_H-M "P -1"
_symmetry_group_IT_number 2
_symmetry_cell_setting 'triclinic'
loop_
_space_group_symop_operation_xyz
x,y,z
-x,-y,-z
loop_
_atom_site_type_symbol
_atom_site_label
_atom_site_fract_x
_atom_site_fract_y
_atom_site_fract_z
Si Si1 0.120242 0.598779 0.729374
Si Si2 0.996808 0.914661 0.190323
Si Si3 0.140945 0.272527 0.799453
Si Si4 0.606099 0.931662 0.758578
Si Si5 0.491372 0.826022 0.272045
Si Si6 0.964225 0.767597 0.756401
Si Si7 0.812723 0.085063 0.669501
Si Si8 0.472885 0.917537 0.629006
O O1 0.130865 0.417061 0.741258
O O2 0.352615 0.672526 0.456345
O O3 0.020315 0.611478 0.747279
O O4 0.975036 0.692011 0.970692
O O5 0.970340 0.876430 0.116166
O O6 0.789262 0.835475 0.487476
O O7 0.983995 0.096513 0.232573
O O8 0.232781 0.860019 0.937599
O O9 0.383114 0.235992 0.536934
O O10 0.556222 0.100939 0.770168
O O11 0.699809 0.950539 0.746746
O O12 0.373373 0.846101 0.043926
O O13 0.441138 0.963054 0.400380
O O14 0.727401 0.766953 0.003987
O O15 0.102764 0.781525 0.500468
O O16 0.000000 0.000000 0.500000
O O17 0.500000 0.000000 0.500000
#
# Coordination Sequence:
#
# PCOD8038921 Si02
#       8
#     2   2   2   2   2   2   2   2
#     4  11  23  37  54  80 116 150 188 222 278 338
#     4  10  20  36  56  80 111 143 190 228 272 323
#     4  11  23  38  55  78 114 157 184 226 274 330
#     4  10  19  31  55  86 110 142 180 230 285 325
#     4  11  19  34  57  83 114 142 186 234 271 328
#     4  10  20  35  57  87 111 142 182 234 281 325
#     4  10  18  31  54  88 116 135 177 234 288 331
#     4  11  22  34  57  84 109 147 191 234 275 319
#
# _framework density 19.921417999999999
#
# number of rings (size 3 to 8) (size 9 to 14) (size 15 to 20)
#    0.000    1.500    5.000    2.250    0.000    2.500 
#    0.000    3.125    0.000    0.750    0.000    5.250 
#    0.000    0.000    0.000    0.000    0.000    0.000 
#
# Total GULP energy -198213.984435 kJ/mol
# GULP energy per Si atom -12388.374027 kJ/mol
# Density = 1.987608 g / cm^3
# Si number density = 19.921418 Si / 1000 Ang^3
#
#
#
# Elastic Constant Matrix: (Units=GPa)
#
#
# Indices 1 2 3 4 5 6 
#
# 1 103.4919 24.8796 46.8167 0.0113 -10.3673 -26.3249
# 2 24.8796 20.3881 31.7838 -1.2354 -4.2674 -14.6448
# 3 46.8167 31.7838 153.1522 1.1507 -9.9455 -17.8468
# 4 0.0113 -1.2354 1.1507 21.5609 -5.1714 0.1682
# 5 -10.3673 -4.2674 -9.9455 -5.1714 32.3273 -1.4219
# 6 -26.3249 -14.6448 -17.8468 0.1682 -1.4219 30.0412
#
#
#
# Elastic Compliance Matrix: (Units=1/GPa)
#
#
# Indices 1 2 3 4 5 6 
#
# 1 0.014951 -0.009798 -0.001425 0.000273 0.003443 0.007640
# 2 -0.009798 0.117370 -0.016140 0.009849 0.010698 0.039493
# 3 -0.001425 -0.016140 0.009961 -0.001404 0.000112 -0.003186
# 4 0.000273 0.009849 -0.001404 0.049146 0.009009 0.004358
# 5 0.003443 0.010698 0.000112 0.009009 0.035362 0.009922
# 6 0.007640 0.039493 -0.003186 0.004358 0.009922 0.057787
#
#
# Mechanical properties :
#
#
# Convention : Reuss Voigt Hill
#
# Bulk Modulus (GPa) = 11.42129 53.77693 32.59911
# Shear Modulus (GPa) = 13.56891 28.35600 20.96245
#
# Velocity S-wave (km/s) = 2.61266 3.77688 3.24737
# Velocity P-wave (km/s) = 3.85317 6.78770 5.51905
#
# Compressibility (1/GPa) = 0.08755575
#
# Stress axis : x y z
#
# Youngs Moduli (GPa) = 66.88575 8.52006 100.38973
#
# Poissons Ratio (x) = 0.08348 0.14307
# Poissons Ratio (y) = 0.65537 1.62027
# Poissons Ratio (z) = 0.09532 0.13751
#
# Static dielectric constant tensor:
#      x y z
#    x 3.774000 -0.091020 0.031750 
#    y -0.091020 3.058800 0.011050 
#    z 0.031750 0.011050 4.255480 
# 
# 
# High freq. dielectric constant tensor:
#      x y z
#    x 1.789100 -0.014730 -0.008030 
#    y -0.014730 1.706740 0.000980 
#    z -0.008030 0.000980 1.809840 
# 
# From -- ./inp_files/407234.got.cif
#   From: 2010.06.25/outbox.cif.g09.slc.cpg/sg2_204_cif.got.tgz:407234.got - 2010.06.27 13:26:56.
