data_PCOD8038071
_publ_section_title
;
Structure prediction by ZEFSAII (Michael W. Deem and Ramdas Pophale) SiO2 
 PCOD8038071
Probable space group: P -1
;
_chemical_formula_sum "Si O2"
_cell_formula_units_Z 16
_cell_length_a 8.540948
_cell_length_b 11.824840
_cell_length_c 9.702556
_cell_angle_alpha 86.852114
_cell_angle_beta 102.811683
_cell_angle_gamma 123.549300
_cell_volume 793.575306
_symmetry_space_group_name_H-M "P -1"
_symmetry_group_IT_number 2
_symmetry_cell_setting 'triclinic'
loop_
_space_group_symop_operation_xyz
x,y,z
-x,-y,-z
loop_
_atom_site_type_symbol
_atom_site_label
_atom_site_fract_x
_atom_site_fract_y
_atom_site_fract_z
Si Si1 0.077021 0.988548 0.659980
Si Si2 0.643534 0.456629 0.575460
Si Si3 0.594586 0.742735 0.230651
Si Si4 0.939538 0.092513 0.871641
Si Si5 0.915715 0.675759 0.294322
Si Si6 0.041000 0.718423 0.621852
Si Si7 0.320130 0.632647 0.702701
Si Si8 0.330910 0.179771 0.058291
O O1 0.055231 0.846537 0.684114
O O2 0.304651 0.106556 0.696798
O O3 0.000000 0.000000 0.500000
O O4 0.970543 0.012257 0.761250
O O5 0.500000 0.500000 0.500000
O O6 0.586737 0.362478 0.705473
O O7 0.662447 0.379346 0.456212
O O8 0.846660 0.587322 0.650330
O O9 0.742954 0.696961 0.272741
O O10 0.543917 0.753679 0.061449
O O11 0.934760 0.218609 0.800128
O O12 0.736400 0.978004 0.913274
O O13 0.122980 0.161721 0.007544
O O14 0.819406 0.517892 0.247746
O O15 0.035430 0.717583 0.455460
O O16 0.224110 0.716641 0.706539
O O17 0.535441 0.716040 0.802781
#
# Coordination Sequence:
#
# PCOD8038071 Si02
#       8
#     2   2   2   2   2   2   2   2
#     4  10  17  33  61  86 113 144 200 243 288 329
#     4  11  20  37  61  90 113 150 202 241 284 334
#     4  10  20  36  59  89 111 148 199 254 272 331
#     4   9  19  35  61  85 112 152 199 249 274 335
#     4   9  17  34  55  85 115 146 191 244 286 325
#     4  11  21  36  56  91 125 148 184 246 302 340
#     4  11  23  36  58  88 126 153 184 236 302 360
#     4   9  21  38  55  88 120 149 195 238 293 338
#
# _framework density 20.161918
#
# number of rings (size 3 to 8) (size 9 to 14) (size 15 to 20)
#    0.000    2.250    5.000    1.500    3.500    2.000 
#    0.000    6.875    0.000    3.000    0.000    0.000 
#    0.000    0.000    0.000    0.000    0.000    0.000 
#
# Total GULP energy -198237.435852 kJ/mol
# GULP energy per Si atom -12389.839741 kJ/mol
# Density = 2.011603 g / cm^3
# Si number density = 20.161918 Si / 1000 Ang^3
#
#
#
# Elastic Constant Matrix: (Units=GPa)
#
#
# Indices 1 2 3 4 5 6 
#
# 1 53.6278 32.8295 23.7056 1.9168 0.0410 -4.2438
# 2 32.8295 145.0119 59.4745 -20.6697 -4.1184 8.1046
# 3 23.7056 59.4745 63.5452 -18.4618 2.0689 0.7170
# 4 1.9168 -20.6697 -18.4618 44.4893 12.0682 -13.6091
# 5 0.0410 -4.1184 2.0689 12.0682 19.1520 -2.8154
# 6 -4.2438 8.1046 0.7170 -13.6091 -2.8154 21.7744
#
#
#
# Elastic Compliance Matrix: (Units=1/GPa)
#
#
# Indices 1 2 3 4 5 6 
#
# 1 0.024675 -0.003108 -0.008313 -0.006318 0.004581 0.002884
# 2 -0.003108 0.012195 -0.010671 -0.001205 0.003798 -0.005056
# 3 -0.008313 -0.010671 0.033997 0.016500 -0.014933 0.009614
# 4 -0.006318 -0.001205 0.016500 0.042770 -0.025733 0.022078
# 5 0.004581 0.003798 -0.014933 -0.025733 0.069807 -0.007086
# 6 0.002884 -0.005056 0.009614 0.022078 -0.007086 0.060935
#
#
# Mechanical properties :
#
#
# Convention : Reuss Voigt Hill
#
# Bulk Modulus (GPa) = 37.47814 54.91156 46.19485
# Shear Modulus (GPa) = 16.80910 26.82815 21.81863
#
# Velocity S-wave (km/s) = 2.89053 3.65174 3.29320
# Velocity P-wave (km/s) = 5.45611 6.71377 6.11735
#
# Compressibility (1/GPa) = 0.02668222
#
# Stress axis : x y z
#
# Youngs Moduli (GPa) = 40.52681 82.00228 29.41476
#
# Poissons Ratio (x) = 0.25489 0.24452
# Poissons Ratio (y) = 0.12597 0.31388
# Poissons Ratio (z) = 0.33690 0.87503
#
# Static dielectric constant tensor:
#      x y z
#    x 3.536820 0.140460 -0.442060 
#    y 0.140460 4.298330 -0.308240 
#    z -0.442060 -0.308240 4.344670 
# 
# 
# High freq. dielectric constant tensor:
#      x y z
#    x 1.734350 0.012420 0.007680 
#    y 0.012420 1.807750 -0.014350 
#    z 0.007680 -0.014350 1.784380 
# 
# From -- ./inp_files/179273.got.cif
#   From: 2010.06.25/outbox.cif.g09.slc.cpg/sg2_90_cif.got.tgz:179273.got - 2010.06.27 13:26:56.
