data_PCOD8038679
_publ_section_title
;
Structure prediction by ZEFSAII (Michael W. Deem and Ramdas Pophale) SiO2 
 PCOD8038679
Probable space group: P -1
;
_chemical_formula_sum "Si O2"
_cell_formula_units_Z 16
_cell_length_a 7.941462
_cell_length_b 24.051364
_cell_length_c 11.875018
_cell_angle_alpha 37.757848
_cell_angle_beta 74.264679
_cell_angle_gamma 45.268027
_cell_volume 744.947760
_symmetry_space_group_name_H-M "P -1"
_symmetry_group_IT_number 2
_symmetry_cell_setting 'triclinic'
loop_
_space_group_symop_operation_xyz
x,y,z
-x,-y,-z
loop_
_atom_site_type_symbol
_atom_site_label
_atom_site_fract_x
_atom_site_fract_y
_atom_site_fract_z
Si Si1 0.594722 0.849904 0.604872
Si Si2 0.304738 0.724267 0.643878
Si Si3 0.916293 0.714183 0.419591
Si Si4 0.502228 0.815330 0.150710
Si Si5 0.588476 0.061962 0.261197
Si Si6 0.942175 0.144544 0.857985
Si Si7 0.352271 0.898385 0.353636
Si Si8 0.765963 0.432061 0.186365
O O1 0.495069 0.997258 0.374172
O O2 0.352369 0.901866 0.483295
O O3 0.949511 0.675294 0.781028
O O4 0.555282 0.832848 0.767016
O O5 0.467459 0.747367 0.534678
O O6 0.299829 0.649199 0.667978
O O7 0.962959 0.907716 0.446828
O O8 0.466744 0.614773 0.902288
O O9 0.821363 0.693904 0.360757
O O10 0.071629 0.741458 0.308757
O O11 0.599904 0.864749 0.310391
O O12 0.161551 0.564305 0.705444
O O13 0.391604 0.757244 0.273272
O O14 0.567591 0.816760 0.008502
O O15 0.213993 0.001748 0.948291
O O16 0.017017 0.068602 0.088900
#
# Coordination Sequence:
#
# PCOD8038679 Si02
#       8
#     2   2   2   2   2   2   2   2
#     4   9  19  31  52  75 111 144 173 223 271 324
#     4  10  19  33  54  77 114 139 178 224 269 327
#     4  10  20  30  50  78 110 138 178 223 268 321
#     4  10  18  29  49  75 104 140 171 222 270 309
#     4  10  18  34  51  79 111 138 181 220 274 321
#     4  10  18  29  48  77 109 135 173 231 272 306
#     4  10  18  31  51  80 109 137 176 224 275 319
#     4   9  20  36  52  80 109 144 178 219 274 326
#
# _framework density 21.478017000000001
#
# number of rings (size 3 to 8) (size 9 to 14) (size 15 to 20)
#    0.000    2.250    1.250    4.500    3.500    2.500 
#    0.000    0.000    0.000    0.000    0.000   35.000 
#    7.500    0.000    0.000    0.000    0.000    0.000 
#
# Total GULP energy -198247.212856 kJ/mol
# GULP energy per Si atom -12390.450804 kJ/mol
# Density = 2.142913 g / cm^3
# Si number density = 21.478017 Si / 1000 Ang^3
#
#
#
# Elastic Constant Matrix: (Units=GPa)
#
#
# Indices 1 2 3 4 5 6 
#
# 1 138.1545 25.9004 49.9685 21.7171 17.5597 1.4626
# 2 25.9004 67.6192 32.0102 32.8761 11.1452 13.3245
# 3 49.9685 32.0102 85.1508 24.5800 24.1418 8.9002
# 4 21.7171 32.8761 24.5800 30.0534 11.1193 6.6033
# 5 17.5597 11.1452 24.1418 11.1193 34.4519 14.8648
# 6 1.4626 13.3245 8.9002 6.6033 14.8648 16.8835
#
#
#
# Elastic Compliance Matrix: (Units=1/GPa)
#
#
# Indices 1 2 3 4 5 6 
#
# 1 0.009767 -0.001365 -0.004224 -0.002182 -0.003711 0.006578
# 2 -0.001365 0.037817 -0.004239 -0.036556 0.014391 -0.025865
# 3 -0.004224 -0.004239 0.020022 -0.005782 -0.010744 0.004878
# 4 -0.002182 -0.036556 -0.005782 0.082306 -0.015367 0.013427
# 5 -0.003711 0.014391 -0.010744 -0.015367 0.062044 -0.053987
# 6 0.006578 -0.025865 0.004878 0.013427 -0.053987 0.118782
#
#
# Mechanical properties :
#
#
# Convention : Reuss Voigt Hill
#
# Bulk Modulus (GPa) = 20.85561 56.29806 38.57683
# Shear Modulus (GPa) = 13.64717 28.48078 21.06397
#
# Velocity S-wave (km/s) = 2.52345 3.64544 3.13505
# Velocity P-wave (km/s) = 4.26869 6.63233 5.57716
#
# Compressibility (1/GPa) = 0.04794874
#
# Stress axis : x y z
#
# Youngs Moduli (GPa) = 102.38609 26.44333 49.94612
#
# Poissons Ratio (x) = 0.03610 0.21097
# Poissons Ratio (y) = 0.13978 0.21173
# Poissons Ratio (z) = 0.43247 0.11210
#
# Static dielectric constant tensor:
#      x y z
#    x 4.350750 0.015290 0.261570 
#    y 0.015290 3.421660 0.467200 
#    z 0.261570 0.467200 3.701590 
# 
# 
# High freq. dielectric constant tensor:
#      x y z
#    x 1.864770 -0.003160 0.016520 
#    y -0.003160 1.778900 0.049950 
#    z 0.016520 0.049950 1.824070 
# 
# From -- ./inp_files/256943.got.cif
#   From: 2010.06.25/outbox.cif.g09.slc.cpg/sg2_129_cif.got.tgz:256943.got - 2010.06.27 13:26:56.
