data_PCOD8038348
_publ_section_title
;
Structure prediction by ZEFSAII (Michael W. Deem and Ramdas Pophale) SiO2 
 PCOD8038348
Probable space group: P -1
;
_chemical_formula_sum "Si O2"
_cell_formula_units_Z 16
_cell_length_a 10.748676
_cell_length_b 14.791829
_cell_length_c 9.502541
_cell_angle_alpha 38.181221
_cell_angle_beta 78.115066
_cell_angle_gamma 62.129239
_cell_volume 788.702701
_symmetry_space_group_name_H-M "P -1"
_symmetry_group_IT_number 2
_symmetry_cell_setting 'triclinic'
loop_
_space_group_symop_operation_xyz
x,y,z
-x,-y,-z
loop_
_atom_site_type_symbol
_atom_site_label
_atom_site_fract_x
_atom_site_fract_y
_atom_site_fract_z
Si Si1 0.906266 0.263351 0.278152
Si Si2 0.758453 0.609920 0.391517
Si Si3 0.499279 0.941181 0.417077
Si Si4 0.024968 0.681092 0.505245
Si Si5 0.841735 0.900875 0.046109
Si Si6 0.537376 0.115314 0.945634
Si Si7 0.174978 0.010557 0.363280
Si Si8 0.219701 0.409242 0.278050
O O1 0.827216 0.157465 0.385365
O O2 0.899923 0.284112 0.422616
O O3 0.816531 0.444950 0.003699
O O4 0.075329 0.162870 0.307417
O O5 0.800538 0.754821 0.217308
O O6 0.784910 0.521730 0.646493
O O7 0.855620 0.484048 0.401789
O O8 0.587032 0.689232 0.290232
O O9 0.340280 0.973056 0.370702
O O10 0.617613 0.744837 0.605190
O O11 0.500000 0.000000 0.500000
O O12 0.538426 0.062012 0.171033
O O13 0.964337 0.838819 0.216736
O O14 0.896614 0.654233 0.631185
O O15 0.699600 0.078632 0.911236
O O16 0.896877 0.930590 0.847851
O O17 0.500000 0.000000 0.000000
#
# Coordination Sequence:
#
# PCOD8038348 Si02
#       8
#     2   2   2   2   2   2   2   2
#     4  11  26  39  55  84 124 162 191 233 289 352
#     4  10  18  32  61  86 114 145 187 244 296 335
#     4  12  23  36  65  93 115 147 194 249 293 340
#     4  11  21  35  59  91 114 147 198 248 284 331
#     4  10  18  36  62  85 112 150 195 241 289 335
#     4  10  17  35  57  92 110 143 189 239 296 335
#     4  11  23  43  59  79 121 163 192 230 297 355
#     4  11  21  38  58  89 120 150 193 243 291 344
#
# _framework density 20.286477999999999
#
# number of rings (size 3 to 8) (size 9 to 14) (size 15 to 20)
#    0.000    1.250    6.250    4.125    1.750    1.000 
#    0.000    0.000    0.000    1.500    0.000    0.000 
#    0.000    0.000    0.000    0.000    0.000    0.000 
#
# Total GULP energy -198389.497233 kJ/mol
# GULP energy per Si atom -12399.343577 kJ/mol
# Density = 2.024030 g / cm^3
# Si number density = 20.286478 Si / 1000 Ang^3
#
#
#
# Elastic Constant Matrix: (Units=GPa)
#
#
# Indices 1 2 3 4 5 6 
#
# 1 31.1552 26.5270 21.8203 -6.0499 12.2622 -10.1947
# 2 26.5270 107.9420 31.6310 19.6334 15.6778 -10.2311
# 3 21.8203 31.6310 100.5258 11.3082 21.3788 6.8256
# 4 -6.0499 19.6334 11.3082 34.7192 -4.3472 10.9301
# 5 12.2622 15.6778 21.3788 -4.3472 27.2843 -0.9225
# 6 -10.1947 -10.2311 6.8256 10.9301 -0.9225 25.4783
#
#
#
# Elastic Compliance Matrix: (Units=1/GPa)
#
#
# Indices 1 2 3 4 5 6 
#
# 1 0.061066 -0.011660 -0.010155 0.014257 -0.009976 0.015995
# 2 -0.011660 0.016512 -0.000280 -0.014581 -0.006079 0.008076
# 3 -0.010155 -0.000280 0.015015 -0.005604 -0.008139 -0.006089
# 4 0.014257 -0.014581 -0.005604 0.049105 0.013536 -0.019225
# 5 -0.009976 -0.006079 -0.008139 0.013536 0.052886 -0.008144
# 6 0.015995 0.008076 -0.006089 -0.019225 -0.008144 0.058476
#
#
# Mechanical properties :
#
#
# Convention : Reuss Voigt Hill
#
# Bulk Modulus (GPa) = 20.65941 44.39773 32.52857
# Shear Modulus (GPa) = 15.95493 28.13934 22.04713
#
# Velocity S-wave (km/s) = 2.80747 3.72842 3.30023
# Velocity P-wave (km/s) = 4.55139 6.36142 5.53095
#
# Compressibility (1/GPa) = 0.04840409
#
# Stress axis : x y z
#
# Youngs Moduli (GPa) = 16.37576 60.56139 66.60157
#
# Poissons Ratio (x) = 0.70612 0.67631
# Poissons Ratio (y) = 0.19093 0.01866
# Poissons Ratio (z) = 0.16629 0.01696
#
# Static dielectric constant tensor:
#      x y z
#    x 3.611360 -0.337800 0.471480 
#    y -0.337800 3.837660 0.112680 
#    z 0.471480 0.112680 3.901130 
# 
# 
# High freq. dielectric constant tensor:
#      x y z
#    x 1.758750 -0.023090 0.025610 
#    y -0.023090 1.801830 0.014760 
#    z 0.025610 0.014760 1.796350 
# 
# From -- ./inp_files/260559.got.cif
#   From: 2010.06.25/outbox.cif.g09.slc.cpg/sg2_131_cif.got.tgz:260559.got - 2010.06.27 13:26:56.
