data_PCOD8038113
_publ_section_title
;
Structure prediction by ZEFSAII (Michael W. Deem and Ramdas Pophale) SiO2 
 PCOD8038113
Probable space group: P -1
;
_chemical_formula_sum "Si O2"
_cell_formula_units_Z 10
_cell_length_a 13.124543
_cell_length_b 9.257689
_cell_length_c 9.671206
_cell_angle_alpha 109.052636
_cell_angle_beta 30.492738
_cell_angle_gamma 91.993102
_cell_volume 483.470538
_symmetry_space_group_name_H-M "P -1"
_symmetry_group_IT_number 2
_symmetry_cell_setting 'triclinic'
loop_
_space_group_symop_operation_xyz
x,y,z
-x,-y,-z
loop_
_atom_site_type_symbol
_atom_site_label
_atom_site_fract_x
_atom_site_fract_y
_atom_site_fract_z
Si Si1 0.268694 0.487326 0.768631
Si Si2 0.542112 0.779311 0.755589
Si Si3 0.123880 0.855358 0.080638
Si Si4 0.393682 0.892673 0.254278
Si Si5 0.480330 0.828825 0.440811
O O1 0.500000 0.500000 0.500000
O O2 0.252949 0.405186 0.612533
O O3 0.294418 0.349250 0.815475
O O4 0.065421 0.692833 0.093692
O O5 0.567097 0.942993 0.732016
O O6 0.287814 0.828367 0.010846
O O7 0.546962 0.757824 0.909289
O O8 0.243918 0.861011 0.799081
O O9 0.877790 0.037541 0.438535
O O10 0.471674 0.791127 0.276977
O O11 0.500000 0.000000 0.500000
#
# Coordination Sequence:
#
# PCOD8038113 Si02
#       5
#     2   2   2   2   2
#     4   8  17  35  53  71 106 136 161 209 259 292
#     4   9  19  34  50  78 107 131 165 211 257 297
#     4  10  20  35  54  78 101 134 172 209 249 303
#     4  11  19  31  58  78  98 135 175 207 250 299
#     4  10  17  34  53  76 104 133 168 213 247 298
#
# _framework density 20.683783999999999
#
# number of rings (size 3 to 8) (size 9 to 14) (size 15 to 20)
#    0.000    2.800    4.000    1.200    0.000    0.800 
#    0.000    9.000    0.000    4.800    0.000    0.000 
#    0.000    0.000    0.000    0.000    0.000    0.000 
#
# Total GULP energy -123898.595318 kJ/mol
# GULP energy per Si atom -12389.859532 kJ/mol
# Density = 2.063671 g / cm^3
# Si number density = 20.683784 Si / 1000 Ang^3
#
#
#
# Elastic Constant Matrix: (Units=GPa)
#
#
# Indices 1 2 3 4 5 6 
#
# 1 91.1462 29.9099 9.8348 -3.2085 33.1985 -11.1517
# 2 29.9099 96.4905 10.7543 -5.4681 13.8913 -11.7334
# 3 9.8348 10.7543 32.4814 3.7195 21.8158 -13.6872
# 4 -3.2085 -5.4681 3.7195 16.0935 -3.5085 2.5887
# 5 33.1985 13.8913 21.8158 -3.5085 35.6028 -7.7209
# 6 -11.1517 -11.7334 -13.6872 2.5887 -7.7209 35.5220
#
#
#
# Elastic Compliance Matrix: (Units=1/GPa)
#
#
# Indices 1 2 3 4 5 6 
#
# 1 0.021385 -0.004178 0.018027 -0.008665 -0.028766 0.006658
# 2 -0.004178 0.012200 -0.004653 0.004791 0.002712 0.001166
# 3 0.018027 -0.004653 0.085906 -0.036272 -0.065657 0.025596
# 4 -0.008665 0.004791 -0.036272 0.079891 0.033340 -0.013689
# 5 -0.028766 0.002712 -0.065657 0.033340 0.094025 -0.015427
# 6 0.006658 0.001166 0.025596 -0.013689 -0.015427 0.038134
#
#
# Mechanical properties :
#
#
# Convention : Reuss Voigt Hill
#
# Bulk Modulus (GPa) = 7.25255 35.67956 21.46606
# Shear Modulus (GPa) = 13.92332 28.75161 21.33746
#
# Velocity S-wave (km/s) = 2.59733 3.73239 3.21534
# Velocity P-wave (km/s) = 3.53678 5.98847 4.91786
#
# Compressibility (1/GPa) = 0.13788249
#
# Stress axis : x y z
#
# Youngs Moduli (GPa) = 46.76281 81.96539 11.64059
#
# Poissons Ratio (x) = 0.34244 -0.20984
# Poissons Ratio (y) = 0.19537 0.05417
# Poissons Ratio (z) = -0.84299 0.38141
#
# Static dielectric constant tensor:
#      x y z
#    x 3.828860 0.020140 0.149200 
#    y 0.020140 4.261290 0.335950 
#    z 0.149200 0.335950 3.825770 
# 
# 
# High freq. dielectric constant tensor:
#      x y z
#    x 1.811960 0.014750 0.009100 
#    y 0.014750 1.804970 -0.005290 
#    z 0.009100 -0.005290 1.785060 
# 
# From -- ./inp_files/144338.got.cif
#   From: 2010.06.25/outbox.cif.g09.slc.cpg/sg2_73_cif.got.tgz:144338.got - 2010.06.27 13:26:56.
