data_PCOD8038870
_publ_section_title
;
Structure prediction by ZEFSAII (Michael W. Deem and Ramdas Pophale) SiO2 
 PCOD8038870
Probable space group: P -1
;
_chemical_formula_sum "Si O2"
_cell_formula_units_Z 16
_cell_length_a 16.945544
_cell_length_b 14.038720
_cell_length_c 13.997590
_cell_angle_alpha 127.154535
_cell_angle_beta 137.694415
_cell_angle_gamma 23.126650
_cell_volume 842.987906
_symmetry_space_group_name_H-M "P -1"
_symmetry_group_IT_number 2
_symmetry_cell_setting 'triclinic'
loop_
_space_group_symop_operation_xyz
x,y,z
-x,-y,-z
loop_
_atom_site_type_symbol
_atom_site_label
_atom_site_fract_x
_atom_site_fract_y
_atom_site_fract_z
Si Si1 0.382060 0.959084 0.425443
Si Si2 0.883882 0.617891 0.672523
Si Si3 0.687769 0.093085 0.376038
Si Si4 0.631369 0.903237 0.304731
Si Si5 0.674002 0.226289 0.638256
Si Si6 0.900881 0.217854 0.573128
Si Si7 0.092915 0.333435 0.069004
Si Si8 0.186174 0.652949 0.211000
O O1 0.681116 0.695356 0.516425
O O2 0.283275 0.912488 0.325887
O O3 0.235994 0.145022 0.317227
O O4 0.329546 0.093355 0.549235
O O5 0.964002 0.543671 0.810046
O O6 0.124866 0.385298 0.682932
O O7 0.778212 0.084619 0.544872
O O8 0.476883 0.359869 0.297309
O O9 0.571437 0.072604 0.289788
O O10 0.918677 0.855556 0.368868
O O11 0.388183 0.040780 0.152898
O O12 0.380502 0.510507 0.544021
O O13 0.820849 0.219458 0.783398
O O14 0.930677 0.215839 0.710580
O O15 0.000000 0.000000 0.500000
O O16 0.000000 0.500000 0.000000
O O17 0.963581 0.320907 0.953068
#
# Coordination Sequence:
#
# PCOD8038870 Si02
#       8
#     2   2   2   2   2   2   2   2
#     4   9  20  38  61  84 107 136 188 238 276 314
#     4  10  21  39  59  82 109 146 184 229 274 320
#     4  10  18  31  51  80 107 140 174 223 274 320
#     4  10  20  35  60  82 109 141 188 227 272 321
#     4  10  19  33  52  80 109 138 175 232 275 315
#     4  11  18  30  52  81 108 139 182 220 274 327
#     4  11  24  38  51  80 119 152 181 215 272 338
#     4  11  21  34  49  74 118 145 171 221 270 322
#
# _framework density 18.980105999999999
#
# number of rings (size 3 to 8) (size 9 to 14) (size 15 to 20)
#    0.000    1.750    3.750    1.875    3.500    1.500 
#    0.000    0.625    0.000    0.750    0.000    0.000 
#    0.000    0.000    0.000    0.000    0.000    0.000 
#
# Total GULP energy -198314.787154 kJ/mol
# GULP energy per Si atom -12394.674197 kJ/mol
# Density = 1.893691 g / cm^3
# Si number density = 18.980106 Si / 1000 Ang^3
#
#
#
# Elastic Constant Matrix: (Units=GPa)
#
#
# Indices 1 2 3 4 5 6 
#
# 1 103.4388 20.9895 29.7961 -4.4854 16.1620 7.7834
# 2 20.9895 69.4231 10.4718 -6.8541 1.6288 -15.0634
# 3 29.7961 10.4718 49.2228 -0.8104 12.8201 9.9858
# 4 -4.4854 -6.8541 -0.8104 13.0961 3.6520 8.6698
# 5 16.1620 1.6288 12.8201 3.6520 35.0334 2.5215
# 6 7.7834 -15.0634 9.9858 8.6698 2.5215 41.9831
#
#
#
# Elastic Compliance Matrix: (Units=1/GPa)
#
#
# Indices 1 2 3 4 5 6 
#
# 1 0.013006 -0.003151 -0.005344 0.005791 -0.004271 -0.003210
# 2 -0.003151 0.017697 -0.003537 0.002956 0.001106 0.007098
# 3 -0.005344 -0.003537 0.027883 0.005130 -0.007568 -0.007515
# 4 0.005791 0.002956 0.005130 0.097558 -0.013375 -0.020576
# 5 -0.004271 0.001106 -0.007568 -0.013375 0.034361 0.003687
# 6 -0.003210 0.007098 -0.007515 -0.020576 0.003687 0.032776
#
#
# Mechanical properties :
#
#
# Convention : Reuss Voigt Hill
#
# Bulk Modulus (GPa) = 28.96639 38.28884 33.62762
# Shear Modulus (GPa) = 19.31605 28.74433 24.03019
#
# Velocity S-wave (km/s) = 3.19360 3.89581 3.56205
# Velocity P-wave (km/s) = 5.37526 6.36030 5.88841
#
# Compressibility (1/GPa) = 0.03452277
#
# Stress axis : x y z
#
# Youngs Moduli (GPa) = 76.88636 56.50796 35.86404
#
# Poissons Ratio (x) = 0.17805 0.19165
# Poissons Ratio (y) = 0.24226 0.12685
# Poissons Ratio (z) = 0.41087 0.19986
#
# Static dielectric constant tensor:
#      x y z
#    x 3.929490 -0.245220 0.208300 
#    y -0.245220 3.612120 -0.000610 
#    z 0.208300 -0.000610 3.146740 
# 
# 
# High freq. dielectric constant tensor:
#      x y z
#    x 1.755100 -0.007520 0.018360 
#    y -0.007520 1.734450 -0.002120 
#    z 0.018360 -0.002120 1.694290 
# 
# From -- ./inp_files/66368.got.cif
#   From: 2010.06.25/outbox.cif.g09.slc.cpg/sg2_34_cif.got.tgz:66368.got - 2010.06.27 13:26:56.
