data_PCOD8038939
_publ_section_title
;
Structure prediction by ZEFSAII (Michael W. Deem and Ramdas Pophale) SiO2 
 PCOD8038939
Probable space group: P -1
;
_chemical_formula_sum "Si O2"
_cell_formula_units_Z 14
_cell_length_a 6.349486
_cell_length_b 21.563421
_cell_length_c 14.631590
_cell_angle_alpha 19.095456
_cell_angle_beta 75.283385
_cell_angle_gamma 75.387941
_cell_volume 633.395854
_symmetry_space_group_name_H-M "P -1"
_symmetry_group_IT_number 2
_symmetry_cell_setting 'triclinic'
loop_
_space_group_symop_operation_xyz
x,y,z
-x,-y,-z
loop_
_atom_site_type_symbol
_atom_site_label
_atom_site_fract_x
_atom_site_fract_y
_atom_site_fract_z
Si Si1 0.059358 0.575084 0.741738
Si Si2 0.275059 0.208819 0.647708
Si Si3 0.678950 0.408593 0.674207
Si Si4 0.343790 0.650525 0.859122
Si Si5 0.506296 0.585883 0.128378
Si Si6 0.089116 0.213694 0.845125
Si Si7 0.322257 0.892913 0.364612
O O1 0.231228 0.432263 0.870218
O O2 0.197377 0.703477 0.615039
O O3 0.930440 0.719401 0.488380
O O4 0.894359 0.436283 0.001787
O O5 0.418854 0.376277 0.433615
O O6 0.170798 0.108670 0.888159
O O7 0.445144 0.077003 0.753761
O O8 0.500000 0.500000 0.500000
O O9 0.574702 0.312906 0.909508
O O10 0.829689 0.575301 0.456957
O O11 0.825441 0.240277 0.843379
O O12 0.357198 0.854416 0.522740
O O13 0.500000 0.500000 0.000000
O O14 0.416359 0.688245 0.903373
O O15 0.176759 0.084538 0.099403
#
# Coordination Sequence:
#
# PCOD8038939 Si02
#       7
#     2   2   2   2   2   2   2
#     4  10  18  31  56  80 113 142 177 211 276 323
#     4   9  18  33  52  82 114 140 173 222 275 328
#     4  10  21  41  60  76 103 147 193 227 269 316
#     4  11  19  35  54  84 116 145 173 215 271 334
#     4   9  19  33  56  81 106 142 187 221 263 321
#     4  10  22  37  56  79 111 143 183 231 272 312
#     4  11  21  32  53  86 115 144 175 220 272 329
#
# _framework density 22.103081
#
# number of rings (size 3 to 8) (size 9 to 14) (size 15 to 20)
#    0.000    2.000    4.286    1.714    0.000    2.857 
#    0.000    0.714    0.000    1.714    0.000    0.000 
#    0.000    0.000    0.000    0.000    0.000    0.000 
#
# Total GULP energy -173463.987311 kJ/mol
# GULP energy per Si atom -12390.284808 kJ/mol
# Density = 2.205277 g / cm^3
# Si number density = 22.103081 Si / 1000 Ang^3
#
#
#
# Elastic Constant Matrix: (Units=GPa)
#
#
# Indices 1 2 3 4 5 6 
#
# 1 135.2281 59.8595 32.8773 16.8442 21.7820 -35.3897
# 2 59.8595 93.0257 45.2463 44.4548 8.3782 -25.4557
# 3 32.8773 45.2463 96.6631 31.2905 33.6232 -21.0497
# 4 16.8442 44.4548 31.2905 33.2288 9.5452 -1.0308
# 5 21.7820 8.3782 33.6232 9.5452 34.0822 -3.3957
# 6 -35.3897 -25.4557 -21.0497 -1.0308 -3.3957 33.3713
#
#
#
# Elastic Compliance Matrix: (Units=1/GPa)
#
#
# Indices 1 2 3 4 5 6 
#
# 1 0.014892 -0.013867 0.003181 0.011613 -0.011865 0.006373
# 2 -0.013867 0.085742 0.008896 -0.119512 0.017903 0.054440
# 3 0.003181 0.008896 0.028645 -0.033819 -0.020507 0.025097
# 4 0.011613 -0.119512 -0.033819 0.217304 -0.015003 -0.094995
# 5 -0.011865 0.017903 -0.020507 -0.015003 0.056298 -0.006596
# 6 0.006373 0.054440 0.025097 -0.094995 -0.006596 0.090477
#
#
# Mechanical properties :
#
#
# Convention : Reuss Voigt Hill
#
# Bulk Modulus (GPa) = 7.95540 66.76478 37.36009
# Shear Modulus (GPa) = 9.27922 32.59870 20.93896
#
# Velocity S-wave (km/s) = 2.05116 3.84454 3.08122
# Velocity P-wave (km/s) = 3.03591 7.06958 5.44039
#
# Compressibility (1/GPa) = 0.12570080
#
# Stress axis : x y z
#
# Youngs Moduli (GPa) = 67.14845 11.66284 34.91028
#
# Poissons Ratio (x) = 0.16173 -0.11107
# Poissons Ratio (y) = 0.93117 -0.31058
# Poissons Ratio (z) = -0.21363 -0.10376
#
# Static dielectric constant tensor:
#      x y z
#    x 4.360070 -0.418230 0.005620 
#    y -0.418230 4.273100 0.545650 
#    z 0.005620 0.545650 3.760550 
# 
# 
# High freq. dielectric constant tensor:
#      x y z
#    x 1.885340 -0.017510 0.008190 
#    y -0.017510 1.848320 0.035930 
#    z 0.008190 0.035930 1.845090 
# 
# From -- ./inp_files/64540.got.cif
#   From: 2010.06.25/outbox.cif.g09.slc.cpg/sg2_33_cif.got.tgz:64540.got - 2010.06.27 13:26:56.
