data_PCOD8038094
_publ_section_title
;
Structure prediction by ZEFSAII (Michael W. Deem and Ramdas Pophale) SiO2 
 PCOD8038094
Probable space group: P -1
;
_chemical_formula_sum "Si O2"
_cell_formula_units_Z 16
_cell_length_a 9.288814
_cell_length_b 12.561422
_cell_length_c 22.234717
_cell_angle_alpha 160.784511
_cell_angle_beta 112.087000
_cell_angle_gamma 67.575354
_cell_volume 788.229426
_symmetry_space_group_name_H-M "P -1"
_symmetry_group_IT_number 2
_symmetry_cell_setting 'triclinic'
loop_
_space_group_symop_operation_xyz
x,y,z
-x,-y,-z
loop_
_atom_site_type_symbol
_atom_site_label
_atom_site_fract_x
_atom_site_fract_y
_atom_site_fract_z
Si Si1 0.516724 0.334959 0.554266
Si Si2 0.329600 0.835166 0.317528
Si Si3 0.226141 0.020699 0.665824
Si Si4 0.961094 0.646486 0.286365
Si Si5 0.703638 0.637113 0.840961
Si Si6 0.763526 0.184743 0.219846
Si Si7 0.934822 0.631290 0.405431
Si Si8 0.826490 0.649712 0.043119
O O1 0.605293 0.165640 0.421227
O O2 0.633273 0.571885 0.730149
O O3 0.359610 0.552614 0.626911
O O4 0.471618 0.047006 0.437517
O O5 0.384443 0.584039 0.244379
O O6 0.182559 0.052901 0.436217
O O7 0.279460 0.634157 0.144300
O O8 0.106353 0.743440 0.502951
O O9 0.176370 0.297696 0.755145
O O10 0.245881 0.196541 0.825603
O O11 0.913144 0.484768 0.256036
O O12 0.109025 0.444099 0.172096
O O13 0.000000 0.000000 0.500000
O O14 0.675219 0.009211 0.057866
O O15 0.904518 0.361749 0.306743
O O16 0.832754 0.925243 0.140277
O O17 0.000000 0.500000 0.000000
#
# Coordination Sequence:
#
# PCOD8038094 Si02
#       8
#     2   2   2   2   2   2   2   2
#     4  11  22  37  57  88 120 157 188 239 306 349
#     4  10  20  36  61  88 114 153 203 240 279 352
#     4  11  20  37  65  85 121 159 195 234 298 338
#     4  10  17  33  63  93 114 148 199 245 280 342
#     4  11  18  37  61  84 123 157 193 239 296 341
#     4  10  25  37  59  89 121 150 198 243 291 349
#     4  10  18  38  59  90 119 147 193 249 285 342
#     4  11  22  42  66  83 113 156 204 245 283 344
#
# _framework density 20.298659000000001
#
# number of rings (size 3 to 8) (size 9 to 14) (size 15 to 20)
#    0.000    1.500    6.250    1.500    0.000    3.000 
#    0.000    0.000    5.500    0.000    0.000    0.000 
#    0.000    0.000    0.000    0.000    0.000    0.000 
#
# Total GULP energy -198351.821946 kJ/mol
# GULP energy per Si atom -12396.988872 kJ/mol
# Density = 2.025246 g / cm^3
# Si number density = 20.298659 Si / 1000 Ang^3
#
#
#
# Elastic Constant Matrix: (Units=GPa)
#
#
# Indices 1 2 3 4 5 6 
#
# 1 99.8197 22.6902 32.2604 4.1945 -15.9767 15.2834
# 2 22.6902 71.7192 21.6257 -13.0701 -2.3332 7.3442
# 3 32.2604 21.6257 71.4280 -11.9061 -9.1107 12.0433
# 4 4.1945 -13.0701 -11.9061 36.3255 5.2081 -4.6110
# 5 -15.9767 -2.3332 -9.1107 5.2081 25.2933 -6.7876
# 6 15.2834 7.3442 12.0433 -4.6110 -6.7876 21.7536
#
#
#
# Elastic Compliance Matrix: (Units=1/GPa)
#
#
# Indices 1 2 3 4 5 6 
#
# 1 0.014573 -0.003519 -0.004722 -0.006203 0.006960 -0.005579
# 2 -0.003519 0.017007 -0.002735 0.005904 -0.003263 -0.001522
# 3 -0.004722 -0.002735 0.018732 0.004927 0.001237 -0.004700
# 4 -0.006203 0.005904 0.004927 0.033601 -0.007316 0.004476
# 5 0.006960 -0.003263 0.001237 -0.007316 0.047985 0.008949
# 6 -0.005579 -0.001522 -0.004700 0.004476 0.008949 0.056746
#
#
# Mechanical properties :
#
#
# Convention : Reuss Voigt Hill
#
# Bulk Modulus (GPa) = 35.26153 44.01330 39.63741
# Shear Modulus (GPa) = 22.72215 27.76719 25.24467
#
# Velocity S-wave (km/s) = 3.34936 3.70257 3.53038
# Velocity P-wave (km/s) = 5.68917 6.32524 6.01562
#
# Compressibility (1/GPa) = 0.02835952
#
# Stress axis : x y z
#
# Youngs Moduli (GPa) = 68.62066 58.79927 53.38406
#
# Poissons Ratio (x) = 0.20693 0.25207
# Poissons Ratio (y) = 0.24150 0.14601
# Poissons Ratio (z) = 0.32401 0.16083
#
# Static dielectric constant tensor:
#      x y z
#    x 3.669470 0.268880 -0.167540 
#    y 0.268880 3.844000 -0.101630 
#    z -0.167540 -0.101630 3.869780 
# 
# 
# High freq. dielectric constant tensor:
#      x y z
#    x 1.784480 0.011410 -0.015580 
#    y 0.011410 1.775460 -0.003110 
#    z -0.015580 -0.003110 1.792520 
# 
# From -- ./inp_files/189232.got.cif
#   From: 2010.06.25/outbox.cif.g09.slc.cpg/sg2_95_cif.got.tgz:189232.got - 2010.06.27 13:26:56.
