data_PCOD8038401
_publ_section_title
;
Structure prediction by ZEFSAII (Michael W. Deem and Ramdas Pophale) SiO2 
 PCOD8038401
Probable space group: P -1
;
_chemical_formula_sum "Si O2"
_cell_formula_units_Z 16
_cell_length_a 20.437675
_cell_length_b 8.530253
_cell_length_c 14.360581
_cell_angle_alpha 80.535407
_cell_angle_beta 160.178186
_cell_angle_gamma 109.589564
_cell_volume 704.870550
_symmetry_space_group_name_H-M "P -1"
_symmetry_group_IT_number 2
_symmetry_cell_setting 'triclinic'
loop_
_space_group_symop_operation_xyz
x,y,z
-x,-y,-z
loop_
_atom_site_type_symbol
_atom_site_label
_atom_site_fract_x
_atom_site_fract_y
_atom_site_fract_z
Si Si1 0.017179 0.860316 0.707404
Si Si2 0.201421 0.217576 0.241825
Si Si3 0.997352 0.625245 0.177936
Si Si4 0.663085 0.255321 0.098108
Si Si5 0.659649 0.259779 0.874191
Si Si6 0.260267 0.454397 0.481471
Si Si7 0.672202 0.594225 0.137214
Si Si8 0.185964 0.924124 0.550376
O O1 0.860716 0.699382 0.586394
O O2 0.892131 0.795478 0.444389
O O3 0.031766 0.052293 0.737447
O O4 0.268689 0.890150 0.041536
O O5 0.421518 0.206532 0.514133
O O6 0.239441 0.343351 0.370848
O O7 0.162917 0.324683 0.097118
O O8 0.000000 0.000000 0.000000
O O9 0.135356 0.571254 0.296733
O O10 0.178765 0.808201 0.461995
O O11 0.852882 0.464705 0.076126
O O12 0.778289 0.469497 0.265877
O O13 0.817077 0.177435 0.347705
O O14 0.632146 0.251636 0.947896
O O15 0.414992 0.131031 0.828128
O O16 0.528681 0.599732 0.855627
O O17 0.500000 0.500000 0.000000
#
# Coordination Sequence:
#
# PCOD8038401 Si02
#       8
#     2   2   2   2   2   2   2   2
#     4  10  21  37  63  94 140 167 207 263 328 375
#     4  12  24  46  71  93 122 167 224 275 313 378
#     4  11  25  41  67  93 132 167 215 267 322 375
#     4  11  21  37  65  91 134 167 220 257 315 375
#     4  11  24  44  62  95 131 171 211 262 332 387
#     4  10  20  40  64  96 125 170 218 254 316 391
#     4  10  17  35  62  93 127 173 203 255 311 386
#     4  11  22  39  63  99 129 172 217 260 309 381
#
# _framework density 22.699204000000002
#
# number of rings (size 3 to 8) (size 9 to 14) (size 15 to 20)
#    0.000    1.250    3.750    4.500    1.750    2.500 
#    0.000    9.375    0.000    0.000    0.000    0.000 
#    0.000    0.000    0.000    0.000    0.000    0.000 
#
# Total GULP energy -198311.166771 kJ/mol
# GULP energy per Si atom -12394.447923 kJ/mol
# Density = 2.264754 g / cm^3
# Si number density = 22.699204 Si / 1000 Ang^3
#
#
#
# Elastic Constant Matrix: (Units=GPa)
#
#
# Indices 1 2 3 4 5 6 
#
# 1 49.3509 33.9045 12.8423 -14.3766 -13.7631 5.0614
# 2 33.9045 122.1154 46.5760 -40.0538 6.2188 -21.9164
# 3 12.8423 46.5760 99.1750 -32.5744 -7.1013 -7.6691
# 4 -14.3766 -40.0538 -32.5744 49.0614 -5.9756 -1.0853
# 5 -13.7631 6.2188 -7.1013 -5.9756 30.5286 -6.9262
# 6 5.0614 -21.9164 -7.6691 -1.0853 -6.9262 31.2015
#
#
#
# Elastic Compliance Matrix: (Units=1/GPa)
#
#
# Indices 1 2 3 4 5 6 
#
# 1 0.034821 -0.011939 0.003120 0.004474 0.017645 -0.009195
# 2 -0.011939 0.018357 -0.003557 0.008775 -0.005261 0.013094
# 3 0.003120 -0.003557 0.015138 0.009107 0.008076 0.002826
# 4 0.004474 0.008775 0.009107 0.036643 0.012164 0.011651
# 5 0.017645 -0.005261 0.008076 0.012164 0.047493 0.006393
# 6 -0.009195 0.013094 0.002826 0.011651 0.006393 0.045258
#
#
# Mechanical properties :
#
#
# Convention : Reuss Voigt Hill
#
# Bulk Modulus (GPa) = 22.95544 50.80966 36.88255
# Shear Modulus (GPa) = 21.09862 33.97952 27.53907
#
# Velocity S-wave (km/s) = 3.05206 3.87324 3.48691
# Velocity P-wave (km/s) = 4.74920 6.51422 5.70044
#
# Compressibility (1/GPa) = 0.04356267
#
# Stress axis : x y z
#
# Youngs Moduli (GPa) = 28.71840 54.47658 66.06022
#
# Poissons Ratio (x) = 0.65041 -0.20610
# Poissons Ratio (y) = 0.34288 0.23496
# Poissons Ratio (z) = -0.08960 0.19376
#
# Static dielectric constant tensor:
#      x y z
#    x 4.064780 -0.306200 -0.076810 
#    y -0.306200 4.520180 -0.555470 
#    z -0.076810 -0.555470 4.591160 
# 
# 
# High freq. dielectric constant tensor:
#      x y z
#    x 1.884450 -0.012880 -0.003810 
#    y -0.012880 1.901430 -0.024920 
#    z -0.003810 -0.024920 1.885430 
# 
# From -- ./inp_files/540492.got.cif
#   From: 2010.06.25/outbox.cif.g09.slc.cpg/sg2_271_cif.got.tgz:540492.got - 2010.06.27 13:26:56.
