data_PCOD8038400
_publ_section_title
;
Structure prediction by ZEFSAII (Michael W. Deem and Ramdas Pophale) SiO2 
 PCOD8038400
Probable space group: P -1
;
_chemical_formula_sum "Si O2"
_cell_formula_units_Z 16
_cell_length_a 8.558702
_cell_length_b 17.604601
_cell_length_c 11.077894
_cell_angle_alpha 25.275507
_cell_angle_beta 87.079908
_cell_angle_gamma 86.555596
_cell_volume 711.362706
_symmetry_space_group_name_H-M "P -1"
_symmetry_group_IT_number 2
_symmetry_cell_setting 'triclinic'
loop_
_space_group_symop_operation_xyz
x,y,z
-x,-y,-z
loop_
_atom_site_type_symbol
_atom_site_label
_atom_site_fract_x
_atom_site_fract_y
_atom_site_fract_z
Si Si1 0.192778 0.780608 0.680283
Si Si2 0.856933 0.797261 0.598265
Si Si3 0.093826 0.443596 0.281418
Si Si4 0.572379 0.373644 0.280836
Si Si5 0.245888 0.404565 0.887857
Si Si6 0.841283 0.913445 0.082508
Si Si7 0.616033 0.971440 0.201123
Si Si8 0.686635 0.886365 0.881697
O O1 0.260447 0.702216 0.664700
O O2 0.017594 0.862346 0.554962
O O3 0.298276 0.955597 0.447606
O O4 0.194080 0.626854 0.006013
O O5 0.905732 0.634775 0.740816
O O6 0.749077 0.730071 0.806306
O O7 0.764391 0.960576 0.302266
O O8 0.165852 0.295489 0.581631
O O9 0.919992 0.491334 0.266584
O O10 0.448639 0.225309 0.524006
O O11 0.500000 0.500000 0.000000
O O12 0.611266 0.466222 0.274180
O O13 0.283703 0.304680 0.904701
O O14 0.690862 0.019157 0.999023
O O15 0.818700 0.924370 0.924076
O O16 0.000000 0.000000 0.000000
O O17 0.485303 0.112851 0.050522
#
# Coordination Sequence:
#
# PCOD8038400 Si02
#       8
#     2   2   2   2   2   2   2   2
#     4  10  19  37  65  94 123 162 214 255 302 375
#     4  10  17  35  62  93 119 164 217 248 297 364
#     4  10  19  37  67  92 120 167 217 249 301 365
#     4  11  18  35  63  95 123 170 207 250 309 377
#     4  11  21  36  62  95 138 156 202 269 313 367
#     4  11  24  44  70  89 120 167 219 258 302 381
#     4  10  22  38  65  88 124 167 219 245 307 388
#     4  11  25  39  60 101 131 162 200 263 330 353
#
# _framework density 22.492042000000001
#
# number of rings (size 3 to 8) (size 9 to 14) (size 15 to 20)
#    0.000    1.500    3.750    3.375    1.750    3.000 
#    0.000    0.625   11.000    0.000    0.000    0.000 
#    0.000    0.000    0.000    0.000    0.000    0.000 
#
# Total GULP energy -198252.837116 kJ/mol
# GULP energy per Si atom -12390.802320 kJ/mol
# Density = 2.244085 g / cm^3
# Si number density = 22.492042 Si / 1000 Ang^3
#
#
#
# Elastic Constant Matrix: (Units=GPa)
#
#
# Indices 1 2 3 4 5 6 
#
# 1 89.2961 41.4725 18.0075 -14.0453 -3.4313 -17.1037
# 2 41.4725 102.3113 19.5711 -17.5138 9.6263 -16.2671
# 3 18.0075 19.5711 59.9344 4.0687 -1.8953 -3.3802
# 4 -14.0453 -17.5138 4.0687 21.9960 -4.9146 0.6549
# 5 -3.4313 9.6263 -1.8953 -4.9146 28.5034 3.9522
# 6 -17.1037 -16.2671 -3.3802 0.6549 3.9522 23.4962
#
#
#
# Elastic Compliance Matrix: (Units=1/GPa)
#
#
# Indices 1 2 3 4 5 6 
#
# 1 0.016793 -0.003442 -0.003964 0.009209 0.003336 0.008453
# 2 -0.003442 0.015433 -0.004355 0.009439 -0.005426 0.008202
# 3 -0.003964 -0.004355 0.019798 -0.009323 0.001116 -0.002981
# 4 0.009209 0.009439 -0.009323 0.061812 0.006704 0.009047
# 5 0.003336 -0.005426 0.001116 0.006704 0.039660 -0.008025
# 6 0.008453 0.008202 -0.002981 0.009047 -0.008025 0.055061
#
#
# Mechanical properties :
#
#
# Convention : Reuss Voigt Hill
#
# Bulk Modulus (GPa) = 35.08704 45.51598 40.30151
# Shear Modulus (GPa) = 20.69708 26.29850 23.49779
#
# Velocity S-wave (km/s) = 3.03676 3.42312 3.23571
# Velocity P-wave (km/s) = 5.28484 5.99200 5.64950
#
# Compressibility (1/GPa) = 0.02850055
#
# Stress axis : x y z
#
# Youngs Moduli (GPa) = 59.55039 64.79662 50.50964
#
# Poissons Ratio (x) = 0.22304 0.20023
# Poissons Ratio (y) = 0.20498 0.21997
# Poissons Ratio (z) = 0.23607 0.28219
#
# Static dielectric constant tensor:
#      x y z
#    x 4.135870 -0.213830 -0.047490 
#    y -0.213830 3.738640 -0.010260 
#    z -0.047490 -0.010260 4.072610 
# 
# 
# High freq. dielectric constant tensor:
#      x y z
#    x 1.895460 -0.020090 -0.000390 
#    y -0.020090 1.843860 0.004340 
#    z -0.000390 0.004340 1.875520 
# 
# From -- ./inp_files/401663.got.cif
#   From: 2010.06.25/outbox.cif.g09.slc.cpg/sg2_201_cif.got.tgz:401663.got - 2010.06.27 13:26:56.
