data_PCOD8038594
_publ_section_title
;
Structure prediction by ZEFSAII (Michael W. Deem and Ramdas Pophale) SiO2 
 PCOD8038594
Probable space group: P -1
;
_chemical_formula_sum "Si O2"
_cell_formula_units_Z 14
_cell_length_a 9.027108
_cell_length_b 11.514189
_cell_length_c 18.079280
_cell_angle_alpha 37.315830
_cell_angle_beta 143.516615
_cell_angle_gamma 142.790122
_cell_volume 609.725302
_symmetry_space_group_name_H-M "P -1"
_symmetry_group_IT_number 2
_symmetry_cell_setting 'triclinic'
loop_
_space_group_symop_operation_xyz
x,y,z
-x,-y,-z
loop_
_atom_site_type_symbol
_atom_site_label
_atom_site_fract_x
_atom_site_fract_y
_atom_site_fract_z
Si Si1 0.778306 0.691271 0.987067
Si Si2 0.160479 0.367191 0.713364
Si Si3 0.996040 0.199292 0.439772
Si Si4 0.277929 0.570922 0.029960
Si Si5 0.554162 0.109737 0.197329
Si Si6 0.199667 0.811913 0.473821
Si Si7 0.799649 0.344446 0.722727
O O1 0.768393 0.651526 0.915299
O O2 0.748524 0.900719 0.897394
O O3 0.500000 0.500000 0.000000
O O4 0.057327 0.687223 0.129954
O O5 0.440870 0.339836 0.854136
O O6 0.245235 0.600060 0.596699
O O7 0.978687 0.189771 0.669528
O O8 0.983799 0.342218 0.728420
O O9 0.737169 0.220694 0.286560
O O10 0.959136 0.160544 0.531833
O O11 0.242877 0.437869 0.403014
O O12 0.000000 0.000000 0.500000
O O13 0.308411 0.756030 0.889308
O O14 0.000000 0.500000 0.000000
O O15 0.503383 0.861072 0.296281
O O16 0.500000 0.000000 0.500000
#
# Coordination Sequence:
#
# PCOD8038594 Si02
#       7
#     2   2   2   2   2   2   2
#     4  10  17  38  67  93 129 165 217 271 321 390
#     4  10  21  40  69 100 132 170 225 278 327 395
#     4  11  24  43  65  92 135 176 216 272 335 399
#     4  11  23  41  64 101 145 177 209 276 351 404
#     4  11  22  41  70  98 125 174 227 279 327 391
#     4  10  22  43  67  96 128 175 226 276 328 386
#     4  11  20  40  72  99 122 168 235 275 322 394
#
# _framework density 22.961161000000001
#
# number of rings (size 3 to 8) (size 9 to 14) (size 15 to 20)
#    0.000    1.429    5.714    2.143    0.000    1.714 
#    2.571    0.714    0.000    0.000    0.000    0.000 
#    0.000    0.000    0.000    0.000    0.000    0.000 
#
# Total GULP energy -173448.043629 kJ/mol
# GULP energy per Si atom -12389.145974 kJ/mol
# Density = 2.290890 g / cm^3
# Si number density = 22.961161 Si / 1000 Ang^3
#
#
#
# Elastic Constant Matrix: (Units=GPa)
#
#
# Indices 1 2 3 4 5 6 
#
# 1 111.7938 46.0724 31.8329 0.7505 -1.5157 -13.1815
# 2 46.0724 146.3707 37.9638 -3.5938 -12.4836 -8.8691
# 3 31.8329 37.9638 67.4441 10.5312 -18.2278 -11.3844
# 4 0.7505 -3.5938 10.5312 57.8689 -13.0806 -1.2208
# 5 -1.5157 -12.4836 -18.2278 -13.0806 19.9788 1.8334
# 6 -13.1815 -8.8691 -11.3844 -1.2208 1.8334 32.1816
#
#
#
# Elastic Compliance Matrix: (Units=1/GPa)
#
#
# Indices 1 2 3 4 5 6 
#
# 1 0.011772 -0.002769 -0.005136 -0.000748 -0.006248 0.002569
# 2 -0.002769 0.008851 -0.002889 0.002017 0.003993 0.000132
# 3 -0.005136 -0.002889 0.025196 0.000004 0.020350 0.004854
# 4 -0.000748 0.002017 0.000004 0.020760 0.014781 0.000196
# 5 -0.006248 0.003993 0.020350 0.014781 0.080159 0.001734
# 6 0.002569 0.000132 0.004854 0.000196 0.001734 0.033788
#
#
# Mechanical properties :
#
#
# Convention : Reuss Voigt Hill
#
# Bulk Modulus (GPa) = 41.26762 61.92741 51.59751
# Shear Modulus (GPa) = 23.78804 35.98851 29.88827
#
# Velocity S-wave (km/s) = 3.22221 3.96329 3.61181
# Velocity P-wave (km/s) = 5.64405 6.92623 6.31775
#
# Compressibility (1/GPa) = 0.02423208
#
# Stress axis : x y z
#
# Youngs Moduli (GPa) = 84.94886 112.98420 39.68920
#
# Poissons Ratio (x) = 0.31284 0.20383
# Poissons Ratio (y) = 0.23521 0.11464
# Poissons Ratio (z) = 0.43627 0.32636
#
# Static dielectric constant tensor:
#      x y z
#    x 4.560580 -0.697920 0.440360 
#    y -0.697920 4.803760 -0.262930 
#    z 0.440360 -0.262930 5.018980 
# 
# 
# High freq. dielectric constant tensor:
#      x y z
#    x 1.875200 -0.011420 -0.008410 
#    y -0.011420 1.927060 0.008060 
#    z -0.008410 0.008060 1.910720 
# 
# From -- ./inp_files/559714.got.cif
#   From: 2010.06.25/outbox.cif.g09.slc.cpg/sg2_280_cif.got.tgz:559714.got - 2010.06.27 13:26:56.
