data_PCOD8038553
_publ_section_title
;
Structure prediction by ZEFSAII (Michael W. Deem and Ramdas Pophale) SiO2 
 PCOD8038553
Probable space group: P -1
;
_chemical_formula_sum "Si O2"
_cell_formula_units_Z 14
_cell_length_a 9.926364
_cell_length_b 9.415291
_cell_length_c 11.811524
_cell_angle_alpha 114.725772
_cell_angle_beta 62.095284
_cell_angle_gamma 135.571675
_cell_volume 676.564461
_symmetry_space_group_name_H-M "P -1"
_symmetry_group_IT_number 2
_symmetry_cell_setting 'triclinic'
loop_
_space_group_symop_operation_xyz
x,y,z
-x,-y,-z
loop_
_atom_site_type_symbol
_atom_site_label
_atom_site_fract_x
_atom_site_fract_y
_atom_site_fract_z
Si Si1 0.199132 0.186037 0.202088
Si Si2 0.472123 0.111726 0.954480
Si Si3 0.420140 0.027800 0.705059
Si Si4 0.766056 0.318109 0.507438
Si Si5 0.707642 0.549954 0.941895
Si Si6 0.553987 0.501515 0.607244
Si Si7 0.781388 0.789262 0.198127
O O1 0.190369 0.344099 0.185065
O O2 0.297685 0.276685 0.316624
O O3 0.307357 0.124489 0.066190
O O4 0.976474 0.983870 0.247061
O O5 0.411416 0.970838 0.820665
O O6 0.672115 0.342662 0.915251
O O7 0.500000 0.000000 0.000000
O O8 0.645351 0.164211 0.610367
O O9 0.359500 0.168485 0.779963
O O10 0.257029 0.819420 0.631989
O O11 0.655200 0.400221 0.538840
O O12 0.000000 0.500000 0.500000
O O13 0.500000 0.500000 0.000000
O O14 0.837992 0.710609 0.046435
O O15 0.500000 0.500000 0.500000
O O16 0.345079 0.383064 0.714778
#
# Coordination Sequence:
#
# PCOD8038553 Si02
#       7
#     2   2   2   2   2   2   2
#     4  11  22  40  68  93 121 164 214 255 310 385
#     4  11  23  39  61  93 130 163 195 262 325 362
#     4  10  21  38  63  89 121 158 205 257 301 365
#     4  10  22  42  62  88 120 165 211 252 303 367
#     4  10  17  37  64  88 121 158 203 251 305 371
#     4  11  24  41  63  89 130 167 208 262 312 371
#     4  11  20  39  67  95 118 162 216 255 309 374
#
# _framework density 20.692782000000001
#
# number of rings (size 3 to 8) (size 9 to 14) (size 15 to 20)
#    0.000    1.429    5.714    2.143    2.000    0.571 
#    2.571    0.714    0.000    0.000    0.000    0.000 
#    0.000    0.000    0.000    0.000    0.000    0.000 
#
# Total GULP energy -173506.169291 kJ/mol
# GULP energy per Si atom -12393.297807 kJ/mol
# Density = 2.064568 g / cm^3
# Si number density = 20.692782 Si / 1000 Ang^3
#
#
#
# Elastic Constant Matrix: (Units=GPa)
#
#
# Indices 1 2 3 4 5 6 
#
# 1 68.6474 47.3653 43.1848 -8.4175 25.3134 -0.2936
# 2 47.3653 107.9748 30.1053 15.3484 24.2707 20.1244
# 3 43.1848 30.1053 127.7217 17.7971 41.0114 3.2793
# 4 -8.4175 15.3484 17.7971 23.9327 -0.9368 1.9106
# 5 25.3134 24.2707 41.0114 -0.9368 39.4373 3.3523
# 6 -0.2936 20.1244 3.2793 1.9106 3.3523 37.6402
#
#
#
# Elastic Compliance Matrix: (Units=1/GPa)
#
#
# Indices 1 2 3 4 5 6 
#
# 1 0.048312 -0.026053 -0.018293 0.046409 0.004028 0.013185
# 2 -0.026053 0.027520 0.011176 -0.034528 -0.011542 -0.013110
# 3 -0.018293 0.011176 0.021289 -0.029729 -0.017565 -0.004900
# 4 0.046409 -0.034528 -0.029729 0.102154 0.023603 0.014125
# 5 0.004028 -0.011542 -0.017565 0.023603 0.048513 0.002214
# 6 0.013185 -0.013110 -0.004900 0.014125 0.002214 0.033192
#
#
# Mechanical properties :
#
#
# Convention : Reuss Voigt Hill
#
# Bulk Modulus (GPa) = 32.48666 60.62831 46.55748
# Shear Modulus (GPa) = 13.98292 32.44794 23.21543
#
# Velocity S-wave (km/s) = 2.60232 3.96419 3.35313
# Velocity P-wave (km/s) = 4.97624 7.09338 6.12695
#
# Compressibility (1/GPa) = 0.03078187
#
# Stress axis : x y z
#
# Youngs Moduli (GPa) = 20.69858 36.33734 46.97348
#
# Poissons Ratio (x) = 0.94669 0.85929
# Poissons Ratio (y) = 0.53925 -0.52499
# Poissons Ratio (z) = 0.37864 -0.40611
#
# Static dielectric constant tensor:
#      x y z
#    x 3.371820 -0.059910 0.073500 
#    y -0.059910 4.148030 0.017650 
#    z 0.073500 0.017650 4.174100 
# 
# 
# High freq. dielectric constant tensor:
#      x y z
#    x 1.767420 0.009070 0.008380 
#    y 0.009070 1.813940 0.011790 
#    z 0.008380 0.011790 1.823650 
# 
# From -- ./inp_files/276840.got.cif
#   From: 2010.06.25/outbox.cif.g09.slc.cpg/sg2_139_cif.got.tgz:276840.got - 2010.06.27 13:26:56.
