data_PCOD8038138
_publ_section_title
;
Structure prediction by ZEFSAII (Michael W. Deem and Ramdas Pophale) SiO2 
 PCOD8038138
Probable space group: P -1
;
_chemical_formula_sum "Si O2"
_cell_formula_units_Z 16
_cell_length_a 11.155580
_cell_length_b 23.296991
_cell_length_c 8.719644
_cell_angle_alpha 31.471048
_cell_angle_beta 53.955134
_cell_angle_gamma 34.975740
_cell_volume 630.305867
_symmetry_space_group_name_H-M "P -1"
_symmetry_group_IT_number 2
_symmetry_cell_setting 'triclinic'
loop_
_space_group_symop_operation_xyz
x,y,z
-x,-y,-z
loop_
_atom_site_type_symbol
_atom_site_label
_atom_site_fract_x
_atom_site_fract_y
_atom_site_fract_z
Si Si1 0.052175 0.562608 0.616595
Si Si2 0.221520 0.263716 0.009245
Si Si3 0.608512 0.458554 0.221021
Si Si4 0.902769 0.232615 0.788031
Si Si5 0.205682 0.947518 0.656135
Si Si6 0.274962 0.037277 0.705048
Si Si7 0.653498 0.667815 0.797140
Si Si8 0.862011 0.312187 0.060853
O O1 0.071432 0.684133 0.291611
O O2 0.787909 0.679112 0.563911
O O3 0.173443 0.417839 0.730636
O O4 0.172016 0.480649 0.875660
O O5 0.216763 0.191634 0.332287
O O6 0.025762 0.328469 0.894805
O O7 0.465857 0.114521 0.089031
O O8 0.689414 0.374487 0.517330
O O9 0.789353 0.322174 0.267983
O O10 0.572932 0.609866 0.887319
O O11 0.365080 0.537529 0.204485
O O12 0.130559 0.095502 0.831844
O O13 0.850636 0.148890 0.104051
O O14 0.441129 0.845798 0.628788
O O15 0.230026 0.969220 0.765951
O O16 0.006626 0.127024 0.315824
#
# Coordination Sequence:
#
# PCOD8038138 Si02
#       8
#     2   2   2   2   2   2   2   2
#     4  10  19  32  54  87 116 140 189 238 284 323
#     4  10  17  34  55  86 109 146 191 240 271 327
#     4  10  20  36  56  84 115 150 189 230 276 339
#     4  11  22  36  57  90 116 147 181 239 292 329
#     4  11  22  35  56  89 118 145 184 235 294 329
#     4  10  19  31  55  84 114 139 189 239 280 321
#     4  10  19  34  56  85 113 149 186 235 276 332
#     4  10  21  36  58  85 111 152 191 231 273 339
#
# _framework density 25.384501
#
# number of rings (size 3 to 8) (size 9 to 14) (size 15 to 20)
#    0.000    1.750    5.000    1.875    3.500    2.500 
#    0.000    0.000    0.000    1.500    9.750    0.000 
#    0.000    0.000    0.000    0.000    0.000    0.000 
#
# Total GULP energy -198426.328839 kJ/mol
# GULP energy per Si atom -12401.645552 kJ/mol
# Density = 2.532672 g / cm^3
# Si number density = 25.384501 Si / 1000 Ang^3
#
#
#
# Elastic Constant Matrix: (Units=GPa)
#
#
# Indices 1 2 3 4 5 6 
#
# 1 128.3277 25.1302 49.1325 -20.0773 -22.4309 -25.2414
# 2 25.1302 117.6898 40.8274 -36.0731 -4.4591 -26.2558
# 3 49.1325 40.8274 108.6680 -16.8789 -35.1642 -12.4680
# 4 -20.0773 -36.0731 -16.8789 39.5096 -4.9732 0.2327
# 5 -22.4309 -4.4591 -35.1642 -4.9732 39.8850 -9.9383
# 6 -25.2414 -26.2558 -12.4680 0.2327 -9.9383 34.4763
#
#
#
# Elastic Compliance Matrix: (Units=1/GPa)
#
#
# Indices 1 2 3 4 5 6 
#
# 1 0.017144 0.008039 0.001905 0.019352 0.020929 0.025266
# 2 0.008039 0.021160 0.001715 0.026316 0.018609 0.027808
# 3 0.001905 0.001715 0.019781 0.013988 0.024649 0.016865
# 4 0.019352 0.026316 0.013988 0.070894 0.048118 0.052660
# 5 0.020929 0.018609 0.024649 0.048118 0.082036 0.061732
# 6 0.025266 0.027808 0.016865 0.052660 0.061732 0.092220
#
#
# Mechanical properties :
#
#
# Convention : Reuss Voigt Hill
#
# Bulk Modulus (GPa) = 12.28443 64.98507 38.63475
# Shear Modulus (GPa) = 16.28398 38.74722 27.51560
#
# Velocity S-wave (km/s) = 2.53552 3.91117 3.29592
# Velocity P-wave (km/s) = 3.66356 6.78618 5.45316
#
# Compressibility (1/GPa) = 0.08140383
#
# Stress axis : x y z
#
# Youngs Moduli (GPa) = 58.32836 47.25804 50.55482
#
# Poissons Ratio (x) = -0.37992 -0.09631
# Poissons Ratio (y) = -0.46892 -0.08670
# Poissons Ratio (z) = -0.11111 -0.08105
#
# Static dielectric constant tensor:
#      x y z
#    x 4.743280 -0.279420 -0.255420 
#    y -0.279420 4.503000 -0.280170 
#    z -0.255420 -0.280170 4.244000 
# 
# 
# High freq. dielectric constant tensor:
#      x y z
#    x 2.020850 -0.014850 -0.015100 
#    y -0.014850 2.019240 -0.023510 
#    z -0.015100 -0.023510 1.988320 
# 
# From -- ./inp_files/439545.got.cif
#   From: 2010.06.25/outbox.cif.g09.slc.cpg/sg2_220_cif.got.tgz:439545.got - 2010.06.27 13:26:56.
