data_PCOD8038276
_publ_section_title
;
Structure prediction by ZEFSAII (Michael W. Deem and Ramdas Pophale) SiO2 
 PCOD8038276
Probable space group: P -1
;
_chemical_formula_sum "Si O2"
_cell_formula_units_Z 16
_cell_length_a 19.446207
_cell_length_b 22.651312
_cell_length_c 8.873431
_cell_angle_alpha 53.709285
_cell_angle_beta 44.995365
_cell_angle_gamma 19.355682
_cell_volume 867.342078
_symmetry_space_group_name_H-M "P -1"
_symmetry_group_IT_number 2
_symmetry_cell_setting 'triclinic'
loop_
_space_group_symop_operation_xyz
x,y,z
-x,-y,-z
loop_
_atom_site_type_symbol
_atom_site_label
_atom_site_fract_x
_atom_site_fract_y
_atom_site_fract_z
Si Si1 0.078226 0.700665 0.192210
Si Si2 0.478888 0.440940 0.714271
Si Si3 0.359043 0.285660 0.162568
Si Si4 0.029495 0.957843 0.346471
Si Si5 0.491305 0.296445 0.687738
Si Si6 0.052557 0.363492 0.527968
Si Si7 0.758676 0.057504 0.128630
Si Si8 0.322321 0.422775 0.435571
O O1 0.891087 0.762399 0.347705
O O2 0.263608 0.544938 0.274503
O O3 0.233870 0.614516 0.933634
O O4 0.918610 0.880885 0.220938
O O5 0.500000 0.500000 0.500000
O O6 0.720484 0.264967 0.715472
O O7 0.457030 0.387964 0.715318
O O8 0.109029 0.498766 0.285992
O O9 0.593407 0.140180 0.124217
O O10 0.305509 0.235318 0.314748
O O11 0.419228 0.271962 0.922234
O O12 0.052334 0.013351 0.122518
O O13 0.000000 0.000000 0.500000
O O14 0.775048 0.092557 0.492372
O O15 0.308303 0.433636 0.621338
O O16 0.883631 0.490572 0.445468
O O17 0.595237 0.207416 0.285479
#
# Coordination Sequence:
#
# PCOD8038276 Si02
#       8
#     2   2   2   2   2   2   2   2
#     4  10  19  38  57  80 111 146 185 231 271 323
#     4  11  20  36  57  85 111 141 191 239 267 321
#     4  10  17  34  62  84 104 147 191 228 277 319
#     4  10  18  34  52  81 106 143 180 229 272 316
#     4  11  20  35  58  81 115 148 183 224 285 330
#     4   8  18  36  57  83 110 143 187 231 274 324
#     4  11  19  37  60  78 114 146 187 232 270 327
#     4   9  21  39  52  81 120 148 180 223 277 342
#
# _framework density 18.447163
#
# number of rings (size 3 to 8) (size 9 to 14) (size 15 to 20)
#    0.750    1.250    5.000    1.500    0.000    1.500 
#    2.250    1.250    0.000    0.750    0.000    0.000 
#    0.000    0.000    0.000    0.000    0.000    0.000 
#
# Total GULP energy -198281.361787 kJ/mol
# GULP energy per Si atom -12392.585112 kJ/mol
# Density = 1.840518 g / cm^3
# Si number density = 18.447163 Si / 1000 Ang^3
#
#
#
# Elastic Constant Matrix: (Units=GPa)
#
#
# Indices 1 2 3 4 5 6 
#
# 1 34.0342 17.6366 33.5020 -5.3186 1.3776 -13.9030
# 2 17.6366 103.2162 39.8246 -16.5276 -0.4612 14.3288
# 3 33.5020 39.8246 108.8498 -12.2501 -19.9610 -7.7549
# 4 -5.3186 -16.5276 -12.2501 26.0330 -0.0180 -2.2081
# 5 1.3776 -0.4612 -19.9610 -0.0180 31.3754 -6.8755
# 6 -13.9030 14.3288 -7.7549 -2.2081 -6.8755 22.3428
#
#
#
# Elastic Compliance Matrix: (Units=1/GPa)
#
#
# Indices 1 2 3 4 5 6 
#
# 1 0.067704 -0.012285 -0.012938 0.003799 -0.001421 0.045455
# 2 -0.012285 0.017542 -0.005111 0.004307 -0.007385 -0.022515
# 3 -0.012938 -0.005111 0.018304 0.003247 0.013464 0.006044
# 4 0.003799 0.004307 0.003247 0.043971 0.003324 0.006097
# 5 -0.001421 -0.007385 0.013464 0.003324 0.045395 0.022823
# 6 0.045455 -0.022515 0.006044 0.006097 0.022823 0.097205
#
#
# Mechanical properties :
#
#
# Convention : Reuss Voigt Hill
#
# Bulk Modulus (GPa) = 23.31957 47.55851 35.43904
# Shear Modulus (GPa) = 13.69558 26.29269 19.99414
#
# Velocity S-wave (km/s) = 2.72770 3.77941 3.29577
# Velocity P-wave (km/s) = 4.75281 6.69941 5.80824
#
# Compressibility (1/GPa) = 0.04288243
#
# Stress axis : x y z
#
# Youngs Moduli (GPa) = 14.77027 57.00720 54.63287
#
# Poissons Ratio (x) = 0.70032 0.70684
# Poissons Ratio (y) = 0.18145 0.27920
# Poissons Ratio (z) = 0.19110 0.29134
#
# Static dielectric constant tensor:
#      x y z
#    x 3.230380 -0.121430 -0.188660 
#    y -0.121430 3.456640 0.036700 
#    z -0.188660 0.036700 3.481340 
# 
# 
# High freq. dielectric constant tensor:
#      x y z
#    x 1.689970 -0.003490 -0.006860 
#    y -0.003490 1.701440 -0.004330 
#    z -0.006860 -0.004330 1.717810 
# 
# From -- ./inp_files/349878.got.cif
#   From: 2010.06.25/outbox.cif.g09.slc.cpg/sg2_175_cif.got.tgz:349878.got - 2010.06.27 13:26:56.
