data_PCOD8038566
_publ_section_title
;
Structure prediction by ZEFSAII (Michael W. Deem and Ramdas Pophale) SiO2 
 PCOD8038566
Probable space group: P -1
;
_chemical_formula_sum "Si O2"
_cell_formula_units_Z 16
_cell_length_a 9.382373
_cell_length_b 13.016917
_cell_length_c 10.455970
_cell_angle_alpha 98.809349
_cell_angle_beta 62.754701
_cell_angle_gamma 135.672612
_cell_volume 761.423504
_symmetry_space_group_name_H-M "P -1"
_symmetry_group_IT_number 2
_symmetry_cell_setting 'triclinic'
loop_
_space_group_symop_operation_xyz
x,y,z
-x,-y,-z
loop_
_atom_site_type_symbol
_atom_site_label
_atom_site_fract_x
_atom_site_fract_y
_atom_site_fract_z
Si Si1 0.667445 0.316335 0.081118
Si Si2 0.847881 0.984380 0.751513
Si Si3 0.551574 0.414872 0.364396
Si Si4 0.092553 0.691273 0.594695
Si Si5 0.988493 0.851959 0.539895
Si Si6 0.964815 0.632056 0.922300
Si Si7 0.355796 0.623839 0.404016
Si Si8 0.211953 0.284682 0.813481
O O1 0.646705 0.365327 0.233456
O O2 0.847382 0.307172 0.031119
O O3 0.414778 0.153208 0.109167
O O4 0.770937 0.446260 0.958145
O O5 0.838534 0.029725 0.622280
O O6 0.978071 0.120234 0.823536
O O7 0.975073 0.932914 0.672432
O O8 0.270925 0.293964 0.438004
O O9 0.624887 0.427897 0.480829
O O10 0.681365 0.582959 0.306376
O O11 0.112031 0.810595 0.540732
O O12 0.091399 0.708576 0.750294
O O13 0.854830 0.519764 0.621722
O O14 0.317142 0.728217 0.466840
O O15 0.842849 0.682515 0.024566
O O16 0.595629 0.715501 0.243143
#
# Coordination Sequence:
#
# PCOD8038566 Si02
#       8
#     2   2   2   2   2   2   2   2
#     4   9  20  40  63  89 119 169 203 253 298 374
#     4  10  21  37  64  92 123 158 214 250 304 367
#     4  10  17  37  66  89 117 158 217 250 296 359
#     4  11  23  38  63  97 126 156 204 263 312 351
#     4  10  20  38  64  94 122 163 203 258 307 362
#     4  10  22  41  64  87 126 165 209 245 310 368
#     4  11  21  36  62  98 123 147 210 269 299 350
#     4  11  21  36  64  90 121 165 208 255 292 368
#
# _framework density 21.013272000000001
#
# number of rings (size 3 to 8) (size 9 to 14) (size 15 to 20)
#    0.000    1.750    3.750    1.125    0.000    1.000 
#    0.000    3.125    0.000    0.000    0.000    0.000 
#    0.000    0.000    0.000    0.000    0.000    0.000 
#
# Total GULP energy -198378.643713 kJ/mol
# GULP energy per Si atom -12398.665232 kJ/mol
# Density = 2.096545 g / cm^3
# Si number density = 21.013272 Si / 1000 Ang^3
#
#
#
# Elastic Constant Matrix: (Units=GPa)
#
#
# Indices 1 2 3 4 5 6 
#
# 1 96.1350 40.3939 47.8607 9.3090 -22.0170 -19.5195
# 2 40.3939 101.2688 14.7629 -6.3420 -10.9670 -8.1584
# 3 47.8607 14.7629 53.3088 5.4371 -21.7097 -21.6995
# 4 9.3090 -6.3420 5.4371 27.6941 3.9955 -7.8662
# 5 -22.0170 -10.9670 -21.7097 3.9955 28.3202 5.1725
# 6 -19.5195 -8.1584 -21.6995 -7.8662 5.1725 29.5758
#
#
#
# Elastic Compliance Matrix: (Units=1/GPa)
#
#
# Indices 1 2 3 4 5 6 
#
# 1 0.023034 -0.006875 -0.017649 -0.006860 0.003048 -0.002002
# 2 -0.006875 0.012754 0.003827 0.005130 0.001269 0.002931
# 3 -0.017649 0.003827 0.053288 -0.000277 0.024231 0.024193
# 4 -0.006860 0.005130 -0.000277 0.044327 -0.011735 0.010526
# 5 0.003048 0.001269 0.024231 -0.011735 0.057119 0.007030
# 6 -0.002002 0.002931 0.024193 0.010526 0.007030 0.052620
#
#
# Mechanical properties :
#
#
# Convention : Reuss Voigt Hill
#
# Bulk Modulus (GPa) = 20.97241 50.74972 35.86107
# Shear Modulus (GPa) = 16.64283 26.96436 21.80359
#
# Velocity S-wave (km/s) = 2.81733 3.58607 3.22469
# Velocity P-wave (km/s) = 4.53711 6.43042 5.56487
#
# Compressibility (1/GPa) = 0.04768169
#
# Stress axis : x y z
#
# Youngs Moduli (GPa) = 43.41485 78.40662 18.76580
#
# Poissons Ratio (x) = 0.53908 0.33120
# Poissons Ratio (y) = 0.29850 -0.07182
# Poissons Ratio (z) = 0.76623 -0.30009
#
# Static dielectric constant tensor:
#      x y z
#    x 3.782950 -0.174790 -0.358830 
#    y -0.174790 3.782850 0.056560 
#    z -0.358830 0.056560 3.829820 
# 
# 
# High freq. dielectric constant tensor:
#      x y z
#    x 1.812060 -0.006870 -0.021800 
#    y -0.006870 1.815960 0.009790 
#    z -0.021800 0.009790 1.816180 
# 
# From -- ./inp_files/239002.got.cif
#   From: 2010.06.25/outbox.cif.g09.slc.cpg/sg2_120_cif.got.tgz:239002.got - 2010.06.27 13:26:56.
