data_PCOD8038182
_publ_section_title
;
Structure prediction by ZEFSAII (Michael W. Deem and Ramdas Pophale) SiO2 
 PCOD8038182
Probable space group: P -1
;
_chemical_formula_sum "Si O2"
_cell_formula_units_Z 16
_cell_length_a 18.000000
_cell_length_b 9.000000
_cell_length_c 12.000000
_cell_angle_alpha 40.000000
_cell_angle_beta 40.000000
_cell_angle_gamma 40.000000
_cell_volume 723.717541
_symmetry_space_group_name_H-M "P -1"
_symmetry_group_IT_number 2
_symmetry_cell_setting 'triclinic'
loop_
_space_group_symop_operation_xyz
x,y,z
-x,-y,-z
loop_
_atom_site_type_symbol
_atom_site_label
_atom_site_fract_x
_atom_site_fract_y
_atom_site_fract_z
Si Si1 0.115930 0.399938 0.214968
Si Si2 0.131195 0.815476 0.124768
Si Si3 0.490986 0.400396 0.446300
Si Si4 0.578461 0.794517 0.709678
Si Si5 0.062801 0.646145 0.917775
Si Si6 0.589644 0.421922 0.095740
Si Si7 0.212487 0.804390 0.475984
Si Si8 0.852153 0.421207 0.533301
O O1 0.138949 0.587465 0.166221
O O2 0.962624 0.500195 0.324182
O O3 0.195064 0.099560 0.330818
O O4 0.156097 0.446552 0.017218
O O5 0.089361 0.769233 0.321260
O O6 0.274163 0.794650 0.976758
O O7 0.037690 0.109612 0.034946
O O8 0.500000 0.500000 0.500000
O O9 0.588719 0.434380 0.225204
O O10 0.356363 0.590624 0.440460
O O11 0.515781 0.102983 0.599800
O O12 0.512341 0.682756 0.761725
O O13 0.726718 0.675529 0.568023
O O14 0.563957 0.693431 0.908675
O O15 0.141745 0.752500 0.690796
O O16 0.000000 0.500000 0.000000
O O17 0.162946 0.757086 0.442167
#
# Coordination Sequence:
#
# PCOD8038182 Si02
#       8
#     2   2   2   2   2   2   2   2
#     4  12  26  45  70 103 147 183 227 294 348 408
#     4  11  26  44  72 105 140 185 234 291 347 407
#     4  12  29  44  71 104 141 181 230 293 353 414
#     4  10  24  46  73 100 131 189 234 287 339 413
#     4  12  26  43  70 105 137 187 232 285 344 414
#     4  10  24  47  70 100 135 181 238 281 347 410
#     4  12  27  47  68 104 142 187 234 282 354 418
#     4  11  22  46  73  98 141 184 234 280 343 421
#
# _framework density 22.108073000000001
#
# number of rings (size 3 to 8) (size 9 to 14) (size 15 to 20)
#    0.000    0.750    3.750    2.250    8.750    1.500 
#    0.000    0.000    0.000    0.000    0.000    0.000 
#    0.000    0.000    0.000    0.000    0.000    0.000 
#
# Total GULP energy -198326.181599 kJ/mol
# GULP energy per Si atom -12395.386350 kJ/mol
# Density = 2.205775 g / cm^3
# Si number density = 22.108073 Si / 1000 Ang^3
#
#
#
# Elastic Constant Matrix: (Units=GPa)
#
#
# Indices 1 2 3 4 5 6 
#
# 1 68.0174 14.9327 39.9432 0.4751 17.5457 11.2672
# 2 14.9327 142.1188 64.8415 -27.8566 -0.0057 -1.5470
# 3 39.9432 64.8415 104.3986 -32.0508 40.0700 11.3292
# 4 0.4751 -27.8566 -32.0508 29.1929 4.1621 8.0821
# 5 17.5457 -0.0057 40.0700 4.1621 41.5308 5.4882
# 6 11.2672 -1.5470 11.3292 8.0821 5.4882 33.1085
#
#
#
# Elastic Compliance Matrix: (Units=1/GPa)
#
#
# Indices 1 2 3 4 5 6 
#
# 1 0.038732 0.016231 -0.085668 -0.097445 0.072267 0.028700
# 2 0.016231 0.024520 -0.073702 -0.075222 0.068105 0.027915
# 3 -0.085668 -0.073702 0.349121 0.398417 -0.322407 -0.137568
# 4 -0.097445 -0.075222 0.398417 0.500760 -0.371311 -0.167376
# 5 0.072267 0.068105 -0.322407 -0.371311 0.325232 0.125641
# 6 0.028700 0.027915 -0.137568 -0.167376 0.125641 0.088846
#
#
# Mechanical properties :
#
#
# Convention : Reuss Voigt Hill
#
# Bulk Modulus (GPa) = 7.93047 61.55219 34.74133
# Shear Modulus (GPa) = 3.02020 33.75427 18.38723
#
# Velocity S-wave (km/s) = 1.17007 3.91165 2.88705
# Velocity P-wave (km/s) = 2.32817 6.95005 5.18284
#
# Compressibility (1/GPa) = 0.12609601
#
# Stress axis : x y z
#
# Youngs Moduli (GPa) = 25.81853 40.78362 2.86434
#
# Poissons Ratio (x) = -0.66197 0.24538
# Poissons Ratio (y) = -0.41907 0.21111
# Poissons Ratio (z) = 2.21182 3.00582
#
# Static dielectric constant tensor:
#      x y z
#    x 4.315550 -0.230500 0.171080 
#    y -0.230500 4.311520 -0.036350 
#    z 0.171080 -0.036350 4.321590 
# 
# 
# High freq. dielectric constant tensor:
#      x y z
#    x 1.870880 0.000330 0.017290 
#    y 0.000330 1.884940 -0.003490 
#    z 0.017290 -0.003490 1.888530 
# 
# From -- ./inp_files/278473.got.cif
#   From: 2010.06.25/outbox.ucp.g09.slc.cvg/sg2_140_cif.got.tgz:278473.got - 2010.06.28 11:54:26.
