data_PCOD8038987
_publ_section_title
;
Structure prediction by ZEFSAII (Michael W. Deem and Ramdas Pophale) SiO2 
 PCOD8038987
Probable space group: P -1
;
_chemical_formula_sum "Si O2"
_cell_formula_units_Z 16
_cell_length_a 14.373380
_cell_length_b 11.114554
_cell_length_c 19.584816
_cell_angle_alpha 140.235526
_cell_angle_beta 144.604871
_cell_angle_gamma 30.927771
_cell_volume 905.726763
_symmetry_space_group_name_H-M "P -1"
_symmetry_group_IT_number 2
_symmetry_cell_setting 'triclinic'
loop_
_space_group_symop_operation_xyz
x,y,z
-x,-y,-z
loop_
_atom_site_type_symbol
_atom_site_label
_atom_site_fract_x
_atom_site_fract_y
_atom_site_fract_z
Si Si1 0.337281 0.113567 0.277657
Si Si2 0.147222 0.150766 0.044487
Si Si3 0.934637 0.564906 0.268229
Si Si4 0.077974 0.725143 0.678125
Si Si5 0.198498 0.228122 0.578339
Si Si6 0.217582 0.306497 0.912732
Si Si7 0.954879 0.900153 0.825760
Si Si8 0.671784 0.093516 0.097287
O O1 0.268500 0.977825 0.220933
O O2 0.181101 0.398679 0.328128
O O3 0.565493 0.008442 0.387279
O O4 0.319958 0.081664 0.172739
O O5 0.259826 0.043504 0.993654
O O6 0.039336 0.040158 0.959390
O O7 0.971935 0.436542 0.058790
O O8 0.878835 0.732866 0.373001
O O9 0.806150 0.722413 0.194327
O O10 0.886500 0.378360 0.173925
O O11 0.182196 0.449626 0.635648
O O12 0.933433 0.819293 0.566372
O O13 0.936759 0.897692 0.731743
O O14 0.258235 0.742989 0.780534
O O15 0.223592 0.104147 0.866796
O O16 0.426264 0.270169 0.034212
#
# Coordination Sequence:
#
# PCOD8038987 Si02
#       8
#     2   2   2   2   2   2   2   2
#     4   9  18  28  50  74  96 126 154 191 243 287
#     4  10  18  32  51  73 101 122 154 202 242 285
#     4   8  18  32  47  74  98 118 163 201 230 286
#     4   9  20  34  48  70 103 124 162 199 231 283
#     4  10  18  34  51  70  96 133 154 197 246 274
#     4  10  20  33  53  70  98 128 159 194 241 286
#     4   8  17  31  46  77  97 121 156 195 243 284
#     4  10  21  34  48  74  96 130 161 193 236 286
#
# _framework density 17.665372000000001
#
# number of rings (size 3 to 8) (size 9 to 14) (size 15 to 20)
#    0.750    2.000    0.000    1.500    1.750    0.500 
#    0.000    4.375    0.000    3.000    0.000    0.000 
#    0.000    0.000    0.000    0.000    0.000    0.000 
#
# Total GULP energy -198312.246811 kJ/mol
# GULP energy per Si atom -12394.515426 kJ/mol
# Density = 1.762517 g / cm^3
# Si number density = 17.665372 Si / 1000 Ang^3
#
#
#
# Elastic Constant Matrix: (Units=GPa)
#
#
# Indices 1 2 3 4 5 6 
#
# 1 71.9876 9.7353 29.6061 -2.3184 -8.2289 6.9865
# 2 9.7353 45.8682 22.5661 -12.3233 -1.7176 -0.2689
# 3 29.6061 22.5661 72.1687 -11.8806 -4.4930 0.4859
# 4 -2.3184 -12.3233 -11.8806 19.8035 1.4398 -0.1123
# 5 -8.2289 -1.7176 -4.4930 1.4398 17.8667 -5.8563
# 6 6.9865 -0.2689 0.4859 -0.1123 -5.8563 19.2187
#
#
#
# Elastic Compliance Matrix: (Units=1/GPa)
#
#
# Indices 1 2 3 4 5 6 
#
# 1 0.017941 -0.000950 -0.007250 -0.003233 0.005023 -0.004841
# 2 -0.000950 0.028911 -0.006342 0.014085 -0.000070 0.000971
# 3 -0.007250 -0.006342 0.020058 0.007155 0.001334 0.002488
# 4 -0.003233 0.014085 0.007155 0.063415 -0.003260 0.000569
# 5 0.005023 -0.000070 0.001334 -0.003260 0.064723 0.017843
# 6 -0.004841 0.000971 0.002488 0.000569 0.017843 0.059183
#
#
# Mechanical properties :
#
#
# Convention : Reuss Voigt Hill
#
# Bulk Modulus (GPa) = 26.43737 34.87106 30.65422
# Shear Modulus (GPa) = 16.89617 19.91891 18.40754
#
# Velocity S-wave (km/s) = 3.09602 3.36157 3.23152
# Velocity P-wave (km/s) = 5.27054 5.90335 5.59590
#
# Compressibility (1/GPa) = 0.03782525
#
# Stress axis : x y z
#
# Youngs Moduli (GPa) = 55.73756 34.58903 49.85549
#
# Poissons Ratio (x) = 0.03286 0.36145
# Poissons Ratio (y) = 0.05295 0.31621
# Poissons Ratio (z) = 0.40410 0.21938
#
# Static dielectric constant tensor:
#      x y z
#    x 3.319260 -0.010120 -0.161270 
#    y -0.010120 3.038800 -0.059710 
#    z -0.161270 -0.059710 3.053360 
# 
# 
# High freq. dielectric constant tensor:
#      x y z
#    x 1.688280 -0.006030 -0.018270 
#    y -0.006030 1.664500 -0.009980 
#    z -0.018270 -0.009980 1.662320 
# 
# From -- ./inp_files/597857.got.cif
#   From: 2010.06.25/outbox.cif.g09.slc.cpg/sg2_299_cif.got.tgz:597857.got - 2010.06.27 13:26:56.
