data_PCOD8038364
_publ_section_title
;
Structure prediction by ZEFSAII (Michael W. Deem and Ramdas Pophale) SiO2 
 PCOD8038364
Probable space group: P -1
;
_chemical_formula_sum "Si O2"
_cell_formula_units_Z 16
_cell_length_a 22.039806
_cell_length_b 8.648103
_cell_length_c 11.356196
_cell_angle_alpha 86.096701
_cell_angle_beta 30.272865
_cell_angle_gamma 105.295052
_cell_volume 835.236228
_symmetry_space_group_name_H-M "P -1"
_symmetry_group_IT_number 2
_symmetry_cell_setting 'triclinic'
loop_
_space_group_symop_operation_xyz
x,y,z
-x,-y,-z
loop_
_atom_site_type_symbol
_atom_site_label
_atom_site_fract_x
_atom_site_fract_y
_atom_site_fract_z
Si Si1 0.396746 0.182420 0.345747
Si Si2 0.218495 0.302210 0.122406
Si Si3 0.609124 0.443095 0.793120
Si Si4 0.126817 0.112455 0.680302
Si Si5 0.612583 0.317953 0.328525
Si Si6 0.312269 0.953350 0.723220
Si Si7 0.050054 0.958031 0.240406
Si Si8 0.473808 0.567511 0.308802
O O1 0.254058 0.083108 0.496249
O O2 0.397615 0.337765 0.417950
O O3 0.370369 0.018332 0.486983
O O4 0.558247 0.284975 0.993402
O O5 0.070869 0.219325 0.456064
O O6 0.301541 0.530822 0.933553
O O7 0.339907 0.296681 0.992640
O O8 0.167181 0.169821 0.098717
O O9 0.790256 0.647792 0.480897
O O10 0.561612 0.345272 0.746451
O O11 0.500000 0.500000 0.000000
O O12 0.040828 0.013731 0.705566
O O13 0.000000 0.000000 0.000000
O O14 0.710418 0.247478 0.205133
O O15 0.607020 0.434530 0.438802
O O16 0.436773 0.126798 0.597122
O O17 0.145336 0.898075 0.022400
#
# Coordination Sequence:
#
# PCOD8038364 Si02
#       8
#     2   2   2   2   2   2   2   2
#     4  10  18  35  58  79 106 140 182 225 267 314
#     4  11  21  34  58  83 108 140 176 237 271 314
#     4   8  18  30  54  81 104 134 175 223 273 309
#     4  10  18  29  52  84 104 135 169 226 267 318
#     4  11  23  35  56  78 111 149 185 219 267 320
#     4  11  22  37  53  80 110 151 182 218 269 330
#     4  11  22  35  55  85 113 136 181 219 285 321
#     4  10  17  35  59  82 104 134 186 231 266 307
#
# _framework density 19.156255999999999
#
# number of rings (size 3 to 8) (size 9 to 14) (size 15 to 20)
#    0.000    2.000    3.750    3.375    1.750    0.500 
#    0.000    0.625    0.000    6.750    0.000    0.000 
#    0.000    0.000    0.000    0.000    0.000    0.000 
#
# Total GULP energy -198311.021739 kJ/mol
# GULP energy per Si atom -12394.438859 kJ/mol
# Density = 1.911266 g / cm^3
# Si number density = 19.156256 Si / 1000 Ang^3
#
#
#
# Elastic Constant Matrix: (Units=GPa)
#
#
# Indices 1 2 3 4 5 6 
#
# 1 98.3846 24.8648 18.8967 0.5213 2.0042 5.1933
# 2 24.8648 40.6509 20.4928 -5.2536 1.6552 -5.9626
# 3 18.8967 20.4928 96.0622 -6.2467 14.8848 -5.5145
# 4 0.5213 -5.2536 -6.2467 13.5037 1.0900 -1.6574
# 5 2.0042 1.6552 14.8848 1.0900 42.3283 -8.3262
# 6 5.1933 -5.9626 -5.5145 -1.6574 -8.3262 18.6532
#
#
#
# Elastic Compliance Matrix: (Units=1/GPa)
#
#
# Indices 1 2 3 4 5 6 
#
# 1 0.013247 -0.009337 -0.001247 -0.005613 -0.001274 -0.008109
# 2 -0.009337 0.036663 -0.004690 0.014108 0.003382 0.015696
# 3 -0.001247 -0.004690 0.012653 0.004550 -0.004095 0.001165
# 4 -0.005613 0.014108 0.004550 0.083720 -0.001227 0.014309
# 5 -0.001274 0.003382 -0.004095 -0.001227 0.027458 0.012373
# 6 -0.008109 0.015696 0.001165 0.014309 0.012373 0.068024
#
#
# Mechanical properties :
#
#
# Convention : Reuss Voigt Hill
#
# Bulk Modulus (GPa) = 31.23574 40.40069 35.81822
# Shear Modulus (GPa) = 17.66871 26.28658 21.97764
#
# Velocity S-wave (km/s) = 3.04031 3.70837 3.39083
# Velocity P-wave (km/s) = 5.35405 6.28266 5.83685
#
# Compressibility (1/GPa) = 0.03201460
#
# Stress axis : x y z
#
# Youngs Moduli (GPa) = 75.48720 27.27523 79.03211
#
# Poissons Ratio (x) = 0.25468 0.09856
# Poissons Ratio (y) = 0.70484 0.37067
# Poissons Ratio (z) = 0.09414 0.12792
#
# Static dielectric constant tensor:
#      x y z
#    x 4.108850 0.051000 0.266430 
#    y 0.051000 3.033800 -0.212160 
#    z 0.266430 -0.212160 3.796600 
# 
# 
# High freq. dielectric constant tensor:
#      x y z
#    x 1.766880 0.015030 0.011830 
#    y 0.015030 1.679370 -0.014500 
#    z 0.011830 -0.014500 1.752290 
# 
# From -- ./inp_files/469353.got.cif
#   From: 2010.06.25/outbox.cif.g09.slc.cpg/sg2_235_cif.got.tgz:469353.got - 2010.06.27 13:26:56.
