data_PCOD8038586
_publ_section_title
;
Structure prediction by ZEFSAII (Michael W. Deem and Ramdas Pophale) SiO2 
 PCOD8038586
Probable space group: P -1
;
_chemical_formula_sum "Si O2"
_cell_formula_units_Z 12
_cell_length_a 7.280150
_cell_length_b 21.219259
_cell_length_c 7.224918
_cell_angle_alpha 134.994206
_cell_angle_beta 75.448491
_cell_angle_gamma 136.870025
_cell_volume 451.501951
_symmetry_space_group_name_H-M "P -1"
_symmetry_group_IT_number 2
_symmetry_cell_setting 'triclinic'
loop_
_space_group_symop_operation_xyz
x,y,z
-x,-y,-z
loop_
_atom_site_type_symbol
_atom_site_label
_atom_site_fract_x
_atom_site_fract_y
_atom_site_fract_z
Si Si1 0.462298 0.014426 0.770347
Si Si2 0.634703 0.200180 0.792895
Si Si3 0.353443 0.275956 0.142347
Si Si4 0.329810 0.517445 0.178795
Si Si5 0.798865 0.980636 0.857609
Si Si6 0.267431 0.230723 0.669792
O O1 0.546707 0.937642 0.597069
O O2 0.078148 0.872022 0.529770
O O3 0.684045 0.144034 0.826213
O O4 0.500057 0.082100 0.094238
O O5 0.456187 0.211206 0.967793
O O6 0.951828 0.358057 0.944008
O O7 0.582036 0.428113 0.516766
O O8 0.334478 0.308192 0.006079
O O9 0.011403 0.141871 0.051765
O O10 0.444338 0.644114 0.289631
O O11 0.500000 0.500000 0.000000
O O12 0.695203 0.862477 0.491087
O O13 0.000000 0.000000 0.000000
#
# Coordination Sequence:
#
# PCOD8038586 Si02
#       6
#     2   2   2   2   2   2
#     4  10  20  41  67  90 124 166 203 250 308 367
#     4  11  22  38  65  95 123 161 208 254 306 363
#     4  12  23  38  69  94 122 161 211 256 304 363
#     4  12  24  44  64  87 128 169 202 253 316 368
#     4  10  17  38  65  90 121 167 199 245 307 368
#     4  11  22  40  68  92 120 166 210 249 306 372
#
# _framework density 26.577957999999999
#
# number of rings (size 3 to 8) (size 9 to 14) (size 15 to 20)
#    0.000    1.000    8.333    1.000    0.000    1.333 
#    0.000    0.833    7.333    0.000    0.000    0.000 
#    0.000    0.000    0.000    0.000    0.000    0.000 
#
# Total GULP energy -148714.238931 kJ/mol
# GULP energy per Si atom -12392.853244 kJ/mol
# Density = 2.651746 g / cm^3
# Si number density = 26.577958 Si / 1000 Ang^3
#
#
#
# Elastic Constant Matrix: (Units=GPa)
#
#
# Indices 1 2 3 4 5 6 
#
# 1 82.5792 5.2158 24.3982 -4.1264 -23.8815 6.4600
# 2 5.2158 142.9247 32.7712 -2.3486 11.5947 8.6490
# 3 24.3982 32.7712 133.9329 -31.9960 -9.6924 2.0212
# 4 -4.1264 -2.3486 -31.9960 71.9417 9.3066 -2.1085
# 5 -23.8815 11.5947 -9.6924 9.3066 43.4151 -11.7413
# 6 6.4600 8.6490 2.0212 -2.1085 -11.7413 34.8944
#
#
#
# Elastic Compliance Matrix: (Units=1/GPa)
#
#
# Indices 1 2 3 4 5 6 
#
# 1 0.015167 -0.000746 -0.002275 -0.001242 0.008368 0.000249
# 2 -0.000746 0.007993 -0.002125 -0.000328 -0.003762 -0.003006
# 3 -0.002275 -0.002125 0.009376 0.003890 0.000823 0.000917
# 4 -0.001242 -0.000328 0.003890 0.015956 -0.003150 -0.000010
# 5 0.008368 -0.003762 0.000823 -0.003150 0.032199 0.009980
# 6 0.000249 -0.003006 0.000917 -0.000010 0.009980 0.032661
#
#
# Mechanical properties :
#
#
# Convention : Reuss Voigt Hill
#
# Bulk Modulus (GPa) = 44.95749 53.80081 49.37915
# Shear Modulus (GPa) = 38.15064 49.85368 44.00216
#
# Velocity S-wave (km/s) = 3.79281 4.33569 4.07331
# Velocity P-wave (km/s) = 6.01104 6.73431 6.38293
#
# Compressibility (1/GPa) = 0.02224324
#
# Stress axis : x y z
#
# Youngs Moduli (GPa) = 65.93084 125.11153 106.65485
#
# Poissons Ratio (x) = 0.09336 0.24266
# Poissons Ratio (y) = 0.04920 0.22666
# Poissons Ratio (z) = 0.15001 0.26588
#
# Static dielectric constant tensor:
#      x y z
#    x 5.095760 0.012970 -0.384740 
#    y 0.012970 6.239170 -0.283270 
#    z -0.384740 -0.283270 5.441720 
# 
# 
# High freq. dielectric constant tensor:
#      x y z
#    x 2.084910 -0.010950 -0.019510 
#    y -0.010950 2.092630 -0.032880 
#    z -0.019510 -0.032880 2.072130 
# 
# From -- ./inp_files/225070.got.cif
#   From: 2010.06.25/outbox.cif.g09.slc.cpg/sg2_113_cif.got.tgz:225070.got - 2010.06.27 13:26:56.
