data_PCOD8038918
_publ_section_title
;
Structure prediction by ZEFSAII (Michael W. Deem and Ramdas Pophale) SiO2 
 PCOD8038918
Probable space group: P -1
;
_chemical_formula_sum "Si O2"
_cell_formula_units_Z 12
_cell_length_a 9.226592
_cell_length_b 11.882226
_cell_length_c 13.832504
_cell_angle_alpha 42.270893
_cell_angle_beta 129.624930
_cell_angle_gamma 141.486481
_cell_volume 628.901604
_symmetry_space_group_name_H-M "P -1"
_symmetry_group_IT_number 2
_symmetry_cell_setting 'triclinic'
loop_
_space_group_symop_operation_xyz
x,y,z
-x,-y,-z
loop_
_atom_site_type_symbol
_atom_site_label
_atom_site_fract_x
_atom_site_fract_y
_atom_site_fract_z
Si Si1 0.606031 0.064303 0.281605
Si Si2 0.464001 0.288790 0.386767
Si Si3 0.121537 0.299560 0.611132
Si Si4 0.046868 0.964267 0.650511
Si Si5 0.083709 0.872250 0.160487
Si Si6 0.820964 0.409529 0.302854
O O1 0.757114 0.077031 0.246002
O O2 0.760752 0.294292 0.248472
O O3 0.561082 0.897760 0.447834
O O4 0.361726 0.005440 0.176044
O O5 0.616543 0.503596 0.374692
O O6 0.577356 0.309819 0.318487
O O7 0.206460 0.230979 0.292598
O O8 0.975134 0.163112 0.728537
O O9 0.989409 0.386201 0.454565
O O10 0.150659 0.166840 0.631647
O O11 0.000000 0.000000 0.500000
O O12 0.953352 0.654601 0.185501
O O13 0.000000 0.000000 0.000000
#
# Coordination Sequence:
#
# PCOD8038918 Si02
#       6
#     2   2   2   2   2   2
#     4  11  20  34  56  85 118 137 183 232 277 327
#     4  10  18  31  54  86 113 139 175 232 279 322
#     4  11  19  36  60  85 111 144 185 230 277 323
#     4  10  21  31  53  92 116 139 175 231 288 322
#     4  11  24  39  57  81 112 150 189 227 272 326
#     4  11  19  35  62  84 106 144 188 237 278 310
#
# _framework density 19.080886
#
# number of rings (size 3 to 8) (size 9 to 14) (size 15 to 20)
#    0.000    1.333    6.667    2.500    0.000    4.667 
#    0.000    0.833    0.000    5.000    0.000    0.000 
#    0.000    0.000    0.000    0.000    0.000    0.000 
#
# Total GULP energy -148804.724382 kJ/mol
# GULP energy per Si atom -12400.393699 kJ/mol
# Density = 1.903746 g / cm^3
# Si number density = 19.080886 Si / 1000 Ang^3
#
#
#
# Elastic Constant Matrix: (Units=GPa)
#
#
# Indices 1 2 3 4 5 6 
#
# 1 117.2596 63.9397 40.2311 -6.7660 29.9568 -11.2927
# 2 63.9397 128.0255 38.2728 -18.5515 22.7297 -11.8655
# 3 40.2311 38.2728 77.2650 -10.0245 28.7939 11.5020
# 4 -6.7660 -18.5515 -10.0245 14.1612 2.1088 9.8440
# 5 29.9568 22.7297 28.7939 2.1088 18.6920 4.2043
# 6 -11.2927 -11.8655 11.5020 9.8440 4.2043 39.1630
#
#
#
# Elastic Compliance Matrix: (Units=1/GPa)
#
#
# Indices 1 2 3 4 5 6 
#
# 1 0.020063 0.000266 0.015446 0.029537 -0.059672 0.000311
# 2 0.000266 0.019691 0.021990 0.056280 -0.062836 -0.007817
# 3 0.015446 0.021990 0.106659 0.172742 -0.226441 -0.039321
# 4 0.029537 0.056280 0.172742 0.398142 -0.408486 -0.081390
# 5 -0.059672 -0.062836 -0.226441 -0.408486 0.605158 0.067972
# 6 0.000311 -0.007817 -0.039321 -0.081390 0.067972 0.047965
#
#
# Mechanical properties :
#
#
# Convention : Reuss Voigt Hill
#
# Bulk Modulus (GPa) = 4.50825 67.49303 36.00064
# Shear Modulus (GPa) = 4.17985 26.41034 15.29510
#
# Velocity S-wave (km/s) = 1.48167 3.72442 2.83431
# Velocity P-wave (km/s) = 2.30108 7.34465 5.44238
#
# Compressibility (1/GPa) = 0.22181569
#
# Stress axis : x y z
#
# Youngs Moduli (GPa) = 49.84310 50.78454 9.37564
#
# Poissons Ratio (x) = -0.01350 -0.14481
# Poissons Ratio (y) = -0.01325 -0.20617
# Poissons Ratio (z) = -0.76985 -1.11675
#
# Static dielectric constant tensor:
#      x y z
#    x 3.439810 -0.003670 0.429650 
#    y -0.003670 3.704600 0.044010 
#    z 0.429650 0.044010 2.938430 
# 
# 
# High freq. dielectric constant tensor:
#      x y z
#    x 1.752520 0.002460 0.015560 
#    y 0.002460 1.763260 -0.005050 
#    z 0.015560 -0.005050 1.684660 
# 
# From -- ./inp_files/150838.got.cif
#   From: 2010.06.25/outbox.cif.g09.slc.cpg/sg2_76_cif.got.tgz:150838.got - 2010.06.27 13:26:56.
