data_PCOD8038781
_publ_section_title
;
Structure prediction by ZEFSAII (Michael W. Deem and Ramdas Pophale) SiO2 
 PCOD8038781
Probable space group: P -1
;
_chemical_formula_sum "Si O2"
_cell_formula_units_Z 16
_cell_length_a 13.948917
_cell_length_b 8.705160
_cell_length_c 22.831883
_cell_angle_alpha 55.746184
_cell_angle_beta 21.618994
_cell_angle_gamma 56.391867
_cell_volume 840.107859
_symmetry_space_group_name_H-M "P -1"
_symmetry_group_IT_number 2
_symmetry_cell_setting 'triclinic'
loop_
_space_group_symop_operation_xyz
x,y,z
-x,-y,-z
loop_
_atom_site_type_symbol
_atom_site_label
_atom_site_fract_x
_atom_site_fract_y
_atom_site_fract_z
Si Si1 0.853038 0.269594 0.488834
Si Si2 0.895612 0.695359 0.939229
Si Si3 0.753143 0.990462 0.318578
Si Si4 0.416351 0.809397 0.114269
Si Si5 0.677980 0.586954 0.199021
Si Si6 0.425641 0.239426 0.375435
Si Si7 0.991187 0.873509 0.443545
Si Si8 0.997059 0.338341 0.694770
O O1 0.538857 0.312204 0.656279
O O2 0.928582 0.243612 0.519326
O O3 0.990949 0.442969 0.346587
O O4 0.943874 0.093328 0.435774
O O5 0.088842 0.503213 0.872257
O O6 0.670434 0.682616 0.021432
O O7 0.777805 0.731294 0.064321
O O8 0.053781 0.867946 0.794766
O O9 0.916878 0.784546 0.269344
O O10 0.500000 0.000000 0.500000
O O11 0.645134 0.063595 0.300647
O O12 0.216007 0.847913 0.273315
O O13 0.290998 0.695807 0.157567
O O14 0.500000 0.000000 0.000000
O O15 0.565770 0.428614 0.255484
O O16 0.280590 0.204198 0.404756
O O17 0.205029 0.257072 0.546433
#
# Coordination Sequence:
#
# PCOD8038781 Si02
#       8
#     2   2   2   2   2   2   2   2
#     4  10  20  36  54  76 108 143 173 215 263 317
#     4  10  18  30  53  82 107 130 175 221 264 297
#     4   9  16  31  49  75 105 134 170 215 263 301
#     4  11  20  33  56  82 107 137 175 221 257 311
#     4   9  18  32  55  80 103 136 176 225 255 305
#     4   8  17  30  52  76 102 131 178 218 251 305
#     4  10  21  35  54  78 107 141 175 213 268 313
#     4   9  18  30  52  78 100 138 176 214 255 305
#
# _framework density 19.045173999999999
#
# number of rings (size 3 to 8) (size 9 to 14) (size 15 to 20)
#    0.000    2.500    2.500    0.750    1.750    1.500 
#    0.000    1.250    0.000    8.250    0.000    0.000 
#    0.000    0.000    0.000    0.000    0.000    0.000 
#
# Total GULP energy -198277.186138 kJ/mol
# GULP energy per Si atom -12392.324134 kJ/mol
# Density = 1.900183 g / cm^3
# Si number density = 19.045174 Si / 1000 Ang^3
#
#
#
# Elastic Constant Matrix: (Units=GPa)
#
#
# Indices 1 2 3 4 5 6 
#
# 1 58.4568 23.4132 21.5293 14.1586 -23.6853 -14.0615
# 2 23.4132 84.5595 19.8269 -2.1125 -11.1715 -18.6198
# 3 21.5293 19.8269 75.1591 -5.6465 -22.8262 -5.9480
# 4 14.1586 -2.1125 -5.6465 24.8073 -9.1386 -4.0338
# 5 -23.6853 -11.1715 -22.8262 -9.1386 27.1277 5.3327
# 6 -14.0615 -18.6198 -5.9480 -4.0338 5.3327 25.9558
#
#
#
# Elastic Compliance Matrix: (Units=1/GPa)
#
#
# Indices 1 2 3 4 5 6 
#
# 1 0.031930 -0.004264 -0.002514 -0.010941 0.018725 0.008115
# 2 -0.004264 0.015693 -0.001215 0.005655 0.001819 0.009175
# 3 -0.002514 -0.001215 0.021435 0.013618 0.019785 0.000730
# 4 -0.010941 0.005655 0.013618 0.059613 0.023186 0.005751
# 5 0.018725 0.001819 0.019785 0.023186 0.077707 0.003621
# 6 0.008115 0.009175 0.000730 0.005751 0.003621 0.049822
#
#
# Mechanical properties :
#
#
# Convention : Reuss Voigt Hill
#
# Bulk Modulus (GPa) = 18.84225 38.63490 28.73858
# Shear Modulus (GPa) = 17.24867 25.80522 21.52694
#
# Velocity S-wave (km/s) = 3.01270 3.68496 3.36566
# Velocity P-wave (km/s) = 4.69220 6.19961 5.49781
#
# Compressibility (1/GPa) = 0.05307223
#
# Stress axis : x y z
#
# Youngs Moduli (GPa) = 31.31900 63.72140 46.65177
#
# Poissons Ratio (x) = 0.27169 0.11729
# Poissons Ratio (y) = 0.13354 0.05669
# Poissons Ratio (z) = 0.07874 0.07743
#
# Static dielectric constant tensor:
#      x y z
#    x 3.548560 -0.497090 -0.379790 
#    y -0.497090 3.492560 -0.123020 
#    z -0.379790 -0.123020 3.651170 
# 
# 
# High freq. dielectric constant tensor:
#      x y z
#    x 1.714870 -0.043650 -0.030500 
#    y -0.043650 1.729400 -0.016920 
#    z -0.030500 -0.016920 1.741650 
# 
# From -- ./inp_files/248349.got.cif
#   From: 2010.06.25/outbox.cif.g09.slc.cpg/sg2_125_cif.got.tgz:248349.got - 2010.06.27 13:26:56.
