data_PCOD8038438
_publ_section_title
;
Structure prediction by ZEFSAII (Michael W. Deem and Ramdas Pophale) SiO2 
 PCOD8038438
Probable space group: P -1
;
_chemical_formula_sum "Si O2"
_cell_formula_units_Z 14
_cell_length_a 15.459282
_cell_length_b 8.607467
_cell_length_c 10.185550
_cell_angle_alpha 119.299588
_cell_angle_beta 36.812015
_cell_angle_gamma 104.387523
_cell_volume 681.060018
_symmetry_space_group_name_H-M "P -1"
_symmetry_group_IT_number 2
_symmetry_cell_setting 'triclinic'
loop_
_space_group_symop_operation_xyz
x,y,z
-x,-y,-z
loop_
_atom_site_type_symbol
_atom_site_label
_atom_site_fract_x
_atom_site_fract_y
_atom_site_fract_z
Si Si1 0.319860 0.548376 0.083367
Si Si2 0.781803 0.090562 0.306005
Si Si3 0.005140 0.211038 0.437594
Si Si4 0.356507 0.507572 0.321782
Si Si5 0.174750 0.292868 0.020453
Si Si6 0.011331 0.115871 0.826195
Si Si7 0.930891 0.595712 0.308632
O O1 0.175336 0.719127 0.305024
O O2 0.327733 0.472711 0.190573
O O3 0.307335 0.383309 0.932689
O O4 0.474270 0.603937 0.886031
O O5 0.646461 0.275718 0.562458
O O6 0.838525 0.028748 0.359011
O O7 0.902324 0.159693 0.102031
O O8 0.743622 0.916996 0.209347
O O9 0.064293 0.309815 0.285864
O O10 0.079295 0.257194 0.499700
O O11 0.049043 0.989641 0.263540
O O12 0.231115 0.443243 0.529398
O O13 0.065034 0.407596 0.087990
O O14 0.035169 0.308083 0.826443
#
# Coordination Sequence:
#
# PCOD8038438 Si02
#       7
#     2   2   2   2   2   2   2
#     4  10  19  34  58  77 108 144 182 209 261 322
#     4  10  21  36  53  79 112 139 174 222 273 313
#     4  10  17  36  55  82 107 140 176 227 260 313
#     4  11  20  34  56  80 108 144 178 216 261 321
#     4  10  19  35  58  80 107 140 178 221 263 315
#     4  10  20  33  55  83 109 137 177 227 268 309
#     4  11  19  32  57  86 105 137 183 222 263 309
#
# _framework density 20.556190000000001
#
# number of rings (size 3 to 8) (size 9 to 14) (size 15 to 20)
#    0.000    1.714    4.286    3.000    0.000    2.857 
#    0.000    0.714    0.000    7.714    0.000    0.000 
#    0.000    0.000    0.000    0.000    0.000    0.000 
#
# Total GULP energy -173517.561810 kJ/mol
# GULP energy per Si atom -12394.111558 kJ/mol
# Density = 2.050940 g / cm^3
# Si number density = 20.556190 Si / 1000 Ang^3
#
#
#
# Elastic Constant Matrix: (Units=GPa)
#
#
# Indices 1 2 3 4 5 6 
#
# 1 67.3970 31.9967 31.8137 -6.1985 -8.1420 14.6789
# 2 31.9967 90.7983 25.6068 -17.2353 0.3347 -0.0959
# 3 31.8137 25.6068 38.4540 -1.4766 -5.1197 0.4666
# 4 -6.1985 -17.2353 -1.4766 28.9687 7.8026 7.4686
# 5 -8.1420 0.3347 -5.1197 7.8026 33.2067 -1.3319
# 6 14.6789 -0.0959 0.4666 7.4686 -1.3319 28.5196
#
#
#
# Elastic Compliance Matrix: (Units=1/GPa)
#
#
# Indices 1 2 3 4 5 6 
#
# 1 0.032800 -0.003181 -0.024256 0.008232 0.001655 -0.018574
# 2 -0.003181 0.016522 -0.008592 0.010261 -0.004725 -0.001074
# 3 -0.024256 -0.008592 0.051881 -0.013187 0.005852 0.015333
# 4 0.008232 0.010261 -0.013187 0.049602 -0.012477 -0.017559
# 5 0.001655 -0.004725 0.005852 -0.012477 0.034559 0.003918
# 6 -0.018574 -0.001074 0.015333 -0.017559 0.003918 0.049150
#
#
# Mechanical properties :
#
#
# Convention : Reuss Voigt Hill
#
# Bulk Modulus (GPa) = 34.31233 41.72041 38.01637
# Shear Modulus (GPa) = 15.80851 25.28782 20.54817
#
# Velocity S-wave (km/s) = 2.77616 3.51120 3.16509
# Velocity P-wave (km/s) = 5.19657 6.06448 5.64722
#
# Compressibility (1/GPa) = 0.02914404
#
# Stress axis : x y z
#
# Youngs Moduli (GPa) = 30.48818 60.52715 19.27503
#
# Poissons Ratio (x) = 0.19253 0.46753
# Poissons Ratio (y) = 0.09698 0.16562
# Poissons Ratio (z) = 0.73951 0.52006
#
# Static dielectric constant tensor:
#      x y z
#    x 3.636210 0.265340 0.145940 
#    y 0.265340 3.654620 0.077650 
#    z 0.145940 0.077650 3.545210 
# 
# 
# High freq. dielectric constant tensor:
#      x y z
#    x 1.791650 0.025100 0.023490 
#    y 0.025100 1.794300 0.013580 
#    z 0.023490 0.013580 1.785500 
# 
# From -- ./inp_files/181206.got.cif
#   From: 2010.06.25/outbox.cif.g09.slc.cpg/sg2_91_cif.got.tgz:181206.got - 2010.06.27 13:26:56.
