data_PCOD8038350
_publ_section_title
;
Structure prediction by ZEFSAII (Michael W. Deem and Ramdas Pophale) SiO2 
 PCOD8038350
Probable space group: P -1
;
_chemical_formula_sum "Si O2"
_cell_formula_units_Z 16
_cell_length_a 15.703776
_cell_length_b 11.141505
_cell_length_c 11.309899
_cell_angle_alpha 144.464982
_cell_angle_beta 127.739381
_cell_angle_gamma 65.150163
_cell_volume 896.358925
_symmetry_space_group_name_H-M "P -1"
_symmetry_group_IT_number 2
_symmetry_cell_setting 'triclinic'
loop_
_space_group_symop_operation_xyz
x,y,z
-x,-y,-z
loop_
_atom_site_type_symbol
_atom_site_label
_atom_site_fract_x
_atom_site_fract_y
_atom_site_fract_z
Si Si1 0.734938 0.174462 0.803714
Si Si2 0.054365 0.508328 0.812193
Si Si3 0.884548 0.848229 0.265968
Si Si4 0.626271 0.515967 0.095948
Si Si5 0.882948 0.780653 0.942536
Si Si6 0.250173 0.087726 0.596335
Si Si7 0.042670 0.181196 0.355353
Si Si8 0.773661 0.746305 0.596474
O O1 0.705437 0.106211 0.585891
O O2 0.734028 0.965792 0.712791
O O3 0.853047 0.317492 0.025676
O O4 0.644484 0.296489 0.879093
O O5 0.107745 0.375461 0.848888
O O6 0.002944 0.367467 0.544827
O O7 0.960836 0.607426 0.876421
O O8 0.846811 0.820582 0.076508
O O9 0.785410 0.945232 0.323049
O O10 0.000000 0.000000 0.500000
O O11 0.665056 0.697985 0.178884
O O12 0.692584 0.562241 0.312724
O O13 0.500000 0.500000 0.000000
O O14 0.777113 0.705000 0.707845
O O15 0.941211 0.996437 0.104177
O O16 0.136069 0.097063 0.441964
O O17 0.100265 0.257162 0.341039
#
# Coordination Sequence:
#
# PCOD8038350 Si02
#       8
#     2   2   2   2   2   2   2   2
#     4  10  17  35  58  75 106 133 174 221 271 308
#     4  11  18  31  53  74 105 155 181 202 254 300
#     4  11  19  35  48  74 116 143 187 212 231 309
#     4  10  20  38  59  79 101 128 176 234 272 313
#     4  12  21  31  49  76 115 151 171 207 254 306
#     4   9  18  32  52  79 100 134 179 217 251 301
#     4   9  17  31  44  71 104 138 173 209 241 303
#     4  10  22  33  49  81 110 135 177 216 263 322
#
# _framework density 17.849993000000001
#
# number of rings (size 3 to 8) (size 9 to 14) (size 15 to 20)
#    0.000    2.000    8.750    0.750    0.000    3.500 
#    0.000    0.000    0.000    0.750    0.000    1.750 
#    0.000    0.000    0.000    0.000    0.000    0.000 
#
# Total GULP energy -198284.059236 kJ/mol
# GULP energy per Si atom -12392.753702 kJ/mol
# Density = 1.780937 g / cm^3
# Si number density = 17.849993 Si / 1000 Ang^3
#
#
#
# Elastic Constant Matrix: (Units=GPa)
#
#
# Indices 1 2 3 4 5 6 
#
# 1 109.1505 35.3861 55.4584 -10.7768 -25.2486 -3.0734
# 2 35.3861 40.6729 34.5447 -3.9942 -17.5498 3.7819
# 3 55.4584 34.5447 95.0852 -0.4225 -33.0375 0.1873
# 4 -10.7768 -3.9942 -0.4225 28.2027 2.2339 -11.3734
# 5 -25.2486 -17.5498 -33.0375 2.2339 34.2570 -0.0206
# 6 -3.0734 3.7819 0.1873 -11.3734 -0.0206 20.6032
#
#
#
# Elastic Compliance Matrix: (Units=1/GPa)
#
#
# Indices 1 2 3 4 5 6 
#
# 1 0.016331 -0.008576 -0.005896 0.008316 0.001420 0.008656
# 2 -0.008576 0.042931 -0.007659 -0.002111 0.008417 -0.010247
# 3 -0.005896 -0.007659 0.020995 -0.004962 0.012300 -0.002391
# 4 0.008316 -0.002111 -0.004962 0.050391 -0.003006 0.029487
# 5 0.001420 0.008417 0.012300 -0.003006 0.046606 -0.003058
# 6 0.008656 -0.010247 -0.002391 0.029487 -0.003058 0.068004
#
#
# Mechanical properties :
#
#
# Convention : Reuss Voigt Hill
#
# Bulk Modulus (GPa) = 27.78326 55.07634 41.42980
# Shear Modulus (GPa) = 16.58274 24.58053 20.58163
#
# Velocity S-wave (km/s) = 3.05127 3.71490 3.39932
# Velocity P-wave (km/s) = 5.29266 7.02302 6.21832
#
# Compressibility (1/GPa) = 0.03599289
#
# Stress axis : x y z
#
# Youngs Moduli (GPa) = 61.23358 23.29346 47.63086
#
# Poissons Ratio (x) = 0.19977 0.28084
# Poissons Ratio (y) = 0.52514 0.36483
# Poissons Ratio (z) = 0.36104 0.17842
#
# Static dielectric constant tensor:
#      x y z
#    x 3.487170 0.202130 -0.512190 
#    y 0.202130 2.994610 0.174150 
#    z -0.512190 0.174150 3.683570 
# 
# 
# High freq. dielectric constant tensor:
#      x y z
#    x 1.667970 0.013220 -0.032070 
#    y 0.013220 1.645660 0.017620 
#    z -0.032070 0.017620 1.702300 
# 
# From -- ./inp_files/436895.got.cif
#   From: 2010.06.25/outbox.cif.g09.slc.cpg/sg2_219_cif.got.tgz:436895.got - 2010.06.27 13:26:56.
