data_PCOD8038072
_publ_section_title
;
Structure prediction by ZEFSAII (Michael W. Deem and Ramdas Pophale) SiO2 
 PCOD8038072
Probable space group: P -1
;
_chemical_formula_sum "Si O2"
_cell_formula_units_Z 10
_cell_length_a 12.000000
_cell_length_b 12.000000
_cell_length_c 9.000000
_cell_angle_alpha 130.000000
_cell_angle_beta 80.000000
_cell_angle_gamma 140.000000
_cell_volume 486.399664
_symmetry_space_group_name_H-M "P -1"
_symmetry_group_IT_number 2
_symmetry_cell_setting 'triclinic'
loop_
_space_group_symop_operation_xyz
x,y,z
-x,-y,-z
loop_
_atom_site_type_symbol
_atom_site_label
_atom_site_fract_x
_atom_site_fract_y
_atom_site_fract_z
Si Si1 0.639879 0.747179 0.851768
Si Si2 0.949795 0.161336 0.409432
Si Si3 0.829750 0.176056 0.747466
Si Si4 0.547336 0.198800 0.246049
Si Si5 0.166164 0.114183 0.367358
O O1 0.567592 0.809822 0.835958
O O2 0.412533 0.399103 0.636841
O O3 0.804355 0.842484 0.782567
O O4 0.757549 0.917628 0.123898
O O5 0.833631 0.141282 0.539655
O O6 0.176793 0.473615 0.538075
O O7 0.005029 0.071662 0.407704
O O8 0.580436 0.937903 0.677229
O O9 0.938736 0.157703 0.791789
O O10 0.000000 0.500000 0.000000
O O11 0.500000 0.000000 0.000000
#
# Coordination Sequence:
#
# PCOD8038072 Si02
#       5
#     2   2   2   2   2
#     4   9  20  38  65  91 114 156 207 243 292 356
#     4  11  21  39  68  88 115 160 201 245 298 348
#     4  11  22  39  61  90 122 160 196 242 300 357
#     4  10  21  41  60  85 125 157 192 246 300 346
#     4   9  20  39  62  87 123 154 196 250 296 348
#
# _framework density 20.559225000000001
#
# number of rings (size 3 to 8) (size 9 to 14) (size 15 to 20)
#    0.000    2.000    2.000    2.400    0.000    1.600 
#    0.000    9.000    0.000    0.000    0.000    0.000 
#    0.000    0.000    0.000    0.000    0.000    0.000 
#
# Total GULP energy -123891.756604 kJ/mol
# GULP energy per Si atom -12389.175660 kJ/mol
# Density = 2.051243 g / cm^3
# Si number density = 20.559225 Si / 1000 Ang^3
#
#
#
# Elastic Constant Matrix: (Units=GPa)
#
#
# Indices 1 2 3 4 5 6 
#
# 1 49.4432 34.4846 42.2677 3.7918 -20.9211 9.3834
# 2 34.4846 144.9691 63.8220 -1.0963 -5.8249 21.5656
# 3 42.2677 63.8220 154.1776 -16.4959 -8.4389 -2.0158
# 4 3.7918 -1.0963 -16.4959 39.6245 -1.9460 -17.7574
# 5 -20.9211 -5.8249 -8.4389 -1.9460 36.2093 -2.4734
# 6 9.3834 21.5656 -2.0158 -17.7574 -2.4734 38.5484
#
#
#
# Elastic Compliance Matrix: (Units=1/GPa)
#
#
# Indices 1 2 3 4 5 6 
#
# 1 0.045637 -0.002242 -0.012343 -0.015911 0.021150 -0.016472
# 2 -0.002242 0.010464 -0.004431 -0.004960 -0.001452 -0.007918
# 3 -0.012343 -0.004431 0.012858 0.011213 -0.003487 0.011097
# 4 -0.015911 -0.004960 0.011213 0.043200 -0.003216 0.026928
# 5 0.021150 -0.001452 -0.003487 -0.003216 0.038377 -0.003538
# 6 -0.016472 -0.007918 0.011097 0.026928 -0.003538 0.047139
#
#
# Mechanical properties :
#
#
# Convention : Reuss Voigt Hill
#
# Bulk Modulus (GPa) = 32.33435 69.97096 51.15265
# Shear Modulus (GPa) = 20.32399 36.74415 28.53407
#
# Velocity S-wave (km/s) = 3.14755 4.23216 3.72949
# Velocity P-wave (km/s) = 5.38247 7.61507 6.59394
#
# Compressibility (1/GPa) = 0.03092686
#
# Stress axis : x y z
#
# Youngs Moduli (GPa) = 21.91228 95.56658 77.77251
#
# Poissons Ratio (x) = 0.21424 0.95997
# Poissons Ratio (y) = 0.04912 0.34458
# Poissons Ratio (z) = 0.27047 0.42342
#
# Static dielectric constant tensor:
#      x y z
#    x 4.158950 0.470730 -0.855390 
#    y 0.470730 4.435820 -0.097750 
#    z -0.855390 -0.097750 4.227530 
# 
# 
# High freq. dielectric constant tensor:
#      x y z
#    x 1.798970 0.017660 -0.037390 
#    y 0.017660 1.832580 0.001170 
#    z -0.037390 0.001170 1.800050 
# 
# From -- ./inp_files/15953.got.cif
#   From: 2010.06.25/outbox.ucp.g09.slc.cvg/sg2_8_cif.got.tgz:15953.got - 2010.06.28 11:54:26.
