data_PCOD8038676
_publ_section_title
;
Structure prediction by ZEFSAII (Michael W. Deem and Ramdas Pophale) SiO2 
 PCOD8038676
Probable space group: P -1
;
_chemical_formula_sum "Si O2"
_cell_formula_units_Z 14
_cell_length_a 5.150924
_cell_length_b 11.293569
_cell_length_c 13.768424
_cell_angle_alpha 67.764271
_cell_angle_beta 109.559715
_cell_angle_gamma 114.500570
_cell_volume 659.411213
_symmetry_space_group_name_H-M "P -1"
_symmetry_group_IT_number 2
_symmetry_cell_setting 'triclinic'
loop_
_space_group_symop_operation_xyz
x,y,z
-x,-y,-z
loop_
_atom_site_type_symbol
_atom_site_label
_atom_site_fract_x
_atom_site_fract_y
_atom_site_fract_z
Si Si1 0.947973 0.607470 0.829684
Si Si2 0.217967 0.700793 0.029096
Si Si3 0.313892 0.560185 0.726124
Si Si4 0.853259 0.746922 0.132828
Si Si5 0.848327 0.891636 0.434613
Si Si6 0.775408 0.164904 0.668759
Si Si7 0.423823 0.620079 0.505199
O O1 0.869433 0.454075 0.902155
O O2 0.651730 0.641157 0.767826
O O3 0.119359 0.629136 0.742188
O O4 0.146407 0.708122 0.904078
O O5 0.558513 0.781847 0.066726
O O6 0.028441 0.770607 0.046522
O O7 0.234082 0.404895 0.792644
O O8 0.262321 0.572318 0.601707
O O9 0.057431 0.845389 0.208252
O O10 0.569894 0.924154 0.341769
O O11 0.728047 0.744358 0.517425
O O12 0.082250 0.893179 0.381913
O O13 0.000000 0.000000 0.500000
O O14 0.793897 0.323016 0.603795
O O15 0.500000 0.500000 0.500000
#
# Coordination Sequence:
#
# PCOD8038676 Si02
#       7
#     2   2   2   2   2   2   2
#     4   9  18  30  43  65  98 142 177 213 255 321
#     4   9  17  29  45  65  99 138 176 213 265 311
#     4  10  20  29  46  69 104 139 178 210 260 313
#     4  10  18  29  48  72 101 136 173 218 262 314
#     4  10  22  39  56  74 109 149 181 221 261 309
#     4  10  22  35  55  77 109 140 180 220 260 318
#     4  10  24  34  55  80 114 145 178 217 265 317
#
# _framework density 21.231064
#
# number of rings (size 3 to 8) (size 9 to 14) (size 15 to 20)
#    0.857    1.429    0.000    3.000    8.000    4.571 
#    0.000    0.000    0.000    0.000    0.000    0.000 
#    0.000   22.857    0.000    0.000    0.000    0.000 
#
# Total GULP energy -173515.020019 kJ/mol
# GULP energy per Si atom -12393.930001 kJ/mol
# Density = 2.118274 g / cm^3
# Si number density = 21.231064 Si / 1000 Ang^3
#
#
#
# Elastic Constant Matrix: (Units=GPa)
#
#
# Indices 1 2 3 4 5 6 
#
# 1 150.8119 27.7739 29.5443 25.2195 -7.9275 1.0210
# 2 27.7739 68.8791 18.9946 30.0081 -4.4838 3.0164
# 3 29.5443 18.9946 78.3853 33.9176 -15.9898 -1.0630
# 4 25.2195 30.0081 33.9176 32.1656 -0.1565 0.6132
# 5 -7.9275 -4.4838 -15.9898 -0.1565 41.2303 17.1176
# 6 1.0210 3.0164 -1.0630 0.6132 17.1176 21.8636
#
#
#
# Elastic Compliance Matrix: (Units=1/GPa)
#
#
# Indices 1 2 3 4 5 6 
#
# 1 0.007785 -0.000425 0.000097 -0.005762 0.002258 -0.001906
# 2 -0.000425 0.031138 0.013986 -0.043138 0.014157 -0.013470
# 3 0.000097 0.013986 0.034911 -0.049535 0.021353 -0.015565
# 4 -0.005762 -0.043138 -0.049535 0.127358 -0.036486 0.028806
# 5 0.002258 0.014157 0.021353 -0.036486 0.050921 -0.039864
# 6 -0.001906 -0.013470 -0.015565 0.028806 -0.039864 0.077332
#
#
# Mechanical properties :
#
#
# Convention : Reuss Voigt Hill
#
# Bulk Modulus (GPa) = 9.88640 50.07798 29.98219
# Shear Modulus (GPa) = 14.88778 33.83613 24.36195
#
# Velocity S-wave (km/s) = 2.65094 3.99646 3.39110
# Velocity P-wave (km/s) = 3.74655 6.70328 5.43004
#
# Compressibility (1/GPa) = 0.10114904
#
# Stress axis : x y z
#
# Youngs Moduli (GPa) = 128.44769 32.11511 28.64450
#
# Poissons Ratio (x) = 0.01365 -0.00277
# Poissons Ratio (y) = 0.05461 -0.40063
# Poissons Ratio (z) = -0.01240 -0.44917
#
# Static dielectric constant tensor:
#      x y z
#    x 4.142130 0.078860 -0.072140 
#    y 0.078860 3.237890 0.267900 
#    z -0.072140 0.267900 3.909550 
# 
# 
# High freq. dielectric constant tensor:
#      x y z
#    x 1.854120 0.005530 -0.003090 
#    y 0.005530 1.774310 0.034810 
#    z -0.003090 0.034810 1.822740 
# 
# From -- ./inp_files/123906.got.cif
#   From: 2010.06.25/outbox.cif.g09.slc.cpg/sg2_62_cif.got.tgz:123906.got - 2010.06.27 13:26:56.
