data_PCOD8038128
_publ_section_title
;
Structure prediction by ZEFSAII (Michael W. Deem and Ramdas Pophale) SiO2 
 PCOD8038128
Probable space group: P -1
;
_chemical_formula_sum "Si O2"
_cell_formula_units_Z 16
_cell_length_a 15.811427
_cell_length_b 12.348967
_cell_length_c 21.829483
_cell_angle_alpha 148.677937
_cell_angle_beta 152.596766
_cell_angle_gamma 27.836741
_cell_volume 867.248026
_symmetry_space_group_name_H-M "P -1"
_symmetry_group_IT_number 2
_symmetry_cell_setting 'triclinic'
loop_
_space_group_symop_operation_xyz
x,y,z
-x,-y,-z
loop_
_atom_site_type_symbol
_atom_site_label
_atom_site_fract_x
_atom_site_fract_y
_atom_site_fract_z
Si Si1 0.748252 0.984410 0.484507
Si Si2 0.944330 0.543307 0.555949
Si Si3 0.139916 0.960988 0.280878
Si Si4 0.251463 0.006255 0.893678
Si Si5 0.555735 0.139228 0.223414
Si Si6 0.403742 0.330473 0.349498
Si Si7 0.013404 0.213178 0.720471
Si Si8 0.549532 0.481991 0.289226
O O1 0.857105 0.696043 0.399283
O O2 0.751627 0.032098 0.581839
O O3 0.500632 0.132755 0.371786
O O4 0.884744 0.074402 0.578504
O O5 0.720821 0.565456 0.439693
O O6 0.000000 0.500000 0.500000
O O7 0.922460 0.799071 0.684117
O O8 0.313146 0.719417 0.238120
O O9 0.923262 0.957973 0.150834
O O10 0.128900 0.196744 0.851430
O O11 0.381695 0.726515 0.818500
O O12 0.418074 0.066642 0.058118
O O13 0.470504 0.185211 0.258963
O O14 0.540366 0.379433 0.300666
O O15 0.805255 0.919225 0.278971
O O16 0.500000 0.500000 0.500000
O O17 0.143284 0.505779 0.266526
#
# Coordination Sequence:
#
# PCOD8038128 Si02
#       8
#     2   2   2   2   2   2   2   2
#     4   9  17  34  50  75 110 135 170 217 260 303
#     4  10  17  34  55  75 108 134 171 226 266 296
#     4  10  20  33  56  81 104 137 175 218 263 305
#     4  10  20  34  51  79 111 138 169 216 259 309
#     4  11  21  33  54  78 111 143 169 205 266 316
#     4  10  21  33  50  76 111 142 171 209 256 318
#     4   9  17  33  49  75 107 136 171 210 253 310
#     4  11  18  32  53  80 107 134 170 216 265 311
#
# _framework density 18.449162999999999
#
# number of rings (size 3 to 8) (size 9 to 14) (size 15 to 20)
#    0.000    2.000    5.000    4.125    0.000    5.000 
#    2.250    0.000    0.000    0.750    0.000    1.750 
#    0.000    0.000    0.000    0.000    0.000    0.000 
#
# Total GULP energy -198303.154209 kJ/mol
# GULP energy per Si atom -12393.947138 kJ/mol
# Density = 1.840717 g / cm^3
# Si number density = 18.449163 Si / 1000 Ang^3
#
#
#
# Elastic Constant Matrix: (Units=GPa)
#
#
# Indices 1 2 3 4 5 6 
#
# 1 24.9406 36.4353 4.0763 3.1403 12.3288 -3.7130
# 2 36.4353 174.9018 33.5114 -6.5730 4.4528 -12.0922
# 3 4.0763 33.5114 31.7885 -5.6633 5.1138 -0.3766
# 4 3.1403 -6.5730 -5.6633 11.2530 1.4406 -0.5732
# 5 12.3288 4.4528 5.1138 1.4406 22.5097 -0.2656
# 6 -3.7130 -12.0922 -0.3766 -0.5732 -0.2656 27.5954
#
#
#
# Elastic Compliance Matrix: (Units=1/GPa)
#
#
# Indices 1 2 3 4 5 6 
#
# 1 0.102635 -0.023904 0.015686 -0.027768 -0.053243 0.002460
# 2 -0.023904 0.013002 -0.011398 0.007036 0.012690 0.002594
# 3 0.015686 -0.011398 0.046966 0.014795 -0.017978 -0.002109
# 4 -0.027768 0.007036 0.014795 0.107805 0.003578 0.001823
# 5 -0.053243 0.012690 -0.017978 0.003578 0.074919 -0.001053
# 6 0.002460 0.002594 -0.002109 0.001823 -0.001053 0.037704
#
#
# Mechanical properties :
#
#
# Convention : Reuss Voigt Hill
#
# Bulk Modulus (GPa) = 8.10580 42.18633 25.14606
# Shear Modulus (GPa) = 10.79011 22.77882 16.78446
#
# Velocity S-wave (km/s) = 2.42100 3.51761 3.01951
# Velocity P-wave (km/s) = 3.49544 6.27806 5.08095
#
# Compressibility (1/GPa) = 0.12336852
#
# Stress axis : x y z
#
# Youngs Moduli (GPa) = 9.74330 76.91253 21.29220
#
# Poissons Ratio (x) = 1.83853 -0.33398
# Poissons Ratio (y) = 0.23290 0.24270
# Poissons Ratio (z) = -0.15283 0.87668
#
# Static dielectric constant tensor:
#      x y z
#    x 3.338860 0.027270 0.097780 
#    y 0.027270 4.280990 0.006110 
#    z 0.097780 0.006110 3.224580 
# 
# 
# High freq. dielectric constant tensor:
#      x y z
#    x 1.690730 -0.019990 0.010240 
#    y -0.019990 1.735310 0.003630 
#    z 0.010240 0.003630 1.675620 
# 
# From -- ./inp_files/426578.got.cif
#   From: 2010.06.25/outbox.cif.g09.slc.cpg/sg2_214_cif.got.tgz:426578.got - 2010.06.27 13:26:56.
