data_PCOD8038180
_publ_section_title
;
Structure prediction by ZEFSAII (Michael W. Deem and Ramdas Pophale) SiO2 
 PCOD8038180
Probable space group: P -1
;
_chemical_formula_sum "Si O2"
_cell_formula_units_Z 16
_cell_length_a 7.847224
_cell_length_b 11.215332
_cell_length_c 18.308928
_cell_angle_alpha 31.927653
_cell_angle_beta 97.449449
_cell_angle_gamma 99.544844
_cell_volume 840.174662
_symmetry_space_group_name_H-M "P -1"
_symmetry_group_IT_number 2
_symmetry_cell_setting 'triclinic'
loop_
_space_group_symop_operation_xyz
x,y,z
-x,-y,-z
loop_
_atom_site_type_symbol
_atom_site_label
_atom_site_fract_x
_atom_site_fract_y
_atom_site_fract_z
Si Si1 0.326486 0.600206 0.782150
Si Si2 0.409888 0.098587 0.553252
Si Si3 0.455432 0.856601 0.308601
Si Si4 0.756379 0.576614 0.431773
Si Si5 0.864489 0.322937 0.122465
Si Si6 0.527026 0.326592 0.027008
Si Si7 0.932820 0.848197 0.425814
Si Si8 0.240457 0.619822 0.612670
O O1 0.204624 0.571522 0.861514
O O2 0.224156 0.510261 0.749802
O O3 0.393355 0.863031 0.630346
O O4 0.487394 0.452618 0.883399
O O5 0.452720 0.028603 0.674229
O O6 0.224048 0.199527 0.498893
O O7 0.557777 0.280604 0.435760
O O8 0.588454 0.711932 0.349920
O O9 0.288203 0.686006 0.408511
O O10 0.407265 0.081487 0.146471
O O11 0.904703 0.683522 0.438930
O O12 0.813155 0.570861 0.352815
O O13 0.722168 0.264386 0.081026
O O14 0.954126 0.102565 0.264505
O O15 0.000000 0.500000 0.000000
O O16 0.500000 0.500000 0.000000
O O17 0.109543 0.811655 0.496444
#
# Coordination Sequence:
#
# PCOD8038180 Si02
#       8
#     2   2   2   2   2   2   2   2
#     4  10  21  36  51  82 117 144 186 230 280 346
#     4   9  18  35  54  83 110 145 184 234 285 326
#     4   9  15  32  59  82 104 143 193 237 270 328
#     4   9  18  33  57  82 109 144 192 234 275 323
#     4  10  21  35  58  83 109 148 189 236 284 325
#     4  10  17  34  58  78 112 141 187 233 273 334
#     4  10  20  38  58  83 113 144 194 240 266 332
#     4  11  22  33  55  84 115 151 183 226 291 335
#
# _framework density 19.043659999999999
#
# number of rings (size 3 to 8) (size 9 to 14) (size 15 to 20)
#    0.000    2.250    5.000    1.500    1.750    3.000 
#    2.250    0.625    0.000    1.500    0.000    0.000 
#    0.000    0.000    0.000    0.000    0.000    0.000 
#
# Total GULP energy -198230.499130 kJ/mol
# GULP energy per Si atom -12389.406196 kJ/mol
# Density = 1.900032 g / cm^3
# Si number density = 19.043660 Si / 1000 Ang^3
#
#
#
# Elastic Constant Matrix: (Units=GPa)
#
#
# Indices 1 2 3 4 5 6 
#
# 1 70.0543 23.7368 39.6819 11.6423 1.7749 3.3047
# 2 23.7368 83.8196 50.2043 12.1785 6.9875 0.1077
# 3 39.6819 50.2043 99.0366 7.1223 13.8419 3.2320
# 4 11.6423 12.1785 7.1223 33.2597 7.7677 1.5622
# 5 1.7749 6.9875 13.8419 7.7677 28.2766 0.1893
# 6 3.3047 0.1077 3.2320 1.5622 0.1893 14.7027
#
#
#
# Elastic Compliance Matrix: (Units=1/GPa)
#
#
# Indices 1 2 3 4 5 6 
#
# 1 0.019857 -0.000399 -0.007861 -0.006042 0.004374 -0.002147
# 2 -0.000399 0.017947 -0.008837 -0.004947 0.001259 0.002410
# 3 -0.007861 -0.008837 0.018575 0.003873 -0.007462 -0.002567
# 4 -0.006042 -0.004947 0.003873 0.035661 -0.010070 -0.003117
# 5 0.004374 0.001259 -0.007462 -0.010070 0.041190 0.001188
# 6 -0.002147 0.002410 -0.002567 -0.003117 0.001188 0.069360
#
#
# Mechanical properties :
#
#
# Convention : Reuss Voigt Hill
#
# Bulk Modulus (GPa) = 45.07429 53.35072 49.21250
# Shear Modulus (GPa) = 20.47678 24.53364 22.50521
#
# Velocity S-wave (km/s) = 3.28266 3.59316 3.44142
# Velocity P-wave (km/s) = 6.17156 6.72980 6.45671
#
# Compressibility (1/GPa) = 0.02218560
#
# Stress axis : x y z
#
# Youngs Moduli (GPa) = 50.35959 55.72003 53.83654
#
# Poissons Ratio (x) = 0.02223 0.42320
# Poissons Ratio (y) = 0.02009 0.47574
# Poissons Ratio (z) = 0.39587 0.49238
#
# Static dielectric constant tensor:
#      x y z
#    x 3.496250 -0.050180 0.188790 
#    y -0.050180 3.506670 -0.015400 
#    z 0.188790 -0.015400 3.456700 
# 
# 
# High freq. dielectric constant tensor:
#      x y z
#    x 1.727600 -0.003520 0.011500 
#    y -0.003520 1.728740 -0.007400 
#    z 0.011500 -0.007400 1.720230 
# 
# From -- ./inp_files/170719.got.cif
#   From: 2010.06.25/outbox.cif.g09.slc.cpg/sg2_86_cif.got.tgz:170719.got - 2010.06.27 13:26:56.
