data_PCOD8038523
_publ_section_title
;
Structure prediction by ZEFSAII (Michael W. Deem and Ramdas Pophale) SiO2 
 PCOD8038523
Probable space group: P -1
;
_chemical_formula_sum "Si O2"
_cell_formula_units_Z 14
_cell_length_a 12.649709
_cell_length_b 9.031476
_cell_length_c 12.199914
_cell_angle_alpha 103.559972
_cell_angle_beta 126.257291
_cell_angle_gamma 44.419381
_cell_volume 741.729376
_symmetry_space_group_name_H-M "P -1"
_symmetry_group_IT_number 2
_symmetry_cell_setting 'triclinic'
loop_
_space_group_symop_operation_xyz
x,y,z
-x,-y,-z
loop_
_atom_site_type_symbol
_atom_site_label
_atom_site_fract_x
_atom_site_fract_y
_atom_site_fract_z
Si Si1 0.844989 0.188460 0.019907
Si Si2 0.731670 0.510030 0.322560
Si Si3 0.928866 0.796829 0.676551
Si Si4 0.432253 0.733375 0.005210
Si Si5 0.540239 0.293427 0.455263
Si Si6 0.458049 0.642783 0.776852
Si Si7 0.680788 0.738405 0.550580
O O1 0.774849 0.099990 0.032074
O O2 0.675221 0.397826 0.876724
O O3 0.925191 0.251083 0.157875
O O4 0.000000 0.000000 0.000000
O O5 0.589930 0.687789 0.167062
O O6 0.688772 0.374449 0.311843
O O7 0.691881 0.657883 0.422689
O O8 0.954212 0.327008 0.387129
O O9 0.870641 0.681599 0.671390
O O10 0.739029 0.063242 0.590321
O O11 0.500000 0.500000 0.000000
O O12 0.414562 0.799998 0.878347
O O13 0.500000 0.500000 0.500000
O O14 0.562499 0.251659 0.331506
O O15 0.349877 0.365369 0.394256
O O16 0.500000 0.000000 0.500000
#
# Coordination Sequence:
#
# PCOD8038523 Si02
#       7
#     2   2   2   2   2   2   2
#     4  10  18  31  56  86 108 143 193 228 267 331
#     4  10  17  37  58  83 107 151 192 230 266 341
#     4  11  21  36  58  87 109 150 193 225 274 345
#     4   8  16  31  54  79 107 141 184 229 272 316
#     4  11  22  37  55  83 120 149 179 235 288 323
#     4  10  18  36  56  80 116 142 182 236 280 321
#     4  10  23  36  55  83 116 151 184 227 290 333
#
# _framework density 18.874808000000002
#
# number of rings (size 3 to 8) (size 9 to 14) (size 15 to 20)
#    0.000    2.286    5.714    1.286    6.000    0.571 
#    0.000    0.714    0.000    3.429    0.000    0.000 
#    0.000    0.000    0.000    0.000    0.000    0.000 
#
# Total GULP energy -173443.601661 kJ/mol
# GULP energy per Si atom -12388.828690 kJ/mol
# Density = 1.883185 g / cm^3
# Si number density = 18.874808 Si / 1000 Ang^3
#
#
#
# Elastic Constant Matrix: (Units=GPa)
#
#
# Indices 1 2 3 4 5 6 
#
# 1 145.3635 42.9814 40.1249 -0.0077 2.8364 -14.5111
# 2 42.9814 59.2995 7.2178 9.5818 1.9777 -17.8894
# 3 40.1249 7.2178 55.5783 4.0392 -1.8766 1.5836
# 4 -0.0077 9.5818 4.0392 21.1170 -10.4415 -4.3211
# 5 2.8364 1.9777 -1.8766 -10.4415 35.2614 2.4943
# 6 -14.5111 -17.8894 1.5836 -4.3211 2.4943 36.0432
#
#
#
# Elastic Compliance Matrix: (Units=1/GPa)
#
#
# Indices 1 2 3 4 5 6 
#
# 1 0.011474 -0.007802 -0.007712 0.005704 0.000671 0.001723
# 2 -0.007802 0.027331 0.002642 -0.013771 -0.005482 0.009037
# 3 -0.007712 0.002642 0.023792 -0.006451 0.000084 -0.003618
# 4 0.005704 -0.013771 -0.006451 0.064664 0.018964 0.002185
# 5 0.000671 -0.005482 0.000084 0.018964 0.034414 -0.002562
# 6 0.001723 0.009037 -0.003618 0.002185 -0.002562 0.033522
#
#
# Mechanical properties :
#
#
# Convention : Reuss Voigt Hill
#
# Bulk Modulus (GPa) = 27.13483 48.98772 38.06128
# Shear Modulus (GPa) = 21.43850 29.81213 25.62532
#
# Velocity S-wave (km/s) = 3.37386 3.97856 3.68862
# Velocity P-wave (km/s) = 5.43918 6.86408 6.19275
#
# Compressibility (1/GPa) = 0.03685300
#
# Stress axis : x y z
#
# Youngs Moduli (GPa) = 87.15253 36.58803 42.03145
#
# Poissons Ratio (x) = 0.28547 0.32413
# Poissons Ratio (y) = 0.67999 -0.11103
# Poissons Ratio (z) = 0.67208 -0.09665
#
# Static dielectric constant tensor:
#      x y z
#    x 4.518450 -0.380690 -0.156050 
#    y -0.380690 3.179770 0.188610 
#    z -0.156050 0.188610 3.614990 
# 
# 
# High freq. dielectric constant tensor:
#      x y z
#    x 1.745590 -0.037630 0.000860 
#    y -0.037630 1.697690 0.017780 
#    z 0.000860 0.017780 1.730490 
# 
# From -- ./inp_files/178906.got.cif
#   From: 2010.06.25/outbox.cif.g09.slc.cpg/sg2_90_cif.got.tgz:178906.got - 2010.06.27 13:26:56.
