data_PCOD8038122
_publ_section_title
;
Structure prediction by ZEFSAII (Michael W. Deem and Ramdas Pophale) SiO2 
 PCOD8038122
Probable space group: P -1
;
_chemical_formula_sum "Si O2"
_cell_formula_units_Z 16
_cell_length_a 12.000000
_cell_length_b 9.000000
_cell_length_c 18.000000
_cell_angle_alpha 130.000000
_cell_angle_beta 140.000000
_cell_angle_gamma 80.000000
_cell_volume 729.599496
_symmetry_space_group_name_H-M "P -1"
_symmetry_group_IT_number 2
_symmetry_cell_setting 'triclinic'
loop_
_space_group_symop_operation_xyz
x,y,z
-x,-y,-z
loop_
_atom_site_type_symbol
_atom_site_label
_atom_site_fract_x
_atom_site_fract_y
_atom_site_fract_z
Si Si1 0.022248 0.392668 0.049977
Si Si2 0.591684 0.529461 0.662345
Si Si3 0.460030 0.497660 0.810985
Si Si4 0.841108 0.840184 0.750095
Si Si5 0.025325 0.986995 0.595820
Si Si6 0.670073 0.877120 0.925335
Si Si7 0.524045 0.872584 0.078087
Si Si8 0.221244 0.508256 0.932023
O O1 0.286842 0.541565 0.246668
O O2 0.928430 0.447551 0.087532
O O3 0.000000 0.500000 0.000000
O O4 0.893073 0.094001 0.885740
O O5 0.720328 0.619136 0.678324
O O6 0.330502 0.273172 0.443244
O O7 0.612918 0.769289 0.777690
O O8 0.209545 0.273893 0.579992
O O9 0.623818 0.643336 0.871424
O O10 0.472670 0.710859 0.928186
O O11 0.555183 0.394260 0.876836
O O12 0.064032 0.883281 0.852151
O O13 0.000000 0.000000 0.500000
O O14 0.229389 0.986607 0.715923
O O15 0.068815 0.215810 0.736150
O O16 0.501780 0.918456 0.884495
O O17 0.315924 0.683017 0.965434
#
# Coordination Sequence:
#
# PCOD8038122 Si02
#       8
#     2   2   2   2   2   2   2   2
#     4  11  23  39  61  94 127 157 199 254 304 362
#     4  10  22  42  64  89 120 163 205 249 299 363
#     4  11  23  39  59  87 124 158 193 253 304 351
#     4  10  22  43  64  84 125 159 205 253 294 362
#     4  11  21  41  60  87 122 153 201 253 289 355
#     4  11  23  39  61  90 122 157 198 249 312 353
#     4  11  22  38  62  88 118 156 208 244 294 363
#     4  11  21  38  65  86 115 164 203 240 301 357
#
# _framework density 21.929839999999999
#
# number of rings (size 3 to 8) (size 9 to 14) (size 15 to 20)
#    0.000    1.250    2.500    5.625    0.000    6.000 
#    4.500    0.000    0.000    0.000    0.000    0.000 
#    0.000    0.000    0.000    0.000    0.000    0.000 
#
# Total GULP energy -198308.294486 kJ/mol
# GULP energy per Si atom -12394.268405 kJ/mol
# Density = 2.187993 g / cm^3
# Si number density = 21.929840 Si / 1000 Ang^3
#
#
#
# Elastic Constant Matrix: (Units=GPa)
#
#
# Indices 1 2 3 4 5 6 
#
# 1 51.8031 30.0382 50.5290 -9.6456 21.3655 -23.7626
# 2 30.0382 73.3202 36.3181 -20.5193 -0.5550 -15.7333
# 3 50.5290 36.3181 175.7603 -27.6896 13.9968 -18.8844
# 4 -9.6456 -20.5193 -27.6896 17.5557 -2.9370 6.4645
# 5 21.3655 -0.5550 13.9968 -2.9370 11.2586 3.7280
# 6 -23.7626 -15.7333 -18.8844 6.4645 3.7280 43.0859
#
#
#
# Elastic Compliance Matrix: (Units=1/GPa)
#
#
# Indices 1 2 3 4 5 6 
#
# 1 -0.046383 0.020808 0.002354 0.031325 0.104453 -0.030688
# 2 0.020808 0.012140 -0.002005 0.009582 -0.039530 0.017013
# 3 0.002354 -0.002005 0.008280 0.008096 -0.014141 0.004204
# 4 0.031325 0.009582 0.008096 0.083282 -0.052740 0.016391
# 5 0.104453 -0.039530 -0.014141 -0.052740 -0.125999 0.055790
# 6 -0.030688 0.017013 0.004204 0.016391 0.055790 0.007053
#
#
# Mechanical properties :
#
#
# Convention : Reuss Voigt Hill
#
# Bulk Modulus (GPa) = 61.15292 59.40603 60.27948
# Shear Modulus (GPa) = -50.76710 26.64658 -12.06026
#
# Velocity S-wave (km/s) = -4.81664 3.48959 -2.34764
# Velocity P-wave (km/s) = 1.72833 6.58667 4.49428
#
# Compressibility (1/GPa) = 0.01635245
#
# Stress axis : x y z
#
# Youngs Moduli (GPa) = -21.55977 82.37043 120.76657
#
# Poissons Ratio (x) = -1.71397 -0.28432
# Poissons Ratio (y) = 0.44862 0.24216
# Poissons Ratio (z) = 0.05076 0.16517
#
# Static dielectric constant tensor:
#      x y z
#    x 3.739200 -0.026260 -0.149950 
#    y -0.026260 3.825670 -0.176940 
#    z -0.149950 -0.176940 4.422850 
# 
# 
# High freq. dielectric constant tensor:
#      x y z
#    x 1.861410 0.000090 0.000610 
#    y 0.000090 1.847430 -0.007230 
#    z 0.000610 -0.007230 1.853050 
# 
# From -- ./inp_files/348349.got.cif
#   From: 2010.06.25/outbox.ucp.g09.slc.cvg/sg2_175_cif.got.tgz:348349.got - 2010.06.28 11:54:26.
