data_PCOD8038967
_publ_section_title
;
Structure prediction by ZEFSAII (Michael W. Deem and Ramdas Pophale) SiO2 
 PCOD8038967
Probable space group: P -1
;
_chemical_formula_sum "Si O2"
_cell_formula_units_Z 16
_cell_length_a 8.389141
_cell_length_b 15.310434
_cell_length_c 13.617499
_cell_angle_alpha 152.553224
_cell_angle_beta 68.687800
_cell_angle_gamma 105.034064
_cell_volume 742.883337
_symmetry_space_group_name_H-M "P -1"
_symmetry_group_IT_number 2
_symmetry_cell_setting 'triclinic'
loop_
_space_group_symop_operation_xyz
x,y,z
-x,-y,-z
loop_
_atom_site_type_symbol
_atom_site_label
_atom_site_fract_x
_atom_site_fract_y
_atom_site_fract_z
Si Si1 0.892829 0.548095 0.346410
Si Si2 0.887689 0.161944 0.395667
Si Si3 0.456444 0.955185 0.574870
Si Si4 0.201262 0.857796 0.012625
Si Si5 0.802733 0.590027 0.612058
Si Si6 0.297570 0.798700 0.720674
Si Si7 0.475222 0.261955 0.039676
Si Si8 0.407373 0.340259 0.610829
O O1 0.795864 0.669628 0.581470
O O2 0.786917 0.599107 0.321399
O O3 0.081408 0.618409 0.366249
O O4 0.904964 0.324227 0.146429
O O5 0.733494 0.107047 0.441121
O O6 0.853379 0.141105 0.265884
O O7 0.065517 0.031391 0.256993
O O8 0.594238 0.774246 0.400687
O O9 0.500000 0.000000 0.500000
O O10 0.467275 0.142142 0.823680
O O11 0.364340 0.821894 0.011587
O O12 0.259747 0.913648 0.945400
O O13 0.683946 0.423630 0.475510
O O14 0.000000 0.500000 0.500000
O O15 0.706055 0.746248 0.867036
O O16 0.481906 0.815118 0.643852
O O17 0.493649 0.476729 0.215189
#
# Coordination Sequence:
#
# PCOD8038967 Si02
#       8
#     2   2   2   2   2   2   2   2
#     4  10  20  35  58  89 128 157 186 233 287 351
#     4  11  22  35  58  86 116 158 198 246 288 343
#     4  11  26  44  63  84 110 152 207 262 303 342
#     4  10  21  35  58  91 125 160 192 225 287 362
#     4  10  18  31  59  91 126 164 186 228 277 350
#     4   9  18  32  53  88 126 160 191 223 279 348
#     4  10  22  40  62  86 123 161 197 234 294 353
#     4   9  20  40  61  85 120 159 195 240 289 355
#
# _framework density 21.537700000000001
#
# number of rings (size 3 to 8) (size 9 to 14) (size 15 to 20)
#    0.000    2.000    1.250    1.875    3.500    5.500 
#    0.000    6.875    0.000    3.000    0.000    0.000 
#    0.000    0.000    0.000    0.000    0.000    0.000 
#
# Total GULP energy -198291.135603 kJ/mol
# GULP energy per Si atom -12393.195975 kJ/mol
# Density = 2.148868 g / cm^3
# Si number density = 21.537700 Si / 1000 Ang^3
#
#
#
# Elastic Constant Matrix: (Units=GPa)
#
#
# Indices 1 2 3 4 5 6 
#
# 1 83.2716 42.2982 23.4705 -9.6403 5.7414 0.9054
# 2 42.2982 136.2960 25.2698 -15.7098 7.2182 -1.4913
# 3 23.4705 25.2698 53.9766 -9.3454 9.0448 6.4245
# 4 -9.6403 -15.7098 -9.3454 22.2142 -3.4267 -0.0248
# 5 5.7414 7.2182 9.0448 -3.4267 27.8924 11.7109
# 6 0.9054 -1.4913 6.4245 -0.0248 11.7109 30.2141
#
#
#
# Elastic Compliance Matrix: (Units=1/GPa)
#
#
# Indices 1 2 3 4 5 6 
#
# 1 0.015446 -0.003656 -0.004595 0.002069 -0.000752 0.000627
# 2 -0.003656 0.009398 -0.002103 0.004004 -0.001117 0.001457
# 3 -0.004595 -0.002103 0.023597 0.005824 -0.004008 -0.003425
# 4 0.002069 0.004004 0.005824 0.051831 0.004135 -0.002663
# 5 -0.000752 -0.001117 -0.004008 0.004135 0.045097 -0.016656
# 6 0.000627 0.001457 -0.003425 -0.002663 -0.016656 0.040332
#
#
# Mechanical properties :
#
#
# Convention : Reuss Voigt Hill
#
# Bulk Modulus (GPa) = 36.05885 50.62458 43.34171
# Shear Modulus (GPa) = 23.18535 28.23119 25.70827
#
# Velocity S-wave (km/s) = 3.28457 3.62440 3.45866
# Velocity P-wave (km/s) = 5.58239 6.40868 6.00975
#
# Compressibility (1/GPa) = 0.02773244
#
# Stress axis : x y z
#
# Youngs Moduli (GPa) = 64.74240 106.40290 42.37886
#
# Poissons Ratio (x) = 0.38905 0.19472
# Poissons Ratio (y) = 0.23672 0.08912
# Poissons Ratio (z) = 0.29748 0.22375
#
# Static dielectric constant tensor:
#      x y z
#    x 3.847240 0.077370 0.113700 
#    y 0.077370 3.896480 0.321360 
#    z 0.113700 0.321360 3.644670 
# 
# 
# High freq. dielectric constant tensor:
#      x y z
#    x 1.846860 -0.002220 0.010050 
#    y -0.002220 1.836350 0.036930 
#    z 0.010050 0.036930 1.812970 
# 
# From -- ./inp_files/399944.got.cif
#   From: 2010.06.25/outbox.cif.g09.slc.cpg/sg2_200_cif.got.tgz:399944.got - 2010.06.27 13:26:56.
