data_PCOD8038649
_publ_section_title
;
Structure prediction by ZEFSAII (Michael W. Deem and Ramdas Pophale) SiO2 
 PCOD8038649
Probable space group: P -1
;
_chemical_formula_sum "Si O2"
_cell_formula_units_Z 16
_cell_length_a 21.245873
_cell_length_b 9.137713
_cell_length_c 24.292161
_cell_angle_alpha 136.702526
_cell_angle_beta 18.902580
_cell_angle_gamma 147.225282
_cell_volume 763.031640
_symmetry_space_group_name_H-M "P -1"
_symmetry_group_IT_number 2
_symmetry_cell_setting 'triclinic'
loop_
_space_group_symop_operation_xyz
x,y,z
-x,-y,-z
loop_
_atom_site_type_symbol
_atom_site_label
_atom_site_fract_x
_atom_site_fract_y
_atom_site_fract_z
Si Si1 0.523775 0.022797 0.163514
Si Si2 0.706295 0.396605 0.373888
Si Si3 0.280798 0.944832 0.523227
Si Si4 0.414090 0.582310 0.695274
Si Si5 0.993971 0.683747 0.460379
Si Si6 0.213844 0.720005 0.097723
Si Si7 0.013997 0.872797 0.153884
Si Si8 0.291661 0.119230 0.232250
O O1 0.201374 0.754356 0.355030
O O2 0.603025 0.311878 0.203125
O O3 0.627977 0.081939 0.031955
O O4 0.669059 0.944282 0.057430
O O5 0.564195 0.470727 0.548596
O O6 0.867419 0.634444 0.257881
O O7 0.913698 0.419075 0.246785
O O8 0.488816 0.078578 0.438593
O O9 0.166486 0.627854 0.519350
O O10 0.425196 0.145344 0.405055
O O11 0.038000 0.915502 0.735482
O O12 0.115339 0.307095 0.845464
O O13 0.782906 0.689719 0.663624
O O14 0.162701 0.936390 0.344739
O O15 0.183240 0.902782 0.211718
O O16 0.384044 0.661518 0.971060
#
# Coordination Sequence:
#
# PCOD8038649 Si02
#       8
#     2   2   2   2   2   2   2   2
#     4  10  18  28  49  74  95 125 157 185 222 280
#     4   8  15  30  52  71  92 124 154 183 230 282
#     4   9  18  32  47  69 102 127 146 185 231 276
#     4   9  16  29  49  74  99 123 151 182 223 279
#     4  10  20  33  49  69  92 122 160 194 234 273
#     4   9  17  33  54  69  87 119 160 198 236 272
#     4   8  16  30  48  71  98 124 152 185 224 274
#     4   9  19  35  52  67  87 119 160 206 236 265
#
# _framework density 20.968985
#
# number of rings (size 3 to 8) (size 9 to 14) (size 15 to 20)
#    0.000    3.000    0.000    2.625    0.000    1.000 
#    0.000    5.000    0.000    0.000    0.000    0.000 
#    0.000    0.000    0.000    0.000    0.000    0.000 
#
# Total GULP energy -198270.202811 kJ/mol
# GULP energy per Si atom -12391.887676 kJ/mol
# Density = 2.092126 g / cm^3
# Si number density = 20.968985 Si / 1000 Ang^3
#
#
#
# Elastic Constant Matrix: (Units=GPa)
#
#
# Indices 1 2 3 4 5 6 
#
# 1 59.1414 23.8344 50.5076 1.3688 -33.8973 30.1651
# 2 23.8344 101.4293 61.8374 18.7754 -33.6510 26.9609
# 3 50.5076 61.8374 121.1135 20.5448 -55.6279 21.6442
# 4 1.3688 18.7754 20.5448 23.3416 7.3411 6.5334
# 5 -33.8973 -33.6510 -55.6279 7.3411 50.9942 -7.9882
# 6 30.1651 26.9609 21.6442 6.5334 -7.9882 29.4582
#
#
#
# Elastic Compliance Matrix: (Units=1/GPa)
#
#
# Indices 1 2 3 4 5 6 
#
# 1 0.118988 0.043274 -0.001627 -0.032868 0.090491 -0.128426
# 2 0.043274 0.037933 0.005810 -0.039357 0.056520 -0.059243
# 3 -0.001627 0.005810 0.044469 -0.060264 0.058841 -0.007003
# 4 -0.032868 -0.039357 -0.060264 0.157906 -0.129425 0.043838
# 5 0.090491 0.056520 0.058841 -0.129425 0.182747 -0.109363
# 6 -0.128426 -0.059243 -0.007003 0.043838 -0.109363 0.185441
#
#
# Mechanical properties :
#
#
# Convention : Reuss Voigt Hill
#
# Bulk Modulus (GPa) = 3.37492 61.56032 32.46762
# Shear Modulus (GPa) = 6.83678 30.45912 18.64795
#
# Velocity S-wave (km/s) = 1.80762 3.81541 2.98537
# Velocity P-wave (km/s) = 2.44329 6.98794 5.23455
#
# Compressibility (1/GPa) = 0.29630370
#
# Stress axis : x y z
#
# Youngs Moduli (GPa) = 8.40418 26.36245 22.48764
#
# Poissons Ratio (x) = -1.14082 0.03659
# Poissons Ratio (y) = -0.36369 -0.13064
# Poissons Ratio (z) = 0.01367 -0.15315
#
# Static dielectric constant tensor:
#      x y z
#    x 3.949280 0.386140 -0.649580 
#    y 0.386140 3.345420 0.179990 
#    z -0.649580 0.179990 4.461690 
# 
# 
# High freq. dielectric constant tensor:
#      x y z
#    x 1.811110 0.038280 -0.022950 
#    y 0.038280 1.781620 0.019400 
#    z -0.022950 0.019400 1.832420 
# 
# From -- ./inp_files/170722.got.cif
#   From: 2010.06.25/outbox.cif.g09.slc.cpg/sg2_86_cif.got.tgz:170722.got - 2010.06.27 13:26:56.
