data_PCOD8038506
_publ_section_title
;
Structure prediction by ZEFSAII (Michael W. Deem and Ramdas Pophale) SiO2 
 PCOD8038506
Probable space group: P -1
;
_chemical_formula_sum "Si O2"
_cell_formula_units_Z 16
_cell_length_a 21.224835
_cell_length_b 8.866793
_cell_length_c 14.278033
_cell_angle_alpha 81.650036
_cell_angle_beta 20.774789
_cell_angle_gamma 69.842771
_cell_volume 757.877601
_symmetry_space_group_name_H-M "P -1"
_symmetry_group_IT_number 2
_symmetry_cell_setting 'triclinic'
loop_
_space_group_symop_operation_xyz
x,y,z
-x,-y,-z
loop_
_atom_site_type_symbol
_atom_site_label
_atom_site_fract_x
_atom_site_fract_y
_atom_site_fract_z
Si Si1 0.349032 0.198009 0.639170
Si Si2 0.464425 0.568257 0.648151
Si Si3 0.540930 0.305007 0.719314
Si Si4 0.913467 0.384891 0.737985
Si Si5 0.081007 0.342714 0.170648
Si Si6 0.699474 0.304262 0.699716
Si Si7 0.503319 0.014336 0.720593
Si Si8 0.812472 0.995868 0.709958
O O1 0.481467 0.284306 0.428715
O O2 0.500000 0.000000 0.500000
O O3 0.308218 0.153084 0.594810
O O4 0.125830 0.345457 0.996129
O O5 0.500000 0.500000 0.500000
O O6 0.609550 0.383124 0.531215
O O7 0.205847 0.681516 0.025094
O O8 0.665915 0.298380 0.637339
O O9 0.616451 0.091314 0.616567
O O10 0.271223 0.447984 0.091118
O O11 0.018433 0.457675 0.656225
O O12 0.096999 0.212655 0.433827
O O13 0.923778 0.280390 0.409534
O O14 0.317649 0.190767 0.900286
O O15 0.713311 0.136170 0.747332
O O16 0.500000 0.500000 0.000000
O O17 0.392598 0.936728 0.943044
O O18 0.000000 0.000000 0.500000
#
# Coordination Sequence:
#
# PCOD8038506 Si02
#       8
#     2   2   2   2   2   2   2   2
#     4  10  19  35  63  99 124 155 211 270 302 363
#     4  10  17  36  67  93 123 160 215 254 316 368
#     4   9  23  41  60  95 127 170 201 265 327 365
#     4   9  21  38  66  94 117 162 220 256 303 378
#     4  10  21  40  64  95 122 168 208 263 312 377
#     4  12  27  43  61  90 137 167 209 263 329 371
#     4  10  21  39  66  94 125 161 222 256 311 375
#     4  12  23  39  66  94 120 168 219 262 306 381
#
# _framework density 21.111588000000001
#
# number of rings (size 3 to 8) (size 9 to 14) (size 15 to 20)
#    0.750    1.000    2.500    2.250    5.250    1.500 
#    0.000    1.250    0.000    0.000    0.000    0.000 
#    0.000    0.000    0.000    0.000    0.000    0.000 
#
# Total GULP energy -198294.594246 kJ/mol
# GULP energy per Si atom -12393.412140 kJ/mol
# Density = 2.106354 g / cm^3
# Si number density = 21.111588 Si / 1000 Ang^3
#
#
#
# Elastic Constant Matrix: (Units=GPa)
#
#
# Indices 1 2 3 4 5 6 
#
# 1 112.5432 47.4964 16.5765 2.9656 22.9317 12.8729
# 2 47.4964 119.5245 11.5703 -17.3816 8.4571 13.3953
# 3 16.5765 11.5703 31.3435 -4.0969 17.3903 6.7777
# 4 2.9656 -17.3816 -4.0969 33.2592 0.0542 8.5489
# 5 22.9317 8.4571 17.3903 0.0542 30.6456 0.6060
# 6 12.8729 13.3953 6.7777 8.5489 0.6060 44.3028
#
#
#
# Elastic Compliance Matrix: (Units=1/GPa)
#
#
# Indices 1 2 3 4 5 6 
#
# 1 0.012884 -0.004825 -0.000855 -0.003406 -0.007791 -0.001390
# 2 -0.004825 0.011753 -0.000420 0.007427 0.000662 -0.003530
# 3 -0.000855 -0.000420 0.051058 0.008422 -0.028062 -0.008677
# 4 -0.003406 0.007427 0.008422 0.037811 -0.004154 -0.009784
# 5 -0.007791 0.000662 -0.028062 -0.004154 0.054083 0.006418
# 6 -0.001390 -0.003530 -0.008677 -0.009784 0.006418 0.027171
#
#
# Mechanical properties :
#
#
# Convention : Reuss Voigt Hill
#
# Bulk Modulus (GPa) = 15.74918 46.07752 30.91335
# Shear Modulus (GPa) = 21.91776 34.15938 28.03857
#
# Velocity S-wave (km/s) = 3.22559 4.02685 3.64828
# Velocity P-wave (km/s) = 4.62047 6.59498 5.69397
#
# Compressibility (1/GPa) = 0.06349536
#
# Stress axis : x y z
#
# Youngs Moduli (GPa) = 77.61574 85.08166 19.58548
#
# Poissons Ratio (x) = 0.41055 0.01674
# Poissons Ratio (y) = 0.37452 0.00823
# Poissons Ratio (z) = 0.06634 0.03575
#
# Static dielectric constant tensor:
#      x y z
#    x 5.061630 1.910010 0.433480 
#    y 1.910010 7.226450 -0.262010 
#    z 0.433480 -0.262010 3.638270 
# 
# 
# High freq. dielectric constant tensor:
#      x y z
#    x 1.827910 0.016810 0.033900 
#    y 0.016810 1.836700 -0.017840 
#    z 0.033900 -0.017840 1.792100 
# 
# From -- ./inp_files/540485.got.cif
#   From: 2010.06.25/outbox.cif.g09.slc.cpg/sg2_271_cif.got.tgz:540485.got - 2010.06.27 13:26:56.
