data_PCOD8038417
_publ_section_title
;
Structure prediction by ZEFSAII (Michael W. Deem and Ramdas Pophale) SiO2 
 PCOD8038417
Probable space group: P -1
;
_chemical_formula_sum "Si O2"
_cell_formula_units_Z 14
_cell_length_a 13.305840
_cell_length_b 7.346808
_cell_length_c 7.862032
_cell_angle_alpha 100.466714
_cell_angle_beta 85.257184
_cell_angle_gamma 115.909325
_cell_volume 679.798662
_symmetry_space_group_name_H-M "P -1"
_symmetry_group_IT_number 2
_symmetry_cell_setting 'triclinic'
loop_
_space_group_symop_operation_xyz
x,y,z
-x,-y,-z
loop_
_atom_site_type_symbol
_atom_site_label
_atom_site_fract_x
_atom_site_fract_y
_atom_site_fract_z
Si Si1 0.388434 0.189167 0.854878
Si Si2 0.613666 0.224188 0.298427
Si Si3 0.848442 0.056694 0.046194
Si Si4 0.283079 0.546726 0.353706
Si Si5 0.083285 0.265567 0.159372
Si Si6 0.458650 0.390403 0.240307
Si Si7 0.239984 0.638626 0.022341
O O1 0.442548 0.382544 0.758292
O O2 0.428222 0.017909 0.760050
O O3 0.253428 0.095092 0.847899
O O4 0.426997 0.255322 0.052464
O O5 0.691898 0.299165 0.466647
O O6 0.506226 0.273560 0.344231
O O7 0.683192 0.350765 0.146936
O O8 0.950942 0.202463 0.178943
O O9 0.805626 0.189447 0.956489
O O10 0.894973 0.936033 0.894676
O O11 0.149838 0.391621 0.339282
O O12 0.351172 0.407757 0.335652
O O13 0.314581 0.673180 0.190916
O O14 0.135829 0.412897 0.011367
#
# Coordination Sequence:
#
# PCOD8038417 Si02
#       7
#     2   2   2   2   2   2   2
#     4  10  21  36  60  90 108 155 200 232 285 349
#     4  11  22  38  60  87 117 154 192 236 291 338
#     4  10  17  35  65  82 110 158 187 232 290 341
#     4  10  22  39  57  90 118 149 194 237 283 347
#     4   9  19  36  60  87 114 146 196 230 283 350
#     4  11  20  39  57  81 123 154 188 245 282 333
#     4   9  20  37  58  84 117 149 185 235 289 334
#
# _framework density 20.594332999999999
#
# number of rings (size 3 to 8) (size 9 to 14) (size 15 to 20)
#    0.857    1.143    1.429    3.857    0.000    1.714 
#    2.571    2.857    0.000    2.571    0.000    0.000 
#    0.000    0.000    0.000    0.000    0.000    0.000 
#
# Total GULP energy -173507.037304 kJ/mol
# GULP energy per Si atom -12393.359807 kJ/mol
# Density = 2.054746 g / cm^3
# Si number density = 20.594333 Si / 1000 Ang^3
#
#
#
# Elastic Constant Matrix: (Units=GPa)
#
#
# Indices 1 2 3 4 5 6 
#
# 1 105.7618 45.3876 23.5326 9.7026 12.8641 -2.0884
# 2 45.3876 78.0141 33.5469 25.5722 3.8631 -0.0474
# 3 23.5326 33.5469 99.1709 10.9964 15.6095 4.1346
# 4 9.7026 25.5722 10.9964 27.2288 2.6257 0.1584
# 5 12.8641 3.8631 15.6095 2.6257 16.9793 9.3041
# 6 -2.0884 -0.0474 4.1346 0.1584 9.3041 35.7689
#
#
#
# Elastic Compliance Matrix: (Units=1/GPa)
#
#
# Indices 1 2 3 4 5 6 
#
# 1 0.014702 -0.010059 0.001240 0.004935 -0.012975 0.004055
# 2 -0.010059 0.027724 -0.006440 -0.020997 0.012039 -0.002845
# 3 0.001240 -0.006440 0.013867 0.001296 -0.013501 0.001967
# 4 0.004935 -0.020997 0.001296 0.055116 -0.010034 0.002476
# 5 -0.012975 0.012039 -0.013501 -0.010034 0.092688 -0.023246
# 6 0.004055 -0.002845 0.001967 0.002476 -0.023246 0.033999
#
#
# Mechanical properties :
#
#
# Convention : Reuss Voigt Hill
#
# Bulk Modulus (GPa) = 38.79643 54.20900 46.50271
# Shear Modulus (GPa) = 18.03716 28.02737 23.03227
#
# Velocity S-wave (km/s) = 2.96266 3.69308 3.34785
# Velocity P-wave (km/s) = 5.53014 6.67567 6.12972
#
# Compressibility (1/GPa) = 0.02577557
#
# Stress axis : x y z
#
# Youngs Moduli (GPa) = 68.01913 36.06936 72.11368
#
# Poissons Ratio (x) = 0.36283 -0.08943
# Poissons Ratio (y) = 0.68423 0.46438
# Poissons Ratio (z) = -0.08435 0.23227
#
# Static dielectric constant tensor:
#      x y z
#    x 3.897730 0.017890 0.174070 
#    y 0.017890 3.761040 0.241250 
#    z 0.174070 0.241250 3.391760 
# 
# 
# High freq. dielectric constant tensor:
#      x y z
#    x 1.811830 -0.007860 0.011880 
#    y -0.007860 1.803840 0.026230 
#    z 0.011880 0.026230 1.769870 
# 
# From -- ./inp_files/291026.got.cif
#   From: 2010.06.25/outbox.cif.g09.slc.cpg/sg2_146_cif.got.tgz:291026.got - 2010.06.27 13:26:56.
