data_PCOD8038262
_publ_section_title
;
Structure prediction by ZEFSAII (Michael W. Deem and Ramdas Pophale) SiO2 
 PCOD8038262
Probable space group: P -1
;
_chemical_formula_sum "Si O2"
_cell_formula_units_Z 14
_cell_length_a 12.000000
_cell_length_b 9.000000
_cell_length_c 21.000000
_cell_angle_alpha 140.000000
_cell_angle_beta 30.000000
_cell_angle_gamma 120.000000
_cell_volume 627.666119
_symmetry_space_group_name_H-M "P -1"
_symmetry_group_IT_number 2
_symmetry_cell_setting 'triclinic'
loop_
_space_group_symop_operation_xyz
x,y,z
-x,-y,-z
loop_
_atom_site_type_symbol
_atom_site_label
_atom_site_fract_x
_atom_site_fract_y
_atom_site_fract_z
Si Si1 0.875591 0.314127 0.014962
Si Si2 0.624761 0.322605 0.542564
Si Si3 0.974510 0.582034 0.447395
Si Si4 0.616122 0.198319 0.369819
Si Si5 0.971916 0.998477 0.665130
Si Si6 0.727898 0.981432 0.587190
Si Si7 0.530684 0.394154 0.091858
O O1 0.648259 0.456214 0.224116
O O2 0.737839 0.282958 0.010309
O O3 0.073601 0.023352 0.853894
O O4 0.000000 0.500000 0.000000
O O5 0.802800 0.448560 0.478949
O O6 0.548024 0.214975 0.483467
O O7 0.794299 0.075716 0.425001
O O8 0.866184 0.831749 0.534017
O O9 0.962501 0.724638 0.567777
O O10 0.279873 0.360775 0.214603
O O11 0.500000 0.500000 0.500000
O O12 0.487725 0.079586 0.349924
O O13 0.040265 0.118717 0.610584
O O14 0.685610 0.219405 0.897998
O O15 0.574678 0.300088 0.773506
#
# Coordination Sequence:
#
# PCOD8038262 Si02
#       7
#     2   2   2   2   2   2   2
#     4  12  25  45  72 102 137 181 235 284 336 411
#     4  12  25  44  72 100 136 181 225 288 343 404
#     4  11  25  45  65 102 145 173 226 290 345 402
#     4  12  26  46  68 103 141 180 226 287 352 401
#     4  11  23  41  72 100 130 184 230 277 341 407
#     4  11  24  45  67  98 146 175 226 290 337 413
#     4  11  23  42  72 101 131 181 235 284 332 409
#
# _framework density 22.304852
#
# number of rings (size 3 to 8) (size 9 to 14) (size 15 to 20)
#    0.000    0.571    7.143    2.143    2.000    5.714 
#    2.571    0.000    0.000    0.000    0.000    0.000 
#    0.000    0.000    0.000    0.000    0.000    0.000 
#
# Total GULP energy -173468.763088 kJ/mol
# GULP energy per Si atom -12390.625935 kJ/mol
# Density = 2.225409 g / cm^3
# Si number density = 22.304852 Si / 1000 Ang^3
#
#
#
# Elastic Constant Matrix: (Units=GPa)
#
#
# Indices 1 2 3 4 5 6 
#
# 1 87.8380 -1.2567 30.7561 -0.6430 -26.5111 -1.1435
# 2 -1.2567 59.7424 34.7332 -7.1366 -18.5423 4.3797
# 3 30.7561 34.7332 202.6159 -12.9384 -15.6265 2.5996
# 4 -0.6430 -7.1366 -12.9384 21.5443 -4.0440 -14.0742
# 5 -26.5111 -18.5423 -15.6265 -4.0440 40.2234 -6.7901
# 6 -1.1435 4.3797 2.5996 -14.0742 -6.7901 11.6874
#
#
#
# Elastic Compliance Matrix: (Units=1/GPa)
#
#
# Indices 1 2 3 4 5 6 
#
# 1 0.005867 -0.004331 -0.004217 -0.056864 -0.018311 -0.075980
# 2 -0.004331 0.014011 -0.005365 -0.051987 -0.016665 -0.076767
# 3 -0.004217 -0.005365 0.005610 -0.009011 -0.006377 -0.014207
# 4 -0.056864 -0.051987 -0.009011 -0.299710 -0.169987 -0.443752
# 5 -0.018311 -0.016665 -0.006377 -0.169987 -0.053243 -0.229762
# 6 -0.075980 -0.076767 -0.014207 -0.443752 -0.229762 -0.557804
#
#
# Mechanical properties :
#
#
# Convention : Reuss Voigt Hill
#
# Bulk Modulus (GPa) = -428.19427 53.18460 -187.50484
# Shear Modulus (GPa) = -5.82599 33.75528 13.96464
#
# Velocity S-wave (km/s) = -1.61792 3.89441 2.50488
# Velocity P-wave (km/s) = 13.99573 6.64215 8.71098
#
# Compressibility (1/GPa) = -0.00233539
#
# Stress axis : x y z
#
# Youngs Moduli (GPa) = 170.43841 71.37016 178.24825
#
# Poissons Ratio (x) = 0.30910 0.75162
# Poissons Ratio (y) = 0.73815 0.95622
# Poissons Ratio (z) = 0.71868 0.38287
#
# Static dielectric constant tensor:
#      x y z
#    x 4.446600 0.008130 -0.228650 
#    y 0.008130 4.123010 0.056640 
#    z -0.228650 0.056640 4.240680 
# 
# 
# High freq. dielectric constant tensor:
#      x y z
#    x 1.901940 0.003060 -0.021000 
#    y 0.003060 1.868060 0.007820 
#    z -0.021000 0.007820 1.884050 
# 
# From -- ./inp_files/242248.got.cif
#   From: 2010.06.25/outbox.ucp.g09.slc.cvg/sg2_122_cif.got.tgz:242248.got - 2010.06.28 11:54:26.
