data_PCOD8038827
_publ_section_title
;
Structure prediction by ZEFSAII (Michael W. Deem and Ramdas Pophale) SiO2 
 PCOD8038827
Probable space group: P -1
;
_chemical_formula_sum "Si O2"
_cell_formula_units_Z 16
_cell_length_a 9.239287
_cell_length_b 20.986750
_cell_length_c 27.336399
_cell_angle_alpha 19.148628
_cell_angle_beta 38.514985
_cell_angle_gamma 29.650054
_cell_volume 835.535262
_symmetry_space_group_name_H-M "P -1"
_symmetry_group_IT_number 2
_symmetry_cell_setting 'triclinic'
loop_
_space_group_symop_operation_xyz
x,y,z
-x,-y,-z
loop_
_atom_site_type_symbol
_atom_site_label
_atom_site_fract_x
_atom_site_fract_y
_atom_site_fract_z
Si Si1 0.401697 0.082791 0.410726
Si Si2 0.756850 0.888722 0.910526
Si Si3 0.352182 0.634434 0.890410
Si Si4 0.575848 0.594862 0.676039
Si Si5 0.282334 0.937230 0.107050
Si Si6 0.344924 0.703815 0.033726
Si Si7 0.167949 0.099304 0.861323
Si Si8 0.244882 0.519535 0.743435
O O1 0.541315 0.208914 0.264771
O O2 0.038872 0.271672 0.366270
O O3 0.500000 0.000000 0.500000
O O4 0.528009 0.848104 0.512292
O O5 0.989836 0.815952 0.858524
O O6 0.796676 0.039208 0.831541
O O7 0.411939 0.068661 0.854000
O O8 0.839351 0.634809 0.094880
O O9 0.441597 0.433887 0.969786
O O10 0.500000 0.500000 0.000000
O O11 0.558830 0.497921 0.803408
O O12 0.314798 0.647598 0.672138
O O13 0.902798 0.395605 0.707807
O O14 0.456500 0.658729 0.240652
O O15 0.500000 0.000000 0.000000
O O16 0.997529 0.153103 0.994362
O O17 0.348858 0.925890 0.891224
O O18 0.000000 0.000000 0.000000
#
# Coordination Sequence:
#
# PCOD8038827 Si02
#       8
#     2   2   2   2   2   2   2   2
#     4  12  26  40  62  91 128 167 205 251 310 370
#     4  11  21  35  63  95 120 156 212 257 307 355
#     4  12  23  41  61  90 128 167 206 252 308 369
#     4  11  21  39  62  90 127 157 207 257 310 362
#     4  10  18  30  60  93 118 149 210 257 293 350
#     4  11  19  36  61  91 122 156 205 257 303 355
#     4  10  19  36  63  94 122 155 206 262 306 356
#     4  11  20  38  62  93 119 162 207 258 302 362
#
# _framework density 19.149401000000001
#
# number of rings (size 3 to 8) (size 9 to 14) (size 15 to 20)
#    0.000    1.000    7.500    3.375    1.750    0.500 
#    0.000    0.625    0.000    1.500    0.000    0.000 
#    0.000    0.000    0.000    0.000    0.000    0.000 
#
# Total GULP energy -198314.952971 kJ/mol
# GULP energy per Si atom -12394.684561 kJ/mol
# Density = 1.910582 g / cm^3
# Si number density = 19.149401 Si / 1000 Ang^3
#
#
#
# Elastic Constant Matrix: (Units=GPa)
#
#
# Indices 1 2 3 4 5 6 
#
# 1 134.8197 45.3745 40.3976 -6.3334 7.5505 3.5112
# 2 45.3745 114.5332 36.1097 -14.2202 2.0004 10.3261
# 3 40.3976 36.1097 69.2284 -10.3340 -1.4574 6.1688
# 4 -6.3334 -14.2202 -10.3340 24.9922 3.6875 -0.1436
# 5 7.5505 2.0004 -1.4574 3.6875 32.0653 -15.5746
# 6 3.5112 10.3261 6.1688 -0.1436 -15.5746 44.3643
#
#
#
# Elastic Compliance Matrix: (Units=1/GPa)
#
#
# Indices 1 2 3 4 5 6 
#
# 1 0.009701 -0.002391 -0.004482 -0.000385 -0.002526 -0.000476
# 2 -0.002391 0.011775 -0.003824 0.004830 -0.002260 -0.002797
# 3 -0.004482 -0.003824 0.019885 0.004740 0.001111 -0.001115
# 4 -0.000385 0.004830 0.004740 0.045671 -0.007266 -0.004156
# 5 -0.002526 -0.002260 0.001111 -0.007266 0.039873 0.014546
# 6 -0.000476 -0.002797 -0.001115 -0.004156 0.014546 0.028478
#
#
# Mechanical properties :
#
#
# Convention : Reuss Voigt Hill
#
# Bulk Modulus (GPa) = 50.08148 62.48275 56.28212
# Shear Modulus (GPa) = 27.25785 33.39765 30.32775
#
# Velocity S-wave (km/s) = 3.77693 4.18072 3.98395
# Velocity P-wave (km/s) = 6.72533 7.48362 7.11458
#
# Compressibility (1/GPa) = 0.01996746
#
# Stress axis : x y z
#
# Youngs Moduli (GPa) = 103.08538 84.92318 50.28828
#
# Poissons Ratio (x) = 0.20304 0.22539
# Poissons Ratio (y) = 0.24647 0.19231
# Poissons Ratio (z) = 0.46202 0.32476
#
# Static dielectric constant tensor:
#      x y z
#    x 4.225630 0.575640 -0.235660 
#    y 0.575640 4.087530 -0.622850 
#    z -0.235660 -0.622850 3.127320 
# 
# 
# High freq. dielectric constant tensor:
#      x y z
#    x 1.771950 0.006420 -0.000370 
#    y 0.006420 1.741820 -0.035450 
#    z -0.000370 -0.035450 1.698100 
# 
# From -- ./inp_files/403083.got.cif
#   From: 2010.06.25/outbox.cif.g09.slc.cpg/sg2_202_cif.got.tgz:403083.got - 2010.06.27 13:26:56.
