data_PCOD8038792
_publ_section_title
;
Structure prediction by ZEFSAII (Michael W. Deem and Ramdas Pophale) SiO2 
 PCOD8038792
Probable space group: P -1
;
_chemical_formula_sum "Si O2"
_cell_formula_units_Z 14
_cell_length_a 13.278003
_cell_length_b 15.205143
_cell_length_c 6.509376
_cell_angle_alpha 117.041678
_cell_angle_beta 51.838492
_cell_angle_gamma 132.744902
_cell_volume 757.437517
_symmetry_space_group_name_H-M "P -1"
_symmetry_group_IT_number 2
_symmetry_cell_setting 'triclinic'
loop_
_space_group_symop_operation_xyz
x,y,z
-x,-y,-z
loop_
_atom_site_type_symbol
_atom_site_label
_atom_site_fract_x
_atom_site_fract_y
_atom_site_fract_z
Si Si1 0.718222 0.709909 0.480781
Si Si2 0.657685 0.536817 0.728847
Si Si3 0.243644 0.922966 0.743215
Si Si4 0.771256 0.862131 0.952179
Si Si5 0.496494 0.714820 0.448387
Si Si6 0.909417 0.753080 0.903807
Si Si7 0.527621 0.074018 0.245054
O O1 0.664521 0.594546 0.563211
O O2 0.579954 0.686758 0.486581
O O3 0.771179 0.823286 0.678449
O O4 0.859991 0.737028 0.187224
O O5 0.653073 0.416226 0.570134
O O6 0.806813 0.628045 0.777043
O O7 0.500000 0.500000 0.000000
O O8 0.315750 0.895484 0.813074
O O9 0.090684 0.799722 0.719303
O O10 0.182788 0.003596 0.976871
O O11 0.372297 0.988195 0.477088
O O12 0.601661 0.775582 0.177823
O O13 0.894065 0.853891 0.923395
O O14 0.446802 0.798405 0.693713
O O15 0.500000 0.000000 0.000000
#
# Coordination Sequence:
#
# PCOD8038792 Si02
#       7
#     2   2   2   2   2   2   2
#     4  10  18  30  54  83 108 142 169 213 275 318
#     4  11  19  34  53  83 113 139 171 217 268 322
#     4  10  21  38  54  77 111 139 181 224 265 308
#     4   9  18  32  53  81 110 140 170 219 270 318
#     4  10  19  33  54  81 108 137 184 217 259 314
#     4  10  21  32  52  84 112 141 170 218 270 321
#     4  10  22  39  59  76 100 147 187 223 258 311
#
# _framework density 18.483374000000001
#
# number of rings (size 3 to 8) (size 9 to 14) (size 15 to 20)
#    0.000    2.000    4.286    1.714    0.000    2.857 
#    0.000    0.714    0.000    1.714    0.000    0.000 
#    0.000    0.000    0.000    0.000    0.000    0.000 
#
# Total GULP energy -173566.572382 kJ/mol
# GULP energy per Si atom -12397.612313 kJ/mol
# Density = 1.844130 g / cm^3
# Si number density = 18.483374 Si / 1000 Ang^3
#
#
#
# Elastic Constant Matrix: (Units=GPa)
#
#
# Indices 1 2 3 4 5 6 
#
# 1 89.1275 64.3095 39.7844 2.3333 -5.7098 17.3756
# 2 64.3095 119.1469 39.3290 20.1214 -3.0944 14.0582
# 3 39.7844 39.3290 73.0734 17.2875 13.3088 1.9082
# 4 2.3333 20.1214 17.2875 27.8261 -1.8740 -2.2638
# 5 -5.7098 -3.0944 13.3088 -1.8740 24.9878 -1.8027
# 6 17.3756 14.0582 1.9082 -2.2638 -1.8027 28.0653
#
#
#
# Elastic Compliance Matrix: (Units=1/GPa)
#
#
# Indices 1 2 3 4 5 6 
#
# 1 0.028683 -0.011700 -0.015357 0.015822 0.013845 -0.008688
# 2 -0.011700 0.016724 0.000570 -0.011781 -0.001952 -0.002248
# 3 -0.015357 0.000570 0.029734 -0.018611 -0.020354 0.004392
# 4 0.015822 -0.011781 -0.018611 0.056042 0.016485 0.002951
# 5 0.013845 -0.001952 -0.020354 0.016485 0.054921 -0.001352
# 6 -0.008688 -0.002248 0.004392 0.002951 -0.001352 0.041989
#
#
# Mechanical properties :
#
#
# Convention : Reuss Voigt Hill
#
# Bulk Modulus (GPa) = 45.10988 63.13261 54.12124
# Shear Modulus (GPa) = 17.33360 25.37084 21.35222
#
# Velocity S-wave (km/s) = 3.06567 3.70892 3.40253
# Velocity P-wave (km/s) = 6.08192 7.25066 6.69185
#
# Compressibility (1/GPa) = 0.02216809
#
# Stress axis : x y z
#
# Youngs Moduli (GPa) = 34.86329 59.79470 33.63101
#
# Poissons Ratio (x) = 0.69959 0.51648
# Poissons Ratio (y) = 0.40790 -0.01918
# Poissons Ratio (z) = 0.53540 -0.03410
#
# Static dielectric constant tensor:
#      x y z
#    x 3.342140 -0.101250 0.113950 
#    y -0.101250 3.565570 0.140180 
#    z 0.113950 0.140180 3.426190 
# 
# 
# High freq. dielectric constant tensor:
#      x y z
#    x 1.701510 0.001320 0.019680 
#    y 0.001320 1.719250 0.006950 
#    z 0.019680 0.006950 1.709270 
# 
# From -- ./inp_files/63476.got.cif
#   From: 2010.06.25/outbox.cif.g09.slc.cpg/sg2_32_cif.got.tgz:63476.got - 2010.06.27 13:26:56.
