data_PCOD8038234
_publ_section_title
;
Structure prediction by ZEFSAII (Michael W. Deem and Ramdas Pophale) SiO2 
 PCOD8038234
Probable space group: P -1
;
_chemical_formula_sum "Si O2"
_cell_formula_units_Z 16
_cell_length_a 16.316165
_cell_length_b 13.760104
_cell_length_c 9.461597
_cell_angle_alpha 32.133565
_cell_angle_beta 58.780593
_cell_angle_gamma 45.182885
_cell_volume 783.924211
_symmetry_space_group_name_H-M "P -1"
_symmetry_group_IT_number 2
_symmetry_cell_setting 'triclinic'
loop_
_space_group_symop_operation_xyz
x,y,z
-x,-y,-z
loop_
_atom_site_type_symbol
_atom_site_label
_atom_site_fract_x
_atom_site_fract_y
_atom_site_fract_z
Si Si1 0.650256 0.757110 0.275051
Si Si2 0.122924 0.297470 0.910289
Si Si3 0.390232 0.519441 0.744870
Si Si4 0.761631 0.023100 0.530930
Si Si5 0.099440 0.044335 0.014381
Si Si6 0.592294 0.897580 0.832979
Si Si7 0.022908 0.191109 0.592094
Si Si8 0.646532 0.352847 0.703090
O O1 0.770920 0.725841 0.244722
O O2 0.669078 0.520466 0.550866
O O3 0.549488 0.920289 0.279238
O O4 0.615205 0.863819 0.020274
O O5 0.058869 0.225267 0.952948
O O6 0.032312 0.556031 0.721398
O O7 0.165908 0.144611 0.198703
O O8 0.526217 0.401897 0.811681
O O9 0.364489 0.626205 0.481576
O O10 0.303902 0.717506 0.685820
O O11 0.364894 0.331080 0.005515
O O12 0.665045 0.988886 0.596652
O O13 0.849419 0.978856 0.381954
O O14 0.034607 0.180762 0.763136
O O15 0.241449 0.897278 0.052034
O O16 0.061389 0.881155 0.291939
#
# Coordination Sequence:
#
# PCOD8038234 Si02
#       8
#     2   2   2   2   2   2   2   2
#     4   9  16  30  56  88 111 141 188 238 287 331
#     4  11  21  38  63  84 111 151 200 242 284 331
#     4  10  19  32  59  93 116 142 187 238 295 341
#     4  11  22  37  57  89 121 149 186 244 295 333
#     4  11  23  42  61  82 112 159 201 235 280 345
#     4   9  18  30  53  86 121 142 175 239 295 340
#     4  11  26  41  56  82 120 157 198 237 282 340
#     4  10  17  34  60  86 116 145 190 242 279 340
#
# _framework density 20.410136000000001
#
# number of rings (size 3 to 8) (size 9 to 14) (size 15 to 20)
#    0.000    1.750    3.750    1.500    3.500    1.500 
#    0.000    0.625    0.000    1.500    0.000    0.000 
#    0.000    0.000    0.000    0.000    0.000    0.000 
#
# Total GULP energy -198418.837569 kJ/mol
# GULP energy per Si atom -12401.177348 kJ/mol
# Density = 2.036368 g / cm^3
# Si number density = 20.410136 Si / 1000 Ang^3
#
#
#
# Elastic Constant Matrix: (Units=GPa)
#
#
# Indices 1 2 3 4 5 6 
#
# 1 87.3181 29.7057 14.7828 -5.2219 -16.7374 1.8967
# 2 29.7057 99.9564 22.2989 -21.0408 -18.0632 -10.3236
# 3 14.7828 22.2989 36.3334 -15.3005 -13.4762 4.2002
# 4 -5.2219 -21.0408 -15.3005 28.9056 3.2424 -0.3879
# 5 -16.7374 -18.0632 -13.4762 3.2424 19.6656 -10.2873
# 6 1.8967 -10.3236 4.2002 -0.3879 -10.2873 28.8649
#
#
#
# Elastic Compliance Matrix: (Units=1/GPa)
#
#
# Indices 1 2 3 4 5 6 
#
# 1 0.014315 -0.001855 -0.001071 -0.000548 0.011155 0.002520
# 2 -0.001855 0.017924 0.000327 0.010756 0.020654 0.013991
# 3 -0.001071 0.000327 0.048034 0.022048 0.031057 0.004563
# 4 -0.000548 0.010756 0.022048 0.051811 0.020523 0.008685
# 5 0.011155 0.020654 0.031057 0.020523 0.121042 0.045549
# 6 0.002520 0.013991 0.004563 0.008685 0.045549 0.055169
#
#
# Mechanical properties :
#
#
# Convention : Reuss Voigt Hill
#
# Bulk Modulus (GPa) = 13.31967 39.68698 26.50332
# Shear Modulus (GPa) = 14.77026 25.94192 20.35609
#
# Velocity S-wave (km/s) = 2.69304 3.56902 3.16151
# Velocity P-wave (km/s) = 4.02618 6.03911 5.13230
#
# Compressibility (1/GPa) = 0.07507694
#
# Stress axis : x y z
#
# Youngs Moduli (GPa) = 69.85494 55.79038 20.81847
#
# Poissons Ratio (x) = 0.10348 0.02229
# Poissons Ratio (y) = 0.12956 -0.00681
# Poissons Ratio (z) = 0.07480 -0.01825
#
# Static dielectric constant tensor:
#      x y z
#    x 3.888170 -0.149370 -0.206020 
#    y -0.149370 3.517550 -0.306720 
#    z -0.206020 -0.306720 3.381660 
# 
# 
# High freq. dielectric constant tensor:
#      x y z
#    x 1.804420 -0.008040 -0.017550 
#    y -0.008040 1.781910 -0.035370 
#    z -0.017550 -0.035370 1.770440 
# 
# From -- ./inp_files/279218.got.cif
#   From: 2010.06.25/outbox.cif.g09.slc.cpg/sg2_140_cif.got.tgz:279218.got - 2010.06.27 13:26:56.
