data_PCOD8038848
_publ_section_title
;
Structure prediction by ZEFSAII (Michael W. Deem and Ramdas Pophale) SiO2 
 PCOD8038848
Probable space group: P -1
;
_chemical_formula_sum "Si O2"
_cell_formula_units_Z 16
_cell_length_a 17.398922
_cell_length_b 10.017351
_cell_length_c 9.664232
_cell_angle_alpha 139.780862
_cell_angle_beta 35.520961
_cell_angle_gamma 121.370962
_cell_volume 608.629542
_symmetry_space_group_name_H-M "P -1"
_symmetry_group_IT_number 2
_symmetry_cell_setting 'triclinic'
loop_
_space_group_symop_operation_xyz
x,y,z
-x,-y,-z
loop_
_atom_site_type_symbol
_atom_site_label
_atom_site_fract_x
_atom_site_fract_y
_atom_site_fract_z
Si Si1 0.439214 0.670548 0.445293
Si Si2 0.354878 0.243604 0.297356
Si Si3 0.952314 0.694131 0.861285
Si Si4 0.682176 0.231007 0.574007
Si Si5 0.217037 0.078198 0.144052
Si Si6 0.393827 0.130402 0.446983
Si Si7 0.035271 0.989537 0.139953
Si Si8 0.771172 0.607690 0.845511
O O1 0.423640 0.430792 0.299221
O O2 0.442759 0.718556 0.313456
O O3 0.579539 0.710813 0.340901
O O4 0.311431 0.836786 0.840076
O O5 0.220595 0.233968 0.393905
O O6 0.319507 0.266125 0.530091
O O7 0.458892 0.013960 0.931559
O O8 0.805394 0.652702 0.995755
O O9 0.929748 0.840599 0.151581
O O10 0.077284 0.480680 0.519121
O O11 0.007703 0.814532 0.748443
O O12 0.821449 0.181261 0.244712
O O13 0.672647 0.447720 0.849976
O O14 0.690322 0.031311 0.503548
O O15 0.282447 0.170215 0.985809
O O16 0.060806 0.065075 0.319389
#
# Coordination Sequence:
#
# PCOD8038848 Si02
#       8
#     2   2   2   2   2   2   2   2
#     4  10  19  34  52  70 100 130 166 208 245 285
#     4  10  20  37  51  68  98 138 171 197 239 295
#     4   8  14  25  45  74 104 126 152 195 254 293
#     4  10  18  31  49  77 105 125 160 212 249 278
#     4   9  17  30  51  73 100 124 167 206 230 289
#     4  10  22  35  50  71 100 133 169 204 242 291
#     4   8  15  27  46  75 104 124 156 203 248 288
#     4   9  15  27  47  75 104 126 157 200 249 291
#
# _framework density 26.288568999999999
#
# number of rings (size 3 to 8) (size 9 to 14) (size 15 to 20)
#    0.000    2.750    1.250    0.750    0.000    0.500 
#    6.750    0.000    0.000    0.000    0.000   33.250 
#    0.000    0.000    0.000    0.000    0.000    0.000 
#
# Total GULP energy -198217.080868 kJ/mol
# GULP energy per Si atom -12388.567554 kJ/mol
# Density = 2.622873 g / cm^3
# Si number density = 26.288569 Si / 1000 Ang^3
#
#
#
# Elastic Constant Matrix: (Units=GPa)
#
#
# Indices 1 2 3 4 5 6 
#
# 1 225.0690 75.2279 34.3361 7.9581 45.1241 24.1137
# 2 75.2279 90.8353 18.1018 16.5876 26.1331 2.6854
# 3 34.3361 18.1018 54.2300 16.6358 20.5437 1.4165
# 4 7.9581 16.5876 16.6358 30.9927 4.0159 11.8130
# 5 45.1241 26.1331 20.5437 4.0159 44.6826 9.6120
# 6 24.1137 2.6854 1.4165 11.8130 9.6120 36.8770
#
#
#
# Elastic Compliance Matrix: (Units=1/GPa)
#
#
# Indices 1 2 3 4 5 6 
#
# 1 0.007879 -0.006112 -0.003888 0.005841 -0.001840 -0.005949
# 2 -0.006112 0.019755 0.004263 -0.013626 -0.008021 0.008849
# 3 -0.003888 0.004263 0.030254 -0.019976 -0.013018 0.010862
# 4 0.005841 -0.013626 -0.019976 0.056076 0.011147 -0.022928
# 5 -0.001840 -0.008021 -0.013018 0.011147 0.036220 -0.010724
# 6 -0.005949 0.008849 0.010862 -0.022928 -0.010724 0.040086
#
#
# Mechanical properties :
#
#
# Convention : Reuss Voigt Hill
#
# Bulk Modulus (GPa) = 21.54477 69.49619 45.52048
# Shear Modulus (GPa) = 23.01877 38.67502 30.84690
#
# Velocity S-wave (km/s) = 2.96230 3.83975 3.42920
# Velocity P-wave (km/s) = 4.46246 6.79349 5.74739
#
# Compressibility (1/GPa) = 0.04641497
#
# Stress axis : x y z
#
# Youngs Moduli (GPa) = 126.92537 50.61975 33.05299
#
# Poissons Ratio (x) = 0.30937 0.12850
# Poissons Ratio (y) = 0.77571 -0.14089
# Poissons Ratio (z) = 0.49345 -0.21577
#
# Static dielectric constant tensor:
#      x y z
#    x 6.001560 0.215660 0.409800 
#    y 0.215660 4.140020 0.514480 
#    z 0.409800 0.514480 4.878500 
# 
# 
# High freq. dielectric constant tensor:
#      x y z
#    x 2.099540 0.020830 0.006960 
#    y 0.020830 1.998840 0.049630 
#    z 0.006960 0.049630 2.055220 
# 
# From -- ./inp_files/202267.got.cif
#   From: 2010.06.25/outbox.cif.g09.slc.cpg/sg2_102_cif.got.tgz:202267.got - 2010.06.27 13:26:56.
