data_PCOD8038200
_publ_section_title
;
Structure prediction by ZEFSAII (Michael W. Deem and Ramdas Pophale) SiO2 
 PCOD8038200
Probable space group: P -1
;
_chemical_formula_sum "Si O2"
_cell_formula_units_Z 16
_cell_length_a 7.594274
_cell_length_b 12.686462
_cell_length_c 12.282468
_cell_angle_alpha 112.657750
_cell_angle_beta 37.718349
_cell_angle_gamma 114.978540
_cell_volume 653.433244
_symmetry_space_group_name_H-M "P -1"
_symmetry_group_IT_number 2
_symmetry_cell_setting 'triclinic'
loop_
_space_group_symop_operation_xyz
x,y,z
-x,-y,-z
loop_
_atom_site_type_symbol
_atom_site_label
_atom_site_fract_x
_atom_site_fract_y
_atom_site_fract_z
Si Si1 0.753311 0.284296 0.801925
Si Si2 0.813650 0.676865 0.836648
Si Si3 0.196779 0.511732 0.601481
Si Si4 0.326844 0.919955 0.906812
Si Si5 0.525453 0.496010 0.230861
Si Si6 0.900857 0.911648 0.764385
Si Si7 0.255549 0.950805 0.406825
Si Si8 0.085170 0.682338 0.014271
O O1 0.805042 0.180093 0.660785
O O2 0.818803 0.265555 0.890893
O O3 0.952261 0.402331 0.710927
O O4 0.408544 0.286098 0.953114
O O5 0.622094 0.559561 0.828816
O O6 0.913982 0.781671 0.744491
O O7 0.091108 0.631645 0.735430
O O8 0.500000 0.500000 0.500000
O O9 0.256281 0.514662 0.444852
O O10 0.615911 0.913301 0.831460
O O11 0.429467 0.970354 0.755485
O O12 0.130406 0.788999 0.947533
O O13 0.122075 0.003282 0.089596
O O14 0.742388 0.620636 0.153279
O O15 0.719077 0.409767 0.155939
O O16 0.204635 0.953225 0.563360
O O17 0.000000 0.000000 0.500000
#
# Coordination Sequence:
#
# PCOD8038200 Si02
#       8
#     2   2   2   2   2   2   2   2
#     4  11  20  38  59  93 131 168 213 262 324 383
#     4  11  22  41  64  91 132 176 208 268 328 381
#     4  12  25  40  62  96 127 165 222 271 324 386
#     4  10  17  34  58  92 132 167 211 265 320 378
#     4  10  21  38  58  90 127 170 214 256 321 391
#     4  10  18  34  58  93 130 167 217 262 320 385
#     4  10  20  30  58  99 128 166 221 260 308 388
#     4  10  19  35  61  85 133 170 204 263 324 374
#
# _framework density 24.486052000000001
#
# number of rings (size 3 to 8) (size 9 to 14) (size 15 to 20)
#    0.000    1.500    5.000    3.000    1.750    0.000 
#    0.000    0.000    0.000    0.750    3.250    3.500 
#    0.000    0.000    0.000    0.000    0.000    0.000 
#
# Total GULP energy -198310.997667 kJ/mol
# GULP energy per Si atom -12394.437354 kJ/mol
# Density = 2.443032 g / cm^3
# Si number density = 24.486052 Si / 1000 Ang^3
#
#
#
# Elastic Constant Matrix: (Units=GPa)
#
#
# Indices 1 2 3 4 5 6 
#
# 1 30.2627 26.4578 28.8636 2.5088 -16.4023 -9.2983
# 2 26.4578 152.4410 90.5942 -18.8171 7.9426 -17.4026
# 3 28.8636 90.5942 178.6141 -9.5500 22.0914 -20.2375
# 4 2.5088 -18.8171 -9.5500 56.0671 -11.8079 2.0332
# 5 -16.4023 7.9426 22.0914 -11.8079 21.0675 7.0804
# 6 -9.2983 -17.4026 -20.2375 2.0332 7.0804 21.5897
#
#
#
# Elastic Compliance Matrix: (Units=1/GPa)
#
#
# Indices 1 2 3 4 5 6 
#
# 1 136.782098 -9.840560-46.008856 25.239601191.905489-57.462156
# 2 -9.840560 0.717964 3.305128 -1.812937-13.804171 4.136509
# 3 -46.008856 3.305128 15.487082 -8.493296-64.566550 19.340526
# 4 25.239601 -1.812937 -8.493296 4.679683 35.429425-10.612243
# 5 191.905489-13.804171-64.566550 35.429425269.332208-80.663556
# 6 -57.462156 4.136509 19.340526-10.612243-80.663556 24.214925
#
#
# Mechanical properties :
#
#
# Convention : Reuss Voigt Hill
#
# Bulk Modulus (GPa) = 0.02088 72.57209 36.29649
# Shear Modulus (GPa) = 0.00874 34.10503 17.05688
#
# Velocity S-wave (km/s) = 0.05980 3.73612 2.64217
# Velocity P-wave (km/s) = 0.11538 6.95082 4.91565
#
# Compressibility (1/GPa) = 47.89856823
#
# Stress axis : x y z
#
# Youngs Moduli (GPa) = 0.00731 1.39283 0.06457
#
# Poissons Ratio (x) = 13.70620 2.97079
# Poissons Ratio (y) = 0.07194 -0.21341
# Poissons Ratio (z) = 0.33637 -4.60347
#
# Static dielectric constant tensor:
#      x y z
#    x 4.043190 -0.244620 0.327720 
#    y -0.244620 4.534220 -0.167370 
#    z 0.327720 -0.167370 5.122730 
# 
# 
# High freq. dielectric constant tensor:
#      x y z
#    x 1.938740 -0.009580 0.004360 
#    y -0.009580 1.980160 -0.001910 
#    z 0.004360 -0.001910 1.992030 
# 
# From -- ./inp_files/500507.got.cif
#   From: 2010.06.25/outbox.cif.g09.slc.cpg/sg2_251_cif.got.tgz:500507.got - 2010.06.27 13:26:56.
