data_PCOD8038081
_publ_section_title
;
Structure prediction by ZEFSAII (Michael W. Deem and Ramdas Pophale) SiO2 
 PCOD8038081
Probable space group: P -1
;
_chemical_formula_sum "Si O2"
_cell_formula_units_Z 16
_cell_length_a 9.000000
_cell_length_b 9.000000
_cell_length_c 24.000000
_cell_angle_alpha 150.000000
_cell_angle_beta 130.000000
_cell_angle_gamma 50.000000
_cell_volume 725.531033
_symmetry_space_group_name_H-M "P -1"
_symmetry_group_IT_number 2
_symmetry_cell_setting 'triclinic'
loop_
_space_group_symop_operation_xyz
x,y,z
-x,-y,-z
loop_
_atom_site_type_symbol
_atom_site_label
_atom_site_fract_x
_atom_site_fract_y
_atom_site_fract_z
Si Si1 0.752446 0.823856 0.914880
Si Si2 0.716521 0.146693 0.822724
Si Si3 0.592354 0.672189 0.030270
Si Si4 0.004442 0.224888 0.149161
Si Si5 0.022010 0.760614 0.178069
Si Si6 0.080672 0.794262 0.400232
Si Si7 0.081010 0.788365 0.600692
Si Si8 0.483829 0.375543 0.395801
O O1 0.776451 0.508072 0.851444
O O2 0.920063 0.701099 0.869081
O O3 0.527923 0.972700 0.887954
O O4 0.807411 0.092876 0.052918
O O5 0.909829 0.083826 0.809215
O O6 0.563170 0.946081 0.704442
O O7 0.587023 0.491083 0.911883
O O8 0.811297 0.029738 0.867008
O O9 0.827409 0.631723 0.080960
O O10 0.500000 0.500000 0.000000
O O11 0.953860 0.535526 0.274728
O O12 0.959386 0.011567 0.290106
O O13 0.311380 0.614924 0.399679
O O14 0.000000 0.000000 0.500000
O O15 0.054812 0.031171 0.421375
O O16 0.314668 0.686685 0.610960
O O17 0.000000 0.500000 0.500000
O O18 0.500000 0.500000 0.500000
#
# Coordination Sequence:
#
# PCOD8038081 Si02
#       8
#     2   2   2   2   2   2   2   2
#     4  11  22  40  68 100 130 180 222 274 340 402
#     4  11  24  43  67  97 139 178 222 279 337 407
#     4  12  23  40  70  98 130 181 226 269 342 407
#     4  10  21  41  67  97 136 173 225 274 331 404
#     4  12  26  44  63 100 146 170 219 291 337 395
#     4  11  24  43  71 102 135 178 231 284 338 407
#     4  12  27  46  71 101 136 180 227 288 345 400
#     4  11  24  45  73 100 129 179 235 275 340 413
#
# _framework density 22.052813
#
# number of rings (size 3 to 8) (size 9 to 14) (size 15 to 20)
#    0.000    0.750    5.000    2.625    5.250    1.000 
#    0.000    1.250    0.000    0.000    0.000    0.000 
#    0.000    0.000    0.000    0.000    0.000    0.000 
#
# Total GULP energy -198233.197061 kJ/mol
# GULP energy per Si atom -12389.574816 kJ/mol
# Density = 2.200262 g / cm^3
# Si number density = 22.052813 Si / 1000 Ang^3
#
#
#
# Elastic Constant Matrix: (Units=GPa)
#
#
# Indices 1 2 3 4 5 6 
#
# 1 131.2233 20.4030 67.7616 10.6910 -0.7948 -19.6139
# 2 20.4030 77.0052 30.7244 21.9354 1.5192 -31.0498
# 3 67.7616 30.7244 141.2128 16.6307 -18.9152 -3.4696
# 4 10.6910 21.9354 16.6307 28.4212 -2.5623 -7.5935
# 5 -0.7948 1.5192 -18.9152 -2.5623 37.3871 5.9895
# 6 -19.6139 -31.0498 -3.4696 -7.5935 5.9895 23.2071
#
#
#
# Elastic Compliance Matrix: (Units=1/GPa)
#
#
# Indices 1 2 3 4 5 6 
#
# 1 0.016869 0.015925 -0.011954 -0.003154 -0.012307 0.035922
# 2 0.015925 0.058923 -0.019825 -0.018178 -0.027841 0.090568
# 3 -0.011954 -0.019825 0.018281 0.000418 0.015894 -0.037860
# 4 -0.003154 -0.018178 0.000418 0.047223 0.006215 -0.013077
# 5 -0.012307 -0.027841 0.015894 0.006215 0.044866 -0.054821
# 6 0.035922 0.090568 -0.037860 -0.013077 -0.054821 0.198834
#
#
# Mechanical properties :
#
#
# Convention : Reuss Voigt Hill
#
# Bulk Modulus (GPa) = 16.03470 65.24660 40.64065
# Shear Modulus (GPa) = 11.42880 33.17326 22.30103
#
# Velocity S-wave (km/s) = 2.27897 3.88269 3.18347
# Velocity P-wave (km/s) = 3.76985 7.05345 5.65522
#
# Compressibility (1/GPa) = 0.06236475
#
# Stress axis : x y z
#
# Youngs Moduli (GPa) = 59.28040 16.97142 54.70252
#
# Poissons Ratio (x) = -0.27028 0.65392
# Poissons Ratio (y) = -0.94407 1.08448
# Poissons Ratio (z) = 0.70865 0.33646
#
# Static dielectric constant tensor:
#      x y z
#    x 3.765120 0.049400 -0.011220 
#    y 0.049400 3.735000 -0.467290 
#    z -0.011220 -0.467290 4.704450 
# 
# 
# High freq. dielectric constant tensor:
#      x y z
#    x 1.851710 -0.007810 -0.018280 
#    y -0.007810 1.866020 0.010820 
#    z -0.018280 0.010820 1.869210 
# 
# From -- ./inp_files/306940.got.cif
#   From: 2010.06.25/outbox.ucp.g09.slc.cvg/sg2_154_cif.got.tgz:306940.got - 2010.06.28 11:54:26.
