data_PCOD8038816
_publ_section_title
;
Structure prediction by ZEFSAII (Michael W. Deem and Ramdas Pophale) SiO2 
 PCOD8038816
Probable space group: P -1
;
_chemical_formula_sum "Si O2"
_cell_formula_units_Z 16
_cell_length_a 5.448130
_cell_length_b 9.090728
_cell_length_c 18.255683
_cell_angle_alpha 43.080272
_cell_angle_beta 88.937291
_cell_angle_gamma 105.452870
_cell_volume 563.170136
_symmetry_space_group_name_H-M "P -1"
_symmetry_group_IT_number 2
_symmetry_cell_setting 'triclinic'
loop_
_space_group_symop_operation_xyz
x,y,z
-x,-y,-z
loop_
_atom_site_type_symbol
_atom_site_label
_atom_site_fract_x
_atom_site_fract_y
_atom_site_fract_z
Si Si1 0.730933 0.996290 0.844850
Si Si2 0.016067 0.538122 0.073727
Si Si3 0.409194 0.737139 0.624450
Si Si4 0.868362 0.116906 0.649720
Si Si5 0.275724 0.090192 0.872967
Si Si6 0.534275 0.578187 0.108298
Si Si7 0.675750 0.438152 0.463433
Si Si8 0.958987 0.846542 0.629689
O O1 0.714026 0.932743 0.781321
O O2 0.548535 0.144666 0.804980
O O3 0.046014 0.143340 0.812057
O O4 0.598468 0.745179 0.975625
O O5 0.204796 0.427873 0.156421
O O6 0.000000 0.500000 0.000000
O O7 0.714531 0.425879 0.151323
O O8 0.145509 0.814229 0.995451
O O9 0.412498 0.569299 0.618200
O O10 0.625766 0.703894 0.692716
O O11 0.115731 0.674442 0.685685
O O12 0.500000 0.000000 0.500000
O O13 0.670932 0.178589 0.574153
O O14 0.027874 0.357806 0.605960
O O15 0.057225 0.026684 0.632413
O O16 0.363406 0.254495 0.883081
O O17 0.500000 0.500000 0.500000
O O18 0.000000 0.000000 0.500000
#
# Coordination Sequence:
#
# PCOD8038816 Si02
#       8
#     2   2   2   2   2   2   2   2
#     4  10  21  35  58  89 116 147 195 250 284 329
#     4  10  18  30  56  92 116 145 191 243 277 329
#     4  10  19  35  58  79 104 141 192 226 276 351
#     4  11  24  36  59  88 116 150 196 255 296 340
#     4  10  20  38  62  84 114 157 202 227 280 359
#     4  10  19  37  61  86 113 161 199 228 276 361
#     4  11  23  37  59  87 114 151 199 243 304 355
#     4  10  19  36  57  80 101 146 189 222 283 346
#
# _framework density 28.410594
#
# number of rings (size 3 to 8) (size 9 to 14) (size 15 to 20)
#    0.000    1.750    2.500    5.625    3.500    0.000 
#    0.000    0.000    0.000   24.000    0.000    0.000 
#    0.000    0.000    0.000    0.000    0.000    0.000 
#
# Total GULP energy -198296.610946 kJ/mol
# GULP energy per Si atom -12393.538184 kJ/mol
# Density = 2.834593 g / cm^3
# Si number density = 28.410594 Si / 1000 Ang^3
#
#
#
# Elastic Constant Matrix: (Units=GPa)
#
#
# Indices 1 2 3 4 5 6 
#
# 1 285.5318 57.6245 38.1341 35.3886 -12.1492 -18.5727
# 2 57.6245 116.9524 23.5844 30.1523 -2.2446 -15.7837
# 3 38.1341 23.5844 62.6139 27.0134 -1.8866 -10.9735
# 4 35.3886 30.1523 27.0134 48.2454 -2.4204 -8.4129
# 5 -12.1492 -2.2446 -1.8866 -2.4204 41.7395 16.5161
# 6 -18.5727 -15.7837 -10.9735 -8.4129 16.5161 47.9604
#
#
#
# Elastic Compliance Matrix: (Units=1/GPa)
#
#
# Indices 1 2 3 4 5 6 
#
# 1 0.004188 -0.001382 -0.001369 -0.001343 0.000880 0.000315
# 2 -0.001382 0.010991 -0.000714 -0.005092 -0.001089 0.002400
# 3 -0.001369 -0.000714 0.022049 -0.010457 -0.001174 0.002850
# 4 -0.001343 -0.005092 -0.010457 0.030891 0.000377 0.000700
# 5 0.000880 -0.001089 -0.001174 0.000377 0.028031 -0.009873
# 6 0.000315 0.002400 0.002850 0.000700 -0.009873 0.025937
#
#
# Mechanical properties :
#
#
# Convention : Reuss Voigt Hill
#
# Bulk Modulus (GPa) = 33.00414 78.19823 55.60118
# Shear Modulus (GPa) = 35.94072 50.63942 43.29007
#
# Velocity S-wave (km/s) = 3.56061 4.22644 3.90773
# Velocity P-wave (km/s) = 5.34284 7.16946 6.32247
#
# Compressibility (1/GPa) = 0.03029923
#
# Stress axis : x y z
#
# Youngs Moduli (GPa) = 238.75548 90.98206 45.35292
#
# Poissons Ratio (x) = 0.12573 0.06210
# Poissons Ratio (y) = 0.32995 0.03236
# Poissons Ratio (z) = 0.32693 0.06492
#
# Static dielectric constant tensor:
#      x y z
#    x -15.801140 6.042350 12.367400 
#    y 6.042350 3.661270 -3.215470 
#    z 12.367400 -3.215470 -1.006070 
# 
# 
# High freq. dielectric constant tensor:
#      x y z
#    x 2.173090 -0.003990 0.000800 
#    y -0.003990 2.143870 0.017160 
#    z 0.000800 0.017160 2.165550 
# 
# From -- ./inp_files/109424.got.cif
#   From: 2010.06.25/outbox.cif.g09.slc.cpg/sg2_55_cif.got.tgz:109424.got - 2010.06.27 13:26:56.
