data_PCOD8038054
_publ_section_title
;
Structure prediction by ZEFSAII (Michael W. Deem and Ramdas Pophale) SiO2 
 PCOD8038054
Probable space group: P -1
;
_chemical_formula_sum "Si O2"
_cell_formula_units_Z 16
_cell_length_a 9.419241
_cell_length_b 21.715124
_cell_length_c 10.846840
_cell_angle_alpha 131.947649
_cell_angle_beta 104.182585
_cell_angle_gamma 38.449306
_cell_volume 819.188360
_symmetry_space_group_name_H-M "P -1"
_symmetry_group_IT_number 2
_symmetry_cell_setting 'triclinic'
loop_
_space_group_symop_operation_xyz
x,y,z
-x,-y,-z
loop_
_atom_site_type_symbol
_atom_site_label
_atom_site_fract_x
_atom_site_fract_y
_atom_site_fract_z
Si Si1 0.393021 0.349471 0.725242
Si Si2 0.626299 0.124786 0.664147
Si Si3 0.080503 0.795817 0.935931
Si Si4 0.098585 0.297272 0.247843
Si Si5 0.785314 0.682764 0.953696
Si Si6 0.416468 0.836030 0.718884
Si Si7 0.854797 0.185128 0.765522
Si Si8 0.566517 0.645907 0.703070
O O1 0.389266 0.270464 0.708473
O O2 0.523867 0.258907 0.502009
O O3 0.597584 0.320985 0.793142
O O4 0.081266 0.539792 0.899980
O O5 0.830159 0.104616 0.713723
O O6 0.468069 0.165699 0.805419
O O7 0.836644 0.953303 0.421097
O O8 0.163013 0.742864 0.027183
O O9 0.871564 0.974772 0.115197
O O10 0.934340 0.783565 0.838507
O O11 0.365382 0.673430 0.754248
O O12 0.207728 0.256873 0.077295
O O13 0.322897 0.225411 0.296734
O O14 0.798296 0.490254 0.456177
O O15 0.726837 0.617557 0.808270
O O16 0.384282 0.799609 0.789369
#
# Coordination Sequence:
#
# PCOD8038054 Si02
#       8
#     2   2   2   2   2   2   2   2
#     4  10  17  33  60  82 111 136 195 234 269 310
#     4   9  17  32  57  84 105 140 192 234 265 312
#     4  12  22  39  57  84 119 147 183 228 293 331
#     4  11  24  38  55  84 122 150 173 235 289 334
#     4  11  19  36  59  84 109 146 194 228 270 332
#     4  11  20  38  62  82 110 147 193 235 267 329
#     4   9  19  33  55  85 108 144 181 239 273 317
#     4  11  21  38  60  85 107 153 193 229 269 331
#
# _framework density 19.531528000000002
#
# number of rings (size 3 to 8) (size 9 to 14) (size 15 to 20)
#    0.750    0.750    5.000    2.250    0.000    0.000 
#    0.000    1.250    0.000    0.000    0.000    0.000 
#    0.000    0.000    0.000    0.000    0.000    0.000 
#
# Total GULP energy -198352.404654 kJ/mol
# GULP energy per Si atom -12397.025291 kJ/mol
# Density = 1.948707 g / cm^3
# Si number density = 19.531528 Si / 1000 Ang^3
#
#
#
# Elastic Constant Matrix: (Units=GPa)
#
#
# Indices 1 2 3 4 5 6 
#
# 1 53.5533 8.2828 22.7535 -4.2388 -8.5867 -4.2879
# 2 8.2828 93.7107 24.2474 -5.4824 -3.6852 -8.5015
# 3 22.7535 24.2474 89.0359 -5.7659 -27.0236 0.8823
# 4 -4.2388 -5.4824 -5.7659 26.1859 -2.3643 0.4901
# 5 -8.5867 -3.6852 -27.0236 -2.3643 27.2764 -4.0750
# 6 -4.2879 -8.5015 0.8823 0.4901 -4.0750 16.5847
#
#
#
# Elastic Compliance Matrix: (Units=1/GPa)
#
#
# Indices 1 2 3 4 5 6 
#
# 1 0.021888 0.000124 -0.004334 0.002837 0.003878 0.006822
# 2 0.000124 0.012208 -0.003540 0.001612 -0.000746 0.006247
# 3 -0.004334 -0.003540 0.018784 0.004239 0.017158 0.000156
# 4 0.002837 0.001612 0.004239 0.040704 0.009197 0.002391
# 5 0.003878 -0.000746 0.017158 0.009197 0.057608 0.013591
# 6 0.006822 0.006247 0.000156 0.002391 0.013591 0.068523
#
#
# Mechanical properties :
#
#
# Convention : Reuss Voigt Hill
#
# Bulk Modulus (GPa) = 26.75269 38.54080 32.64674
# Shear Modulus (GPa) = 20.18772 26.07715 23.13244
#
# Velocity S-wave (km/s) = 3.21845 3.65791 3.44519
# Velocity P-wave (km/s) = 5.24768 6.13318 5.70762
#
# Compressibility (1/GPa) = 0.03737942
#
# Stress axis : x y z
#
# Youngs Moduli (GPa) = 45.68731 81.91379 53.23764
#
# Poissons Ratio (x) = -0.01018 0.23074
# Poissons Ratio (y) = -0.00568 0.18848
# Poissons Ratio (z) = 0.19801 0.29000
#
# Static dielectric constant tensor:
#      x y z
#    x 3.156340 -0.169850 -0.171100 
#    y -0.169850 3.560530 -0.085550 
#    z -0.171100 -0.085550 3.462340 
# 
# 
# High freq. dielectric constant tensor:
#      x y z
#    x 1.718310 -0.013500 -0.019050 
#    y -0.013500 1.763540 -0.007270 
#    z -0.019050 -0.007270 1.759630 
# 
# From -- ./inp_files/406299.got.cif
#   From: 2010.06.25/outbox.cif.g09.slc.cpg/sg2_204_cif.got.tgz:406299.got - 2010.06.27 13:26:56.
