data_PCOD8038807
_publ_section_title
;
Structure prediction by ZEFSAII (Michael W. Deem and Ramdas Pophale) SiO2 
 PCOD8038807
Probable space group: P -1
;
_chemical_formula_sum "Si O2"
_cell_formula_units_Z 16
_cell_length_a 15.118704
_cell_length_b 19.390436
_cell_length_c 24.941069
_cell_angle_alpha 21.244350
_cell_angle_beta 160.927630
_cell_angle_gamma 148.617445
_cell_volume 842.606586
_symmetry_space_group_name_H-M "P -1"
_symmetry_group_IT_number 2
_symmetry_cell_setting 'triclinic'
loop_
_space_group_symop_operation_xyz
x,y,z
-x,-y,-z
loop_
_atom_site_type_symbol
_atom_site_label
_atom_site_fract_x
_atom_site_fract_y
_atom_site_fract_z
Si Si1 0.873011 0.277452 0.482578
Si Si2 0.677326 0.806807 0.769154
Si Si3 0.993888 0.956329 0.161019
Si Si4 0.229356 0.539404 0.244333
Si Si5 0.742062 0.427729 0.881358
Si Si6 0.138553 0.562275 0.480801
Si Si7 0.234958 0.011899 0.801881
Si Si8 0.432892 0.215208 0.674262
O O1 0.538055 0.331362 0.244296
O O2 0.981993 0.145516 0.692756
O O3 0.986982 0.476716 0.406853
O O4 0.978985 0.159675 0.575249
O O5 0.500000 0.000000 0.500000
O O6 0.813425 0.883400 0.844654
O O7 0.923023 0.682810 0.962995
O O8 0.082263 0.798495 0.278336
O O9 0.678273 0.070301 0.887444
O O10 0.327508 0.472364 0.289145
O O11 0.228563 0.347623 0.418423
O O12 0.450252 0.650401 0.314345
O O13 0.471787 0.480434 0.727088
O O14 0.836242 0.196689 0.094045
O O15 0.000000 0.500000 0.000000
O O16 0.000000 0.500000 0.500000
O O17 0.265697 0.087252 0.705040
O O18 0.500000 0.000000 0.000000
#
# Coordination Sequence:
#
# PCOD8038807 Si02
#       8
#     2   2   2   2   2   2   2   2
#     4  10  18  30  56  81 112 146 194 250 280 348
#     4   9  18  31  55  82 112 150 190 243 285 345
#     4   9  17  31  52  81 110 148 189 233 301 346
#     4  10  21  38  59  91 120 154 202 245 305 347
#     4  12  25  36  59  91 123 153 203 258 291 349
#     4  10  20  33  52  85 116 148 192 242 304 341
#     4  12  18  37  60  87 113 150 211 243 290 349
#     4  10  19  37  64  85 118 159 196 251 294 364
#
# _framework density 18.988695
#
# number of rings (size 3 to 8) (size 9 to 14) (size 15 to 20)
#    0.000    1.750    3.750    2.250    7.000    0.000 
#    0.000    1.875    0.000    0.000    0.000    0.000 
#    0.000    0.000    0.000    0.000    0.000    0.000 
#
# Total GULP energy -198298.886199 kJ/mol
# GULP energy per Si atom -12393.680387 kJ/mol
# Density = 1.894548 g / cm^3
# Si number density = 18.988695 Si / 1000 Ang^3
#
#
#
# Elastic Constant Matrix: (Units=GPa)
#
#
# Indices 1 2 3 4 5 6 
#
# 1 83.0338 39.4439 46.1875 1.2033 8.2612 1.3629
# 2 39.4439 133.5684 34.4185 1.9032 15.7424 -6.7309
# 3 46.1875 34.4185 88.7192 2.9624 13.8968 -2.7366
# 4 1.2033 1.9032 2.9624 27.3992 4.1888 11.4146
# 5 8.2612 15.7424 13.8968 4.1888 34.4077 -8.2216
# 6 1.3629 -6.7309 -2.7366 11.4146 -8.2216 22.6218
#
#
#
# Elastic Compliance Matrix: (Units=1/GPa)
#
#
# Indices 1 2 3 4 5 6 
#
# 1 0.018470 -0.003467 -0.008357 0.002431 -0.000893 -0.004707
# 2 -0.003467 0.009250 -0.001337 -0.001103 -0.002106 0.002590
# 3 -0.008357 -0.001337 0.016804 -0.001451 -0.003621 0.001555
# 4 0.002431 -0.001103 -0.001451 0.051870 -0.013378 -0.031685
# 5 -0.000893 -0.002106 -0.003621 -0.013378 0.038004 0.019552
# 6 -0.004707 0.002590 0.001555 -0.031685 0.019552 0.068541
#
#
# Mechanical properties :
#
#
# Convention : Reuss Voigt Hill
#
# Bulk Modulus (GPa) = 54.93810 60.60236 57.77023
# Shear Modulus (GPa) = 21.24700 29.23716 25.24208
#
# Velocity S-wave (km/s) = 3.34867 3.92818 3.64994
# Velocity P-wave (km/s) = 6.62920 7.24971 6.94639
#
# Compressibility (1/GPa) = 0.01820230
#
# Stress axis : x y z
#
# Youngs Moduli (GPa) = 54.14274 108.11193 59.50923
#
# Poissons Ratio (x) = 0.37487 0.49730
# Poissons Ratio (y) = 0.18773 0.07954
# Poissons Ratio (z) = 0.45245 0.14450
#
# Static dielectric constant tensor:
#      x y z
#    x 3.688730 -0.086990 0.520040 
#    y -0.086990 4.128470 -0.133770 
#    z 0.520040 -0.133770 3.684870 
# 
# 
# High freq. dielectric constant tensor:
#      x y z
#    x 1.707290 0.000820 0.032490 
#    y 0.000820 1.743510 -0.002490 
#    z 0.032490 -0.002490 1.722100 
# 
# From -- ./inp_files/619852.got.cif
#   From: 2010.06.25/outbox.cif.g09.slc.cpg/sg2_310_cif.got.tgz:619852.got - 2010.06.27 13:26:56.
