data_PCOD8038509
_publ_section_title
;
Structure prediction by ZEFSAII (Michael W. Deem and Ramdas Pophale) SiO2 
 PCOD8038509
Probable space group: P -1
;
_chemical_formula_sum "Si O2"
_cell_formula_units_Z 16
_cell_length_a 9.177900
_cell_length_b 17.807164
_cell_length_c 8.101517
_cell_angle_alpha 49.443698
_cell_angle_beta 114.102584
_cell_angle_gamma 130.300618
_cell_volume 767.045227
_symmetry_space_group_name_H-M "P -1"
_symmetry_group_IT_number 2
_symmetry_cell_setting 'triclinic'
loop_
_space_group_symop_operation_xyz
x,y,z
-x,-y,-z
loop_
_atom_site_type_symbol
_atom_site_label
_atom_site_fract_x
_atom_site_fract_y
_atom_site_fract_z
Si Si1 0.158822 0.797213 0.771225
Si Si2 0.276893 0.939314 0.958945
Si Si3 0.957141 0.188262 0.653088
Si Si4 0.264335 0.343935 0.245754
Si Si5 0.439415 0.407890 0.896438
Si Si6 0.600317 0.306874 0.895582
Si Si7 0.253049 0.150843 0.735710
Si Si8 0.725799 0.550319 0.508320
O O1 0.172530 0.855083 0.513479
O O2 0.941907 0.693384 0.859322
O O3 0.225885 0.888332 0.823535
O O4 0.281390 0.739860 0.900480
O O5 0.169097 0.842719 0.195588
O O6 0.500000 0.000000 0.000000
O O7 0.211249 0.030409 0.810672
O O8 0.078193 0.126760 0.808523
O O9 0.110084 0.330573 0.489877
O O10 0.358708 0.463178 0.231151
O O11 0.260080 0.234816 0.477496
O O12 0.413341 0.382545 0.111843
O O13 0.465939 0.309606 0.968415
O O14 0.257218 0.405543 0.738089
O O15 0.459080 0.213743 0.827343
O O16 0.746627 0.438938 0.696960
O O17 0.500000 0.500000 0.500000
#
# Coordination Sequence:
#
# PCOD8038509 Si02
#       8
#     2   2   2   2   2   2   2   2
#     4  11  25  43  61  98 129 165 215 272 318 374
#     4  12  27  46  65  90 135 172 216 277 318 365
#     4  11  24  43  70  97 123 170 222 259 322 388
#     4  10  22  38  64  98 130 159 215 269 314 382
#     4  10  19  36  65  97 129 167 207 257 323 393
#     4  11  20  38  66  93 128 171 203 257 329 387
#     4  11  21  44  66  90 122 174 221 255 318 385
#     4  10  17  36  68  95 125 163 202 259 318 388
#
# _framework density 20.859265000000001
#
# number of rings (size 3 to 8) (size 9 to 14) (size 15 to 20)
#    0.000    1.250    5.000    3.375    0.000    5.500 
#    2.250    3.750    0.000    0.000    0.000    0.000 
#    0.000    0.000    0.000    0.000    0.000    0.000 
#
# Total GULP energy -198249.516564 kJ/mol
# GULP energy per Si atom -12390.594785 kJ/mol
# Density = 2.081179 g / cm^3
# Si number density = 20.859265 Si / 1000 Ang^3
#
#
#
# Elastic Constant Matrix: (Units=GPa)
#
#
# Indices 1 2 3 4 5 6 
#
# 1 64.3731 25.2567 37.1251 0.7264 3.2601 6.0345
# 2 25.2567 119.0929 40.1267 20.4052 6.2458 -8.3051
# 3 37.1251 40.1267 90.1158 8.5500 6.3967 0.8442
# 4 0.7264 20.4052 8.5500 33.2673 -1.7496 6.0112
# 5 3.2601 6.2458 6.3967 -1.7496 41.0658 0.1450
# 6 6.0345 -8.3051 0.8442 6.0112 0.1450 31.8179
#
#
#
# Elastic Compliance Matrix: (Units=1/GPa)
#
#
# Indices 1 2 3 4 5 6 
#
# 1 0.021830 -0.003107 -0.007999 0.004505 0.000197 -0.005591
# 2 -0.003107 0.011844 -0.003245 -0.007369 -0.001381 0.005165
# 3 -0.007999 -0.003245 0.016143 -0.002181 -0.001481 0.000660
# 4 0.004505 -0.007369 -0.002181 0.036939 0.002711 -0.009711
# 5 0.000197 -0.001381 -0.001481 0.002711 0.024895 -0.000984
# 6 -0.005591 0.005165 0.000660 -0.009711 -0.000984 0.035659
#
#
# Mechanical properties :
#
#
# Convention : Reuss Voigt Hill
#
# Bulk Modulus (GPa) = 47.35884 53.17764 50.26824
# Shear Modulus (GPa) = 27.31480 32.63510 29.97495
#
# Velocity S-wave (km/s) = 3.62260 3.95971 3.79490
# Velocity P-wave (km/s) = 6.34436 6.81577 6.58428
#
# Compressibility (1/GPa) = 0.02111538
#
# Stress axis : x y z
#
# Youngs Moduli (GPa) = 45.80916 84.42809 61.94568
#
# Poissons Ratio (x) = 0.26228 0.49550
# Poissons Ratio (y) = 0.14231 0.20104
# Poissons Ratio (z) = 0.36643 0.27401
#
# Static dielectric constant tensor:
#      x y z
#    x 3.806750 0.030970 -0.165400 
#    y 0.030970 4.071950 0.280140 
#    z -0.165400 0.280140 4.146190 
# 
# 
# High freq. dielectric constant tensor:
#      x y z
#    x 1.799660 -0.003750 -0.010760 
#    y -0.003750 1.830020 0.013500 
#    z -0.010760 0.013500 1.821640 
# 
# From -- ./inp_files/216825.got.cif
#   From: 2010.06.25/outbox.cif.g09.slc.cpg/sg2_109_cif.got.tgz:216825.got - 2010.06.27 13:26:56.
