data_PCOD8038817
_publ_section_title
;
Structure prediction by ZEFSAII (Michael W. Deem and Ramdas Pophale) SiO2 
 PCOD8038817
Probable space group: P -1
;
_chemical_formula_sum "Si O2"
_cell_formula_units_Z 14
_cell_length_a 13.703810
_cell_length_b 10.203004
_cell_length_c 11.998261
_cell_angle_alpha 98.455924
_cell_angle_beta 45.443833
_cell_angle_gamma 134.426138
_cell_volume 628.985494
_symmetry_space_group_name_H-M "P -1"
_symmetry_group_IT_number 2
_symmetry_cell_setting 'triclinic'
loop_
_space_group_symop_operation_xyz
x,y,z
-x,-y,-z
loop_
_atom_site_type_symbol
_atom_site_label
_atom_site_fract_x
_atom_site_fract_y
_atom_site_fract_z
Si Si1 0.756772 0.960872 0.282186
Si Si2 0.213317 0.455964 0.571528
Si Si3 0.276729 0.914239 0.202948
Si Si4 0.616891 0.673754 0.643194
Si Si5 0.112966 0.855382 0.560247
Si Si6 0.551258 0.401037 0.001881
Si Si7 0.154260 0.274542 0.819219
O O1 0.469887 0.747310 0.434594
O O2 0.851977 0.888010 0.216932
O O3 0.771123 0.060826 0.396609
O O4 0.955403 0.172320 0.055181
O O5 0.292157 0.401267 0.418584
O O6 0.082461 0.288485 0.765097
O O7 0.994563 0.358840 0.667692
O O8 0.262459 0.897814 0.348135
O O9 0.500000 0.000000 0.000000
O O10 0.335746 0.109026 0.127076
O O11 0.449932 0.552755 0.648743
O O12 0.865095 0.972203 0.473453
O O13 0.419406 0.547744 0.883950
O O14 0.819696 0.566354 0.759702
O O15 0.500000 0.500000 0.000000
#
# Coordination Sequence:
#
# PCOD8038817 Si02
#       7
#     2   2   2   2   2   2   2
#     4  10  19  32  60  94 127 161 195 259 319 373
#     4  11  20  36  60  87 127 164 206 249 312 377
#     4  11  28  46  61  85 128 177 214 255 308 371
#     4  10  18  33  58  98 129 156 194 257 320 371
#     4  11  20  39  62  89 125 163 208 258 316 361
#     4  11  23  37  66  96 125 159 210 258 312 374
#     4  10  18  30  56  94 134 155 191 248 329 376
#
# _framework density 22.258063
#
# number of rings (size 3 to 8) (size 9 to 14) (size 15 to 20)
#    0.000    1.429    4.286    2.571    0.000    4.000 
#    0.000    0.714    0.000    1.714    0.000    0.000 
#    0.000    0.000    0.000    0.000    0.000    0.000 
#
# Total GULP energy -173470.681394 kJ/mol
# GULP energy per Si atom -12390.762957 kJ/mol
# Density = 2.220740 g / cm^3
# Si number density = 22.258063 Si / 1000 Ang^3
#
#
#
# Elastic Constant Matrix: (Units=GPa)
#
#
# Indices 1 2 3 4 5 6 
#
# 1 47.9447 22.1110 34.2050 7.7936 -5.0136 18.7979
# 2 22.1110 60.2351 41.3299 -2.2920 -1.6266 27.7186
# 3 34.2050 41.3299 149.0779 6.6219 5.0063 21.2562
# 4 7.7936 -2.2920 6.6219 39.2272 5.1280 3.5637
# 5 -5.0136 -1.6266 5.0063 5.1280 36.4438 -7.2078
# 6 18.7979 27.7186 21.2562 3.5637 -7.2078 27.4007
#
#
#
# Elastic Compliance Matrix: (Units=1/GPa)
#
#
# Indices 1 2 3 4 5 6 
#
# 1 0.031926 -0.001542 -0.004563 -0.004580 0.002520 -0.015545
# 2 -0.001542 0.036610 -0.004997 0.007176 -0.005733 -0.034542
# 3 -0.004563 -0.004997 0.009135 -0.000749 -0.001861 0.000706
# 4 -0.004580 0.007176 -0.000749 0.028529 -0.005965 -0.008816
# 5 0.002520 -0.005733 -0.001861 -0.005965 0.031509 0.014578
# 6 -0.015545 -0.034542 0.000706 -0.008816 0.014578 0.086536
#
#
# Mechanical properties :
#
#
# Convention : Reuss Voigt Hill
#
# Bulk Modulus (GPa) = 18.02816 50.28329 34.15572
# Shear Modulus (GPa) = 18.87244 31.25511 25.06377
#
# Velocity S-wave (km/s) = 2.91502 3.75135 3.35931
# Velocity P-wave (km/s) = 4.40987 6.43456 5.51591
#
# Compressibility (1/GPa) = 0.05546878
#
# Stress axis : x y z
#
# Youngs Moduli (GPa) = 31.32215 27.31521 109.46774
#
# Poissons Ratio (x) = 0.04211 0.49945
# Poissons Ratio (y) = 0.04829 0.54700
# Poissons Ratio (z) = 0.14291 0.13649
#
# Static dielectric constant tensor:
#      x y z
#    x 3.544670 0.258740 0.414910 
#    y 0.258740 3.985570 -0.064770 
#    z 0.414910 -0.064770 4.185420 
# 
# 
# High freq. dielectric constant tensor:
#      x y z
#    x 1.827440 0.030850 0.035470 
#    y 0.030850 1.865370 -0.009270 
#    z 0.035470 -0.009270 1.892330 
# 
# From -- ./inp_files/262856.got.cif
#   From: 2010.06.25/outbox.cif.g09.slc.cpg/sg2_132_cif.got.tgz:262856.got - 2010.06.27 13:26:56.
