data_PCOD8038894
_publ_section_title
;
Structure prediction by ZEFSAII (Michael W. Deem and Ramdas Pophale) SiO2 
 PCOD8038894
Probable space group: P -1
;
_chemical_formula_sum "Si O2"
_cell_formula_units_Z 16
_cell_length_a 10.063339
_cell_length_b 10.922153
_cell_length_c 14.907961
_cell_angle_alpha 133.927135
_cell_angle_beta 85.919029
_cell_angle_gamma 64.986827
_cell_volume 887.142695
_symmetry_space_group_name_H-M "P -1"
_symmetry_group_IT_number 2
_symmetry_cell_setting 'triclinic'
loop_
_space_group_symop_operation_xyz
x,y,z
-x,-y,-z
loop_
_atom_site_type_symbol
_atom_site_label
_atom_site_fract_x
_atom_site_fract_y
_atom_site_fract_z
Si Si1 0.374530 0.998050 0.615132
Si Si2 0.922109 0.596136 0.812437
Si Si3 0.966865 0.863041 0.373240
Si Si4 0.333637 0.167048 0.889787
Si Si5 0.739656 0.390494 0.900153
Si Si6 0.596851 0.375240 0.075299
Si Si7 0.313279 0.373931 0.696561
Si Si8 0.627228 0.968568 0.904451
O O1 0.326513 0.036788 0.743013
O O2 0.361185 0.202416 0.685621
O O3 0.239619 0.991440 0.563129
O O4 0.572726 0.764309 0.468551
O O5 0.951250 0.369518 0.698691
O O6 0.819462 0.725554 0.790391
O O7 0.105609 0.542736 0.771534
O O8 0.809343 0.754504 0.985389
O O9 0.063150 0.805917 0.244353
O O10 0.000000 0.000000 0.500000
O O11 0.537425 0.994835 0.827281
O O12 0.291637 0.386306 0.961538
O O13 0.606227 0.442990 0.854607
O O14 0.720967 0.295103 0.941755
O O15 0.634486 0.482350 0.202927
O O16 0.640742 0.159954 0.009963
O O17 0.500000 0.000000 0.000000
#
# Coordination Sequence:
#
# PCOD8038894 Si02
#       8
#     2   2   2   2   2   2   2   2
#     4  10  20  32  52  81 109 139 169 218 275 301
#     4   9  20  35  56  78 104 143 177 211 261 315
#     4  10  20  34  55  78 107 139 173 218 264 318
#     4   9  17  34  57  77 105 137 179 219 252 314
#     4   9  18  30  52  83 103 132 179 217 266 299
#     4  10  18  31  53  79 107 136 170 227 256 307
#     4  10  20  32  51  80 113 134 170 219 269 313
#     4   9  19  36  55  77 101 142 183 211 258 312
#
# _framework density 18.035429000000001
#
# number of rings (size 3 to 8) (size 9 to 14) (size 15 to 20)
#    0.000    2.500    1.250    1.500    1.750    2.000 
#    0.000    0.625    0.000    3.750    0.000    0.000 
#    0.000    0.000    0.000    0.000    0.000    0.000 
#
# Total GULP energy -198345.036214 kJ/mol
# GULP energy per Si atom -12396.564763 kJ/mol
# Density = 1.799438 g / cm^3
# Si number density = 18.035429 Si / 1000 Ang^3
#
#
#
# Elastic Constant Matrix: (Units=GPa)
#
#
# Indices 1 2 3 4 5 6 
#
# 1 102.6972 36.9200 54.5398 5.7910 0.4040 -6.1759
# 2 36.9200 73.2591 46.4751 7.0209 0.0108 -2.5539
# 3 54.5398 46.4751 95.6990 -6.7265 2.1505 -16.2533
# 4 5.7910 7.0209 -6.7265 16.4164 -4.0008 -1.8493
# 5 0.4040 0.0108 2.1505 -4.0008 35.4429 0.9110
# 6 -6.1759 -2.5539 -16.2533 -1.8493 0.9110 29.8926
#
#
#
# Elastic Compliance Matrix: (Units=1/GPa)
#
#
# Indices 1 2 3 4 5 6 
#
# 1 0.015467 -0.001042 -0.009381 -0.009285 -0.000589 -0.002551
# 2 -0.001042 0.023872 -0.013190 -0.016168 -0.000858 -0.006322
# 3 -0.009381 -0.013190 0.025739 0.021021 0.000608 0.012212
# 4 -0.009285 -0.016168 0.021021 0.083106 0.007881 0.013031
# 5 -0.000589 -0.000858 0.000608 0.007881 0.029081 -0.000263
# 6 -0.002551 -0.006322 0.012212 0.013031 -0.000263 0.039840
#
#
# Mechanical properties :
#
#
# Convention : Reuss Voigt Hill
#
# Bulk Modulus (GPa) = 56.01794 60.83611 58.42703
# Shear Modulus (GPa) = 18.49919 25.26508 21.88213
#
# Velocity S-wave (km/s) = 3.20615 3.74686 3.48700
# Velocity P-wave (km/s) = 6.69576 7.24730 6.97698
#
# Compressibility (1/GPa) = 0.01785142
#
# Stress axis : x y z
#
# Youngs Moduli (GPa) = 64.65571 41.88939 38.85139
#
# Poissons Ratio (x) = 0.04367 0.36446
# Poissons Ratio (y) = 0.06740 0.51245
# Poissons Ratio (z) = 0.60653 0.55252
#
# Static dielectric constant tensor:
#      x y z
#    x 3.528620 -0.160640 -0.135360 
#    y -0.160640 3.455400 0.086510 
#    z -0.135360 0.086510 3.145530 
# 
# 
# High freq. dielectric constant tensor:
#      x y z
#    x 1.711500 -0.005450 -0.004620 
#    y -0.005450 1.673040 -0.002460 
#    z -0.004620 -0.002460 1.679220 
# 
# From -- ./inp_files/263206.got.cif
#   From: 2010.06.25/outbox.cif.g09.slc.cpg/sg2_132_cif.got.tgz:263206.got - 2010.06.27 13:26:56.
