data_PCOD8038109
_publ_section_title
;
Structure prediction by ZEFSAII (Michael W. Deem and Ramdas Pophale) SiO2 
 PCOD8038109
Probable space group: P -1
;
_chemical_formula_sum "Si O2"
_cell_formula_units_Z 16
_cell_length_a 9.000000
_cell_length_b 9.000000
_cell_length_c 27.000000
_cell_angle_alpha 150.000000
_cell_angle_beta 50.000000
_cell_angle_gamma 130.000000
_cell_volume 816.222412
_symmetry_space_group_name_H-M "P -1"
_symmetry_group_IT_number 2
_symmetry_cell_setting 'triclinic'
loop_
_space_group_symop_operation_xyz
x,y,z
-x,-y,-z
loop_
_atom_site_type_symbol
_atom_site_label
_atom_site_fract_x
_atom_site_fract_y
_atom_site_fract_z
Si Si1 0.123951 0.389363 0.719766
Si Si2 0.173508 0.563292 0.279531
Si Si3 0.066314 0.356032 0.832689
Si Si4 0.162647 0.168715 0.416222
Si Si5 0.527502 0.220298 0.103914
Si Si6 0.033378 0.350631 0.352304
Si Si7 0.387676 0.769516 0.094538
Si Si8 0.423626 0.308123 0.309929
O O1 0.096706 0.497078 0.812102
O O2 0.357700 0.470879 0.678436
O O3 0.986824 0.563424 0.766380
O O4 0.030449 0.022162 0.628445
O O5 0.371182 0.435524 0.195954
O O6 0.048839 0.458871 0.324494
O O7 0.228132 0.935567 0.374173
O O8 0.249473 0.562508 0.883785
O O9 0.848598 0.371432 0.905671
O O10 0.079123 0.003643 0.725352
O O11 0.105598 0.461957 0.536364
O O12 0.355259 0.294198 0.377269
O O13 0.485505 0.006077 0.099276
O O14 0.500000 0.000000 0.000000
O O15 0.258298 0.425460 0.346964
O O16 0.419416 0.961656 0.194055
O O17 0.500000 0.500000 0.000000
#
# Coordination Sequence:
#
# PCOD8038109 Si02
#       8
#     2   2   2   2   2   2   2   2
#     4  10  22  39  67  91 130 174 208 260 322 369
#     4  10  22  44  61  95 137 167 213 270 315 380
#     4  11  23  46  66  95 129 171 213 268 318 383
#     4  10  23  39  66  95 134 173 214 264 315 379
#     4  12  27  45  67  95 129 170 212 271 329 380
#     4  11  20  43  67  93 136 169 217 264 320 377
#     4  11  24  43  69  95 127 168 216 268 322 382
#     4  11  21  42  64  96 128 169 223 260 315 386
#
# _framework density 19.602499999999999
#
# number of rings (size 3 to 8) (size 9 to 14) (size 15 to 20)
#    0.750    0.500    6.250    0.750    3.500    3.500 
#    2.250    1.250    0.000    0.000    0.000    0.000 
#    0.000    0.000    0.000    0.000    0.000    0.000 
#
# Total GULP energy -198297.931006 kJ/mol
# GULP energy per Si atom -12393.620688 kJ/mol
# Density = 1.955788 g / cm^3
# Si number density = 19.602500 Si / 1000 Ang^3
#
#
#
# Elastic Constant Matrix: (Units=GPa)
#
#
# Indices 1 2 3 4 5 6 
#
# 1 92.0451 48.5087 43.7763 8.5859 -9.5986 10.8666
# 2 48.5087 126.2487 34.1639 -2.2227 -5.7869 21.3726
# 3 43.7763 34.1639 134.8285 1.4158 -22.6079 4.8756
# 4 8.5859 -2.2227 1.4158 28.7384 -2.0471 -0.7454
# 5 -9.5986 -5.7869 -22.6079 -2.0471 34.0257 2.9299
# 6 10.8666 21.3726 4.8756 -0.7454 2.9299 49.0515
#
#
#
# Elastic Compliance Matrix: (Units=1/GPa)
#
#
# Indices 1 2 3 4 5 6 
#
# 1 0.015920 -0.004979 -0.003643 -0.004918 0.001025 -0.001131
# 2 -0.004979 0.010730 -0.000965 0.002291 0.000214 -0.003454
# 3 -0.003643 -0.000965 0.009730 0.000913 0.005332 -0.000044
# 4 -0.004918 0.002291 0.000913 0.036536 0.001768 0.000450
# 5 0.001025 0.000214 0.005332 0.001768 0.033608 -0.002831
# 6 -0.001131 -0.003454 -0.000044 0.000450 -0.002831 0.022323
#
#
# Mechanical properties :
#
#
# Convention : Reuss Voigt Hill
#
# Bulk Modulus (GPa) = 58.12099 67.33557 62.72828
# Shear Modulus (GPa) = 32.51866 37.47468 34.99667
#
# Velocity S-wave (km/s) = 4.07738 4.37708 4.22988
# Velocity P-wave (km/s) = 7.20284 7.74404 7.47834
#
# Compressibility (1/GPa) = 0.01720549
#
# Stress axis : x y z
#
# Youngs Moduli (GPa) = 62.81349 93.19425 102.77174
#
# Poissons Ratio (x) = 0.46405 0.37438
# Poissons Ratio (y) = 0.31277 0.09922
# Poissons Ratio (z) = 0.22882 0.08998
#
# Static dielectric constant tensor:
#      x y z
#    x 3.619270 0.034840 -0.069100 
#    y 0.034840 3.780510 -0.058620 
#    z -0.069100 -0.058620 3.558560 
# 
# 
# High freq. dielectric constant tensor:
#      x y z
#    x 1.761910 0.003160 -0.009530 
#    y 0.003160 1.784490 -0.005280 
#    z -0.009530 -0.005280 1.757570 
# 
# From -- ./inp_files/616748.got.cif
#   From: 2010.06.25/outbox.ucp.g09.slc.cvg/sg2_309_cif.got.tgz:616748.got - 2010.06.28 11:54:26.
