data_PCOD8038144
_publ_section_title
;
Structure prediction by ZEFSAII (Michael W. Deem and Ramdas Pophale) SiO2 
 PCOD8038144
Probable space group: P -1
;
_chemical_formula_sum "Si O2"
_cell_formula_units_Z 16
_cell_length_a 13.867517
_cell_length_b 13.638605
_cell_length_c 14.020107
_cell_angle_alpha 149.551040
_cell_angle_beta 41.864897
_cell_angle_gamma 123.408612
_cell_volume 863.441391
_symmetry_space_group_name_H-M "P -1"
_symmetry_group_IT_number 2
_symmetry_cell_setting 'triclinic'
loop_
_space_group_symop_operation_xyz
x,y,z
-x,-y,-z
loop_
_atom_site_type_symbol
_atom_site_label
_atom_site_fract_x
_atom_site_fract_y
_atom_site_fract_z
Si Si1 0.758021 0.666202 0.851653
Si Si2 0.163730 0.203548 0.292039
Si Si3 0.581446 0.697294 0.725706
Si Si4 0.456050 0.590924 0.005190
Si Si5 0.167542 0.965162 0.809832
Si Si6 0.557057 0.319495 0.537228
Si Si7 0.162422 0.750395 0.446695
Si Si8 0.459890 0.916983 0.817630
O O1 0.853838 0.674518 0.693157
O O2 0.583469 0.701979 0.975432
O O3 0.817605 0.456403 0.684450
O O4 0.770896 0.840393 0.060569
O O5 0.240079 0.315347 0.409090
O O6 0.000244 0.192161 0.436330
O O7 0.275827 0.979107 0.005300
O O8 0.555420 0.491410 0.606083
O O9 0.525447 0.736549 0.691749
O O10 0.490019 0.884341 0.019003
O O11 0.452883 0.414756 0.783824
O O12 0.500000 0.500000 0.000000
O O13 0.287652 0.736888 0.260699
O O14 0.275393 0.776801 0.627904
O O15 0.172393 0.922739 0.658029
O O16 0.000000 0.000000 0.000000
O O17 0.492399 0.159122 0.389906
#
# Coordination Sequence:
#
# PCOD8038144 Si02
#       8
#     2   2   2   2   2   2   2   2
#     4  11  20  34  53  76 107 151 175 208 267 315
#     4  10  17  34  56  77 106 136 166 229 271 301
#     4   9  19  34  55  83 101 135 174 232 272 304
#     4  10  21  37  51  75 111 154 174 209 256 326
#     4  12  22  30  54  83 106 138 181 219 258 318
#     4  12  19  34  54  75 111 142 176 211 269 314
#     4  11  22  36  49  79 116 138 180 214 264 320
#     4   9  19  33  54  86 100 128 185 229 265 310
#
# _framework density 18.5305
#
# number of rings (size 3 to 8) (size 9 to 14) (size 15 to 20)
#    0.750    0.750    6.250    0.750    1.750    0.500 
#    0.000    0.000    0.000    1.500    0.000    0.000 
#    0.000    0.000    0.000    0.000    0.000    0.000 
#
# Total GULP energy -198220.446547 kJ/mol
# GULP energy per Si atom -12388.777909 kJ/mol
# Density = 1.848832 g / cm^3
# Si number density = 18.530500 Si / 1000 Ang^3
#
#
#
# Elastic Constant Matrix: (Units=GPa)
#
#
# Indices 1 2 3 4 5 6 
#
# 1 73.3869 8.1984 34.2679 -8.9200 9.3998 2.5311
# 2 8.1984 22.6127 10.9879 -2.6567 -0.6161 13.9988
# 3 34.2679 10.9879 92.9675 -18.2777 15.5251 16.3818
# 4 -8.9200 -2.6567 -18.2777 29.1510 0.1786 -4.3970
# 5 9.3998 -0.6161 15.5251 0.1786 31.7582 2.4702
# 6 2.5311 13.9988 16.3818 -4.3970 2.4702 22.3177
#
#
#
# Elastic Compliance Matrix: (Units=1/GPa)
#
#
# Indices 1 2 3 4 5 6 
#
# 1 0.017824 -0.008710 -0.006129 0.002151 -0.003138 0.008712
# 2 -0.008710 0.077586 0.001086 -0.002469 0.007439 -0.049784
# 3 -0.006129 0.001086 0.017161 0.007439 -0.005781 -0.010477
# 4 0.002151 -0.002469 0.007439 0.040077 -0.004879 0.004280
# 5 -0.003138 0.007439 -0.005781 -0.004879 0.035803 -0.004990
# 6 0.008712 -0.049784 -0.010477 0.004280 -0.004990 0.084133
#
#
# Mechanical properties :
#
#
# Convention : Reuss Voigt Hill
#
# Bulk Modulus (GPa) = 11.75577 32.87505 22.31541
# Shear Modulus (GPa) = 15.22325 25.67957 20.45141
#
# Velocity S-wave (km/s) = 2.86933 3.72667 3.32575
# Velocity P-wave (km/s) = 4.16356 6.02470 5.17843
#
# Compressibility (1/GPa) = 0.08506465
#
# Stress axis : x y z
#
# Youngs Moduli (GPa) = 56.10360 12.88898 58.27066
#
# Poissons Ratio (x) = 0.11226 0.35712
# Poissons Ratio (y) = 0.48867 -0.06326
# Poissons Ratio (z) = 0.34384 -0.01399
#
# Static dielectric constant tensor:
#      x y z
#    x 3.512460 0.203960 -0.015810 
#    y 0.203960 3.313220 -0.078460 
#    z -0.015810 -0.078460 3.638080 
# 
# 
# High freq. dielectric constant tensor:
#      x y z
#    x 1.718850 0.005280 0.007660 
#    y 0.005280 1.676150 0.017800 
#    z 0.007660 0.017800 1.715610 
# 
# From -- ./inp_files/533464.got.cif
#   From: 2010.06.25/outbox.cif.g09.slc.cpg/sg2_267_cif.got.tgz:533464.got - 2010.06.27 13:26:56.
