data_PCOD8038421
_publ_section_title
;
Structure prediction by ZEFSAII (Michael W. Deem and Ramdas Pophale) SiO2 
 PCOD8038421
Probable space group: P -1
;
_chemical_formula_sum "Si O2"
_cell_formula_units_Z 16
_cell_length_a 16.692395
_cell_length_b 17.126571
_cell_length_c 8.109867
_cell_angle_alpha 59.025126
_cell_angle_beta 55.638545
_cell_angle_gamma 23.273448
_cell_volume 756.162952
_symmetry_space_group_name_H-M "P -1"
_symmetry_group_IT_number 2
_symmetry_cell_setting 'triclinic'
loop_
_space_group_symop_operation_xyz
x,y,z
-x,-y,-z
loop_
_atom_site_type_symbol
_atom_site_label
_atom_site_fract_x
_atom_site_fract_y
_atom_site_fract_z
Si Si1 0.762777 0.931884 0.599550
Si Si2 0.272375 0.914972 0.014594
Si Si3 0.880266 0.782752 0.984701
Si Si4 0.105242 0.859316 0.884011
Si Si5 0.522572 0.961652 0.706866
Si Si6 0.166164 0.625198 0.251806
Si Si7 0.578930 0.255503 0.339562
Si Si8 0.296079 0.388770 0.084219
O O1 0.858015 0.845528 0.763859
O O2 0.655674 0.927222 0.680375
O O3 0.940676 0.812258 0.394168
O O4 0.594021 0.155086 0.550740
O O5 0.333573 0.846580 0.829433
O O6 0.486832 0.734146 0.072327
O O7 0.166168 0.103268 0.944661
O O8 0.082445 0.002088 0.185263
O O9 0.119831 0.546912 0.975996
O O10 0.707807 0.847233 0.146559
O O11 0.293838 0.765946 0.700502
O O12 0.194703 0.688087 0.029830
O O13 0.000000 0.000000 0.000000
O O14 0.645619 0.765019 0.802419
O O15 0.500000 0.000000 0.500000
O O16 0.338538 0.487408 0.347498
O O17 0.198772 0.504396 0.243997
#
# Coordination Sequence:
#
# PCOD8038421 Si02
#       8
#     2   2   2   2   2   2   2   2
#     4  12  24  39  57  89 129 157 192 241 299 358
#     4   9  18  37  61  86 115 152 202 248 285 342
#     4  11  23  40  59  85 125 161 192 238 299 360
#     4  10  17  35  65  90 118 149 202 256 297 333
#     4  11  24  41  65  89 115 152 204 248 292 347
#     4  11  20  36  63  89 120 152 203 247 295 350
#     4  10  21  37  63  91 117 158 199 255 292 339
#     4  10  21  38  63  87 113 158 199 246 293 344
#
# _framework density 21.159462000000001
#
# number of rings (size 3 to 8) (size 9 to 14) (size 15 to 20)
#    0.000    1.500    3.750    3.750    0.000    5.500 
#    0.000    0.625    0.000    1.500    0.000    0.000 
#    0.000    0.000    0.000    0.000    0.000    0.000 
#
# Total GULP energy -198272.338814 kJ/mol
# GULP energy per Si atom -12392.021176 kJ/mol
# Density = 2.111130 g / cm^3
# Si number density = 21.159462 Si / 1000 Ang^3
#
#
#
# Elastic Constant Matrix: (Units=GPa)
#
#
# Indices 1 2 3 4 5 6 
#
# 1 94.2137 47.4474 36.9504 -10.0661 -25.8127 -17.2130
# 2 47.4474 122.9243 25.8761 -23.9255 -10.0170 -26.5655
# 3 36.9504 25.8761 58.8058 -19.4993 -6.5372 -7.5549
# 4 -10.0661 -23.9255 -19.4993 27.1781 -3.6918 3.0902
# 5 -25.8127 -10.0170 -6.5372 -3.6918 26.6199 -4.4176
# 6 -17.2130 -26.5655 -7.5549 3.0902 -4.4176 29.2193
#
#
#
# Elastic Compliance Matrix: (Units=1/GPa)
#
#
# Indices 1 2 3 4 5 6 
#
# 1 0.024313 -0.002411 -0.009459 0.001712 0.022731 0.012940
# 2 -0.002411 0.014262 0.001686 0.012505 0.007124 0.011737
# 3 -0.009459 0.001686 0.028735 0.018598 0.001369 0.001630
# 4 0.001712 0.012505 0.018598 0.063195 0.021992 0.013828
# 5 0.022731 0.007124 0.001369 0.021992 0.070410 0.028541
# 6 0.012940 0.011737 0.001630 0.013828 0.028541 0.055792
#
#
# Mechanical properties :
#
#
# Convention : Reuss Voigt Hill
#
# Bulk Modulus (GPa) = 21.30328 55.16575 38.23452
# Shear Modulus (GPa) = 17.08095 27.64812 22.36453
#
# Velocity S-wave (km/s) = 2.84429 3.61869 3.25461
# Velocity P-wave (km/s) = 4.56908 6.60212 5.67734
#
# Compressibility (1/GPa) = 0.04694113
#
# Stress axis : x y z
#
# Youngs Moduli (GPa) = 41.12987 70.11722 34.80052
#
# Poissons Ratio (x) = 0.16908 0.32918
# Poissons Ratio (y) = 0.09918 -0.05867
# Poissons Ratio (z) = 0.38905 -0.11820
#
# Static dielectric constant tensor:
#      x y z
#    x 4.817990 -0.355720 -0.576770 
#    y -0.355720 4.235490 -0.005470 
#    z -0.576770 -0.005470 3.610800 
# 
# 
# High freq. dielectric constant tensor:
#      x y z
#    x 1.842220 -0.018240 -0.016210 
#    y -0.018240 1.842590 -0.008410 
#    z -0.016210 -0.008410 1.784250 
# 
# From -- ./inp_files/336698.got.cif
#   From: 2010.06.25/outbox.cif.g09.slc.cpg/sg2_169_cif.got.tgz:336698.got - 2010.06.27 13:26:56.
