data_PCOD8038668
_publ_section_title
;
Structure prediction by ZEFSAII (Michael W. Deem and Ramdas Pophale) SiO2 
 PCOD8038668
Probable space group: P -1
;
_chemical_formula_sum "Si O2"
_cell_formula_units_Z 14
_cell_length_a 12.843448
_cell_length_b 13.541563
_cell_length_c 14.155935
_cell_angle_alpha 158.618075
_cell_angle_beta 64.254116
_cell_angle_gamma 117.727909
_cell_volume 794.525880
_symmetry_space_group_name_H-M "P -1"
_symmetry_group_IT_number 2
_symmetry_cell_setting 'triclinic'
loop_
_space_group_symop_operation_xyz
x,y,z
-x,-y,-z
loop_
_atom_site_type_symbol
_atom_site_label
_atom_site_fract_x
_atom_site_fract_y
_atom_site_fract_z
Si Si1 0.941210 0.702750 0.005501
Si Si2 0.906831 0.216527 0.167116
Si Si3 0.857984 0.630698 0.682141
Si Si4 0.071499 0.899139 0.465756
Si Si5 0.279073 0.530002 0.228869
Si Si6 0.521776 0.454400 0.058637
Si Si7 0.663479 0.038727 0.567879
O O1 0.965324 0.429306 0.803970
O O2 0.807846 0.660491 0.979904
O O3 0.037774 0.765564 0.942051
O O4 0.956338 0.958058 0.298371
O O5 0.837345 0.463479 0.441850
O O6 0.003987 0.258937 0.250578
O O7 0.814987 0.924456 0.950834
O O8 0.793909 0.434817 0.616447
O O9 0.208826 0.972731 0.451180
O O10 0.000000 0.000000 0.500000
O O11 0.388784 0.389967 0.095253
O O12 0.325554 0.823327 0.419160
O O13 0.594988 0.728614 0.319074
O O14 0.500000 0.500000 0.000000
O O15 0.594568 0.206732 0.818051
#
# Coordination Sequence:
#
# PCOD8038668 Si02
#       7
#     2   2   2   2   2   2   2
#     4  10  20  32  48  67  95 124 151 184 230 273
#     4   9  17  29  41  62  91 122 148 181 218 258
#     4   9  17  26  42  63  91 122 153 177 207 261
#     4  11  21  34  50  68  89 117 156 196 230 267
#     4   9  18  29  46  69  96 129 154 176 216 268
#     4  10  18  29  44  64  93 125 154 177 214 270
#     4  10  20  31  44  64  93 124 152 185 223 265
#
# _framework density 17.620571000000002
#
# number of rings (size 3 to 8) (size 9 to 14) (size 15 to 20)
#    0.000    2.286    0.000    5.571    0.000   11.429 
#    0.000    0.000    0.000    0.000    0.000    0.000 
#    0.000   22.857    0.000    0.000    0.000    0.000 
#
# Total GULP energy -173454.428701 kJ/mol
# GULP energy per Si atom -12389.602050 kJ/mol
# Density = 1.758047 g / cm^3
# Si number density = 17.620571 Si / 1000 Ang^3
#
#
#
# Elastic Constant Matrix: (Units=GPa)
#
#
# Indices 1 2 3 4 5 6 
#
# 1 78.2152 24.4556 28.7190 -5.9283 -13.8406 0.9065
# 2 24.4556 51.3343 22.3572 -3.0627 -3.8719 5.0857
# 3 28.7190 22.3572 127.2404 -3.4676 -8.4830 5.3037
# 4 -5.9283 -3.0627 -3.4676 27.4482 0.3737 -1.2938
# 5 -13.8406 -3.8719 -8.4830 0.3737 17.1313 -2.1191
# 6 0.9065 5.0857 5.3037 -1.2938 -2.1191 9.8891
#
#
#
# Elastic Compliance Matrix: (Units=1/GPa)
#
#
# Indices 1 2 3 4 5 6 
#
# 1 0.018259 -0.007236 -0.002182 0.002986 0.012755 0.006342
# 2 -0.007236 0.024935 -0.002451 0.000411 -0.002844 -0.011401
# 3 -0.002182 -0.002451 0.009031 0.000232 0.001782 -0.002971
# 4 0.002986 0.000411 0.000232 0.037345 0.002398 0.004791
# 5 0.012755 -0.002844 0.001782 0.002398 0.070696 0.014800
# 6 0.006342 -0.011401 -0.002971 0.004791 0.014800 0.111795
#
#
# Mechanical properties :
#
#
# Convention : Reuss Voigt Hill
#
# Bulk Modulus (GPa) = 35.10554 45.31705 40.21130
# Shear Modulus (GPa) = 16.37759 22.97760 19.67759
#
# Velocity S-wave (km/s) = 3.05201 3.61504 3.34539
# Velocity P-wave (km/s) = 5.69087 6.57258 6.14755
#
# Compressibility (1/GPa) = 0.02848553
#
# Stress axis : x y z
#
# Youngs Moduli (GPa) = 54.76765 40.10505 110.72524
#
# Poissons Ratio (x) = 0.29021 0.24164
# Poissons Ratio (y) = 0.39631 0.27140
# Poissons Ratio (z) = 0.11952 0.09830
#
# Static dielectric constant tensor:
#      x y z
#    x 2.723620 0.098810 -0.120060 
#    y 0.098810 2.955650 0.049080 
#    z -0.120060 0.049080 3.824020 
# 
# 
# High freq. dielectric constant tensor:
#      x y z
#    x 1.622730 0.026920 -0.008070 
#    y 0.026920 1.658440 -0.000110 
#    z -0.008070 -0.000110 1.706290 
# 
# From -- ./inp_files/453994.got.cif
#   From: 2010.06.25/outbox.cif.g09.slc.cpg/sg2_227_cif.got.tgz:453994.got - 2010.06.27 13:26:56.
