data_PCOD8038761
_publ_section_title
;
Structure prediction by ZEFSAII (Michael W. Deem and Ramdas Pophale) SiO2 
 PCOD8038761
Probable space group: P -1
;
_chemical_formula_sum "Si O2"
_cell_formula_units_Z 16
_cell_length_a 13.332334
_cell_length_b 12.029473
_cell_length_c 8.346919
_cell_angle_alpha 117.399563
_cell_angle_beta 128.777719
_cell_angle_gamma 86.773315
_cell_volume 872.970968
_symmetry_space_group_name_H-M "P -1"
_symmetry_group_IT_number 2
_symmetry_cell_setting 'triclinic'
loop_
_space_group_symop_operation_xyz
x,y,z
-x,-y,-z
loop_
_atom_site_type_symbol
_atom_site_label
_atom_site_fract_x
_atom_site_fract_y
_atom_site_fract_z
Si Si1 0.387574 0.834486 0.195734
Si Si2 0.467901 0.107269 0.311406
Si Si3 0.056362 0.324473 0.390454
Si Si4 0.095972 0.092956 0.439368
Si Si5 0.203790 0.024232 0.820521
Si Si6 0.731094 0.205447 0.440128
Si Si7 0.808411 0.380933 0.347057
Si Si8 0.144721 0.853865 0.166622
O O1 0.487594 0.814890 0.422762
O O2 0.269771 0.880470 0.188631
O O3 0.465681 0.955106 0.234692
O O4 0.323156 0.697533 0.944649
O O5 0.577304 0.172154 0.325838
O O6 0.323424 0.118486 0.116318
O O7 0.136797 0.241924 0.511318
O O8 0.167355 0.463547 0.542987
O O9 0.941412 0.347487 0.403734
O O10 0.993280 0.242910 0.113530
O O11 0.173634 0.104457 0.693521
O O12 0.137144 0.997944 0.294760
O O13 0.932355 0.036135 0.252999
O O14 0.259882 0.908273 0.746126
O O15 0.776899 0.342107 0.476075
O O16 0.834375 0.220551 0.701054
#
# Coordination Sequence:
#
# PCOD8038761 Si02
#       8
#     2   2   2   2   2   2   2   2
#     4   9  18  32  50  83 101 125 165 213 256 293
#     4  10  18  30  53  76 104 128 165 212 261 284
#     4  10  19  33  50  74 104 141 160 200 257 300
#     4  10  19  32  53  76 105 129 167 209 243 302
#     4  10  18  30  51  81 101 127 164 215 252 291
#     4  10  18  31  51  80 102 127 165 214 251 294
#     4  10  19  32  52  73 107 131 166 206 250 306
#     4   9  19  32  52  79 103 126 166 209 252 294
#
# _framework density 18.328216000000001
#
# number of rings (size 3 to 8) (size 9 to 14) (size 15 to 20)
#    0.000    2.250    2.500    1.500    0.000    0.500 
#    0.000    0.000    0.000    1.500    0.000    0.000 
#    0.000    0.000    0.000    0.000    0.000    0.000 
#
# Total GULP energy -198388.989287 kJ/mol
# GULP energy per Si atom -12399.311830 kJ/mol
# Density = 1.828650 g / cm^3
# Si number density = 18.328216 Si / 1000 Ang^3
#
#
#
# Elastic Constant Matrix: (Units=GPa)
#
#
# Indices 1 2 3 4 5 6 
#
# 1 52.5619 35.8185 9.6009 -3.8828 -0.2955 18.4792
# 2 35.8185 131.4833 54.3634 3.9941 3.1605 21.6212
# 3 9.6009 54.3634 89.6305 -9.3312 9.2075 7.3537
# 4 -3.8828 3.9941 -9.3312 26.9475 -2.4141 4.8670
# 5 -0.2955 3.1605 9.2075 -2.4141 19.0809 0.9997
# 6 18.4792 21.6212 7.3537 4.8670 0.9997 27.4383
#
#
#
# Elastic Compliance Matrix: (Units=1/GPa)
#
#
# Indices 1 2 3 4 5 6 
#
# 1 0.030090 -0.007038 0.003274 0.009858 0.002212 -0.017426
# 2 -0.007038 0.013303 -0.007705 -0.005064 0.000912 -0.002813
# 3 0.003274 -0.007705 0.016985 0.007289 -0.005854 -0.001766
# 4 0.009858 -0.005064 0.007289 0.044420 0.003755 -0.012618
# 5 0.002212 0.000912 -0.005854 0.003755 0.055767 -0.003338
# 6 -0.017426 -0.002813 -0.001766 -0.012618 -0.003338 0.053231
#
#
# Mechanical properties :
#
#
# Convention : Reuss Voigt Hill
#
# Bulk Modulus (GPa) = 26.70889 52.58238 39.64563
# Shear Modulus (GPa) = 20.06321 26.28620 23.17470
#
# Velocity S-wave (km/s) = 3.31216 3.79118 3.55974
# Velocity P-wave (km/s) = 5.40660 6.92211 6.21076
#
# Compressibility (1/GPa) = 0.03744072
#
# Stress axis : x y z
#
# Youngs Moduli (GPa) = 33.23322 75.17154 58.87716
#
# Poissons Ratio (x) = 0.52906 -0.19279
# Poissons Ratio (y) = 0.23390 0.45364
# Poissons Ratio (z) = -0.10882 0.57919
#
# Static dielectric constant tensor:
#      x y z
#    x 3.295280 0.186700 -0.049410 
#    y 0.186700 3.224240 -0.194580 
#    z -0.049410 -0.194580 3.586710 
# 
# 
# High freq. dielectric constant tensor:
#      x y z
#    x 1.698440 0.023250 -0.004090 
#    y 0.023250 1.683030 -0.022120 
#    z -0.004090 -0.022120 1.713210 
# 
# From -- ./inp_files/248745.got.cif
#   From: 2010.06.25/outbox.cif.g09.slc.cpg/sg2_125_cif.got.tgz:248745.got - 2010.06.27 13:26:56.
