data_PCOD8038392
_publ_section_title
;
Structure prediction by ZEFSAII (Michael W. Deem and Ramdas Pophale) SiO2 
 PCOD8038392
Probable space group: P -1
;
_chemical_formula_sum "Si O2"
_cell_formula_units_Z 14
_cell_length_a 9.308273
_cell_length_b 9.373857
_cell_length_c 11.892437
_cell_angle_alpha 114.543069
_cell_angle_beta 64.398318
_cell_angle_gamma 134.135537
_cell_volume 661.023050
_symmetry_space_group_name_H-M "P -1"
_symmetry_group_IT_number 2
_symmetry_cell_setting 'triclinic'
loop_
_space_group_symop_operation_xyz
x,y,z
-x,-y,-z
loop_
_atom_site_type_symbol
_atom_site_label
_atom_site_fract_x
_atom_site_fract_y
_atom_site_fract_z
Si Si1 0.860232 0.603737 0.171471
Si Si2 0.885878 0.603495 0.688977
Si Si3 0.762304 0.085793 0.718243
Si Si4 0.538401 0.905217 0.056208
Si Si5 0.271809 0.821103 0.477950
Si Si6 0.052671 0.697293 0.905928
Si Si7 0.584503 0.695681 0.788218
O O1 0.861170 0.418712 0.129244
O O2 0.629054 0.519949 0.245547
O O3 0.009155 0.782887 0.266658
O O4 0.924330 0.686945 0.050149
O O5 0.754802 0.376136 0.613476
O O6 0.766313 0.685316 0.723307
O O7 0.112150 0.756574 0.609943
O O8 0.910552 0.605447 0.814859
O O9 0.653364 0.184251 0.824065
O O10 0.777320 0.093427 0.581325
O O11 0.633265 0.859103 0.733030
O O12 0.750645 0.068956 0.103467
O O13 0.547812 0.739676 0.942044
O O14 0.500000 0.000000 0.000000
O O15 0.500000 0.000000 0.500000
#
# Coordination Sequence:
#
# PCOD8038392 Si02
#       7
#     2   2   2   2   2   2   2
#     4  11  20  36  67  96 127 175 207 252 321 389
#     4  11  27  45  64  98 131 167 216 279 314 372
#     4  11  21  42  69  95 128 176 217 255 311 402
#     4  10  17  35  61  97 131 165 204 252 315 387
#     4  11  26  48  71  86 124 180 225 258 326 382
#     4  11  19  38  66  95 133 171 212 249 321 395
#     4  11  24  39  63 104 137 158 213 269 323 374
#
# _framework density 21.179293000000001
#
# number of rings (size 3 to 8) (size 9 to 14) (size 15 to 20)
#    0.000    1.143    7.143    1.714    0.000    2.857 
#    0.000    1.429    0.000    0.000    0.000    0.000 
#    0.000    0.000    0.000    0.000    0.000    0.000 
#
# Total GULP energy -173595.284113 kJ/mol
# GULP energy per Si atom -12399.663151 kJ/mol
# Density = 2.113109 g / cm^3
# Si number density = 21.179293 Si / 1000 Ang^3
#
#
#
# Elastic Constant Matrix: (Units=GPa)
#
#
# Indices 1 2 3 4 5 6 
#
# 1 99.7424 54.0754 54.7739 0.5637 1.6703 19.2775
# 2 54.0754 96.0294 34.5352 -2.1889 7.5979 37.0012
# 3 54.7739 34.5352 77.5505 -1.5420 28.0721 5.6417
# 4 0.5637 -2.1889 -1.5420 22.5983 -2.4707 5.9222
# 5 1.6703 7.5979 28.0721 -2.4707 31.3159 5.2130
# 6 19.2775 37.0012 5.6417 5.9222 5.2130 41.0332
#
#
#
# Elastic Compliance Matrix: (Units=1/GPa)
#
#
# Indices 1 2 3 4 5 6 
#
# 1 0.028267 -0.005336 -0.025794 0.001864 0.024437 -0.008295
# 2 -0.005336 0.022752 -0.006362 0.007261 0.004155 -0.018711
# 3 -0.025794 -0.006362 0.048440 -0.006096 -0.043923 0.017655
# 4 0.001864 0.007261 -0.006096 0.049518 0.010008 -0.015003
# 5 0.024437 0.004155 -0.043923 0.010008 0.073100 -0.019919
# 6 -0.008295 -0.018711 0.017655 -0.015003 -0.019919 0.047409
#
#
# Mechanical properties :
#
#
# Convention : Reuss Voigt Hill
#
# Bulk Modulus (GPa) = 40.85653 62.23236 51.54445
# Shear Modulus (GPa) = 14.17922 27.65199 20.91561
#
# Velocity S-wave (km/s) = 2.59025 3.61725 3.14594
# Velocity P-wave (km/s) = 5.31775 6.84787 6.13074
#
# Compressibility (1/GPa) = 0.02447589
#
# Stress axis : x y z
#
# Youngs Moduli (GPa) = 35.37674 43.95138 20.64401
#
# Poissons Ratio (x) = 0.23452 0.53250
# Poissons Ratio (y) = 0.18877 0.13133
# Poissons Ratio (z) = 0.91251 0.27961
#
# Static dielectric constant tensor:
#      x y z
#    x 3.668660 0.299100 -0.033730 
#    y 0.299100 3.969440 -0.162650 
#    z -0.033730 -0.162650 4.095220 
# 
# 
# High freq. dielectric constant tensor:
#      x y z
#    x 1.813150 0.026210 0.010280 
#    y 0.026210 1.835250 -0.009120 
#    z 0.010280 -0.009120 1.817470 
# 
# From -- ./inp_files/241370.got.cif
#   From: 2010.06.25/outbox.cif.g09.slc.cpg/sg2_121_cif.got.tgz:241370.got - 2010.06.27 13:26:56.
