data_PCOD8038008
_publ_section_title
;
Structure prediction by ZEFSAII (Michael W. Deem and Ramdas Pophale) SiO2 
 PCOD8038008
Probable space group: P -1
;
_chemical_formula_sum "Si O2"
_cell_formula_units_Z 16
_cell_length_a 8.538607
_cell_length_b 9.767938
_cell_length_c 11.208594
_cell_angle_alpha 99.338503
_cell_angle_beta 96.663134
_cell_angle_gamma 93.707640
_cell_volume 912.896980
_symmetry_space_group_name_H-M "P -1"
_symmetry_group_IT_number 2
_symmetry_cell_setting 'triclinic'
loop_
_space_group_symop_operation_xyz
x,y,z
-x,-y,-z
loop_
_atom_site_type_symbol
_atom_site_label
_atom_site_fract_x
_atom_site_fract_y
_atom_site_fract_z
Si Si1 0.502089 0.625229 0.929955
Si Si2 0.261823 0.265811 0.562748
Si Si3 0.741875 0.778763 0.826249
Si Si4 0.625771 0.906163 0.047730
Si Si5 0.243791 0.996541 0.674718
Si Si6 0.493798 0.794434 0.609963
Si Si7 0.717884 0.427545 0.306058
Si Si8 0.003762 0.254608 0.338546
O O1 0.650648 0.634534 0.850112
O O2 0.340344 0.619136 0.838182
O O3 0.500000 0.500000 0.000000
O O4 0.522097 0.758981 0.037673
O O5 0.202824 0.135566 0.622606
O O6 0.428058 0.231538 0.514598
O O7 0.286249 0.406410 0.661857
O O8 0.133279 0.294430 0.456007
O O9 0.630482 0.839345 0.723818
O O10 0.912134 0.756235 0.784218
O O11 0.758836 0.888590 0.953711
O O12 0.706108 0.966256 0.181639
O O13 0.500000 0.000000 0.000000
O O14 0.380591 0.920415 0.608451
O O15 0.086845 0.892175 0.654141
O O16 0.394726 0.650421 0.615999
O O17 0.893175 0.380515 0.334047
#
# Coordination Sequence:
#
# PCOD8038008 Si02
#       8
#     2   2   2   2   2   2   2   2
#     4   9  18  34  55  78 105 128 169 223 259 292
#     4  11  21  33  54  78 108 133 176 221 254 299
#     4   8  18  33  56  74 103 137 172 206 255 307
#     4  10  17  33  58  77 102 133 176 212 255 310
#     4  11  20  33  55  79 105 139 170 215 268 296
#     4   9  18  35  53  80 102 135 174 216 256 311
#     4  10  19  35  57  77 100 145 175 202 264 313
#     4  10  21  37  51  72 110 144 174 204 251 320
#
# _framework density 17.526620999999999
#
# number of rings (size 3 to 8) (size 9 to 14) (size 15 to 20)
#    0.750    1.500    1.250    3.000    0.000    0.500 
#    0.000    0.625    2.750    0.000    0.000    0.000 
#    0.000    0.000    0.000    0.000    0.000    0.000 
#
# Total GULP energy -198272.597994 kJ/mol
# GULP energy per Si atom -12392.037375 kJ/mol
# Density = 1.748673 g / cm^3
# Si number density = 17.526621 Si / 1000 Ang^3
#
#
#
# Elastic Constant Matrix: (Units=GPa)
#
#
# Indices 1 2 3 4 5 6 
#
# 1 81.4209 17.3467 20.9815 2.3021 -13.2503 -5.4622
# 2 17.3467 91.4175 1.0484 0.3068 -11.0045 -1.6525
# 3 20.9815 1.0484 41.5198 4.2047 -9.0847 -6.1675
# 4 2.3021 0.3068 4.2047 33.0156 2.1634 1.7148
# 5 -13.2503 -11.0045 -9.0847 2.1634 25.3702 2.3499
# 6 -5.4622 -1.6525 -6.1675 1.7148 2.3499 18.7495
#
#
#
# Elastic Compliance Matrix: (Units=1/GPa)
#
#
# Indices 1 2 3 4 5 6 
#
# 1 0.015275 -0.002235 -0.006340 -0.000626 0.004639 0.001643
# 2 -0.002235 0.011919 0.001992 -0.000544 0.004714 0.000513
# 3 -0.006340 0.001992 0.030631 -0.004418 0.008177 0.007784
# 4 -0.000626 -0.000544 -0.004418 0.031399 -0.004452 -0.003997
# 5 0.004639 0.004714 0.008177 -0.004452 0.047290 -0.001063
# 6 0.001643 0.000513 0.007784 -0.003997 -0.001063 0.056918
#
#
# Mechanical properties :
#
#
# Convention : Reuss Voigt Hill
#
# Bulk Modulus (GPa) = 22.39293 32.56796 27.48045
# Shear Modulus (GPa) = 22.57485 27.09250 24.83367
#
# Velocity S-wave (km/s) = 3.59281 3.93592 3.76827
# Velocity P-wave (km/s) = 5.47862 6.26719 5.88612
#
# Compressibility (1/GPa) = 0.04465695
#
# Stress axis : x y z
#
# Youngs Moduli (GPa) = 65.46752 83.90132 32.64655
#
# Poissons Ratio (x) = 0.18756 0.20698
# Poissons Ratio (y) = 0.14635 -0.06502
# Poissons Ratio (z) = 0.41506 -0.16709
#
# Static dielectric constant tensor:
#      x y z
#    x 3.150900 0.004410 -0.193740 
#    y 0.004410 3.166760 0.058370 
#    z -0.193740 0.058370 2.720210 
# 
# 
# High freq. dielectric constant tensor:
#      x y z
#    x 1.666200 0.001380 0.003110 
#    y 0.001380 1.674480 0.001800 
#    z 0.003110 0.001800 1.675630 
# 
# From -- ./inp_files/302732.got.cif
#   From: 2010.06.25/outbox.cif.g09.slc.cpg/sg2_152_cif.got.tgz:302732.got - 2010.06.27 13:26:56.
