data_PCOD8038029
_publ_section_title
;
Structure prediction by ZEFSAII (Michael W. Deem and Ramdas Pophale) SiO2 
 PCOD8038029
Probable space group: P -1
;
_chemical_formula_sum "Si O2"
_cell_formula_units_Z 16
_cell_length_a 10.449742
_cell_length_b 11.467291
_cell_length_c 11.652725
_cell_angle_alpha 101.170751
_cell_angle_beta 113.654719
_cell_angle_gamma 131.463553
_cell_volume 712.158466
_symmetry_space_group_name_H-M "P -1"
_symmetry_group_IT_number 2
_symmetry_cell_setting 'triclinic'
loop_
_space_group_symop_operation_xyz
x,y,z
-x,-y,-z
loop_
_atom_site_type_symbol
_atom_site_label
_atom_site_fract_x
_atom_site_fract_y
_atom_site_fract_z
Si Si1 0.335759 0.967292 0.779765
Si Si2 0.536081 0.694072 0.038502
Si Si3 0.879666 0.679190 0.686311
Si Si4 0.638561 0.725866 0.504275
Si Si5 0.645451 0.601406 0.254060
Si Si6 0.143643 0.748330 0.987057
Si Si7 0.177819 0.905444 0.468422
Si Si8 0.992415 0.375756 0.833051
O O1 0.361882 0.013853 0.662094
O O2 0.064357 0.732470 0.677387
O O3 0.357405 0.100034 0.892422
O O4 0.567151 0.044852 0.907342
O O5 0.688951 0.729961 0.195600
O O6 0.541170 0.631517 0.904393
O O7 0.255254 0.497113 0.943394
O O8 0.847551 0.795700 0.660182
O O9 0.606527 0.429354 0.535631
O O10 0.997946 0.750629 0.869650
O O11 0.545384 0.587975 0.332290
O O12 0.744362 0.926879 0.546643
O O13 0.914648 0.737865 0.402400
O O14 0.128477 0.755205 0.118344
O O15 0.014760 0.533361 0.864605
O O16 0.178390 0.790228 0.364530
#
# Coordination Sequence:
#
# PCOD8038029 Si02
#       8
#     2   2   2   2   2   2   2   2
#     4  11  21  39  63  90 121 162 199 253 295 358
#     4   9  18  31  59  91 119 151 199 251 298 343
#     4  11  24  40  60  88 130 166 193 239 315 363
#     4  11  22  38  62  91 126 161 192 255 299 362
#     4  10  17  33  58  90 121 153 197 249 297 352
#     4  10  22  42  64  85 123 160 205 246 303 354
#     4  11  21  37  66  96 118 150 213 249 302 351
#     4   9  21  39  64  95 112 156 207 265 288 347
#
# _framework density 22.466911
#
# number of rings (size 3 to 8) (size 9 to 14) (size 15 to 20)
#    0.000    1.750    2.500    2.250    3.500    0.500 
#    0.000    4.375    0.000    0.000    0.000    0.000 
#    0.000    0.000    0.000    0.000    0.000    0.000 
#
# Total GULP energy -198322.423609 kJ/mol
# GULP energy per Si atom -12395.151476 kJ/mol
# Density = 2.241578 g / cm^3
# Si number density = 22.466911 Si / 1000 Ang^3
#
#
#
# Elastic Constant Matrix: (Units=GPa)
#
#
# Indices 1 2 3 4 5 6 
#
# 1 72.7120 18.0503 37.9591 5.2487 -3.1665 9.8916
# 2 18.0503 71.0329 27.3635 -6.5180 -1.1151 12.3350
# 3 37.9591 27.3635 87.2060 -7.4216 2.1565 -5.6139
# 4 5.2487 -6.5180 -7.4216 20.0798 -6.9871 7.0257
# 5 -3.1665 -1.1151 2.1565 -6.9871 49.3041 3.8079
# 6 9.8916 12.3350 -5.6139 7.0257 3.8079 29.0875
#
#
#
# Elastic Compliance Matrix: (Units=1/GPa)
#
#
# Indices 1 2 3 4 5 6 
#
# 1 0.020499 -0.000762 -0.009709 -0.006182 0.001405 -0.007213
# 2 -0.000762 0.019473 -0.005800 0.009515 0.002905 -0.011797
# 3 -0.009709 -0.005800 0.018438 0.003877 -0.001676 0.008603
# 4 -0.006182 0.009515 0.003877 0.066044 0.010437 -0.018503
# 5 0.001405 0.002905 -0.001676 0.010437 0.022571 -0.007509
# 6 -0.007213 -0.011797 0.008603 -0.018503 -0.007509 0.048947
#
#
# Mechanical properties :
#
#
# Convention : Reuss Voigt Hill
#
# Bulk Modulus (GPa) = 38.65647 44.18850 41.42248
# Shear Modulus (GPa) = 21.08485 29.53282 25.30883
#
# Velocity S-wave (km/s) = 3.06679 3.62954 3.35997
# Velocity P-wave (km/s) = 5.45744 6.10538 5.79048
#
# Compressibility (1/GPa) = 0.02586889
#
# Stress axis : x y z
#
# Youngs Moduli (GPa) = 48.78257 51.35291 54.23450
#
# Poissons Ratio (x) = 0.03911 0.52656
# Poissons Ratio (y) = 0.03715 0.31458
# Poissons Ratio (z) = 0.47363 0.29786
#
# Static dielectric constant tensor:
#      x y z
#    x 4.046090 0.117100 0.085700 
#    y 0.117100 3.804650 -0.043720 
#    z 0.085700 -0.043720 4.064160 
# 
# 
# High freq. dielectric constant tensor:
#      x y z
#    x 1.876750 0.014080 0.019800 
#    y 0.014080 1.865690 -0.012190 
#    z 0.019800 -0.012190 1.884800 
# 
# From -- ./inp_files/428439.got.cif
#   From: 2010.06.25/outbox.cif.g09.slc.cpg/sg2_215_cif.got.tgz:428439.got - 2010.06.27 13:26:56.
