data_PCOD8038580
_publ_section_title
;
Structure prediction by ZEFSAII (Michael W. Deem and Ramdas Pophale) SiO2 
 PCOD8038580
Probable space group: P -1
;
_chemical_formula_sum "Si O2"
_cell_formula_units_Z 16
_cell_length_a 9.624411
_cell_length_b 15.201930
_cell_length_c 20.216265
_cell_angle_alpha 34.232257
_cell_angle_beta 145.696367
_cell_angle_gamma 150.971226
_cell_volume 747.542713
_symmetry_space_group_name_H-M "P -1"
_symmetry_group_IT_number 2
_symmetry_cell_setting 'triclinic'
loop_
_space_group_symop_operation_xyz
x,y,z
-x,-y,-z
loop_
_atom_site_type_symbol
_atom_site_label
_atom_site_fract_x
_atom_site_fract_y
_atom_site_fract_z
Si Si1 0.550572 0.711355 0.019448
Si Si2 0.997298 0.318081 0.233947
Si Si3 0.452963 0.060435 0.623031
Si Si4 0.084625 0.457716 0.311993
Si Si5 0.357952 0.234140 0.591551
Si Si6 0.924701 0.980030 0.879016
Si Si7 0.762004 0.856013 0.634921
Si Si8 0.583997 0.700812 0.802243
O O1 0.443137 0.490049 0.111000
O O2 0.721812 0.835134 0.077720
O O3 0.244134 0.698967 0.901204
O O4 0.780126 0.825594 0.977729
O O5 0.145813 0.499158 0.230819
O O6 0.261930 0.329707 0.289270
O O7 0.837054 0.150254 0.333399
O O8 0.439373 0.219089 0.557645
O O9 0.767639 0.088492 0.740401
O O10 0.423896 0.088711 0.516298
O O11 0.201840 0.343349 0.464282
O O12 0.318818 0.672092 0.301714
O O13 0.728006 0.356008 0.251544
O O14 0.129220 0.026166 0.667473
O O15 0.868399 0.850362 0.871819
O O16 0.639611 0.820353 0.683059
#
# Coordination Sequence:
#
# PCOD8038580 Si02
#       8
#     2   2   2   2   2   2   2   2
#     4  10  22  41  63  87 124 166 213 250 296 368
#     4  10  19  40  64  82 117 170 209 240 300 370
#     4  10  17  38  62  86 120 163 204 242 308 375
#     4  11  20  36  62  93 117 160 214 249 297 368
#     4  10  20  36  62  90 124 162 210 244 298 387
#     4  10  21  39  65  91 120 164 211 255 301 362
#     4  11  22  39  62  92 129 160 191 258 327 359
#     4  12  24  40  61 100 126 157 203 264 314 354
#
# _framework density 21.403459999999999
#
# number of rings (size 3 to 8) (size 9 to 14) (size 15 to 20)
#    0.000    1.500    5.000    1.875    0.000    3.500 
#    2.250    3.125    0.000    0.000    0.000    0.000 
#    0.000    0.000    0.000    0.000    0.000    0.000 
#
# Total GULP energy -198234.426485 kJ/mol
# GULP energy per Si atom -12389.651655 kJ/mol
# Density = 2.135474 g / cm^3
# Si number density = 21.403460 Si / 1000 Ang^3
#
#
#
# Elastic Constant Matrix: (Units=GPa)
#
#
# Indices 1 2 3 4 5 6 
#
# 1 68.1303 25.8953 25.5058 3.7450 -15.0692 -12.3617
# 2 25.8953 89.0722 40.9794 21.9282 -12.7735 -29.8895
# 3 25.5058 40.9794 96.9543 14.7487 -9.4032 -9.7417
# 4 3.7450 21.9282 14.7487 33.2965 -6.7612 -3.9682
# 5 -15.0692 -12.7735 -9.4032 -6.7612 30.9503 4.3541
# 6 -12.3617 -29.8895 -9.7417 -3.9682 4.3541 23.8188
#
#
#
# Elastic Compliance Matrix: (Units=1/GPa)
#
#
# Indices 1 2 3 4 5 6 
#
# 1 0.019089 -0.001769 -0.003426 0.002670 0.007348 0.005387
# 2 -0.001769 0.027201 -0.006286 -0.011132 0.002025 0.028420
# 3 -0.003426 -0.006286 0.013754 -0.002075 0.000082 -0.004402
# 4 0.002670 -0.011132 -0.002075 0.038145 0.005547 -0.008091
# 5 0.007348 0.002025 0.000082 0.005547 0.037906 0.000383
# 6 0.005387 0.028420 -0.004402 -0.008091 0.000383 0.077224
#
#
# Mechanical properties :
#
#
# Convention : Reuss Voigt Hill
#
# Bulk Modulus (GPa) = 26.96822 48.76865 37.86844
# Shear Modulus (GPa) = 20.10928 28.39821 24.25374
#
# Velocity S-wave (km/s) = 3.06851 3.64648 3.36991
# Velocity P-wave (km/s) = 5.01813 6.36899 5.73348
#
# Compressibility (1/GPa) = 0.03708068
#
# Stress axis : x y z
#
# Youngs Moduli (GPa) = 52.38669 36.76373 72.70769
#
# Poissons Ratio (x) = 0.06503 0.24911
# Poissons Ratio (y) = 0.09267 0.45705
# Poissons Ratio (z) = 0.17949 0.23110
#
# Static dielectric constant tensor:
#      x y z
#    x 3.750090 -0.475970 0.007540 
#    y -0.475970 4.157650 0.235380 
#    z 0.007540 0.235380 3.835460 
# 
# 
# High freq. dielectric constant tensor:
#      x y z
#    x 1.820460 -0.034270 0.006300 
#    y -0.034270 1.828660 0.017030 
#    z 0.006300 0.017030 1.840330 
# 
# From -- ./inp_files/418301.got.cif
#   From: 2010.06.25/outbox.cif.g09.slc.cpg/sg2_210_cif.got.tgz:418301.got - 2010.06.27 13:26:56.
