data_PCOD8038588
_publ_section_title
;
Structure prediction by ZEFSAII (Michael W. Deem and Ramdas Pophale) SiO2 
 PCOD8038588
Probable space group: P -1
;
_chemical_formula_sum "Si O2"
_cell_formula_units_Z 16
_cell_length_a 8.495042
_cell_length_b 17.936297
_cell_length_c 11.384297
_cell_angle_alpha 43.242464
_cell_angle_beta 137.168594
_cell_angle_gamma 139.775361
_cell_volume 703.213211
_symmetry_space_group_name_H-M "P -1"
_symmetry_group_IT_number 2
_symmetry_cell_setting 'triclinic'
loop_
_space_group_symop_operation_xyz
x,y,z
-x,-y,-z
loop_
_atom_site_type_symbol
_atom_site_label
_atom_site_fract_x
_atom_site_fract_y
_atom_site_fract_z
Si Si1 0.709318 0.275316 0.901201
Si Si2 0.004901 0.739190 0.149635
Si Si3 0.234971 0.768930 0.759920
Si Si4 0.393297 0.543586 0.743660
Si Si5 0.273827 0.114640 0.249511
Si Si6 0.814522 0.474760 0.096862
Si Si7 0.829053 0.849667 0.372417
Si Si8 0.504912 0.802906 0.464488
O O1 0.849582 0.234677 0.925945
O O2 0.407221 0.234409 0.750175
O O3 0.874589 0.425934 0.830308
O O4 0.713179 0.206028 0.102147
O O5 0.233154 0.810901 0.291546
O O6 0.844859 0.592544 0.265930
O O7 0.801620 0.791624 0.967594
O O8 0.482251 0.878901 0.698416
O O9 0.203196 0.634829 0.866918
O O10 0.971906 0.771255 0.575527
O O11 0.347967 0.580166 0.808472
O O12 0.415250 0.657821 0.547413
O O13 0.674569 0.546954 0.877106
O O14 0.365756 0.154086 0.387994
O O15 0.026855 0.976655 0.268261
O O16 0.719532 0.885256 0.388353
#
# Coordination Sequence:
#
# PCOD8038588 Si02
#       8
#     2   2   2   2   2   2   2   2
#     4  10  24  41  63  94 128 166 204 258 315 375
#     4  10  22  40  66  96 125 163 209 259 314 365
#     4  12  23  42  64  91 126 171 205 258 314 370
#     4  10  17  38  65  98 126 152 206 263 317 366
#     4  12  24  43  65  92 126 168 216 258 303 367
#     4  10  19  37  67  93 127 162 202 258 317 372
#     4  11  27  43  61  92 130 171 212 251 308 374
#     4  11  22  40  67  96 122 164 210 264 309 365
#
# _framework density 22.752700000000001
#
# number of rings (size 3 to 8) (size 9 to 14) (size 15 to 20)
#    0.000    1.250    2.500    4.500    0.000    5.000 
#    0.000    0.000    0.000    0.000    0.000    0.000 
#    0.000    0.000    0.000    0.000    0.000    0.000 
#
# Total GULP energy -198414.056731 kJ/mol
# GULP energy per Si atom -12400.878546 kJ/mol
# Density = 2.270091 g / cm^3
# Si number density = 22.752700 Si / 1000 Ang^3
#
#
#
# Elastic Constant Matrix: (Units=GPa)
#
#
# Indices 1 2 3 4 5 6 
#
# 1 43.7688 32.9199 14.6652 12.5074 4.6497 14.6579
# 2 32.9199 113.3560 39.7250 23.5877 -4.2704 23.3921
# 3 14.6652 39.7250 91.6138 27.9018 9.4086 7.7288
# 4 12.5074 23.5877 27.9018 32.9687 16.4022 6.7071
# 5 4.6497 -4.2704 9.4086 16.4022 22.5887 -2.8624
# 6 14.6579 23.3921 7.7288 6.7071 -2.8624 25.9196
#
#
#
# Elastic Compliance Matrix: (Units=1/GPa)
#
#
# Indices 1 2 3 4 5 6 
#
# 1 0.034135 -0.007560 -0.000134 0.000667 -0.010631 -0.013787
# 2 -0.007560 0.016126 -0.003166 -0.012046 0.014080 -0.004662
# 3 -0.000134 -0.003166 0.015719 -0.012354 0.002064 0.001671
# 4 0.000667 -0.012046 -0.012354 0.080200 -0.057137 -0.012884
# 5 -0.010631 0.014080 0.002064 -0.057137 0.091983 0.017633
# 6 -0.013787 -0.004662 0.001671 -0.012884 0.017633 0.055368
#
#
# Mechanical properties :
#
#
# Convention : Reuss Voigt Hill
#
# Bulk Modulus (GPa) = 22.59418 47.03986 34.81702
# Shear Modulus (GPa) = 15.15129 27.05731 21.10430
#
# Velocity S-wave (km/s) = 2.58333 3.45221 3.04888
# Velocity P-wave (km/s) = 4.34166 6.05059 5.26591
#
# Compressibility (1/GPa) = 0.04425918
#
# Stress axis : x y z
#
# Youngs Moduli (GPa) = 29.29577 62.01170 63.61575
#
# Poissons Ratio (x) = 0.46882 0.00853
# Poissons Ratio (y) = 0.22148 0.20142
# Poissons Ratio (z) = 0.00393 0.19634
#
# Static dielectric constant tensor:
#      x y z
#    x 4.047670 0.355740 -0.000600 
#    y 0.355740 4.074040 0.092540 
#    z -0.000600 0.092540 4.070750 
# 
# 
# High freq. dielectric constant tensor:
#      x y z
#    x 1.887270 0.027170 0.000220 
#    y 0.027170 1.898540 0.007570 
#    z 0.000220 0.007570 1.896750 
# 
# From -- ./inp_files/404742.got.cif
#   From: 2010.06.25/outbox.cif.g09.slc.cpg/sg2_203_cif.got.tgz:404742.got - 2010.06.27 13:26:56.
