data_PCOD8038564
_publ_section_title
;
Structure prediction by ZEFSAII (Michael W. Deem and Ramdas Pophale) SiO2 
 PCOD8038564
Probable space group: P -1
;
_chemical_formula_sum "Si O2"
_cell_formula_units_Z 16
_cell_length_a 9.545525
_cell_length_b 9.171416
_cell_length_c 15.039002
_cell_angle_alpha 57.035355
_cell_angle_beta 88.842691
_cell_angle_gamma 124.481780
_cell_volume 801.466013
_symmetry_space_group_name_H-M "P -1"
_symmetry_group_IT_number 2
_symmetry_cell_setting 'triclinic'
loop_
_space_group_symop_operation_xyz
x,y,z
-x,-y,-z
loop_
_atom_site_type_symbol
_atom_site_label
_atom_site_fract_x
_atom_site_fract_y
_atom_site_fract_z
Si Si1 0.305018 0.943360 0.035703
Si Si2 0.802506 0.506833 0.798698
Si Si3 0.560448 0.077693 0.255106
Si Si4 0.547149 0.424554 0.440428
Si Si5 0.792473 0.125361 0.388462
Si Si6 0.547494 0.347931 0.022230
Si Si7 0.197339 0.680233 0.490139
Si Si8 0.564783 0.769004 0.222552
O O1 0.275398 0.036599 0.917541
O O2 0.345373 0.096382 0.070589
O O3 0.500000 0.000000 0.000000
O O4 0.144261 0.657171 0.146017
O O5 0.651364 0.415579 0.752662
O O6 0.004339 0.774553 0.686377
O O7 0.718178 0.497337 0.897532
O O8 0.344630 0.916497 0.349152
O O9 0.576347 0.908765 0.259025
O O10 0.704971 0.191629 0.298952
O O11 0.616563 0.290555 0.123550
O O12 0.500000 0.500000 0.500000
O O13 0.721046 0.442843 0.452826
O O14 0.614999 0.614588 0.299416
O O15 0.355318 0.158568 0.500815
O O16 0.835183 0.252622 0.438784
O O17 0.500000 0.500000 0.000000
O O18 0.000000 0.500000 0.500000
#
# Coordination Sequence:
#
# PCOD8038564 Si02
#       8
#     2   2   2   2   2   2   2   2
#     4   8  16  33  60  84 114 167 204 239 308 377
#     4  10  20  39  61  92 122 171 214 242 309 393
#     4  11  19  40  63  86 126 166 202 262 323 364
#     4  11  22  40  63  95 125 164 214 260 316 366
#     4  11  25  38  62  93 127 166 210 257 321 377
#     4  10  20  36  62  94 119 158 213 263 313 366
#     4  11  25  43  64  88 126 171 209 258 316 383
#     4  10  17  37  66  85 123 166 205 253 309 370
#
# _framework density 19.963415999999999
#
# number of rings (size 3 to 8) (size 9 to 14) (size 15 to 20)
#    0.000    2.000    6.250    2.250    0.000    5.000 
#    2.250    0.000    0.000    1.500    0.000    0.000 
#    0.000    0.000    0.000    0.000    0.000    0.000 
#
# Total GULP energy -198318.145898 kJ/mol
# GULP energy per Si atom -12394.884119 kJ/mol
# Density = 1.991798 g / cm^3
# Si number density = 19.963416 Si / 1000 Ang^3
#
#
#
# Elastic Constant Matrix: (Units=GPa)
#
#
# Indices 1 2 3 4 5 6 
#
# 1 81.2934 49.9671 39.7137 -8.9317 7.9572 -6.9706
# 2 49.9671 115.5626 35.8900 14.9766 5.7478 -5.5599
# 3 39.7137 35.8900 85.7474 9.6599 22.2867 -8.2693
# 4 -8.9317 14.9766 9.6599 30.1050 -5.4091 2.0540
# 5 7.9572 5.7478 22.2867 -5.4091 34.2047 -4.9367
# 6 -6.9706 -5.5599 -8.2693 2.0540 -4.9367 36.7822
#
#
#
# Elastic Compliance Matrix: (Units=1/GPa)
#
#
# Indices 1 2 3 4 5 6 
#
# 1 0.024927 -0.009870 -0.010672 0.016682 0.005544 0.000645
# 2 -0.009870 0.014313 0.000326 -0.010541 -0.001887 0.000702
# 3 -0.010672 0.000326 0.021557 -0.012772 -0.013379 0.001791
# 4 0.016682 -0.010541 -0.012772 0.050144 0.013817 -0.002249
# 5 0.005544 -0.001887 -0.013379 0.013817 0.039496 0.002287
# 6 0.000645 0.000702 0.001791 -0.002249 0.002287 0.028251
#
#
# Mechanical properties :
#
#
# Convention : Reuss Voigt Hill
#
# Bulk Modulus (GPa) = 49.10229 59.30497 54.20363
# Shear Modulus (GPa) = 22.13291 30.68723 26.41007
#
# Velocity S-wave (km/s) = 3.33329 3.92493 3.64115
# Velocity P-wave (km/s) = 6.28203 7.09306 6.69983
#
# Compressibility (1/GPa) = 0.02036565
#
# Stress axis : x y z
#
# Youngs Moduli (GPa) = 40.11764 69.86449 46.38829
#
# Poissons Ratio (x) = 0.68958 0.49504
# Poissons Ratio (y) = 0.39597 -0.01512
# Poissons Ratio (z) = 0.42812 -0.02278
#
# Static dielectric constant tensor:
#      x y z
#    x 3.491650 -0.088080 0.332760 
#    y -0.088080 4.113140 -0.098600 
#    z 0.332760 -0.098600 4.272650 
# 
# 
# High freq. dielectric constant tensor:
#      x y z
#    x 1.743490 -0.005000 0.012220 
#    y -0.005000 1.779470 0.009890 
#    z 0.012220 0.009890 1.792990 
# 
# From -- ./inp_files/492309.got.cif
#   From: 2010.06.25/outbox.cif.g09.slc.cpg/sg2_247_cif.got.tgz:492309.got - 2010.06.27 13:26:56.
