data_PCOD8038491
_publ_section_title
;
Structure prediction by ZEFSAII (Michael W. Deem and Ramdas Pophale) SiO2 
 PCOD8038491
Probable space group: P -1
;
_chemical_formula_sum "Si O2"
_cell_formula_units_Z 16
_cell_length_a 12.723504
_cell_length_b 9.499768
_cell_length_c 11.365958
_cell_angle_alpha 98.423714
_cell_angle_beta 81.495699
_cell_angle_gamma 144.132773
_cell_volume 795.233113
_symmetry_space_group_name_H-M "P -1"
_symmetry_group_IT_number 2
_symmetry_cell_setting 'triclinic'
loop_
_space_group_symop_operation_xyz
x,y,z
-x,-y,-z
loop_
_atom_site_type_symbol
_atom_site_label
_atom_site_fract_x
_atom_site_fract_y
_atom_site_fract_z
Si Si1 0.476907 0.909405 0.119291
Si Si2 0.190639 0.015694 0.440179
Si Si3 0.478258 0.580719 0.122193
Si Si4 0.227373 0.064142 0.695089
Si Si5 0.828037 0.275749 0.712341
Si Si6 0.170133 0.515868 0.470793
Si Si7 0.831881 0.745359 0.696497
Si Si8 0.780909 0.275198 0.289006
O O1 0.487224 0.750775 0.093077
O O2 0.287421 0.753345 0.185061
O O3 0.634809 0.147660 0.199155
O O4 0.500000 0.000000 0.000000
O O5 0.271690 0.981033 0.335727
O O6 0.003074 0.753041 0.486460
O O7 0.301863 0.167653 0.560882
O O8 0.160688 0.124840 0.385820
O O9 0.632658 0.715795 0.209794
O O10 0.285423 0.337456 0.181727
O O11 0.500000 0.500000 0.000000
O O12 0.208369 0.877549 0.698960
O O13 0.033210 0.928000 0.729367
O O14 0.877698 0.405786 0.597243
O O15 0.024948 0.462359 0.760149
O O16 0.271210 0.503614 0.375249
O O17 0.282541 0.699984 0.584000
#
# Coordination Sequence:
#
# PCOD8038491 Si02
#       8
#     2   2   2   2   2   2   2   2
#     4  11  26  43  60  87 116 156 212 251 281 343
#     4  10  20  35  63  97 125 148 189 241 299 366
#     4  11  26  44  60  82 119 164 207 243 287 346
#     4  10  19  39  64  88 121 156 192 240 300 355
#     4  11  19  39  65  90 120 154 190 245 302 353
#     4  10  17  36  64  93 120 149 189 238 302 368
#     4  11  22  39  61  92 125 155 190 243 298 353
#     4  10  19  37  66  90 119 153 191 244 304 352
#
# _framework density 20.119886999999999
#
# number of rings (size 3 to 8) (size 9 to 14) (size 15 to 20)
#    0.000    1.500    5.000    2.250    1.750    3.000 
#    6.750    0.000    0.000    0.000    0.000    0.000 
#    0.000    0.000    0.000    0.000    0.000    0.000 
#
# Total GULP energy -198322.259872 kJ/mol
# GULP energy per Si atom -12395.141242 kJ/mol
# Density = 2.007409 g / cm^3
# Si number density = 20.119887 Si / 1000 Ang^3
#
#
#
# Elastic Constant Matrix: (Units=GPa)
#
#
# Indices 1 2 3 4 5 6 
#
# 1 58.8953 19.5711 13.5579 -3.2798 -6.7426 -0.7127
# 2 19.5711 50.5397 22.2951 1.4286 0.5578 4.2052
# 3 13.5579 22.2951 74.4718 -0.9117 -11.9920 6.0279
# 4 -3.2798 1.4286 -0.9117 31.1086 -7.5423 -3.4388
# 5 -6.7426 0.5578 -11.9920 -7.5423 40.9608 -4.2084
# 6 -0.7127 4.2052 6.0279 -3.4388 -4.2084 26.8797
#
#
#
# Elastic Compliance Matrix: (Units=1/GPa)
#
#
# Indices 1 2 3 4 5 6 
#
# 1 0.020587 -0.008010 -0.000868 0.003902 0.004288 0.003164
# 2 -0.008010 0.026461 -0.006964 -0.003887 -0.004849 -0.004047
# 3 -0.000868 -0.006964 0.016627 0.001737 0.004969 -0.001662
# 4 0.003902 -0.003887 0.001737 0.035499 0.008375 0.006175
# 5 0.004288 -0.004849 0.004969 0.008375 0.028730 0.005328
# 6 0.003164 -0.004047 -0.001662 0.006175 0.005328 0.039917
#
#
# Mechanical properties :
#
#
# Convention : Reuss Voigt Hill
#
# Bulk Modulus (GPa) = 31.25992 32.75054 32.00523
# Shear Modulus (GPa) = 23.79043 28.35534 26.07289
#
# Velocity S-wave (km/s) = 3.44238 3.75816 3.60373
# Velocity P-wave (km/s) = 5.60094 5.92830 5.76695
#
# Compressibility (1/GPa) = 0.03198985
#
# Stress axis : x y z
#
# Youngs Moduli (GPa) = 48.57344 37.79185 60.14415
#
# Poissons Ratio (x) = 0.30273 0.05219
# Poissons Ratio (y) = 0.38909 0.41886
# Poissons Ratio (z) = 0.04215 0.26319
#
# Static dielectric constant tensor:
#      x y z
#    x 3.779050 -0.082140 -0.146860 
#    y -0.082140 3.670190 0.252610 
#    z -0.146860 0.252610 3.872750 
# 
# 
# High freq. dielectric constant tensor:
#      x y z
#    x 1.786720 -0.008800 -0.007960 
#    y -0.008800 1.773270 0.006000 
#    z -0.007960 0.006000 1.780700 
# 
# From -- ./inp_files/222756.got.cif
#   From: 2010.06.25/outbox.cif.g09.slc.cpg/sg2_112_cif.got.tgz:222756.got - 2010.06.27 13:26:56.
