data_PCOD8038436
_publ_section_title
;
Structure prediction by ZEFSAII (Michael W. Deem and Ramdas Pophale) SiO2 
 PCOD8038436
Probable space group: P -1
;
_chemical_formula_sum "Si O2"
_cell_formula_units_Z 14
_cell_length_a 9.650096
_cell_length_b 9.068964
_cell_length_c 16.846492
_cell_angle_alpha 143.436744
_cell_angle_beta 63.765360
_cell_angle_gamma 102.780939
_cell_volume 762.702037
_symmetry_space_group_name_H-M "P -1"
_symmetry_group_IT_number 2
_symmetry_cell_setting 'triclinic'
loop_
_space_group_symop_operation_xyz
x,y,z
-x,-y,-z
loop_
_atom_site_type_symbol
_atom_site_label
_atom_site_fract_x
_atom_site_fract_y
_atom_site_fract_z
Si Si1 0.574282 0.642755 0.478021
Si Si2 0.329697 0.898079 0.526517
Si Si3 0.008446 0.217067 0.977529
Si Si4 0.238776 0.373034 0.867569
Si Si5 0.884917 0.250436 0.602109
Si Si6 0.582326 0.175474 0.699646
Si Si7 0.930784 0.346282 0.232387
O O1 0.500000 0.500000 0.500000
O O2 0.442742 0.685143 0.460170
O O3 0.742981 0.473338 0.331124
O O4 0.597753 0.907944 0.626654
O O5 0.178092 0.794022 0.489113
O O6 0.427229 0.934346 0.436851
O O7 0.248003 0.159114 0.705506
O O8 0.849784 0.351476 0.026256
O O9 0.997255 0.305395 0.109175
O O10 0.155160 0.301806 0.936748
O O11 0.035095 0.912204 0.836360
O O12 0.418113 0.382217 0.851677
O O13 0.730214 0.305745 0.725743
O O14 0.970795 0.477716 0.673285
O O15 0.000000 0.000000 0.500000
#
# Coordination Sequence:
#
# PCOD8038436 Si02
#       7
#     2   2   2   2   2   2   2
#     4  11  19  32  57  85 110 132 179 237 272 315
#     4   9  19  33  60  84 100 140 177 228 280 316
#     4  10  22  32  57  74 110 151 182 220 248 325
#     4  10  17  36  53  83 104 139 190 218 263 320
#     4  10  19  34  59  83 109 141 176 227 283 327
#     4   9  18  32  58  80 104 141 176 226 276 315
#     4  11  20  37  53  81 109 143 184 215 274 321
#
# _framework density 18.355792000000001
#
# number of rings (size 3 to 8) (size 9 to 14) (size 15 to 20)
#    0.857    1.143    1.429    6.000    0.000    0.000 
#    0.000    4.286    3.143    0.000    0.000    0.000 
#    0.000    0.000    0.000    0.000    0.000    0.000 
#
# Total GULP energy -173469.954440 kJ/mol
# GULP energy per Si atom -12390.711031 kJ/mol
# Density = 1.831401 g / cm^3
# Si number density = 18.355792 Si / 1000 Ang^3
#
#
#
# Elastic Constant Matrix: (Units=GPa)
#
#
# Indices 1 2 3 4 5 6 
#
# 1 127.5202 45.6495 47.7479 14.8933 -25.1906 4.7663
# 2 45.6495 90.5988 17.6302 13.6034 -13.0731 -9.0461
# 3 47.7479 17.6302 56.6041 12.9534 -24.3189 -6.4794
# 4 14.8933 13.6034 12.9534 30.8426 0.4429 -9.0134
# 5 -25.1906 -13.0731 -24.3189 0.4429 35.2703 0.9681
# 6 4.7663 -9.0461 -6.4794 -9.0134 0.9681 20.6358
#
#
#
# Elastic Compliance Matrix: (Units=1/GPa)
#
#
# Indices 1 2 3 4 5 6 
#
# 1 0.015058 -0.005865 -0.010674 -0.003431 0.001566 -0.010972
# 2 -0.005865 0.015063 0.003330 -0.003070 0.003523 0.007497
# 3 -0.010674 0.003330 0.037093 -0.009029 0.019006 0.010737
# 4 -0.003431 -0.003070 -0.009029 0.044178 -0.010819 0.016416
# 5 0.001566 0.003523 0.019006 -0.010819 0.044007 0.000360
# 6 -0.010972 0.007497 0.010737 0.016416 0.000360 0.064804
#
#
# Mechanical properties :
#
#
# Convention : Reuss Voigt Hill
#
# Bulk Modulus (GPa) = 24.51134 55.19759 39.85447
# Shear Modulus (GPa) = 19.21460 28.26277 23.73869
#
# Velocity S-wave (km/s) = 3.23892 3.92818 3.60008
# Velocity P-wave (km/s) = 5.23163 7.12112 6.24821
#
# Compressibility (1/GPa) = 0.04079744
#
# Stress axis : x y z
#
# Youngs Moduli (GPa) = 66.41030 66.39004 26.95891
#
# Poissons Ratio (x) = 0.38935 0.28775
# Poissons Ratio (y) = 0.38947 -0.08977
# Poissons Ratio (z) = 0.70883 -0.22107
#
# Static dielectric constant tensor:
#      x y z
#    x 2.829520 0.814640 0.416200 
#    y 0.814640 2.760210 -0.556310 
#    z 0.416200 -0.556310 2.709070 
# 
# 
# High freq. dielectric constant tensor:
#      x y z
#    x 1.713760 0.007310 -0.030540 
#    y 0.007310 1.714570 0.002470 
#    z -0.030540 0.002470 1.689220 
# 
# From -- ./inp_files/387159.got.cif
#   From: 2010.06.25/outbox.cif.g09.slc.cpg/sg2_194_cif.got.tgz:387159.got - 2010.06.27 13:26:56.
