data_PCOD8038520
_publ_section_title
;
Structure prediction by ZEFSAII (Michael W. Deem and Ramdas Pophale) SiO2 
 PCOD8038520
Probable space group: P -1
;
_chemical_formula_sum "Si O2"
_cell_formula_units_Z 14
_cell_length_a 10.229769
_cell_length_b 13.758954
_cell_length_c 6.981748
_cell_angle_alpha 61.498996
_cell_angle_beta 65.001508
_cell_angle_gamma 76.328660
_cell_volume 781.948691
_symmetry_space_group_name_H-M "P -1"
_symmetry_group_IT_number 2
_symmetry_cell_setting 'triclinic'
loop_
_space_group_symop_operation_xyz
x,y,z
-x,-y,-z
loop_
_atom_site_type_symbol
_atom_site_label
_atom_site_fract_x
_atom_site_fract_y
_atom_site_fract_z
Si Si1 0.381942 0.863869 0.562775
Si Si2 0.277656 0.315959 0.991467
Si Si3 0.609206 0.889246 0.706394
Si Si4 0.428582 0.773686 0.203029
Si Si5 0.176352 0.482817 0.206843
Si Si6 0.078111 0.363417 0.726877
Si Si7 0.216311 0.713750 0.083715
O O1 0.538613 0.864449 0.566606
O O2 0.396304 0.798454 0.418464
O O3 0.265676 0.804797 0.818301
O O4 0.324357 0.990409 0.443375
O O5 0.266104 0.205635 0.235775
O O6 0.238181 0.426398 0.030351
O O7 0.442511 0.321701 0.806978
O O8 0.169413 0.304126 0.893376
O O9 0.482806 0.882151 0.953781
O O10 0.282852 0.732709 0.234258
O O11 0.007500 0.524645 0.245973
O O12 0.185138 0.395866 0.459173
O O13 0.269428 0.590326 0.094409
O O14 0.958743 0.278910 0.802981
#
# Coordination Sequence:
#
# PCOD8038520 Si02
#       7
#     2   2   2   2   2   2   2
#     4  10  17  37  57  75 113 138 167 223 267 308
#     4  10  20  33  57  83 101 139 185 212 257 313
#     4   8  20  33  55  84 101 138 180 211 262 319
#     4   9  20  32  54  84 104 135 175 214 265 310
#     4   9  20  37  56  71 112 142 180 209 261 320
#     4   9  20  37  55  73 107 147 176 212 264 309
#     4   9  20  35  52  82 104 141 178 209 266 319
#
# _framework density 17.903987999999998
#
# number of rings (size 3 to 8) (size 9 to 14) (size 15 to 20)
#    1.714    1.143    0.000    0.857    2.000    2.857 
#    0.000    2.143    0.000    1.714    0.000    0.000 
#    0.000    0.000    0.000    0.000    0.000    0.000 
#
# Total GULP energy -173441.132135 kJ/mol
# GULP energy per Si atom -12388.652295 kJ/mol
# Density = 1.786324 g / cm^3
# Si number density = 17.903988 Si / 1000 Ang^3
#
#
#
# Elastic Constant Matrix: (Units=GPa)
#
#
# Indices 1 2 3 4 5 6 
#
# 1 74.4056 27.4182 23.1792 -7.3753 27.1786 11.7814
# 2 27.4182 52.3574 21.3423 -6.4376 5.0084 10.4899
# 3 23.1792 21.3423 51.5549 -6.6530 14.4293 10.5163
# 4 -7.3753 -6.4376 -6.6530 31.2886 6.2888 3.1587
# 5 27.1786 5.0084 14.4293 6.2888 26.9453 -5.2323
# 6 11.7814 10.4899 10.5163 3.1587 -5.2323 20.5089
#
#
#
# Elastic Compliance Matrix: (Units=1/GPa)
#
#
# Indices 1 2 3 4 5 6 
#
# 1 0.064917 -0.013889 0.027637 0.047079 -0.103851 -0.078105
# 2 -0.013889 0.028133 -0.011349 -0.003642 0.016520 0.004184
# 3 0.027637 -0.011349 0.047595 0.034292 -0.070469 -0.057736
# 4 0.047079 -0.003642 0.034292 0.077523 -0.098784 -0.079908
# 5 -0.103851 0.016520 -0.070469 -0.098784 0.230939 0.161474
# 6 -0.078105 0.004184 -0.057736 -0.079908 0.161474 0.174595
#
#
# Mechanical properties :
#
#
# Convention : Reuss Voigt Hill
#
# Bulk Modulus (GPa) = 6.87560 35.79969 21.33765
# Shear Modulus (GPa) = 7.49194 22.84044 15.16619
#
# Velocity S-wave (km/s) = 2.04783 3.57559 2.91363
# Velocity P-wave (km/s) = 3.07247 6.08977 4.82314
#
# Compressibility (1/GPa) = 0.14544176
#
# Stress axis : x y z
#
# Youngs Moduli (GPa) = 15.40435 35.54591 21.01071
#
# Poissons Ratio (x) = 0.49371 -0.58067
# Poissons Ratio (y) = 0.21396 0.23844
# Poissons Ratio (z) = -0.42573 0.40340
#
# Static dielectric constant tensor:
#      x y z
#    x 3.083950 0.057750 0.162030 
#    y 0.057750 3.077420 -0.106640 
#    z 0.162030 -0.106640 3.180260 
# 
# 
# High freq. dielectric constant tensor:
#      x y z
#    x 1.671860 0.009300 0.018890 
#    y 0.009300 1.674080 -0.004540 
#    z 0.018890 -0.004540 1.690780 
# 
# From -- ./inp_files/72857.got.cif
#   From: 2010.06.25/outbox.cif.g09.slc.cpg/sg2_37_cif.got.tgz:72857.got - 2010.06.27 13:26:56.
