data_PCOD8038440
_publ_section_title
;
Structure prediction by ZEFSAII (Michael W. Deem and Ramdas Pophale) SiO2 
 PCOD8038440
Probable space group: P -1
;
_chemical_formula_sum "Si O2"
_cell_formula_units_Z 16
_cell_length_a 7.743794
_cell_length_b 8.765894
_cell_length_c 13.956570
_cell_angle_alpha 74.471022
_cell_angle_beta 104.826085
_cell_angle_gamma 126.471110
_cell_volume 728.293918
_symmetry_space_group_name_H-M "P -1"
_symmetry_group_IT_number 2
_symmetry_cell_setting 'triclinic'
loop_
_space_group_symop_operation_xyz
x,y,z
-x,-y,-z
loop_
_atom_site_type_symbol
_atom_site_label
_atom_site_fract_x
_atom_site_fract_y
_atom_site_fract_z
Si Si1 0.211360 0.881223 0.888162
Si Si2 0.992533 0.361007 0.445554
Si Si3 0.376999 0.298486 0.333843
Si Si4 0.759143 0.702560 0.366861
Si Si5 0.907172 0.023159 0.783301
Si Si6 0.757503 0.942517 0.466813
Si Si7 0.922603 0.567806 0.757422
Si Si8 0.290594 0.832423 0.121093
O O1 0.115506 0.698759 0.836111
O O2 0.075125 0.975793 0.853831
O O3 0.453021 0.025683 0.860668
O O4 0.205241 0.809973 0.005686
O O5 0.192066 0.352404 0.512652
O O6 0.005781 0.464305 0.329985
O O7 0.000000 0.500000 0.500000
O O8 0.773355 0.142591 0.441852
O O9 0.590735 0.512527 0.314476
O O10 0.396991 0.196453 0.446535
O O11 0.174483 0.314111 0.311447
O O12 0.320528 0.165408 0.254328
O O13 0.976041 0.827792 0.313252
O O14 0.669317 0.831643 0.368644
O O15 0.842878 0.110132 0.843528
O O16 0.000000 0.000000 0.500000
O O17 0.754960 0.368326 0.817826
#
# Coordination Sequence:
#
# PCOD8038440 Si02
#       8
#     2   2   2   2   2   2   2   2
#     4  10  24  46  66  93 125 165 216 269 331 386
#     4  11  22  36  56  87 130 167 206 262 311 367
#     4  11  21  37  62  93 125 177 218 252 317 379
#     4  11  21  38  61  89 130 172 215 254 307 385
#     4  11  22  41  67  97 130 165 216 266 320 384
#     4  10  17  36  57  79 124 176 208 253 303 367
#     4  11  22  39  63  92 125 166 211 262 319 381
#     4  11  24  43  69  94 125 165 212 275 332 378
#
# _framework density 21.969152000000001
#
# number of rings (size 3 to 8) (size 9 to 14) (size 15 to 20)
#    0.000    1.250    5.000    3.375    0.000    2.000 
#    0.000    0.625    0.000    8.250    0.000    0.000 
#    0.000    0.000    0.000    0.000    0.000    0.000 
#
# Total GULP energy -198231.429194 kJ/mol
# GULP energy per Si atom -12389.464325 kJ/mol
# Density = 2.191915 g / cm^3
# Si number density = 21.969152 Si / 1000 Ang^3
#
#
#
# Elastic Constant Matrix: (Units=GPa)
#
#
# Indices 1 2 3 4 5 6 
#
# 1 54.8569 30.4813 34.8131 6.5716 -9.5917 0.1859
# 2 30.4813 162.2137 73.0701 8.9953 -14.1770 10.2187
# 3 34.8131 73.0701 144.0865 6.6492 -17.8247 6.6373
# 4 6.5716 8.9953 6.6492 40.1581 -2.9101 3.0348
# 5 -9.5917 -14.1770 -17.8247 -2.9101 24.3809 7.6874
# 6 0.1859 10.2187 6.6373 3.0348 7.6874 22.8793
#
#
#
# Elastic Compliance Matrix: (Units=1/GPa)
#
#
# Indices 1 2 3 4 5 6 
#
# 1 0.022893 -0.002092 -0.003836 -0.002367 0.004493 0.000665
# 2 -0.002092 0.008551 -0.003279 -0.000540 0.002868 -0.003743
# 3 -0.003836 -0.003279 0.010310 0.000279 0.005188 -0.003275
# 4 -0.002367 -0.000540 0.000279 0.025948 0.003450 -0.004422
# 5 0.004493 0.002868 0.005188 0.003450 0.055578 -0.021954
# 6 0.000665 -0.003743 -0.003275 -0.004422 -0.021954 0.054287
#
#
# Mechanical properties :
#
#
# Convention : Reuss Voigt Hill
#
# Bulk Modulus (GPa) = 42.84443 70.87623 56.86033
# Shear Modulus (GPa) = 24.53869 32.33649 28.43759
#
# Velocity S-wave (km/s) = 3.34572 3.84070 3.60173
# Velocity P-wave (km/s) = 5.87108 7.21108 6.57531
#
# Compressibility (1/GPa) = 0.02334026
#
# Stress axis : x y z
#
# Youngs Moduli (GPa) = 43.68167 116.94275 96.99581
#
# Poissons Ratio (x) = 0.24462 0.37207
# Poissons Ratio (y) = 0.09137 0.31805
# Poissons Ratio (z) = 0.16756 0.38346
#
# Static dielectric constant tensor:
#      x y z
#    x 4.248850 -1.212740 0.523080 
#    y -1.212740 5.921890 -0.571390 
#    z 0.523080 -0.571390 4.499240 
# 
# 
# High freq. dielectric constant tensor:
#      x y z
#    x 1.829430 -0.009170 -0.002430 
#    y -0.009170 1.889070 0.008520 
#    z -0.002430 0.008520 1.864120 
# 
# From -- ./inp_files/201825.got.cif
#   From: 2010.06.25/outbox.cif.g09.slc.cpg/sg2_101_cif.got.tgz:201825.got - 2010.06.27 13:26:56.
