data_PCOD8038245
_publ_section_title
;
Structure prediction by ZEFSAII (Michael W. Deem and Ramdas Pophale) SiO2 
 PCOD8038245
Probable space group: P -1
;
_chemical_formula_sum "Si O2"
_cell_formula_units_Z 16
_cell_length_a 10.244896
_cell_length_b 26.405680
_cell_length_c 16.260369
_cell_angle_alpha 17.197602
_cell_angle_beta 136.780870
_cell_angle_gamma 137.042709
_cell_volume 876.673766
_symmetry_space_group_name_H-M "P -1"
_symmetry_group_IT_number 2
_symmetry_cell_setting 'triclinic'
loop_
_space_group_symop_operation_xyz
x,y,z
-x,-y,-z
loop_
_atom_site_type_symbol
_atom_site_label
_atom_site_fract_x
_atom_site_fract_y
_atom_site_fract_z
Si Si1 0.181210 0.530830 0.643113
Si Si2 0.715287 0.014007 0.546522
Si Si3 0.267687 0.980290 0.645106
Si Si4 0.989726 0.220849 0.925425
Si Si5 0.593135 0.056517 0.070877
Si Si6 0.557723 0.734105 0.450435
Si Si7 0.920488 0.694935 0.902790
Si Si8 0.034135 0.342559 0.203464
O O1 0.057349 0.378025 0.772938
O O2 0.408245 0.558025 0.678434
O O3 0.091686 0.706284 0.309609
O O4 0.162508 0.472404 0.820058
O O5 0.683106 0.973309 0.498129
O O6 0.838242 0.201191 0.334047
O O7 0.500000 0.000000 0.500000
O O8 0.828018 0.875504 0.857259
O O9 0.437535 0.951733 0.831055
O O10 0.129886 0.791943 0.877857
O O11 0.199061 0.147089 0.396216
O O12 0.821577 0.090375 0.098081
O O13 0.500057 0.873482 0.272159
O O14 0.487440 0.208805 0.751498
O O15 0.781210 0.721398 0.573501
O O16 0.918096 0.609273 0.944261
O O17 0.000000 0.500000 0.000000
#
# Coordination Sequence:
#
# PCOD8038245 Si02
#       8
#     2   2   2   2   2   2   2   2
#     4  10  20  31  58  92 112 137 184 241 276 318
#     4  11  23  39  59  80 111 152 191 227 275 336
#     4  10  17  34  61  83 105 144 193 234 270 319
#     4  10  18  35  58  84 115 143 183 235 278 321
#     4  10  17  36  60  84 109 145 188 229 280 330
#     4  10  21  33  56  86 118 146 177 227 287 333
#     4  10  18  35  58  84 111 142 190 233 272 321
#     4  11  24  40  55  79 119 155 180 224 284 339
#
# _framework density 18.250803999999999
#
# number of rings (size 3 to 8) (size 9 to 14) (size 15 to 20)
#    0.000    1.750    5.000    0.750    1.750    0.500 
#    2.250    1.250    0.000    4.500    0.000    0.000 
#    0.000    0.000    0.000    0.000    0.000    0.000 
#
# Total GULP energy -198227.981700 kJ/mol
# GULP energy per Si atom -12389.248856 kJ/mol
# Density = 1.820926 g / cm^3
# Si number density = 18.250804 Si / 1000 Ang^3
#
#
#
# Elastic Constant Matrix: (Units=GPa)
#
#
# Indices 1 2 3 4 5 6 
#
# 1 67.5850 42.7491 31.8881 7.1315 8.6225 -3.0102
# 2 42.7491 96.6736 38.1986 19.2041 0.7495 -11.1426
# 3 31.8881 38.1986 71.9617 9.6051 1.8738 -10.7294
# 4 7.1315 19.2041 9.6051 24.0911 -1.1873 5.0261
# 5 8.6225 0.7495 1.8738 -1.1873 19.4986 1.8643
# 6 -3.0102 -11.1426 -10.7294 5.0261 1.8643 36.1838
#
#
#
# Elastic Compliance Matrix: (Units=1/GPa)
#
#
# Indices 1 2 3 4 5 6 
#
# 1 0.024322 -0.008905 -0.006526 0.002564 -0.009388 -0.002526
# 2 -0.008905 0.018679 -0.003638 -0.011827 0.002328 0.005456
# 3 -0.006526 -0.003638 0.019976 -0.004117 0.000395 0.004812
# 4 0.002564 -0.011827 -0.004117 0.054627 0.004233 -0.012456
# 5 -0.009388 0.002328 0.000395 0.004233 0.055894 -0.003415
# 6 -0.002526 0.005456 0.004812 -0.012456 -0.003415 0.032439
#
#
# Mechanical properties :
#
#
# Convention : Reuss Voigt Hill
#
# Bulk Modulus (GPa) = 40.25627 51.32131 45.78879
# Shear Modulus (GPa) = 19.81341 24.18032 21.99687
#
# Velocity S-wave (km/s) = 3.29845 3.64385 3.47544
# Velocity P-wave (km/s) = 6.05074 6.77382 6.42247
#
# Compressibility (1/GPa) = 0.02484085
#
# Stress axis : x y z
#
# Youngs Moduli (GPa) = 41.11485 53.53473 50.06089
#
# Poissons Ratio (x) = 0.47671 0.32667
# Poissons Ratio (y) = 0.36611 0.18213
# Poissons Ratio (z) = 0.26830 0.19476
#
# Static dielectric constant tensor:
#      x y z
#    x 3.090440 -0.028200 -0.216920 
#    y -0.028200 3.586420 0.111380 
#    z -0.216920 0.111380 3.619780 
# 
# 
# High freq. dielectric constant tensor:
#      x y z
#    x 1.662270 0.003790 -0.021820 
#    y 0.003790 1.725950 0.006710 
#    z -0.021820 0.006710 1.705850 
# 
# From -- ./inp_files/185982.got.cif
#   From: 2010.06.25/outbox.cif.g09.slc.cpg/sg2_93_cif.got.tgz:185982.got - 2010.06.27 13:26:56.
