data_PCOD8038767
_publ_section_title
;
Structure prediction by ZEFSAII (Michael W. Deem and Ramdas Pophale) SiO2 
 PCOD8038767
Probable space group: P -1
;
_chemical_formula_sum "Si O2"
_cell_formula_units_Z 16
_cell_length_a 13.611994
_cell_length_b 11.466914
_cell_length_c 13.982608
_cell_angle_alpha 100.942064
_cell_angle_beta 149.357324
_cell_angle_gamma 60.729919
_cell_volume 829.326885
_symmetry_space_group_name_H-M "P -1"
_symmetry_group_IT_number 2
_symmetry_cell_setting 'triclinic'
loop_
_space_group_symop_operation_xyz
x,y,z
-x,-y,-z
loop_
_atom_site_type_symbol
_atom_site_label
_atom_site_fract_x
_atom_site_fract_y
_atom_site_fract_z
Si Si1 0.083550 0.783546 0.025595
Si Si2 0.590625 0.227948 0.200049
Si Si3 0.125798 0.237164 0.800153
Si Si4 0.420419 0.544406 0.659258
Si Si5 0.124598 0.960852 0.249483
Si Si6 0.047184 0.005415 0.680397
Si Si7 0.972936 0.654753 0.068060
Si Si8 0.576379 0.657308 0.658012
O O1 0.371595 0.643007 0.208554
O O2 0.055689 0.888155 0.104102
O O3 0.972361 0.708788 0.968193
O O4 0.920435 0.892800 0.814971
O O5 0.506229 0.397150 0.181212
O O6 0.769169 0.161325 0.244979
O O7 0.353921 0.237879 0.976075
O O8 0.760942 0.110151 0.413555
O O9 0.083888 0.231319 0.877641
O O10 0.864802 0.394856 0.558465
O O11 0.168456 0.087549 0.771881
O O12 0.395937 0.635325 0.556577
O O13 0.419429 0.823370 0.499828
O O14 0.956150 0.022616 0.214169
O O15 0.245930 0.483485 0.290977
O O16 0.755082 0.642315 0.887159
#
# Coordination Sequence:
#
# PCOD8038767 Si02
#       8
#     2   2   2   2   2   2   2   2
#     4  10  22  33  52  75 109 140 176 208 262 315
#     4  10  20  34  54  83 105 131 178 222 259 308
#     4  11  17  31  56  79 104 136 172 217 268 301
#     4  10  19  35  53  80 106 136 172 222 257 306
#     4  11  19  36  51  75 107 144 171 212 261 315
#     4  10  20  34  54  79 110 135 170 221 264 303
#     4  10  18  30  52  81 106 134 172 219 253 318
#     4  10  18  31  52  78 107 135 173 214 264 306
#
# _framework density 19.292753999999999
#
# number of rings (size 3 to 8) (size 9 to 14) (size 15 to 20)
#    0.000    1.750    5.000    1.125    0.000    2.500 
#    0.000    0.625    0.000    0.750    0.000    0.000 
#    0.000    0.000    0.000    0.000    0.000    0.000 
#
# Total GULP energy -198221.312736 kJ/mol
# GULP energy per Si atom -12388.832046 kJ/mol
# Density = 1.924884 g / cm^3
# Si number density = 19.292754 Si / 1000 Ang^3
#
#
#
# Elastic Constant Matrix: (Units=GPa)
#
#
# Indices 1 2 3 4 5 6 
#
# 1 64.1956 33.4390 38.8077 -10.3980 -5.4509 -12.9716
# 2 33.4390 57.9578 31.2882 -5.8303 -7.6078 -8.3129
# 3 38.8077 31.2882 89.6931 -8.4518 12.0565 5.5136
# 4 -10.3980 -5.8303 -8.4518 36.8686 10.5120 -1.6718
# 5 -5.4509 -7.6078 12.0565 10.5120 24.2704 4.2072
# 6 -12.9716 -8.3129 5.5136 -1.6718 4.2072 25.2513
#
#
#
# Elastic Compliance Matrix: (Units=1/GPa)
#
#
# Indices 1 2 3 4 5 6 
#
# 1 0.031420 -0.008149 -0.012196 0.003670 0.006317 0.015311
# 2 -0.008149 0.028563 -0.008599 -0.002890 0.011790 0.004938
# 3 -0.012196 -0.008599 0.022825 0.004767 -0.016941 -0.010941
# 4 0.003670 -0.002890 0.004767 0.034208 -0.018165 0.005184
# 5 0.006317 0.011790 -0.016941 -0.018165 0.062744 -0.000831
# 6 0.015311 0.004938 -0.010941 0.005184 -0.000831 0.051964
#
#
# Mechanical properties :
#
#
# Convention : Reuss Voigt Hill
#
# Bulk Modulus (GPa) = 40.13006 46.54627 43.33816
# Shear Modulus (GPa) = 16.78318 24.49885 20.64101
#
# Velocity S-wave (km/s) = 2.95264 3.56736 3.27446
# Velocity P-wave (km/s) = 5.69823 6.41457 6.06698
#
# Compressibility (1/GPa) = 0.02491898
#
# Stress axis : x y z
#
# Youngs Moduli (GPa) = 31.82703 35.01061 43.81257
#
# Poissons Ratio (x) = 0.28531 0.53435
# Poissons Ratio (y) = 0.25937 0.37672
# Poissons Ratio (z) = 0.38817 0.30104
#
# Static dielectric constant tensor:
#      x y z
#    x 3.374920 -0.291530 0.045120 
#    y -0.291530 3.639070 -0.047760 
#    z 0.045120 -0.047760 3.482800 
# 
# 
# High freq. dielectric constant tensor:
#      x y z
#    x 1.719230 -0.034820 0.019730 
#    y -0.034820 1.749740 0.009200 
#    z 0.019730 0.009200 1.742010 
# 
# From -- ./inp_files/268209.got.cif
#   From: 2010.06.25/outbox.cif.g09.slc.cpg/sg2_135_cif.got.tgz:268209.got - 2010.06.27 13:26:56.
