data_PCOD8038032
_publ_section_title
;
Structure prediction by ZEFSAII (Michael W. Deem and Ramdas Pophale) SiO2 
 PCOD8038032
Probable space group: P -1
;
_chemical_formula_sum "Si O2"
_cell_formula_units_Z 14
_cell_length_a 21.692965
_cell_length_b 8.807678
_cell_length_c 7.324903
_cell_angle_alpha 52.803229
_cell_angle_beta 129.410810
_cell_angle_gamma 145.832676
_cell_volume 597.052123
_symmetry_space_group_name_H-M "P -1"
_symmetry_group_IT_number 2
_symmetry_cell_setting 'triclinic'
loop_
_space_group_symop_operation_xyz
x,y,z
-x,-y,-z
loop_
_atom_site_type_symbol
_atom_site_label
_atom_site_fract_x
_atom_site_fract_y
_atom_site_fract_z
Si Si1 0.473129 0.565748 0.634892
Si Si2 0.873325 0.195959 0.179817
Si Si3 0.727271 0.297500 0.876737
Si Si4 0.218330 0.183651 0.400060
Si Si5 0.515618 0.238372 0.098359
Si Si6 0.660385 0.140929 0.446191
Si Si7 0.132241 0.743727 0.288608
O O1 0.345432 0.323152 0.493620
O O2 0.463936 0.689392 0.701597
O O3 0.556528 0.809010 0.467688
O O4 0.530775 0.462751 0.860247
O O5 0.010024 0.429664 0.291895
O O6 0.818786 0.921280 0.382948
O O7 0.820087 0.294324 0.099916
O O8 0.839568 0.125172 0.955117
O O9 0.788222 0.603577 0.808948
O O10 0.691029 0.221562 0.655208
O O11 0.612608 0.069560 0.950009
O O12 0.131645 0.920956 0.295802
O O13 0.612939 0.259769 0.191143
O O14 0.773787 0.255351 0.475023
#
# Coordination Sequence:
#
# PCOD8038032 Si02
#       7
#     2   2   2   2   2   2   2
#     4  10  19  31  63  93 118 162 208 239 308 363
#     4  10  23  47  63  85 127 164 203 257 304 363
#     4  10  19  35  65  93 119 161 209 249 302 362
#     4  12  21  40  68  93 118 163 209 254 303 360
#     4  10  17  33  58  95 121 162 201 243 305 371
#     4  10  19  37  57  88 131 159 194 252 304 369
#     4  10  25  42  63  92 125 162 204 254 310 359
#
# _framework density 23.448537999999999
#
# number of rings (size 3 to 8) (size 9 to 14) (size 15 to 20)
#    0.000    1.714    4.286    1.286    2.000    1.143 
#    0.000   12.857    0.000    0.000    0.000    0.000 
#    0.000    0.000    0.000    0.000    0.000    0.000 
#
# Total GULP energy -173616.713711 kJ/mol
# GULP energy per Si atom -12401.193836 kJ/mol
# Density = 2.339517 g / cm^3
# Si number density = 23.448538 Si / 1000 Ang^3
#
#
#
# Elastic Constant Matrix: (Units=GPa)
#
#
# Indices 1 2 3 4 5 6 
#
# 1 67.1057 23.1963 25.4443 -6.7337 12.5512 11.8232
# 2 23.1963 80.4505 24.4577 -7.8891 14.7577 11.4278
# 3 25.4443 24.4577 51.9598 -15.8246 26.9431 8.4079
# 4 -6.7337 -7.8891 -15.8246 35.1403 -5.7435 9.8115
# 5 12.5512 14.7577 26.9431 -5.7435 27.2395 10.0124
# 6 11.8232 11.4278 8.4079 9.8115 10.0124 26.1340
#
#
#
# Elastic Compliance Matrix: (Units=1/GPa)
#
#
# Indices 1 2 3 4 5 6 
#
# 1 0.019869 -0.002551 -0.008885 0.001952 0.004120 -0.007326
# 2 -0.002551 0.015489 -0.004060 0.002363 -0.000920 -0.004847
# 3 -0.008885 -0.004060 0.051123 0.013599 -0.041451 0.000123
# 4 0.001952 0.002363 0.013599 0.042083 0.001586 -0.022698
# 5 0.004120 -0.000920 -0.041451 0.001586 0.084383 -0.021050
# 6 -0.007326 -0.004847 0.000123 -0.022698 -0.021050 0.060245
#
#
# Mechanical properties :
#
#
# Convention : Reuss Voigt Hill
#
# Bulk Modulus (GPa) = 18.02203 38.41250 28.21727
# Shear Modulus (GPa) = 15.49515 26.13061 20.81288
#
# Velocity S-wave (km/s) = 2.57342 3.34186 2.98249
# Velocity P-wave (km/s) = 4.06601 5.59534 4.89082
#
# Compressibility (1/GPa) = 0.05548764
#
# Stress axis : x y z
#
# Youngs Moduli (GPa) = 50.33035 64.56185 19.56051
#
# Poissons Ratio (x) = 0.16472 0.17380
# Poissons Ratio (y) = 0.12841 0.07942
# Poissons Ratio (z) = 0.44719 0.26215
#
# Static dielectric constant tensor:
#      x y z
#    x 4.131730 0.058960 0.176060 
#    y 0.058960 4.169340 -0.000320 
#    z 0.176060 -0.000320 4.086310 
# 
# 
# High freq. dielectric constant tensor:
#      x y z
#    x 1.919180 -0.001630 0.008250 
#    y -0.001630 1.924710 0.001940 
#    z 0.008250 0.001940 1.916920 
# 
# From -- ./inp_files/236827.got.cif
#   From: 2010.06.25/outbox.cif.g09.slc.cpg/sg2_119_cif.got.tgz:236827.got - 2010.06.27 13:26:56.
