data_PCOD8038626
_publ_section_title
;
Structure prediction by ZEFSAII (Michael W. Deem and Ramdas Pophale) SiO2 
 PCOD8038626
Probable space group: P -1
;
_chemical_formula_sum "Si O2"
_cell_formula_units_Z 16
_cell_length_a 16.299214
_cell_length_b 11.091683
_cell_length_c 17.282550
_cell_angle_alpha 139.328659
_cell_angle_beta 156.908153
_cell_angle_gamma 52.390803
_cell_volume 750.474545
_symmetry_space_group_name_H-M "P -1"
_symmetry_group_IT_number 2
_symmetry_cell_setting 'triclinic'
loop_
_space_group_symop_operation_xyz
x,y,z
-x,-y,-z
loop_
_atom_site_type_symbol
_atom_site_label
_atom_site_fract_x
_atom_site_fract_y
_atom_site_fract_z
Si Si1 0.253444 0.934754 0.226119
Si Si2 0.472886 0.483381 0.593224
Si Si3 0.963553 0.226171 0.626926
Si Si4 0.385413 0.119655 0.906249
Si Si5 0.962674 0.140422 0.148635
Si Si6 0.221537 0.242151 0.116969
Si Si7 0.090062 0.576843 0.014596
Si Si8 0.207365 0.567114 0.546543
O O1 0.099020 0.729154 0.027499
O O2 0.500000 0.000000 0.500000
O O3 0.161525 0.106137 0.256086
O O4 0.247971 0.907934 0.115376
O O5 0.310082 0.324998 0.318401
O O6 0.589624 0.695038 0.754190
O O7 0.658526 0.390920 0.730980
O O8 0.346725 0.519737 0.574900
O O9 0.943565 0.318119 0.569022
O O10 0.199681 0.191372 0.822969
O O11 0.751750 0.020691 0.350968
O O12 0.949396 0.362839 0.753061
O O13 0.605355 0.308050 0.167227
O O14 0.500000 0.000000 0.000000
O O15 0.051052 0.371928 0.360810
O O16 0.890686 0.996190 0.091186
O O17 0.041676 0.354923 0.996278
#
# Coordination Sequence:
#
# PCOD8038626 Si02
#       8
#     2   2   2   2   2   2   2   2
#     4  10  18  27  45  69  97 132 170 201 242 290
#     4  11  20  32  50  70 103 145 174 202 239 290
#     4  10  18  32  50  77 102 122 162 217 259 299
#     4   9  20  32  50  77 103 121 157 215 270 303
#     4  10  19  31  46  71 103 134 166 207 245 292
#     4  10  22  34  44  72 111 140 175 201 233 292
#     4  11  18  31  50  72 101 135 171 209 247 288
#     4  11  18  32  53  76 101 132 168 204 257 297
#
# _framework density 21.319842999999999
#
# number of rings (size 3 to 8) (size 9 to 14) (size 15 to 20)
#    0.000    1.750    3.750    3.375    0.000    0.000 
#    0.000    0.000    0.000    0.000    0.000    8.750 
#    0.000    0.625    0.000    0.000    0.000    0.000 
#
# Total GULP energy -198211.787250 kJ/mol
# GULP energy per Si atom -12388.236703 kJ/mol
# Density = 2.127132 g / cm^3
# Si number density = 21.319843 Si / 1000 Ang^3
#
#
#
# Elastic Constant Matrix: (Units=GPa)
#
#
# Indices 1 2 3 4 5 6 
#
# 1 23.4457 7.9361 2.5842 9.0099 8.7708 -2.8698
# 2 7.9361 93.4824 52.0975 6.5716 11.1358 -4.6208
# 3 2.5842 52.0975 128.9011 5.3407 3.6876 0.8556
# 4 9.0099 6.5716 5.3407 51.2579 -0.3938 7.3122
# 5 8.7708 11.1358 3.6876 -0.3938 19.2163 4.5190
# 6 -2.8698 -4.6208 0.8556 7.3122 4.5190 12.8630
#
#
#
# Elastic Compliance Matrix: (Units=1/GPa)
#
#
# Indices 1 2 3 4 5 6 
#
# 1 0.071442 0.003450 -0.001016 -0.019554 -0.045218 0.044248
# 2 0.003450 0.016484 -0.006270 -0.004192 -0.013344 0.014179
# 3 -0.001016 -0.006270 0.010226 0.000604 0.003239 -0.004641
# 4 -0.019554 -0.004192 0.000604 0.027562 0.018397 -0.028040
# 5 -0.045218 -0.013344 0.003239 0.018397 0.093937 -0.058557
# 6 0.044248 0.014179 -0.004641 -0.028040 -0.058557 0.129529
#
#
# Mechanical properties :
#
#
# Convention : Reuss Voigt Hill
#
# Bulk Modulus (GPa) = 11.05246 41.22943 26.14095
# Shear Modulus (GPa) = 12.91951 28.88154 20.90052
#
# Velocity S-wave (km/s) = 2.46435 3.68459 3.13442
# Velocity P-wave (km/s) = 3.64592 6.12226 5.03859
#
# Compressibility (1/GPa) = 0.09047757
#
# Stress axis : x y z
#
# Youngs Moduli (GPa) = 13.99735 60.66619 97.79458
#
# Poissons Ratio (x) = -0.20928 0.09940
# Poissons Ratio (y) = -0.04829 0.61317
# Poissons Ratio (z) = 0.01423 0.38038
#
# Static dielectric constant tensor:
#      x y z
#    x 3.335310 0.057380 0.120640 
#    y 0.057380 4.452360 0.070540 
#    z 0.120640 0.070540 4.363370 
# 
# 
# High freq. dielectric constant tensor:
#      x y z
#    x 1.757140 -0.001330 0.011810 
#    y -0.001330 1.854460 -0.005930 
#    z 0.011810 -0.005930 1.858950 
# 
# From -- ./inp_files/472625.got.cif
#   From: 2010.06.25/outbox.cif.g09.slc.cpg/sg2_237_cif.got.tgz:472625.got - 2010.06.27 13:26:56.
