data_PCOD8038636
_publ_section_title
;
Structure prediction by ZEFSAII (Michael W. Deem and Ramdas Pophale) SiO2 
 PCOD8038636
Probable space group: P -1
;
_chemical_formula_sum "Si O2"
_cell_formula_units_Z 16
_cell_length_a 22.416308
_cell_length_b 15.476261
_cell_length_c 12.709892
_cell_angle_alpha 154.481767
_cell_angle_beta 29.398501
_cell_angle_gamma 153.860756
_cell_volume 792.330287
_symmetry_space_group_name_H-M "P -1"
_symmetry_group_IT_number 2
_symmetry_cell_setting 'triclinic'
loop_
_space_group_symop_operation_xyz
x,y,z
-x,-y,-z
loop_
_atom_site_type_symbol
_atom_site_label
_atom_site_fract_x
_atom_site_fract_y
_atom_site_fract_z
Si Si1 0.205463 0.516636 0.251629
Si Si2 0.996514 0.338394 0.191503
Si Si3 0.239981 0.103652 0.827077
Si Si4 0.643165 0.732687 0.568075
Si Si5 0.537079 0.978315 0.536992
Si Si6 0.203676 0.524880 0.909349
Si Si7 0.626601 0.126153 0.132183
Si Si8 0.673765 0.023529 0.650572
O O1 0.142662 0.442282 0.149072
O O2 0.354482 0.767294 0.296489
O O3 0.086427 0.525603 0.514044
O O4 0.239470 0.333901 0.051172
O O5 0.040506 0.377717 0.043048
O O6 0.895405 0.063166 0.074330
O O7 0.231623 0.951879 0.569867
O O8 0.385995 0.173097 0.742024
O O9 0.500000 0.500000 0.500000
O O10 0.749719 0.664369 0.378708
O O11 0.712600 0.890614 0.531269
O O12 0.618345 0.881417 0.857146
O O13 0.390417 0.851540 0.691667
O O14 0.500000 0.000000 0.500000
O O15 0.227512 0.650320 0.895695
O O16 0.292210 0.727742 0.083250
O O17 0.495366 0.128559 0.280253
#
# Coordination Sequence:
#
# PCOD8038636 Si02
#       8
#     2   2   2   2   2   2   2   2
#     4  10  20  35  56  79 112 146 181 226 267 319
#     4  10  20  33  52  83 117 144 175 214 273 332
#     4  10  21  34  56  81 109 148 184 223 267 327
#     4  11  18  27  47  73 107 146 167 204 266 332
#     4  10  23  40  57  79 106 141 189 236 272 309
#     4  11  19  30  46  74 112 142 167 212 264 329
#     4  10  20  31  47  75 103 136 179 216 267 323
#     4  10  18  28  45  74 107 139 177 207 262 326
#
# _framework density 20.193598999999999
#
# number of rings (size 3 to 8) (size 9 to 14) (size 15 to 20)
#    0.000    1.750    2.500    4.875    1.750    2.500 
#    0.000    0.000    0.000    3.000    0.000    5.250 
#    0.000    0.000    0.000    0.000    0.000    0.000 
#
# Total GULP energy -198282.755401 kJ/mol
# GULP energy per Si atom -12392.672213 kJ/mol
# Density = 2.014764 g / cm^3
# Si number density = 20.193599 Si / 1000 Ang^3
#
#
#
# Elastic Constant Matrix: (Units=GPa)
#
#
# Indices 1 2 3 4 5 6 
#
# 1 82.3060 21.8308 40.0437 -7.0531 -3.4162 -26.8435
# 2 21.8308 92.2219 40.4297 -19.0791 4.3219 -34.8269
# 3 40.0437 40.4297 95.0785 -2.8559 -19.4497 -27.0175
# 4 -7.0531 -19.0791 -2.8559 36.9498 -19.2101 4.7389
# 5 -3.4162 4.3219 -19.4497 -19.2101 28.6202 -2.3391
# 6 -26.8435 -34.8269 -27.0175 4.7389 -2.3391 31.1025
#
#
#
# Elastic Compliance Matrix: (Units=1/GPa)
#
#
# Indices 1 2 3 4 5 6 
#
# 1 0.019482 0.005193 -0.004132 0.005897 0.004200 0.018457
# 2 0.005193 0.023144 -0.003151 0.012045 0.005211 0.026217
# 3 -0.004132 -0.003151 0.021778 0.009088 0.021870 0.012083
# 4 0.005897 0.012045 0.009088 0.055159 0.043830 0.021364
# 5 0.004200 0.005211 0.021870 0.043830 0.081216 0.027888
# 6 0.018457 0.026217 0.012083 0.021364 0.027888 0.086776
#
#
# Mechanical properties :
#
#
# Convention : Reuss Voigt Hill
#
# Bulk Modulus (GPa) = 16.60465 52.69055 34.64760
# Shear Modulus (GPa) = 16.03539 30.48796 23.26168
#
# Velocity S-wave (km/s) = 2.82101 3.88981 3.39770
# Velocity P-wave (km/s) = 4.34181 6.80614 5.70854
#
# Compressibility (1/GPa) = 0.06022408
#
# Stress axis : x y z
#
# Youngs Moduli (GPa) = 51.32881 43.20844 45.91697
#
# Poissons Ratio (x) = -0.22439 0.18975
# Poissons Ratio (y) = -0.26656 0.14468
# Poissons Ratio (z) = 0.21212 0.13614
#
# Static dielectric constant tensor:
#      x y z
#    x 3.388530 -0.460080 -0.193230 
#    y -0.460080 3.755330 -0.138120 
#    z -0.193230 -0.138120 3.891810 
# 
# 
# High freq. dielectric constant tensor:
#      x y z
#    x 1.739380 -0.048350 -0.015520 
#    y -0.048350 1.784170 -0.011300 
#    z -0.015520 -0.011300 1.791800 
# 
# From -- ./inp_files/471778.got.cif
#   From: 2010.06.25/outbox.cif.g09.slc.cpg/sg2_236_cif.got.tgz:471778.got - 2010.06.27 13:26:56.
