data_PCOD8038958
_publ_section_title
;
Structure prediction by ZEFSAII (Michael W. Deem and Ramdas Pophale) SiO2 
 PCOD8038958
Probable space group: P -1
;
_chemical_formula_sum "Si O2"
_cell_formula_units_Z 16
_cell_length_a 11.520978
_cell_length_b 20.082717
_cell_length_c 9.256310
_cell_angle_alpha 126.872212
_cell_angle_beta 120.199289
_cell_angle_gamma 28.740484
_cell_volume 822.328314
_symmetry_space_group_name_H-M "P -1"
_symmetry_group_IT_number 2
_symmetry_cell_setting 'triclinic'
loop_
_space_group_symop_operation_xyz
x,y,z
-x,-y,-z
loop_
_atom_site_type_symbol
_atom_site_label
_atom_site_fract_x
_atom_site_fract_y
_atom_site_fract_z
Si Si1 0.716419 0.345093 0.631039
Si Si2 0.836444 0.361618 0.245669
Si Si3 0.131929 0.054085 0.071381
Si Si4 0.344364 0.193493 0.855594
Si Si5 0.897198 0.380018 0.991841
Si Si6 0.179382 0.849718 0.754975
Si Si7 0.345139 0.385759 0.082899
Si Si8 0.983657 0.335086 0.596565
O O1 0.433045 0.499468 0.682679
O O2 0.786756 0.213686 0.461345
O O3 0.796647 0.360072 0.564504
O O4 0.856345 0.306461 0.810842
O O5 0.853821 0.406356 0.169371
O O6 0.008595 0.316058 0.415119
O O7 0.937485 0.216767 0.091427
O O8 0.057405 0.062180 0.195998
O O9 0.386896 0.971224 0.142356
O O10 0.157418 0.960625 0.860144
O O11 0.244510 0.191868 0.653343
O O12 0.349097 0.286376 0.928923
O O13 0.168464 0.270023 0.982313
O O14 0.701438 0.541057 0.001039
O O15 0.403126 0.712994 0.821704
O O16 0.129230 0.518361 0.233136
#
# Coordination Sequence:
#
# PCOD8038958 Si02
#       8
#     2   2   2   2   2   2   2   2
#     4  10  19  36  58  82 107 137 190 227 263 312
#     4  12  21  34  53  89 112 140 177 226 278 318
#     4  10  21  33  58  81 114 138 181 223 271 322
#     4   9  20  38  54  79 108 149 180 222 266 319
#     4  10  22  33  55  84 111 145 174 227 275 321
#     4  10  18  35  60  86  99 142 187 229 262 312
#     4   9  17  36  60  77 107 136 187 228 265 310
#     4  10  18  31  58  80 104 140 183 228 258 317
#
# _framework density 19.456948000000001
#
# number of rings (size 3 to 8) (size 9 to 14) (size 15 to 20)
#    0.000    2.250    2.500    3.750    0.000    1.000 
#    0.000    3.125    0.000    0.000    0.000    0.000 
#    0.000    0.000    0.000    0.000    0.000    0.000 
#
# Total GULP energy -198300.959393 kJ/mol
# GULP energy per Si atom -12393.809962 kJ/mol
# Density = 1.941266 g / cm^3
# Si number density = 19.456948 Si / 1000 Ang^3
#
#
#
# Elastic Constant Matrix: (Units=GPa)
#
#
# Indices 1 2 3 4 5 6 
#
# 1 63.5859 28.0773 41.5639 -8.1436 1.1011 -10.0232
# 2 28.0773 48.4388 31.8808 14.6402 0.8662 -6.8895
# 3 41.5639 31.8808 109.0201 -5.5082 -5.5063 8.5726
# 4 -8.1436 14.6402 -5.5082 28.9459 8.6807 1.3649
# 5 1.1011 0.8662 -5.5063 8.6807 17.8122 -2.8211
# 6 -10.0232 -6.8895 8.5726 1.3649 -2.8211 35.1724
#
#
#
# Elastic Compliance Matrix: (Units=1/GPa)
#
#
# Indices 1 2 3 4 5 6 
#
# 1 0.032837 -0.020488 -0.006465 0.022023 -0.012969 0.005025
# 2 -0.020488 0.051140 -0.008996 -0.038660 0.016293 0.009178
# 3 -0.006465 -0.008996 0.015211 0.005462 0.001708 -0.007387
# 4 0.022023 -0.038660 0.005462 0.071964 -0.034157 -0.008160
# 5 -0.012969 0.016293 0.001708 -0.034157 0.074333 0.006367
# 6 0.005025 0.009178 -0.007387 -0.008160 0.006367 0.034289
#
#
# Mechanical properties :
#
#
# Convention : Reuss Voigt Hill
#
# Bulk Modulus (GPa) = 36.64376 47.12098 41.88237
# Shear Modulus (GPa) = 13.85927 24.35429 19.10678
#
# Velocity S-wave (km/s) = 2.67180 3.54178 3.13709
# Velocity P-wave (km/s) = 5.32843 6.40283 5.89018
#
# Compressibility (1/GPa) = 0.02728978
#
# Stress axis : x y z
#
# Youngs Moduli (GPa) = 30.45359 19.55418 65.74086
#
# Poissons Ratio (x) = 0.40062 0.42503
# Poissons Ratio (y) = 0.62393 0.59140
# Poissons Ratio (z) = 0.19689 0.17591
#
# Static dielectric constant tensor:
#      x y z
#    x 3.392460 -0.261110 0.220750 
#    y -0.261110 3.563920 0.111600 
#    z 0.220750 0.111600 3.593460 
# 
# 
# High freq. dielectric constant tensor:
#      x y z
#    x 1.735860 -0.023100 0.019100 
#    y -0.023100 1.748290 0.008820 
#    z 0.019100 0.008820 1.747350 
# 
# From -- ./inp_files/282175.got.cif
#   From: 2010.06.25/outbox.cif.g09.slc.cpg/sg2_142_cif.got.tgz:282175.got - 2010.06.27 13:26:56.
