data_PCOD8038898
_publ_section_title
;
Structure prediction by ZEFSAII (Michael W. Deem and Ramdas Pophale) SiO2 
 PCOD8038898
Probable space group: P -1
;
_chemical_formula_sum "Si O2"
_cell_formula_units_Z 16
_cell_length_a 14.141132
_cell_length_b 22.239630
_cell_length_c 11.974424
_cell_angle_alpha 149.164635
_cell_angle_beta 153.095236
_cell_angle_gamma 27.892879
_cell_volume 751.721209
_symmetry_space_group_name_H-M "P -1"
_symmetry_group_IT_number 2
_symmetry_cell_setting 'triclinic'
loop_
_space_group_symop_operation_xyz
x,y,z
-x,-y,-z
loop_
_atom_site_type_symbol
_atom_site_label
_atom_site_fract_x
_atom_site_fract_y
_atom_site_fract_z
Si Si1 0.094278 0.820171 0.355145
Si Si2 0.109385 0.913015 0.299213
Si Si3 0.602167 0.874111 0.759067
Si Si4 0.416613 0.183612 0.111445
Si Si5 0.860789 0.322632 0.615730
Si Si6 0.676047 0.625326 0.875748
Si Si7 0.758650 0.913869 0.773833
Si Si8 0.241297 0.179169 0.610808
O O1 0.026329 0.829696 0.165491
O O2 0.369741 0.786946 0.590109
O O3 0.058916 0.714647 0.227972
O O4 0.922735 0.960994 0.461216
O O5 0.394266 0.836936 0.453218
O O6 0.955658 0.954750 0.088879
O O7 0.720826 0.808746 0.902530
O O8 0.764344 0.816751 0.726077
O O9 0.517244 0.035352 0.927289
O O10 0.256122 0.300079 0.034808
O O11 0.852592 0.462477 0.796320
O O12 0.599192 0.337544 0.356100
O O13 0.033831 0.203191 0.520741
O O14 0.715403 0.691976 0.135083
O O15 0.854403 0.828320 0.624598
O O16 0.491420 0.042214 0.682326
#
# Coordination Sequence:
#
# PCOD8038898 Si02
#       8
#     2   2   2   2   2   2   2   2
#     4   9  17  31  53  82 109 132 176 233 274 319
#     4  10  19  31  52  81 109 138 177 226 277 325
#     4  10  18  31  53  80 110 141 170 228 281 314
#     4   9  17  31  54  82 108 133 178 229 276 319
#     4  10  21  37  60  81 107 144 181 231 279 313
#     4  10  20  38  59  83 108 137 188 232 267 328
#     4  11  22  36  52  78 115 149 182 218 269 341
#     4  11  23  37  53  77 113 150 184 220 268 331
#
# _framework density 21.284488
#
# number of rings (size 3 to 8) (size 9 to 14) (size 15 to 20)
#    0.000    2.000    2.500    1.875    1.750    1.000 
#    0.000    3.125    0.000    3.000    0.000    7.000 
#    0.000    0.000    0.000    0.000    0.000    0.000 
#
# Total GULP energy -198208.951302 kJ/mol
# GULP energy per Si atom -12388.059456 kJ/mol
# Density = 2.123604 g / cm^3
# Si number density = 21.284488 Si / 1000 Ang^3
#
#
#
# Elastic Constant Matrix: (Units=GPa)
#
#
# Indices 1 2 3 4 5 6 
#
# 1 114.8352 42.6893 52.8196 0.1548 -7.5104 24.9427
# 2 42.6893 83.2156 29.6051 -4.8996 -13.2829 15.9399
# 3 52.8196 29.6051 94.0878 -9.9596 -24.5605 17.9905
# 4 0.1548 -4.8996 -9.9596 25.0416 14.0267 -1.5419
# 5 -7.5104 -13.2829 -24.5605 14.0267 40.6997 1.6555
# 6 24.9427 15.9399 17.9905 -1.5419 1.6555 27.1073
#
#
#
# Elastic Compliance Matrix: (Units=1/GPa)
#
#
# Indices 1 2 3 4 5 6 
#
# 1 0.014563 -0.004326 -0.006093 -0.003222 -0.001009 -0.006935
# 2 -0.004326 0.016151 -0.000449 0.000239 0.004342 -0.005471
# 3 -0.006093 -0.000449 0.018060 0.001466 0.009391 -0.006606
# 4 -0.003222 0.000239 0.001466 0.050641 -0.017320 0.005789
# 5 -0.001009 0.004342 0.009391 -0.017320 0.037891 -0.011157
# 6 -0.006935 -0.005471 -0.006606 0.005789 -0.011157 0.051883
#
#
# Mechanical properties :
#
#
# Convention : Reuss Voigt Hill
#
# Bulk Modulus (GPa) = 36.98355 60.26297 48.62326
# Shear Modulus (GPa) = 22.73381 29.70470 26.21925
#
# Velocity S-wave (km/s) = 3.27171 3.73983 3.51358
# Velocity P-wave (km/s) = 5.62901 6.85733 6.27330
#
# Compressibility (1/GPa) = 0.02703905
#
# Stress axis : x y z
#
# Youngs Moduli (GPa) = 68.66588 61.91675 55.37206
#
# Poissons Ratio (x) = 0.26783 0.33738
# Poissons Ratio (y) = 0.29702 0.02485
# Poissons Ratio (z) = 0.41838 0.02778
#
# Static dielectric constant tensor:
#      x y z
#    x 4.394670 0.349750 0.139420 
#    y 0.349750 3.827420 -0.483660 
#    z 0.139420 -0.483660 4.083320 
# 
# 
# High freq. dielectric constant tensor:
#      x y z
#    x 1.855200 0.016440 0.033900 
#    y 0.016440 1.794780 -0.061680 
#    z 0.033900 -0.061680 1.841390 
# 
# From -- ./inp_files/458161.got.cif
#   From: 2010.06.25/outbox.cif.g09.slc.cpg/sg2_230_cif.got.tgz:458161.got - 2010.06.27 13:26:56.
