data_PCOD8038552
_publ_section_title
;
Structure prediction by ZEFSAII (Michael W. Deem and Ramdas Pophale) SiO2 
 PCOD8038552
Probable space group: P -1
;
_chemical_formula_sum "Si O2"
_cell_formula_units_Z 16
_cell_length_a 12.803512
_cell_length_b 18.440683
_cell_length_c 18.931911
_cell_angle_alpha 152.262050
_cell_angle_beta 157.855780
_cell_angle_gamma 42.340905
_cell_volume 696.423426
_symmetry_space_group_name_H-M "P -1"
_symmetry_group_IT_number 2
_symmetry_cell_setting 'triclinic'
loop_
_space_group_symop_operation_xyz
x,y,z
-x,-y,-z
loop_
_atom_site_type_symbol
_atom_site_label
_atom_site_fract_x
_atom_site_fract_y
_atom_site_fract_z
Si Si1 0.226067 0.114587 0.952870
Si Si2 0.270373 0.663041 0.770549
Si Si3 0.410196 0.368995 0.396410
Si Si4 0.751330 0.179706 0.972456
Si Si5 0.780047 0.366115 0.021702
Si Si6 0.653088 0.199367 0.653780
Si Si7 0.847278 0.248818 0.377068
Si Si8 0.486182 0.414422 0.635000
O O1 0.966508 0.178019 0.830332
O O2 0.073755 0.904899 0.680485
O O3 0.389215 0.189448 0.196112
O O4 0.493189 0.200156 0.134773
O O5 0.128409 0.723338 0.667899
O O6 0.523441 0.602703 0.848096
O O7 0.000000 0.500000 0.500000
O O8 0.406220 0.817607 0.047670
O O9 0.500000 0.500000 0.500000
O O10 0.618797 0.432667 0.652849
O O11 0.078239 0.334082 0.186567
O O12 0.615936 0.274958 0.914055
O O13 0.641240 0.981043 0.707339
O O14 0.124544 0.270716 0.292316
O O15 0.583780 0.263801 0.741918
O O16 0.888353 0.574670 0.268169
O O17 0.698426 0.353111 0.760629
#
# Coordination Sequence:
#
# PCOD8038552 Si02
#       8
#     2   2   2   2   2   2   2   2
#     4  10  24  38  67  93 124 166 211 261 307 379
#     4  10  19  39  66  92 116 167 219 251 306 382
#     4  10  17  37  64  87 119 162 209 243 305 376
#     4  10  21  41  63  90 128 168 209 253 318 377
#     4  10  20  39  64  86 126 163 210 261 301 378
#     4  11  24  40  58 101 128 160 209 262 318 362
#     4  11  20  43  67  92 121 169 216 252 316 379
#     4  10  21  38  64  92 124 167 206 255 316 371
#
# _framework density 22.974529
#
# number of rings (size 3 to 8) (size 9 to 14) (size 15 to 20)
#    0.000    1.750    5.000    0.750    1.750    1.000 
#   11.250    7.500    0.000    0.000    0.000    0.000 
#    0.000    0.000    0.000    0.000    0.000    0.000 
#
# Total GULP energy -198226.370389 kJ/mol
# GULP energy per Si atom -12389.148149 kJ/mol
# Density = 2.292224 g / cm^3
# Si number density = 22.974529 Si / 1000 Ang^3
#
#
#
# Elastic Constant Matrix: (Units=GPa)
#
#
# Indices 1 2 3 4 5 6 
#
# 1 143.0723 49.6033 41.5942 1.5805 -38.0743 20.9103
# 2 49.6033 107.8008 22.1399 8.2037 -18.0755 10.0050
# 3 41.5942 22.1399 78.1792 20.4904 -36.5557 -2.6630
# 4 1.5805 8.2037 20.4904 29.8276 -7.6096 -3.4025
# 5 -38.0743 -18.0755 -36.5557 -7.6096 43.6322 -1.8921
# 6 20.9103 10.0050 -2.6630 -3.4025 -1.8921 31.4189
#
#
#
# Elastic Compliance Matrix: (Units=1/GPa)
#
#
# Indices 1 2 3 4 5 6 
#
# 1 0.011696 -0.003303 -0.003523 0.003586 0.006240 -0.006266
# 2 -0.003303 0.011397 -0.000369 -0.002645 0.000995 -0.001689
# 3 -0.003523 -0.000369 0.026007 -0.012881 0.016500 0.004265
# 4 0.003586 -0.002645 -0.012881 0.042825 -0.001206 0.001929
# 5 0.006240 0.000995 0.016500 -0.001206 0.042361 -0.000651
# 6 -0.006266 -0.001689 0.004265 0.001929 -0.000651 0.037067
#
#
# Mechanical properties :
#
#
# Convention : Reuss Voigt Hill
#
# Bulk Modulus (GPa) = 28.81097 61.74748 45.27923
# Shear Modulus (GPa) = 25.34057 35.35674 30.34865
#
# Velocity S-wave (km/s) = 3.32473 3.92721 3.63846
# Velocity P-wave (km/s) = 5.22552 6.89194 6.11575
#
# Compressibility (1/GPa) = 0.03470900
#
# Stress axis : x y z
#
# Youngs Moduli (GPa) = 85.50286 87.74279 38.45188
#
# Poissons Ratio (x) = 0.28983 0.13546
# Poissons Ratio (y) = 0.28243 0.01419
# Poissons Ratio (z) = 0.30120 0.03239
#
# Static dielectric constant tensor:
#      x y z
#    x 5.345470 -0.151140 -0.405640 
#    y -0.151140 4.054030 0.210420 
#    z -0.405640 0.210420 4.257830 
# 
# 
# High freq. dielectric constant tensor:
#      x y z
#    x 1.923220 0.006340 -0.020520 
#    y 0.006340 1.890940 0.019540 
#    z -0.020520 0.019540 1.885700 
# 
# From -- ./inp_files/570383.got.cif
#   From: 2010.06.25/outbox.cif.g09.slc.cpg/sg2_286_cif.got.tgz:570383.got - 2010.06.27 13:26:56.
