data_PCOD8038972
_publ_section_title
;
Structure prediction by ZEFSAII (Michael W. Deem and Ramdas Pophale) SiO2 
 PCOD8038972
Probable space group: P -1
;
_chemical_formula_sum "Si O2"
_cell_formula_units_Z 16
_cell_length_a 10.181216
_cell_length_b 18.240761
_cell_length_c 9.155368
_cell_angle_alpha 34.672904
_cell_angle_beta 122.580829
_cell_angle_gamma 105.950104
_cell_volume 763.320575
_symmetry_space_group_name_H-M "P -1"
_symmetry_group_IT_number 2
_symmetry_cell_setting 'triclinic'
loop_
_space_group_symop_operation_xyz
x,y,z
-x,-y,-z
loop_
_atom_site_type_symbol
_atom_site_label
_atom_site_fract_x
_atom_site_fract_y
_atom_site_fract_z
Si Si1 0.402533 0.767512 0.333917
Si Si2 0.374176 0.840784 0.781658
Si Si3 0.771013 0.695919 0.692215
Si Si4 0.661485 0.964070 0.335985
Si Si5 0.753767 0.773312 0.225776
Si Si6 0.049720 0.484678 0.385798
Si Si7 0.663706 0.395003 0.694266
Si Si8 0.331020 0.923127 0.297295
O O1 0.590285 0.690266 0.627460
O O2 0.356084 0.653295 0.403240
O O3 0.278239 0.830253 0.296369
O O4 0.396613 0.897472 0.019680
O O5 0.359282 0.843210 0.596399
O O6 0.277254 0.994112 0.540187
O O7 0.566336 0.794878 0.025212
O O8 0.283132 0.738828 0.950821
O O9 0.796321 0.833146 0.552657
O O10 0.794848 0.696252 0.532032
O O11 0.895966 0.561513 0.063625
O O12 0.502832 0.922241 0.335260
O O13 0.883789 0.677660 0.344188
O O14 0.788150 0.917778 0.017863
O O15 0.000000 0.500000 0.500000
O O16 0.195508 0.539884 0.338335
O O17 0.500000 0.500000 0.500000
#
# Coordination Sequence:
#
# PCOD8038972 Si02
#       8
#     2   2   2   2   2   2   2   2
#     4  10  18  36  66  97 123 162 215 266 309 368
#     4  10  20  33  66  96 120 158 217 267 306 357
#     4  11  19  37  63  94 124 167 211 255 320 379
#     4   9  16  31  59  96 126 156 205 264 308 367
#     4  11  19  39  63  91 127 167 210 257 307 382
#     4  12  29  41  61  94 133 170 208 261 325 382
#     4  11  22  45  66  88 133 172 210 255 318 390
#     4  10  18  31  63 103 120 150 221 274 300 351
#
# _framework density 20.96105
#
# number of rings (size 3 to 8) (size 9 to 14) (size 15 to 20)
#    0.000    1.500    6.250    2.625    5.250    0.000 
#    0.000    7.500    0.000    1.500    0.000    0.000 
#    0.000    0.000    0.000    0.000    0.000    0.000 
#
# Total GULP energy -198232.485287 kJ/mol
# GULP energy per Si atom -12389.530330 kJ/mol
# Density = 2.091334 g / cm^3
# Si number density = 20.961050 Si / 1000 Ang^3
#
#
#
# Elastic Constant Matrix: (Units=GPa)
#
#
# Indices 1 2 3 4 5 6 
#
# 1 437.9834 114.3285 49.0427 -32.0299 -198.9906 27.3992
# 2 114.3285 156.6370 50.1545 -18.5013 -43.0809 -32.8200
# 3 49.0427 50.1545 91.0589 0.7693 -11.1828 -12.9980
# 4 -32.0299 -18.5013 0.7693 38.6954 4.6669 -5.8401
# 5 -198.9906 -43.0809 -11.1828 4.6669 122.9369 -21.9313
# 6 27.3992 -32.8200 -12.9980 -5.8401 -21.9313 46.7296
#
#
#
# Elastic Compliance Matrix: (Units=1/GPa)
#
#
# Indices 1 2 3 4 5 6 
#
# 1 0.011574 -0.001768 -0.003124 0.006704 0.017612 0.000207
# 2 -0.001768 0.012922 -0.004258 0.006111 0.003029 0.011113
# 3 -0.003124 -0.004258 0.014410 -0.004306 -0.005088 -0.000077
# 4 0.006704 0.006111 -0.004306 0.034272 0.013003 0.009550
# 5 0.017612 0.003029 -0.005088 0.013003 0.038550 0.010103
# 6 0.000207 0.011113 -0.000077 0.009550 0.010103 0.034997
#
#
# Mechanical properties :
#
#
# Convention : Reuss Voigt Hill
#
# Bulk Modulus (GPa) = 48.53037 123.63674 86.08356
# Shear Modulus (GPa) = 29.08777 73.14928 51.11852
#
# Velocity S-wave (km/s) = 3.72923 5.91384 4.94372
# Velocity P-wave (km/s) = 6.46110 10.28316 8.58747
#
# Compressibility (1/GPa) = 0.02060566
#
# Stress axis : x y z
#
# Youngs Moduli (GPa) = 86.40318 77.38862 69.39532
#
# Poissons Ratio (x) = 0.13684 0.21676
# Poissons Ratio (y) = 0.15278 0.29550
# Poissons Ratio (z) = 0.26989 0.32953
#
# Static dielectric constant tensor:
#      x y z
#    x 3.519480 -0.450100 -0.046120 
#    y -0.450100 4.550860 -0.264570 
#    z -0.046120 -0.264570 3.664800 
# 
# 
# High freq. dielectric constant tensor:
#      x y z
#    x 1.782710 -0.035070 -0.013620 
#    y -0.035070 1.844700 -0.015110 
#    z -0.013620 -0.015110 1.803130 
# 
# From -- ./inp_files/216582.got.cif
#   From: 2010.06.25/outbox.cif.g09.slc.cpg/sg2_109_cif.got.tgz:216582.got - 2010.06.27 13:26:56.
