data_PCOD8038038
_publ_section_title
;
Structure prediction by ZEFSAII (Michael W. Deem and Ramdas Pophale) SiO2 
 PCOD8038038
Probable space group: P -1
;
_chemical_formula_sum "Si O2"
_cell_formula_units_Z 16
_cell_length_a 15.839992
_cell_length_b 11.845754
_cell_length_c 9.372983
_cell_angle_alpha 110.879442
_cell_angle_beta 145.629636
_cell_angle_gamma 87.653748
_cell_volume 813.760595
_symmetry_space_group_name_H-M "P -1"
_symmetry_group_IT_number 2
_symmetry_cell_setting 'triclinic'
loop_
_space_group_symop_operation_xyz
x,y,z
-x,-y,-z
loop_
_atom_site_type_symbol
_atom_site_label
_atom_site_fract_x
_atom_site_fract_y
_atom_site_fract_z
Si Si1 0.014800 0.345166 0.892709
Si Si2 0.227185 0.647471 0.241380
Si Si3 0.803322 0.965223 0.206822
Si Si4 0.523650 0.780254 0.924871
Si Si5 0.802272 0.413378 0.156027
Si Si6 0.414662 0.457674 0.142494
Si Si7 0.731434 0.214897 0.216446
Si Si8 0.295837 0.296201 0.197164
O O1 0.914598 0.309192 0.887701
O O2 0.884111 0.327033 0.575419
O O3 0.169843 0.500134 0.169873
O O4 0.101058 0.248328 0.953002
O O5 0.411628 0.748770 0.609328
O O6 0.240546 0.645289 0.090169
O O7 0.772518 0.092200 0.182070
O O8 0.712324 0.903890 0.205770
O O9 0.704000 0.847027 0.895535
O O10 0.000000 0.000000 0.500000
O O11 0.534216 0.641799 0.922001
O O12 0.445632 0.831570 0.965998
O O13 0.717910 0.281663 0.080882
O O14 0.000000 0.500000 0.500000
O O15 0.724494 0.516265 0.123999
O O16 0.333404 0.383939 0.144493
O O17 0.572036 0.610976 0.455975
#
# Coordination Sequence:
#
# PCOD8038038 Si02
#       8
#     2   2   2   2   2   2   2   2
#     4  10  17  33  59  84 112 146 195 238 280 332
#     4  10  19  34  57  88 114 149 187 240 288 340
#     4  11  22  36  61  86 113 154 201 246 280 333
#     4  10  22  39  63  85 115 151 204 246 274 337
#     4  12  22  34  55  87 128 151 181 236 305 356
#     4  10  19  33  57  85 113 148 189 241 294 337
#     4  11  23  38  55  90 124 155 187 233 298 349
#     4  10  17  34  58  85 111 144 200 244 276 332
#
# _framework density 19.661799999999999
#
# number of rings (size 3 to 8) (size 9 to 14) (size 15 to 20)
#    0.000    1.500    5.000    1.875    1.750    0.500 
#    0.000    2.500    0.000    0.750    0.000    0.000 
#    0.000    0.000    0.000    0.000    0.000    0.000 
#
# Total GULP energy -198317.831283 kJ/mol
# GULP energy per Si atom -12394.864455 kJ/mol
# Density = 1.961705 g / cm^3
# Si number density = 19.661800 Si / 1000 Ang^3
#
#
#
# Elastic Constant Matrix: (Units=GPa)
#
#
# Indices 1 2 3 4 5 6 
#
# 1 119.2781 49.5626 33.6820 -8.3774 18.7979 -15.5063
# 2 49.5626 113.2189 30.0535 -5.4800 3.0009 -19.1601
# 3 33.6820 30.0535 53.3635 -4.6847 14.6969 2.2618
# 4 -8.3774 -5.4800 -4.6847 26.2952 -2.1271 4.0674
# 5 18.7979 3.0009 14.6969 -2.1271 30.0666 -3.2920
# 6 -15.5063 -19.1601 2.2618 4.0674 -3.2920 36.2776
#
#
#
# Elastic Compliance Matrix: (Units=1/GPa)
#
#
# Indices 1 2 3 4 5 6 
#
# 1 0.012372 -0.003478 -0.004550 0.001540 -0.004712 0.003135
# 2 -0.003478 0.013092 -0.006802 -0.000174 0.004872 0.006313
# 3 -0.004550 -0.006802 0.029227 0.002756 -0.011522 -0.008714
# 4 0.001540 -0.000174 0.002756 0.039605 0.000067 -0.004040
# 5 -0.004712 0.004872 -0.011522 0.000067 0.041911 0.005073
# 6 0.003135 0.006313 -0.008714 -0.004040 0.005073 0.033696
#
#
# Mechanical properties :
#
#
# Convention : Reuss Voigt Hill
#
# Bulk Modulus (GPa) = 39.95334 56.93962 48.44648
# Shear Modulus (GPa) = 24.04916 30.03204 27.04060
#
# Velocity S-wave (km/s) = 3.50114 3.91248 3.71251
# Velocity P-wave (km/s) = 6.05874 7.03081 6.56280
#
# Compressibility (1/GPa) = 0.02502919
#
# Stress axis : x y z
#
# Youngs Moduli (GPa) = 80.82637 76.38520 34.21526
#
# Poissons Ratio (x) = 0.26569 0.15569
# Poissons Ratio (y) = 0.28114 0.23274
# Poissons Ratio (z) = 0.36778 0.51958
#
# Static dielectric constant tensor:
#      x y z
#    x 3.874190 -0.382430 0.240650 
#    y -0.382430 3.510460 0.064870 
#    z 0.240650 0.064870 3.542090 
# 
# 
# High freq. dielectric constant tensor:
#      x y z
#    x 1.774150 -0.033800 0.027500 
#    y -0.033800 1.737740 0.009900 
#    z 0.027500 0.009900 1.752670 
# 
# From -- ./inp_files/308226.got.cif
#   From: 2010.06.25/outbox.cif.g09.slc.cpg/sg2_155_cif.got.tgz:308226.got - 2010.06.27 13:26:56.
