data_PCOD8038997
_publ_section_title
;
Structure prediction by ZEFSAII (Michael W. Deem and Ramdas Pophale) SiO2 
 PCOD8038997
Probable space group: P -1
;
_chemical_formula_sum "Si O2"
_cell_formula_units_Z 14
_cell_length_a 10.165932
_cell_length_b 15.358880
_cell_length_c 9.519299
_cell_angle_alpha 54.340372
_cell_angle_beta 137.670909
_cell_angle_gamma 113.608764
_cell_volume 811.936238
_symmetry_space_group_name_H-M "P -1"
_symmetry_group_IT_number 2
_symmetry_cell_setting 'triclinic'
loop_
_space_group_symop_operation_xyz
x,y,z
-x,-y,-z
loop_
_atom_site_type_symbol
_atom_site_label
_atom_site_fract_x
_atom_site_fract_y
_atom_site_fract_z
Si Si1 0.842433 0.342282 0.672696
Si Si2 0.465462 0.421713 0.174333
Si Si3 0.798483 0.882653 0.049950
Si Si4 0.939878 0.506969 0.105834
Si Si5 0.821894 0.112721 0.830674
Si Si6 0.442359 0.790156 0.701434
Si Si7 0.051448 0.699357 0.520084
O O1 0.647894 0.418222 0.427576
O O2 0.792141 0.221811 0.796461
O O3 0.952167 0.335262 0.614627
O O4 0.968987 0.391763 0.845740
O O5 0.434482 0.301943 0.203161
O O6 0.500000 0.500000 0.000000
O O7 0.290544 0.470623 0.084580
O O8 0.950287 0.892613 0.031830
O O9 0.889254 0.798699 0.316344
O O10 0.587551 0.847064 0.866293
O O11 0.773696 0.004461 0.979308
O O12 0.012568 0.397102 0.343267
O O13 0.000000 0.500000 0.000000
O O14 0.670312 0.122521 0.570421
O O15 0.269008 0.733191 0.703110
#
# Coordination Sequence:
#
# PCOD8038997 Si02
#       7
#     2   2   2   2   2   2   2
#     4   9  19  33  54  71 102 137 169 206 251 305
#     4  10  18  32  52  74 101 134 169 200 250 308
#     4   9  15  26  48  71 104 127 157 213 253 282
#     4  12  23  34  50  77 106 135 170 214 255 297
#     4   8  16  28  43  77 101 123 166 206 250 296
#     4   9  16  27  48  75  99 129 164 203 252 294
#     4   9  19  31  48  77  97 131 174 199 247 310
#
# _framework density 17.242732
#
# number of rings (size 3 to 8) (size 9 to 14) (size 15 to 20)
#    0.000    3.143    2.857    2.571    2.000    0.571 
#    0.000    0.000    0.000    0.857    0.000    5.000 
#    0.000    0.000    0.000    0.000    0.000    0.000 
#
# Total GULP energy -173450.763288 kJ/mol
# GULP energy per Si atom -12389.340235 kJ/mol
# Density = 1.720349 g / cm^3
# Si number density = 17.242732 Si / 1000 Ang^3
#
#
#
# Elastic Constant Matrix: (Units=GPa)
#
#
# Indices 1 2 3 4 5 6 
#
# 1 67.0540 35.9838 36.1433 0.5321 -0.7811 -3.0322
# 2 35.9838 103.3311 55.7412 -11.6249 -6.4797 11.3309
# 3 36.1433 55.7412 82.5343 -12.6218 9.5716 -0.5845
# 4 0.5321 -11.6249 -12.6218 33.7154 2.5383 6.1220
# 5 -0.7811 -6.4797 9.5716 2.5383 20.4742 2.3430
# 6 -3.0322 11.3309 -0.5845 6.1220 2.3430 10.5672
#
#
#
# Elastic Compliance Matrix: (Units=1/GPa)
#
#
# Indices 1 2 3 4 5 6 
#
# 1 0.023606 -0.008344 -0.005945 -0.009235 -0.000195 0.020785
# 2 -0.008344 0.029526 -0.017455 0.010501 0.021124 -0.045788
# 3 -0.005945 -0.017455 0.029720 0.002909 -0.022519 0.021963
# 4 -0.009235 0.010501 0.002909 0.041331 0.000822 -0.037876
# 5 -0.000195 0.021124 -0.022519 0.000822 0.070531 -0.040066
# 6 0.020785 -0.045788 0.021963 -0.037876 -0.040066 0.181734
#
#
# Mechanical properties :
#
#
# Convention : Reuss Voigt Hill
#
# Bulk Modulus (GPa) = 51.64046 56.51733 54.07890
# Shear Modulus (GPa) = 11.20090 21.28811 16.24451
#
# Velocity S-wave (km/s) = 2.55149 3.51752 3.07271
# Velocity P-wave (km/s) = 6.22047 7.02466 6.63476
#
# Compressibility (1/GPa) = 0.01936466
#
# Stress axis : x y z
#
# Youngs Moduli (GPa) = 42.36154 33.86788 33.64703
#
# Poissons Ratio (x) = 0.28260 0.20002
# Poissons Ratio (y) = 0.35347 0.58732
# Poissons Ratio (z) = 0.25183 0.59118
#
# Static dielectric constant tensor:
#      x y z
#    x 2.648500 0.107300 0.185850 
#    y 0.107300 3.421640 -0.370030 
#    z 0.185850 -0.370030 3.137200 
# 
# 
# High freq. dielectric constant tensor:
#      x y z
#    x 1.601050 0.020020 0.037640 
#    y 0.020020 1.673490 -0.021880 
#    z 0.037640 -0.021880 1.670090 
# 
# From -- ./inp_files/195987.got.cif
#   From: 2010.06.25/outbox.cif.g09.slc.cpg/sg2_98_cif.got.tgz:195987.got - 2010.06.27 13:26:56.
