data_PCOD8038426
_publ_section_title
;
Structure prediction by ZEFSAII (Michael W. Deem and Ramdas Pophale) SiO2 
 PCOD8038426
Probable space group: P -1
;
_chemical_formula_sum "Si O2"
_cell_formula_units_Z 14
_cell_length_a 12.933264
_cell_length_b 8.980730
_cell_length_c 9.667684
_cell_angle_alpha 58.225182
_cell_angle_beta 116.265924
_cell_angle_gamma 75.363750
_cell_volume 659.802051
_symmetry_space_group_name_H-M "P -1"
_symmetry_group_IT_number 2
_symmetry_cell_setting 'triclinic'
loop_
_space_group_symop_operation_xyz
x,y,z
-x,-y,-z
loop_
_atom_site_type_symbol
_atom_site_label
_atom_site_fract_x
_atom_site_fract_y
_atom_site_fract_z
Si Si1 0.688096 0.626132 0.848333
Si Si2 0.166593 0.874389 0.890314
Si Si3 0.046005 0.417426 0.912272
Si Si4 0.204272 0.131654 0.562039
Si Si5 0.144845 0.993710 0.306547
Si Si6 0.456886 0.069651 0.633586
Si Si7 0.638590 0.240586 0.679713
O O1 0.676450 0.715011 0.642932
O O2 0.527576 0.827453 0.721708
O O3 0.734728 0.378179 0.993076
O O4 0.808535 0.608387 0.022514
O O5 0.181470 0.023690 0.726237
O O6 0.231374 0.860483 0.083214
O O7 0.989269 0.007927 0.733574
O O8 0.922302 0.594233 0.641000
O O9 0.000000 0.500000 0.000000
O O10 0.082609 0.176644 0.054031
O O11 0.364361 0.075810 0.703796
O O12 0.195656 0.040990 0.453249
O O13 0.293179 0.772816 0.425450
O O14 0.581098 0.095160 0.728027
O O15 0.500000 0.500000 0.500000
#
# Coordination Sequence:
#
# PCOD8038426 Si02
#       7
#     2   2   2   2   2   2   2
#     4  11  19  37  67  94 119 164 223 253 297 374
#     4  12  25  40  63 102 130 157 203 276 317 358
#     4  10  17  35  66  92 113 161 215 257 295 367
#     4  11  23  39  68  98 126 157 214 266 315 359
#     4  11  21  43  68  92 120 168 217 257 303 377
#     4  11  21  40  64  90 126 172 209 250 308 386
#     4  12  26  42  64  93 130 169 210 251 316 381
#
# _framework density 21.218484
#
# number of rings (size 3 to 8) (size 9 to 14) (size 15 to 20)
#    0.000    0.857    8.571    1.714    0.000    1.143 
#    0.000    0.714    0.000    0.000    0.000    0.000 
#    0.000    0.000    0.000    0.000    0.000    0.000 
#
# Total GULP energy -173435.344077 kJ/mol
# GULP energy per Si atom -12388.238863 kJ/mol
# Density = 2.117019 g / cm^3
# Si number density = 21.218484 Si / 1000 Ang^3
#
#
#
# Elastic Constant Matrix: (Units=GPa)
#
#
# Indices 1 2 3 4 5 6 
#
# 1 110.0126 4.9200 4.0951 2.2407 9.4633 8.6574
# 2 4.9200 53.2155 -0.6417 -6.9648 4.2217 -6.1749
# 3 4.0951 -0.6417 32.8884 -6.6521 -0.2434 -8.8527
# 4 2.2407 -6.9648 -6.6521 27.8739 4.4996 6.2351
# 5 9.4633 4.2217 -0.2434 4.4996 33.1401 0.6896
# 6 8.6574 -6.1749 -8.8527 6.2351 0.6896 23.7912
#
#
#
# Elastic Compliance Matrix: (Units=1/GPa)
#
#
# Indices 1 2 3 4 5 6 
#
# 1 0.009843 -0.001328 -0.002604 -0.000275 -0.002524 -0.004750
# 2 -0.001328 0.020535 0.003131 0.005200 -0.003038 0.005704
# 3 -0.002604 0.003131 0.035715 0.006625 -0.000570 0.013330
# 4 -0.000275 0.005200 0.006625 0.041250 -0.005996 -0.006722
# 5 -0.002524 -0.003038 -0.000570 -0.005996 0.032081 0.000560
# 6 -0.004750 0.005704 0.013330 -0.006722 0.000560 0.051947
#
#
# Mechanical properties :
#
#
# Convention : Reuss Voigt Hill
#
# Bulk Modulus (GPa) = 15.50653 23.65150 19.57902
# Shear Modulus (GPa) = 23.31305 29.47724 26.39514
#
# Velocity S-wave (km/s) = 3.31828 3.73127 3.53082
# Velocity P-wave (km/s) = 4.69097 5.45289 5.08622
#
# Compressibility (1/GPa) = 0.06448896
#
# Stress axis : x y z
#
# Youngs Moduli (GPa) = 101.59708 48.69625 27.99932
#
# Poissons Ratio (x) = 0.06468 0.07292
# Poissons Ratio (y) = 0.13495 -0.08765
# Poissons Ratio (z) = 0.26460 -0.15244
#
# Static dielectric constant tensor:
#      x y z
#    x 3.914840 -0.016940 0.262810 
#    y -0.016940 3.763610 -0.314400 
#    z 0.262810 -0.314400 3.950280 
# 
# 
# High freq. dielectric constant tensor:
#      x y z
#    x 1.839830 -0.000110 0.025800 
#    y -0.000110 1.814120 -0.022290 
#    z 0.025800 -0.022290 1.814640 
# 
# From -- ./inp_files/154260.got.cif
#   From: 2010.06.25/outbox.cif.g09.slc.cpg/sg2_78_cif.got.tgz:154260.got - 2010.06.27 13:26:56.
