data_PCOD8038280
_publ_section_title
;
Structure prediction by ZEFSAII (Michael W. Deem and Ramdas Pophale) SiO2 
 PCOD8038280
Probable space group: P -1
;
_chemical_formula_sum "Si O2"
_cell_formula_units_Z 16
_cell_length_a 9.600043
_cell_length_b 33.064462
_cell_length_c 16.009460
_cell_angle_alpha 160.926970
_cell_angle_beta 137.560317
_cell_angle_gamma 32.161742
_cell_volume 825.713867
_symmetry_space_group_name_H-M "P -1"
_symmetry_group_IT_number 2
_symmetry_cell_setting 'triclinic'
loop_
_space_group_symop_operation_xyz
x,y,z
-x,-y,-z
loop_
_atom_site_type_symbol
_atom_site_label
_atom_site_fract_x
_atom_site_fract_y
_atom_site_fract_z
Si Si1 0.072351 0.493834 0.808729
Si Si2 0.269858 0.564392 0.892345
Si Si3 0.569322 0.791133 0.276365
Si Si4 0.991728 0.122050 0.845638
Si Si5 0.750005 0.447201 0.453546
Si Si6 0.671991 0.619372 0.592179
Si Si7 0.502780 0.255801 0.661527
Si Si8 0.722317 0.855318 0.131689
O O1 0.276323 0.508639 0.880572
O O2 0.262674 0.328266 0.627863
O O3 0.925188 0.477624 0.638964
O O4 0.846429 0.653319 0.077792
O O5 0.424534 0.407726 0.589246
O O6 0.438077 0.622666 0.074198
O O7 0.938065 0.714190 0.019121
O O8 0.309857 0.818690 0.179663
O O9 0.618647 0.737967 0.291208
O O10 0.510739 0.961980 0.573532
O O11 0.089591 0.132661 0.820286
O O12 0.965555 0.248553 0.142728
O O13 0.219802 0.932150 0.609582
O O14 0.500000 0.500000 0.500000
O O15 0.603563 0.560728 0.526776
O O16 0.000000 0.500000 0.500000
O O17 0.559174 0.806763 0.918830
#
# Coordination Sequence:
#
# PCOD8038280 Si02
#       8
#     2   2   2   2   2   2   2   2
#     4  12  25  36  57  91 120 151 185 240 295 337
#     4  11  19  38  61  84 114 152 194 232 282 348
#     4  11  21  38  60  86 117 149 195 240 280 332
#     4  11  19  37  64  85 109 152 201 234 275 343
#     4  12  22  36  58  90 116 144 192 245 287 328
#     4  10  18  35  60  84 108 148 196 236 277 339
#     4  11  23  40  59  83 120 158 189 228 290 347
#     4  10  17  34  62  88 104 149 200 234 273 334
#
# _framework density 19.377172999999999
#
# number of rings (size 3 to 8) (size 9 to 14) (size 15 to 20)
#    0.000    1.000    8.750    1.500    0.000    1.000 
#    2.250    0.000    0.000    0.750    0.000    0.000 
#    0.000    0.000    0.000    0.000    0.000    0.000 
#
# Total GULP energy -198365.626774 kJ/mol
# GULP energy per Si atom -12397.851673 kJ/mol
# Density = 1.933307 g / cm^3
# Si number density = 19.377173 Si / 1000 Ang^3
#
#
#
# Elastic Constant Matrix: (Units=GPa)
#
#
# Indices 1 2 3 4 5 6 
#
# 1 81.9845 17.6396 17.0473 -0.7825 0.1202 14.5945
# 2 17.6396 58.6413 19.9420 10.9889 -6.2804 13.8067
# 3 17.0473 19.9420 103.8420 -2.2178 7.9347 7.0250
# 4 -0.7825 10.9889 -2.2178 18.5943 -1.4734 1.7634
# 5 0.1202 -6.2804 7.9347 -1.4734 27.1291 -3.3846
# 6 14.5945 13.8067 7.0250 1.7634 -3.3846 21.7970
#
#
#
# Elastic Compliance Matrix: (Units=1/GPa)
#
#
# Indices 1 2 3 4 5 6 
#
# 1 0.014477 -0.002717 -0.001163 0.002740 -0.001203 -0.008006
# 2 -0.002717 0.025019 -0.004311 -0.014003 0.004965 -0.010736
# 3 -0.001163 -0.004311 0.011113 0.003589 -0.004174 -0.001011
# 4 0.002740 -0.014003 0.003589 0.062467 -0.000824 0.000697
# 5 -0.001203 0.004965 -0.004174 -0.000824 0.039848 0.005260
# 6 -0.008006 -0.010736 -0.001011 0.000697 0.005260 0.059125
#
#
# Mechanical properties :
#
#
# Convention : Reuss Voigt Hill
#
# Bulk Modulus (GPa) = 29.21551 39.30284 34.25917
# Shear Modulus (GPa) = 20.84726 26.16000 23.50363
#
# Velocity S-wave (km/s) = 3.28360 3.67828 3.48653
# Velocity P-wave (km/s) = 5.43011 6.19409 5.82464
#
# Compressibility (1/GPa) = 0.03422840
#
# Stress axis : x y z
#
# Youngs Moduli (GPa) = 69.07580 39.96889 89.98625
#
# Poissons Ratio (x) = 0.10858 0.10464
# Poissons Ratio (y) = 0.18765 0.38793
# Poissons Ratio (z) = 0.08032 0.17231
#
# Static dielectric constant tensor:
#      x y z
#    x 3.424860 0.146280 -0.133070 
#    y 0.146280 3.335120 -0.278210 
#    z -0.133070 -0.278210 3.853600 
# 
# 
# High freq. dielectric constant tensor:
#      x y z
#    x 1.751800 0.014770 0.007870 
#    y 0.014770 1.721270 -0.012020 
#    z 0.007870 -0.012020 1.769130 
# 
# From -- ./inp_files/259126.got.cif
#   From: 2010.06.25/outbox.cif.g09.slc.cpg/sg2_130_cif.got.tgz:259126.got - 2010.06.27 13:26:56.
