data_PCOD8038186
_publ_section_title
;
Structure prediction by ZEFSAII (Michael W. Deem and Ramdas Pophale) SiO2 
 PCOD8038186
Probable space group: P -1
;
_chemical_formula_sum "Si O2"
_cell_formula_units_Z 16
_cell_length_a 14.953859
_cell_length_b 9.208149
_cell_length_c 9.221154
_cell_angle_alpha 59.165577
_cell_angle_beta 95.612082
_cell_angle_gamma 128.768731
_cell_volume 801.433577
_symmetry_space_group_name_H-M "P -1"
_symmetry_group_IT_number 2
_symmetry_cell_setting 'triclinic'
loop_
_space_group_symop_operation_xyz
x,y,z
-x,-y,-z
loop_
_atom_site_type_symbol
_atom_site_label
_atom_site_fract_x
_atom_site_fract_y
_atom_site_fract_z
Si Si1 0.855948 0.765394 0.385604
Si Si2 0.260231 0.404279 0.857282
Si Si3 0.760659 0.947732 0.466816
Si Si4 0.243465 0.541909 0.225483
Si Si5 0.728687 0.234753 0.153863
Si Si6 0.137491 0.110394 0.249025
Si Si7 0.477820 0.550075 0.663067
Si Si8 0.512461 0.242828 0.718948
O O1 0.810014 0.672560 0.265448
O O2 0.785266 0.831655 0.413516
O O3 0.835920 0.570310 0.581843
O O4 0.998096 0.989389 0.288914
O O5 0.257635 0.583373 0.838610
O O6 0.400003 0.521034 0.801142
O O7 0.189585 0.174814 0.061168
O O8 0.842410 0.038073 0.580597
O O9 0.620471 0.770978 0.586648
O O10 0.796282 0.167096 0.279637
O O11 0.221574 0.344354 0.233072
O O12 0.386289 0.732346 0.190347
O O13 0.212777 0.659370 0.052278
O O14 0.586759 0.014793 0.221587
O O15 0.452123 0.315977 0.768474
O O16 0.424863 0.580370 0.497590
#
# Coordination Sequence:
#
# PCOD8038186 Si02
#       8
#     2   2   2   2   2   2   2   2
#     4  11  20  41  66  79 109 155 204 236 269 333
#     4  11  22  38  55  90 122 146 183 237 298 335
#     4  10  20  40  61  85 112 151 198 233 277 338
#     4  10  18  37  57  85 111 148 195 231 277 334
#     4  10  23  34  55  89 125 146 178 235 299 346
#     4  10  22  38  61  86 108 154 201 237 274 332
#     4  10  18  34  62  86 114 149 190 236 275 345
#     4  10  17  34  58  86 113 151 190 226 279 343
#
# _framework density 19.964224999999999
#
# number of rings (size 3 to 8) (size 9 to 14) (size 15 to 20)
#    0.000    1.750    3.750    3.750    0.000    2.500 
#    0.000    8.750    0.000    0.000    0.000    0.000 
#    0.000    0.000    0.000    0.000    0.000    0.000 
#
# Total GULP energy -198277.258240 kJ/mol
# GULP energy per Si atom -12392.328640 kJ/mol
# Density = 1.991879 g / cm^3
# Si number density = 19.964225 Si / 1000 Ang^3
#
#
#
# Elastic Constant Matrix: (Units=GPa)
#
#
# Indices 1 2 3 4 5 6 
#
# 1 79.3954 28.3886 56.8522 -0.0240 1.5023 14.2221
# 2 28.3886 66.6838 36.9958 10.2462 3.6707 1.3518
# 3 56.8522 36.9958 162.6138 11.4491 11.9426 -1.7651
# 4 -0.0240 10.2462 11.4491 23.3779 -0.2737 3.0224
# 5 1.5023 3.6707 11.9426 -0.2737 31.0898 -4.3948
# 6 14.2221 1.3518 -1.7651 3.0224 -4.3948 20.5088
#
#
#
# Elastic Compliance Matrix: (Units=1/GPa)
#
#
# Indices 1 2 3 4 5 6 
#
# 1 0.023695 -0.006938 -0.007548 0.009082 0.000118 -0.017937
# 2 -0.006938 0.020023 -0.001401 -0.008683 -0.000938 0.004449
# 3 -0.007548 -0.001401 0.009700 -0.004999 -0.002336 0.006398
# 4 0.009082 -0.008683 -0.004999 0.050785 0.001057 -0.013414
# 5 0.000118 -0.000938 -0.002336 0.001057 0.034158 0.006943
# 6 -0.017937 0.004449 0.006398 -0.013414 0.006943 0.064920
#
#
# Mechanical properties :
#
#
# Convention : Reuss Voigt Hill
#
# Bulk Modulus (GPa) = 46.20515 61.46292 53.83403
# Shear Modulus (GPa) = 20.63819 27.42573 24.03196
#
# Velocity S-wave (km/s) = 3.21870 3.71043 3.47328
# Velocity P-wave (km/s) = 6.08339 7.01496 6.56572
#
# Compressibility (1/GPa) = 0.02164261
#
# Stress axis : x y z
#
# Youngs Moduli (GPa) = 42.20387 49.94339 103.08986
#
# Poissons Ratio (x) = 0.34650 0.77816
# Poissons Ratio (y) = 0.29280 0.14445
# Poissons Ratio (z) = 0.31857 0.06998
#
# Static dielectric constant tensor:
#      x y z
#    x 3.455050 0.144730 0.225900 
#    y 0.144730 3.381960 0.038410 
#    z 0.225900 0.038410 4.350140 
# 
# 
# High freq. dielectric constant tensor:
#      x y z
#    x 1.754200 0.024050 0.009120 
#    y 0.024050 1.759040 0.004110 
#    z 0.009120 0.004110 1.795990 
# 
# From -- ./inp_files/179327.got.cif
#   From: 2010.06.25/outbox.cif.g09.slc.cpg/sg2_90_cif.got.tgz:179327.got - 2010.06.27 13:26:56.
