data_PCOD8038090
_publ_section_title
;
Structure prediction by ZEFSAII (Michael W. Deem and Ramdas Pophale) SiO2 
 PCOD8038090
Probable space group: P -1
;
_chemical_formula_sum "Si O2"
_cell_formula_units_Z 14
_cell_length_a 15.859306
_cell_length_b 12.949554
_cell_length_c 14.136786
_cell_angle_alpha 121.029903
_cell_angle_beta 39.984771
_cell_angle_gamma 153.048182
_cell_volume 691.715821
_symmetry_space_group_name_H-M "P -1"
_symmetry_group_IT_number 2
_symmetry_cell_setting 'triclinic'
loop_
_space_group_symop_operation_xyz
x,y,z
-x,-y,-z
loop_
_atom_site_type_symbol
_atom_site_label
_atom_site_fract_x
_atom_site_fract_y
_atom_site_fract_z
Si Si1 0.296740 0.369763 0.829088
Si Si2 0.293425 0.040310 0.128900
Si Si3 0.180354 0.549689 0.767786
Si Si4 0.355548 0.473034 0.038829
Si Si5 0.771872 0.930169 0.367083
Si Si6 0.240940 0.227387 0.526666
Si Si7 0.189131 0.532541 0.963828
O O1 0.200096 0.165059 0.768754
O O2 0.608577 0.679752 0.659511
O O3 0.069143 0.294820 0.969703
O O4 0.346499 0.395695 0.909753
O O5 0.135195 0.785843 0.113280
O O6 0.025164 0.902679 0.332003
O O7 0.535568 0.210139 0.081043
O O8 0.460759 0.249276 0.996942
O O9 0.433336 0.706288 0.552131
O O10 0.315468 0.659426 0.809184
O O11 0.093853 0.613063 0.839849
O O12 0.500000 0.500000 0.000000
O O13 0.016246 0.224254 0.251096
O O14 0.875349 0.982672 0.410638
O O15 0.500000 0.500000 0.500000
#
# Coordination Sequence:
#
# PCOD8038090 Si02
#       7
#     2   2   2   2   2   2   2
#     4  10  20  38  58  90 117 156 203 245 301 360
#     4  11  21  39  61  88 124 158 203 252 300 361
#     4  11  21  42  63  87 126 158 208 251 303 360
#     4  11  24  34  56  94 128 153 197 255 313 357
#     4  11  20  39  61  91 121 161 194 257 308 359
#     4  10  17  33  63  87 114 152 200 248 301 342
#     4  10  23  35  64  96 113 162 209 253 297 363
#
# _framework density 20.239523999999999
#
# number of rings (size 3 to 8) (size 9 to 14) (size 15 to 20)
#    0.000    1.429    5.714    1.714    0.000    3.429 
#    0.000    2.857    0.000    3.429    0.000    0.000 
#    0.000    0.000    0.000    0.000    0.000    0.000 
#
# Total GULP energy -173453.186368 kJ/mol
# GULP energy per Si atom -12389.513312 kJ/mol
# Density = 2.019346 g / cm^3
# Si number density = 20.239524 Si / 1000 Ang^3
#
#
#
# Elastic Constant Matrix: (Units=GPa)
#
#
# Indices 1 2 3 4 5 6 
#
# 1 133.7433 28.4613 61.5487 1.0874 -4.9034 5.4470
# 2 28.4613 63.5833 49.9216 -6.2324 -4.4782 -16.4696
# 3 61.5487 49.9216 112.8012 -5.3487 3.2457 -11.4276
# 4 1.0874 -6.2324 -5.3487 29.6115 -11.2915 -1.8824
# 5 -4.9034 -4.4782 3.2457 -11.2915 41.1472 0.9462
# 6 5.4470 -16.4696 -11.4276 -1.8824 0.9462 27.5951
#
#
#
# Elastic Compliance Matrix: (Units=1/GPa)
#
#
# Indices 1 2 3 4 5 6 
#
# 1 0.010838 -0.001919 -0.005773 -0.001763 0.001189 -0.005837
# 2 -0.001919 0.029478 -0.010390 0.007386 0.005504 0.013985
# 3 -0.005773 -0.010390 0.016913 -0.000011 -0.003203 0.002051
# 4 -0.001763 0.007386 -0.000011 0.040212 0.011466 0.007102
# 5 0.001189 0.005504 -0.003203 0.011466 0.028408 0.001532
# 6 -0.005837 0.013985 0.002051 0.007102 0.001532 0.047018
#
#
# Mechanical properties :
#
#
# Convention : Reuss Voigt Hill
#
# Bulk Modulus (GPa) = 47.47486 65.55456 56.51471
# Shear Modulus (GPa) = 23.14241 31.01717 27.07979
#
# Velocity S-wave (km/s) = 3.38513 3.91897 3.66179
# Velocity P-wave (km/s) = 6.22786 7.27581 6.77214
#
# Compressibility (1/GPa) = 0.02106378
#
# Stress axis : x y z
#
# Youngs Moduli (GPa) = 92.26872 33.92328 59.12625
#
# Poissons Ratio (x) = 0.06511 0.34135
# Poissons Ratio (y) = 0.17710 0.61433
# Poissons Ratio (z) = 0.53268 0.35247
#
# Static dielectric constant tensor:
#      x y z
#    x 3.969660 -0.104080 0.152310 
#    y -0.104080 3.696250 -0.143440 
#    z 0.152310 -0.143440 3.907280 
# 
# 
# High freq. dielectric constant tensor:
#      x y z
#    x 1.795220 0.006450 -0.001470 
#    y 0.006450 1.767460 -0.002330 
#    z -0.001470 -0.002330 1.780760 
# 
# From -- ./inp_files/532587.got.cif
#   From: 2010.06.25/outbox.cif.g09.slc.cpg/sg2_267_cif.got.tgz:532587.got - 2010.06.27 13:26:56.
