data_PCOD8038227
_publ_section_title
;
Structure prediction by ZEFSAII (Michael W. Deem and Ramdas Pophale) SiO2 
 PCOD8038227
Probable space group: P -1
;
_chemical_formula_sum "Si O2"
_cell_formula_units_Z 16
_cell_length_a 27.000000
_cell_length_b 9.000000
_cell_length_c 27.000000
_cell_angle_alpha 140.000000
_cell_angle_beta 10.000000
_cell_angle_gamma 140.000000
_cell_volume 728.340053
_symmetry_space_group_name_H-M "P -1"
_symmetry_group_IT_number 2
_symmetry_cell_setting 'triclinic'
loop_
_space_group_symop_operation_xyz
x,y,z
-x,-y,-z
loop_
_atom_site_type_symbol
_atom_site_label
_atom_site_fract_x
_atom_site_fract_y
_atom_site_fract_z
Si Si1 0.061440 0.466433 0.488086
Si Si2 0.935706 0.618132 0.196211
Si Si3 0.626083 0.571611 0.342727
Si Si4 0.880784 0.618587 0.951748
Si Si5 0.414926 0.849792 0.902665
Si Si6 0.431451 0.929194 0.493299
Si Si7 0.541396 0.140935 0.945377
Si Si8 0.909211 0.018143 0.390968
O O1 0.162895 0.716895 0.477177
O O2 0.000000 0.500000 0.500000
O O3 0.804301 0.338490 0.740026
O O4 0.286670 0.286908 0.222889
O O5 0.610338 0.502008 0.485697
O O6 0.130812 0.490677 0.009989
O O7 0.950561 0.893314 0.265318
O O8 0.094113 0.567004 0.975818
O O9 0.500000 0.500000 0.500000
O O10 0.692422 0.849261 0.352247
O O11 0.212679 0.703608 0.637770
O O12 0.745671 0.409769 0.995559
O O13 0.721863 0.851925 0.164097
O O14 0.566026 0.951769 0.829748
O O15 0.662472 0.848288 0.617473
O O16 0.194085 0.025110 0.145494
O O17 0.500000 0.000000 0.500000
O O18 0.500000 0.000000 0.000000
#
# Coordination Sequence:
#
# PCOD8038227 Si02
#       8
#     2   2   2   2   2   2   2   2
#     4  12  22  42  68 100 126 171 234 267 308 385
#     4  11  21  40  60  91 121 156 203 257 318 359
#     4  12  25  40  60  86 125 162 197 249 318 382
#     4  11  21  36  63  91 117 154 206 264 303 357
#     4  11  21  39  61  95 128 161 207 264 326 370
#     4  12  21  38  61  91 115 152 210 255 300 363
#     4  12  25  42  65  98 140 175 210 267 339 391
#     4  11  22  37  68  94 122 159 216 277 302 364
#
# _framework density 21.967760999999999
#
# number of rings (size 3 to 8) (size 9 to 14) (size 15 to 20)
#    0.000    0.500    5.000    6.000    0.000    0.000 
#    0.000    3.750    0.000    0.000    0.000    0.000 
#    0.000    0.000    0.000    0.000    0.000    0.000 
#
# Total GULP energy -198272.158156 kJ/mol
# GULP energy per Si atom -12392.009885 kJ/mol
# Density = 2.191776 g / cm^3
# Si number density = 21.967761 Si / 1000 Ang^3
#
#
#
# Elastic Constant Matrix: (Units=GPa)
#
#
# Indices 1 2 3 4 5 6 
#
# 1 44.4333 39.3547 9.3010 0.8323 8.3567 -3.0546
# 2 39.3547 151.3051 16.3916 -1.0767 11.3743 18.0688
# 3 9.3010 16.3916 71.8627 -1.5778 6.7703 0.1105
# 4 0.8323 -1.0767 -1.5778 43.3597 3.5728 0.1723
# 5 8.3567 11.3743 6.7703 3.5728 20.2064 -3.4724
# 6 -3.0546 18.0688 0.1105 0.1723 -3.4724 34.9546
#
#
#
# Elastic Compliance Matrix: (Units=1/GPa)
#
#
# Indices 1 2 3 4 5 6 
#
# 1 0.032033 -0.008425 -0.001602 -0.000348 -0.006792 0.006486
# 2 -0.008425 0.009849 -0.000856 0.000642 -0.002939 -0.006120
# 3 -0.001602 -0.000856 0.014711 0.000872 -0.003963 -0.000142
# 4 -0.000348 0.000642 0.000872 0.023519 -0.004833 -0.000961
# 5 -0.006792 -0.002939 -0.003963 -0.004833 0.057278 0.006652
# 6 0.006486 -0.006120 -0.000142 -0.000961 0.006652 0.033005
#
#
# Mechanical properties :
#
#
# Convention : Reuss Voigt Hill
#
# Bulk Modulus (GPa) = 28.71273 44.18842 36.45058
# Shear Modulus (GPa) = 24.53759 33.20773 28.87266
#
# Velocity S-wave (km/s) = 3.34575 3.89222 3.62929
# Velocity P-wave (km/s) = 5.29379 6.35279 5.84731
#
# Compressibility (1/GPa) = 0.03482775
#
# Stress axis : x y z
#
# Youngs Moduli (GPa) = 31.21825 101.52857 67.97753
#
# Poissons Ratio (x) = 0.85534 0.10890
# Poissons Ratio (y) = 0.26300 0.05818
# Poissons Ratio (z) = 0.05001 0.08690
#
# Static dielectric constant tensor:
#      x y z
#    x 3.534200 0.212260 -0.227700 
#    y 0.212260 4.008700 0.280110 
#    z -0.227700 0.280110 4.494190 
# 
# 
# High freq. dielectric constant tensor:
#      x y z
#    x 1.813180 0.023460 -0.006130 
#    y 0.023460 1.873560 0.003220 
#    z -0.006130 0.003220 1.874470 
# 
# From -- ./inp_files/223737.got.cif
#   From: 2010.06.25/outbox.ucp.g09.slc.cvg/sg2_112_cif.got.tgz:223737.got - 2010.06.28 11:54:26.
