data_PCOD8038028
_publ_section_title
;
Structure prediction by ZEFSAII (Michael W. Deem and Ramdas Pophale) SiO2 
 PCOD8038028
Probable space group: P -1
;
_chemical_formula_sum "Si O2"
_cell_formula_units_Z 16
_cell_length_a 12.000000
_cell_length_b 15.000000
_cell_length_c 21.000000
_cell_angle_alpha 150.000000
_cell_angle_beta 150.000000
_cell_angle_gamma 30.000000
_cell_volume 837.063958
_symmetry_space_group_name_H-M "P -1"
_symmetry_group_IT_number 2
_symmetry_cell_setting 'triclinic'
loop_
_space_group_symop_operation_xyz
x,y,z
-x,-y,-z
loop_
_atom_site_type_symbol
_atom_site_label
_atom_site_fract_x
_atom_site_fract_y
_atom_site_fract_z
Si Si1 0.321356 0.035038 0.117885
Si Si2 0.883838 0.461485 0.192841
Si Si3 0.729327 0.851015 0.979099
Si Si4 0.480160 0.393488 0.014482
Si Si5 0.285975 0.602938 0.511132
Si Si6 0.684184 0.449672 0.715948
Si Si7 0.131023 0.020246 0.640119
Si Si8 0.822378 0.421090 0.897939
O O1 0.287787 0.036920 0.026068
O O2 0.086538 0.228603 0.149177
O O3 0.323167 0.843051 0.034384
O O4 0.589166 0.017672 0.259808
O O5 0.754692 0.539061 0.108277
O O6 0.036019 0.579338 0.362139
O O7 0.652454 0.502641 0.151799
O O8 0.727555 0.639247 0.834660
O O9 0.992109 0.796168 0.112691
O O10 0.500000 0.000000 0.000000
O O11 0.363181 0.434959 0.052081
O O12 0.500000 0.500000 0.500000
O O13 0.431074 0.487797 0.576302
O O14 0.174090 0.846008 0.605856
O O15 0.634826 0.427028 0.752354
O O16 0.946880 0.247108 0.710468
O O17 0.000000 0.000000 0.500000
O O18 0.000000 0.500000 0.000000
#
# Coordination Sequence:
#
# PCOD8038028 Si02
#       8
#     2   2   2   2   2   2   2   2
#     4  12  20  35  61  90 123 157 209 252 310 366
#     4  11  24  42  62  89 127 168 208 255 309 372
#     4  11  20  35  59  93 127 160 197 260 315 365
#     4  11  24  42  62  90 128 164 205 261 312 369
#     4  12  22  39  61  90 126 162 210 254 308 368
#     4  11  22  38  56  95 125 160 206 259 315 361
#     4  12  22  33  61  91 128 163 200 261 309 363
#     4  10  21  37  61  87 123 156 203 254 314 359
#
# _framework density 19.114429999999999
#
# number of rings (size 3 to 8) (size 9 to 14) (size 15 to 20)
#    0.000    0.750    5.000    4.875    1.750    0.000 
#    0.000    0.625    0.000    0.750    0.000    0.000 
#    0.000    0.000    0.000    0.000    0.000    0.000 
#
# Total GULP energy -198229.015120 kJ/mol
# GULP energy per Si atom -12389.313445 kJ/mol
# Density = 1.907092 g / cm^3
# Si number density = 19.114430 Si / 1000 Ang^3
#
#
#
# Elastic Constant Matrix: (Units=GPa)
#
#
# Indices 1 2 3 4 5 6 
#
# 1 84.7775 25.3331 40.8863 -11.8172 -1.6708 -0.2948
# 2 25.3331 156.8923 39.5596 -9.8888 -4.4189 6.8519
# 3 40.8863 39.5596 85.0144 -22.9135 3.1636 7.7863
# 4 -11.8172 -9.8888 -22.9135 48.0420 5.5549 -10.7918
# 5 -1.6708 -4.4189 3.1636 5.5549 29.4275 -5.1294
# 6 -0.2948 6.8519 7.7863 -10.7918 -5.1294 31.5429
#
#
#
# Elastic Compliance Matrix: (Units=1/GPa)
#
#
# Indices 1 2 3 4 5 6 
#
# 1 0.015690 -0.000697 -0.007383 0.000561 0.001932 0.002627
# 2 -0.000697 0.007332 -0.003197 -0.000517 0.001369 -0.000764
# 3 -0.007383 -0.003197 0.018968 0.006529 -0.004620 -0.002574
# 4 0.000561 -0.000517 0.006529 0.025977 -0.004490 0.006663
# 5 0.001932 0.001369 -0.004620 -0.004490 0.036560 0.005270
# 6 0.002627 -0.000764 -0.002574 0.006663 0.005270 0.035666
#
#
# Mechanical properties :
#
#
# Convention : Reuss Voigt Hill
#
# Bulk Modulus (GPa) = 51.44803 59.80468 55.62635
# Shear Modulus (GPa) = 29.54676 36.52949 33.03813
#
# Velocity S-wave (km/s) = 3.93591 4.37635 4.16196
# Velocity P-wave (km/s) = 6.90141 7.54269 7.22916
#
# Compressibility (1/GPa) = 0.01943709
#
# Stress axis : x y z
#
# Youngs Moduli (GPa) = 63.73593 136.39318 52.71987
#
# Poissons Ratio (x) = 0.09504 0.38921
# Poissons Ratio (y) = 0.04441 0.16854
# Poissons Ratio (z) = 0.47054 0.43603
#
# Static dielectric constant tensor:
#      x y z
#    x 3.578360 0.150300 -0.341990 
#    y 0.150300 4.399330 -0.199160 
#    z -0.341990 -0.199160 3.702320 
# 
# 
# High freq. dielectric constant tensor:
#      x y z
#    x 1.722050 0.012180 -0.013330 
#    y 0.012180 1.790130 -0.019370 
#    z -0.013330 -0.019370 1.720590 
# 
# From -- ./inp_files/428808.got.cif
#   From: 2010.06.25/outbox.ucp.g09.slc.cvg/sg2_215_cif.got.tgz:428808.got - 2010.06.28 11:54:26.
