data_PCOD8038170
_publ_section_title
;
Structure prediction by ZEFSAII (Michael W. Deem and Ramdas Pophale) SiO2 
 PCOD8038170
Probable space group: P -1
;
_chemical_formula_sum "Si O2"
_cell_formula_units_Z 14
_cell_length_a 22.924123
_cell_length_b 11.001771
_cell_length_c 16.807835
_cell_angle_alpha 32.781282
_cell_angle_beta 160.325006
_cell_angle_gamma 146.488877
_cell_volume 751.833067
_symmetry_space_group_name_H-M "P -1"
_symmetry_group_IT_number 2
_symmetry_cell_setting 'triclinic'
loop_
_space_group_symop_operation_xyz
x,y,z
-x,-y,-z
loop_
_atom_site_type_symbol
_atom_site_label
_atom_site_fract_x
_atom_site_fract_y
_atom_site_fract_z
Si Si1 0.411233 0.214712 0.259850
Si Si2 0.881582 0.029437 0.094827
Si Si3 0.250727 0.599992 0.490674
Si Si4 0.085959 0.310689 0.070424
Si Si5 0.863956 0.890279 0.317697
Si Si6 0.701334 0.898887 0.654654
Si Si7 0.665827 0.227808 0.821068
O O1 0.571028 0.417932 0.319785
O O2 0.336802 0.256715 0.228367
O O3 0.500000 0.000000 0.500000
O O4 0.244730 0.169509 0.010544
O O5 0.050343 0.162995 0.187164
O O6 0.951841 0.922826 0.323527
O O7 0.761822 0.208021 0.870089
O O8 0.208897 0.381017 0.614841
O O9 0.281346 0.830912 0.455818
O O10 0.089235 0.595217 0.225045
O O11 0.121288 0.146079 0.134495
O O12 0.256490 0.520567 0.181536
O O13 0.000000 0.000000 0.500000
O O14 0.704912 0.027192 0.040159
O O15 0.543913 0.811329 0.437545
#
# Coordination Sequence:
#
# PCOD8038170 Si02
#       7
#     2   2   2   2   2   2   2
#     4  10  17  34  57  85 112 141 192 241 265 327
#     4  10  20  35  59  87 109 146 200 231 275 327
#     4  11  19  37  62  80 113 153 189 230 282 328
#     4  12  21  35  61  87 116 151 182 239 286 330
#     4  10  21  37  59  85 110 148 197 235 272 334
#     4  11  22  35  58  90 119 143 189 233 289 335
#     4  10  21  37  57  82 117 147 192 231 277 331
#
# _framework density 18.621155999999999
#
# number of rings (size 3 to 8) (size 9 to 14) (size 15 to 20)
#    0.857    0.571    7.143    1.286    0.000    3.429 
#    0.000    0.714    3.143    1.714    0.000    0.000 
#    0.000    0.000    0.000    0.000    0.000    0.000 
#
# Total GULP energy -173499.867612 kJ/mol
# GULP energy per Si atom -12392.847687 kJ/mol
# Density = 1.857877 g / cm^3
# Si number density = 18.621156 Si / 1000 Ang^3
#
#
#
# Elastic Constant Matrix: (Units=GPa)
#
#
# Indices 1 2 3 4 5 6 
#
# 1 109.1562 39.1250 40.6960 -15.6921 -11.8754 17.3750
# 2 39.1250 113.7457 31.7745 -3.7162 -15.6720 10.8813
# 3 40.6960 31.7745 60.2530 6.0001 -23.1597 1.9681
# 4 -15.6921 -3.7162 6.0001 23.4133 -6.2135 -11.7154
# 5 -11.8754 -15.6720 -23.1597 -6.2135 35.2590 2.4047
# 6 17.3750 10.8813 1.9681 -11.7154 2.4047 26.9439
#
#
#
# Elastic Compliance Matrix: (Units=1/GPa)
#
#
# Indices 1 2 3 4 5 6 
#
# 1 0.016154 -0.001753 -0.011135 0.011330 -0.000387 -0.003935
# 2 -0.001753 0.011053 -0.003784 0.000632 0.002151 -0.002974
# 3 -0.011135 -0.003784 0.032745 -0.013095 0.013810 -0.000610
# 4 0.011330 0.000632 -0.013095 0.066084 0.005667 0.021623
# 5 -0.000387 0.002151 0.013810 0.005667 0.039440 -0.002684
# 6 -0.003935 -0.002974 -0.000610 0.021623 -0.002684 0.050539
#
#
# Mechanical properties :
#
#
# Convention : Reuss Voigt Hill
#
# Bulk Modulus (GPa) = 37.58134 56.26064 46.92099
# Shear Modulus (GPa) = 19.36282 28.56053 23.96168
#
# Velocity S-wave (km/s) = 3.22814 3.92058 3.59109
# Velocity P-wave (km/s) = 5.84126 7.12555 6.51513
#
# Compressibility (1/GPa) = 0.02660895
#
# Stress axis : x y z
#
# Youngs Moduli (GPa) = 61.90525 90.47294 30.53898
#
# Poissons Ratio (x) = 0.15857 0.34005
# Poissons Ratio (y) = 0.10850 0.11556
# Poissons Ratio (z) = 0.68931 0.34234
#
# Static dielectric constant tensor:
#      x y z
#    x 3.608900 0.197800 -0.051010 
#    y 0.197800 3.436760 0.194860 
#    z -0.051010 0.194860 3.197650 
# 
# 
# High freq. dielectric constant tensor:
#      x y z
#    x 1.718730 0.001180 -0.013790 
#    y 0.001180 1.714700 0.023610 
#    z -0.013790 0.023610 1.699010 
# 
# From -- ./inp_files/199526.got.cif
#   From: 2010.06.25/outbox.cif.g09.slc.cpg/sg2_100_cif.got.tgz:199526.got - 2010.06.27 13:26:56.
