data_PCOD8038629
_publ_section_title
;
Structure prediction by ZEFSAII (Michael W. Deem and Ramdas Pophale) SiO2 
 PCOD8038629
Probable space group: P -1
;
_chemical_formula_sum "Si O2"
_cell_formula_units_Z 14
_cell_length_a 16.992759
_cell_length_b 16.259930
_cell_length_c 15.326583
_cell_angle_alpha 58.046446
_cell_angle_beta 130.888713
_cell_angle_gamma 162.561789
_cell_volume 870.421551
_symmetry_space_group_name_H-M "P -1"
_symmetry_group_IT_number 2
_symmetry_cell_setting 'triclinic'
loop_
_space_group_symop_operation_xyz
x,y,z
-x,-y,-z
loop_
_atom_site_type_symbol
_atom_site_label
_atom_site_fract_x
_atom_site_fract_y
_atom_site_fract_z
Si Si1 0.213529 0.280108 0.476903
Si Si2 0.103126 0.531277 0.642247
Si Si3 0.674492 0.468026 0.450940
Si Si4 0.870705 0.157570 0.581776
Si Si5 0.159539 0.583904 0.147161
Si Si6 0.874186 0.169840 0.277376
Si Si7 0.358597 0.855550 0.310579
O O1 0.500000 0.500000 0.500000
O O2 0.375182 0.470487 0.574354
O O3 0.975249 0.149968 0.332391
O O4 0.000000 0.000000 0.500000
O O5 0.000000 0.500000 0.500000
O O6 0.052597 0.372744 0.672929
O O7 0.884165 0.362604 0.661546
O O8 0.477947 0.893363 0.726656
O O9 0.859990 0.649567 0.394033
O O10 0.889274 0.590286 0.604725
O O11 0.339390 0.118292 0.381409
O O12 0.646441 0.033375 0.434969
O O13 0.172204 0.666872 0.192284
O O14 0.927598 0.289245 0.168511
O O15 0.506034 0.846785 0.223740
O O16 0.000000 0.500000 0.000000
#
# Coordination Sequence:
#
# PCOD8038629 Si02
#       7
#     2   2   2   2   2   2   2
#     4  10  18  30  48  70  91 125 155 183 246 297
#     4  10  20  25  43  62  85 118 156 194 235 271
#     4  10  18  27  47  60  94 120 149 182 227 272
#     4  11  16  29  41  64  87 124 152 184 231 283
#     4  12  22  34  50  66  92 138 176 201 224 260
#     4  10  20  34  46  68  94 127 162 201 232 269
#     4  11  17  31  40  61  89 116 162 207 218 261
#
# _framework density 16.084160000000001
#
# number of rings (size 3 to 8) (size 9 to 14) (size 15 to 20)
#    0.857    0.571    2.857    7.286    0.000    0.000 
#    0.000    0.000    0.000    0.000    0.000    0.000 
#    0.000    0.000    0.000   90.000    0.000   10.143 
#
# Total GULP energy -173496.063608 kJ/mol
# GULP energy per Si atom -12392.575972 kJ/mol
# Density = 1.604755 g / cm^3
# Si number density = 16.084160 Si / 1000 Ang^3
#
#
#
# Elastic Constant Matrix: (Units=GPa)
#
#
# Indices 1 2 3 4 5 6 
#
# 1 114.7428 51.5666 31.5353 -0.0580 -16.0639 9.8800
# 2 51.5666 128.2115 19.2457 -0.3930 -9.4160 5.2914
# 3 31.5353 19.2457 45.6990 -6.0910 -10.3288 0.6564
# 4 -0.0580 -0.3930 -6.0910 15.0387 -0.2781 -4.4726
# 5 -16.0639 -9.4160 -10.3288 -0.2781 16.0645 -0.2257
# 6 9.8800 5.2914 0.6564 -4.4726 -0.2257 42.8193
#
#
#
# Elastic Compliance Matrix: (Units=1/GPa)
#
#
# Indices 1 2 3 4 5 6 
#
# 1 0.013427 -0.003808 -0.006514 -0.003405 0.006908 -0.002847
# 2 -0.003808 0.009602 -0.001225 -0.000336 0.001022 -0.000319
# 3 -0.006514 -0.001225 0.031741 0.013846 0.013454 0.002685
# 4 -0.003405 -0.000336 0.013846 0.074720 0.006713 0.008455
# 5 0.006908 0.001022 0.013454 0.006713 0.078511 -0.000811
# 6 -0.002847 -0.000319 0.002685 0.008455 -0.000811 0.024888
#
#
# Mechanical properties :
#
#
# Convention : Reuss Voigt Hill
#
# Bulk Modulus (GPa) = 31.56911 54.81652 43.19282
# Shear Modulus (GPa) = 18.75879 27.20488 22.98184
#
# Velocity S-wave (km/s) = 3.41880 4.11714 3.78411
# Velocity P-wave (km/s) = 5.93754 7.53367 6.78272
#
# Compressibility (1/GPa) = 0.03167653
#
# Stress axis : x y z
#
# Youngs Moduli (GPa) = 74.47524 104.14037 31.50520
#
# Poissons Ratio (x) = 0.39660 0.20521
# Poissons Ratio (y) = 0.28363 0.03860
# Poissons Ratio (z) = 0.48510 0.12758
#
# Static dielectric constant tensor:
#      x y z
#    x 3.145540 -0.147980 -0.294830 
#    y -0.147980 3.333020 0.191070 
#    z -0.294830 0.191070 2.623540 
# 
# 
# High freq. dielectric constant tensor:
#      x y z
#    x 1.617790 0.005110 -0.029660 
#    y 0.005110 1.648280 0.008020 
#    z -0.029660 0.008020 1.544460 
# 
# From -- ./inp_files/96136.got.cif
#   From: 2010.06.25/outbox.cif.g09.slc.cpg/sg2_49_cif.got.tgz:96136.got - 2010.06.27 13:26:56.
