data_PCOD8038500
_publ_section_title
;
Structure prediction by ZEFSAII (Michael W. Deem and Ramdas Pophale) SiO2 
 PCOD8038500
Probable space group: P -1
;
_chemical_formula_sum "Si O2"
_cell_formula_units_Z 14
_cell_length_a 9.265142
_cell_length_b 17.217618
_cell_length_c 9.326133
_cell_angle_alpha 126.687734
_cell_angle_beta 60.292886
_cell_angle_gamma 153.123570
_cell_volume 536.456876
_symmetry_space_group_name_H-M "P -1"
_symmetry_group_IT_number 2
_symmetry_cell_setting 'triclinic'
loop_
_space_group_symop_operation_xyz
x,y,z
-x,-y,-z
loop_
_atom_site_type_symbol
_atom_site_label
_atom_site_fract_x
_atom_site_fract_y
_atom_site_fract_z
Si Si1 0.659165 0.808871 0.614784
Si Si2 0.681748 0.152672 0.695224
Si Si3 0.507429 0.070599 0.221853
Si Si4 0.058629 0.937014 0.809839
Si Si5 0.497502 0.347246 0.763564
Si Si6 0.952131 0.398867 0.601206
Si Si7 0.121759 0.276809 0.090725
O O1 0.675840 0.933388 0.773841
O O2 0.914600 0.876692 0.656114
O O3 0.730224 0.818594 0.424673
O O4 0.302528 0.594137 0.587120
O O5 0.982939 0.351366 0.682909
O O6 0.500000 0.000000 0.500000
O O7 0.750393 0.123153 0.772520
O O8 0.440792 0.119139 0.816715
O O9 0.756794 0.245690 0.404132
O O10 0.751699 0.126184 0.059364
O O11 0.903904 0.766311 0.777142
O O12 0.000000 0.000000 0.000000
O O13 0.779959 0.414789 0.744640
O O14 0.637809 0.514800 0.811446
O O15 0.259408 0.254190 0.908847
#
# Coordination Sequence:
#
# PCOD8038500 Si02
#       7
#     2   2   2   2   2   2   2
#     4  11  21  39  69  94 120 162 220 252 304 371
#     4   9  20  39  63  87 130 166 199 246 325 366
#     4   9  17  37  63  92 123 168 201 257 306 376
#     4  11  25  44  61  87 131 172 202 259 317 370
#     4  10  19  35  65  95 125 159 202 263 308 366
#     4  10  17  36  65  94 123 163 206 258 306 373
#     4  10  19  37  62  90 131 159 198 256 320 357
#
# _framework density 26.097158
#
# number of rings (size 3 to 8) (size 9 to 14) (size 15 to 20)
#    0.000    2.000    2.857    1.714    0.000    0.571 
#    0.000   18.571    3.143    0.000    0.000    0.000 
#    0.000    0.000    0.000    0.000    0.000    0.000 
#
# Total GULP energy -173557.613231 kJ/mol
# GULP energy per Si atom -12396.972374 kJ/mol
# Density = 2.603776 g / cm^3
# Si number density = 26.097158 Si / 1000 Ang^3
#
#
#
# Elastic Constant Matrix: (Units=GPa)
#
#
# Indices 1 2 3 4 5 6 
#
# 1 113.4758 13.1715 5.3672 -7.3480 9.5155 -18.1837
# 2 13.1715 24.4632 -7.7574 -3.6722 1.7597 -6.7733
# 3 5.3672 -7.7574 81.3976 -22.2124 -20.1341 -5.7715
# 4 -7.3480 -3.6722 -22.2124 29.8842 -2.0572 6.1051
# 5 9.5155 1.7597 -20.1341 -2.0572 46.2055 -7.2697
# 6 -18.1837 -6.7733 -5.7715 6.1051 -7.2697 37.2739
#
#
#
# Elastic Compliance Matrix: (Units=1/GPa)
#
#
# Indices 1 2 3 4 5 6 
#
# 1 0.010157 -0.004777 -0.001339 0.000069 -0.001941 0.003490
# 2 -0.004777 0.049959 0.009899 0.011150 0.005062 0.007442
# 3 -0.001339 0.009899 0.020450 0.016036 0.010099 0.003655
# 4 0.000069 0.011150 0.016036 0.047680 0.008416 -0.001626
# 5 -0.001941 0.005062 0.010099 0.008416 0.027493 0.005520
# 6 0.003490 0.007442 0.003655 -0.001626 0.005520 0.031792
#
#
# Mechanical properties :
#
#
# Convention : Reuss Voigt Hill
#
# Bulk Modulus (GPa) = 11.34679 26.76659 19.05669
# Shear Modulus (GPa) = 23.88427 36.57639 30.23033
#
# Velocity S-wave (km/s) = 3.02852 3.74779 3.40719
# Velocity P-wave (km/s) = 4.07266 5.38578 4.77458
#
# Compressibility (1/GPa) = 0.08813063
#
# Stress axis : x y z
#
# Youngs Moduli (GPa) = 98.45759 20.01657 48.89917
#
# Poissons Ratio (x) = 0.09562 0.06547
# Poissons Ratio (y) = 0.47033 -0.48403
# Poissons Ratio (z) = 0.13183 -0.19813
#
# Static dielectric constant tensor:
#      x y z
#    x 5.611640 -0.473370 -0.067800 
#    y -0.473370 4.631240 -0.388230 
#    z -0.067800 -0.388230 5.218540 
# 
# 
# High freq. dielectric constant tensor:
#      x y z
#    x 2.052420 -0.022530 -0.020830 
#    y -0.022530 2.042070 -0.020390 
#    z -0.020830 -0.020390 2.058670 
# 
# From -- ./inp_files/159660.got.cif
#   From: 2010.06.25/outbox.cif.g09.slc.cpg/sg2_80_cif.got.tgz:159660.got - 2010.06.27 13:26:56.
