data_PCOD8038884
_publ_section_title
;
Structure prediction by ZEFSAII (Michael W. Deem and Ramdas Pophale) SiO2 
 PCOD8038884
Probable space group: P -1
;
_chemical_formula_sum "Si O2"
_cell_formula_units_Z 14
_cell_length_a 16.807214
_cell_length_b 15.657184
_cell_length_c 12.027925
_cell_angle_alpha 26.465378
_cell_angle_beta 143.032533
_cell_angle_gamma 143.952774
_cell_volume 795.228457
_symmetry_space_group_name_H-M "P -1"
_symmetry_group_IT_number 2
_symmetry_cell_setting 'triclinic'
loop_
_space_group_symop_operation_xyz
x,y,z
-x,-y,-z
loop_
_atom_site_type_symbol
_atom_site_label
_atom_site_fract_x
_atom_site_fract_y
_atom_site_fract_z
Si Si1 0.287524 0.766090 0.265567
Si Si2 0.322566 0.554760 0.007186
Si Si3 0.054240 0.820244 0.233569
Si Si4 0.539289 0.792283 0.133947
Si Si5 0.540510 0.394490 0.515657
Si Si6 0.013660 0.420608 0.782240
Si Si7 0.351155 0.826721 0.518131
O O1 0.345438 0.623237 0.422551
O O2 0.118192 0.684907 0.161000
O O3 0.334948 0.749664 0.463553
O O4 0.345393 0.994926 0.017657
O O5 0.399372 0.744894 0.955208
O O6 0.397600 0.384966 0.301306
O O7 0.338200 0.632949 0.806560
O O8 0.157705 0.455670 0.970308
O O9 0.988143 0.728863 0.148090
O O10 0.225058 0.910646 0.310090
O O11 0.005254 0.637065 0.481314
O O12 0.000000 0.000000 0.000000
O O13 0.606796 0.614775 0.394552
O O14 0.497298 0.786425 0.223969
O O15 0.500000 0.000000 0.500000
#
# Coordination Sequence:
#
# PCOD8038884 Si02
#       7
#     2   2   2   2   2   2   2
#     4  11  20  33  57  80 106 136 177 218 267 307
#     4   9  18  37  53  73 113 137 165 222 261 306
#     4   9  19  34  52  69 111 153 165 197 268 324
#     4   9  19  38  57  72 106 141 180 219 256 308
#     4   9  20  36  59  74 100 144 186 209 260 312
#     4   9  20  34  48  81 109 132 174 221 255 310
#     4  10  18  31  52  83 106 129 171 218 257 306
#
# _framework density 17.605004000000001
#
# number of rings (size 3 to 8) (size 9 to 14) (size 15 to 20)
#    0.857    1.714    1.429    1.286    0.000    5.143 
#    0.000    1.429    0.000    0.000    0.000    0.000 
#    0.000    0.000    0.000    0.000    0.000    0.000 
#
# Total GULP energy -173518.120237 kJ/mol
# GULP energy per Si atom -12394.151445 kJ/mol
# Density = 1.756493 g / cm^3
# Si number density = 17.605004 Si / 1000 Ang^3
#
#
#
# Elastic Constant Matrix: (Units=GPa)
#
#
# Indices 1 2 3 4 5 6 
#
# 1 119.4214 45.3842 45.6852 7.4436 5.8818 10.7801
# 2 45.3842 87.1003 26.9315 0.0171 9.9820 32.8989
# 3 45.6852 26.9315 69.4319 -2.2172 2.3672 1.6214
# 4 7.4436 0.0171 -2.2172 17.6295 -6.1655 5.5856
# 5 5.8818 9.9820 2.3672 -6.1655 31.1127 -0.1147
# 6 10.7801 32.8989 1.6214 5.5856 -0.1147 30.2895
#
#
#
# Elastic Compliance Matrix: (Units=1/GPa)
#
#
# Indices 1 2 3 4 5 6 
#
# 1 0.013625 -0.006232 -0.006848 -0.008420 -0.001710 0.003833
# 2 -0.006232 0.028655 -0.005805 0.009461 -0.005811 -0.030362
# 3 -0.006848 -0.005805 0.021053 0.004221 0.002417 0.006846
# 4 -0.008420 0.009461 0.004221 0.071674 0.012363 -0.020675
# 5 -0.001710 -0.005811 0.002417 0.012363 0.036612 0.004649
# 6 0.003833 -0.030362 0.006846 -0.020675 0.004649 0.068092
#
#
# Mechanical properties :
#
#
# Convention : Reuss Voigt Hill
#
# Bulk Modulus (GPa) = 39.11905 56.88392 48.00149
# Shear Modulus (GPa) = 17.48244 26.33651 21.90948
#
# Velocity S-wave (km/s) = 3.15467 3.87197 3.53158
# Velocity P-wave (km/s) = 5.96137 7.23677 6.62981
#
# Compressibility (1/GPa) = 0.02556299
#
# Stress axis : x y z
#
# Youngs Moduli (GPa) = 73.39567 34.89755 47.50021
#
# Poissons Ratio (x) = 0.21748 0.32527
# Poissons Ratio (y) = 0.45740 0.27574
# Poissons Ratio (z) = 0.50259 0.20258
#
# Static dielectric constant tensor:
#      x y z
#    x 3.217920 0.145940 -0.104560 
#    y 0.145940 3.279370 0.077610 
#    z -0.104560 0.077610 3.104030 
# 
# 
# High freq. dielectric constant tensor:
#      x y z
#    x 1.675710 0.009050 -0.008340 
#    y 0.009050 1.672980 0.001700 
#    z -0.008340 0.001700 1.667300 
# 
# From -- ./inp_files/311805.got.cif
#   From: 2010.06.25/outbox.cif.g09.slc.cpg/sg2_156_cif.got.tgz:311805.got - 2010.06.27 13:26:56.
