data_PCOD8038753
_publ_section_title
;
Structure prediction by ZEFSAII (Michael W. Deem and Ramdas Pophale) SiO2 
 PCOD8038753
Probable space group: P -1
;
_chemical_formula_sum "Si O2"
_cell_formula_units_Z 14
_cell_length_a 9.242239
_cell_length_b 12.116627
_cell_length_c 15.028348
_cell_angle_alpha 38.550772
_cell_angle_beta 76.520086
_cell_angle_gamma 49.990295
_cell_volume 662.825131
_symmetry_space_group_name_H-M "P -1"
_symmetry_group_IT_number 2
_symmetry_cell_setting 'triclinic'
loop_
_space_group_symop_operation_xyz
x,y,z
-x,-y,-z
loop_
_atom_site_type_symbol
_atom_site_label
_atom_site_fract_x
_atom_site_fract_y
_atom_site_fract_z
Si Si1 0.618016 0.284475 0.299003
Si Si2 0.327267 0.264417 0.295942
Si Si3 0.437510 0.333959 0.838707
Si Si4 0.825380 0.737515 0.136089
Si Si5 0.116679 0.821986 0.444400
Si Si6 0.371891 0.914908 0.392064
Si Si7 0.816822 0.554317 0.438479
O O1 0.455716 0.337155 0.214562
O O2 0.562228 0.544863 0.148440
O O3 0.558665 0.250848 0.423731
O O4 0.884114 0.011057 0.413702
O O5 0.092657 0.519697 0.219203
O O6 0.500000 0.000000 0.500000
O O7 0.279251 0.194959 0.256856
O O8 0.286213 0.293251 0.902381
O O9 0.327942 0.547921 0.640783
O O10 0.697486 0.043065 0.959000
O O11 0.772547 0.696741 0.263933
O O12 0.179981 0.973634 0.327818
O O13 0.095387 0.727477 0.415962
O O14 0.587184 0.749178 0.403835
O O15 0.000000 0.500000 0.500000
#
# Coordination Sequence:
#
# PCOD8038753 Si02
#       7
#     2   2   2   2   2   2   2
#     4  10  18  32  56  78 100 131 172 217 250 291
#     4  10  18  31  51  77 101 130 171 210 250 295
#     4   9  18  33  54  76 102 133 172 209 249 298
#     4  10  20  34  53  75 105 138 167 206 254 303
#     4  10  19  34  56  78 100 133 173 212 250 296
#     4  10  18  30  51  76 101 128 168 211 250 297
#     4  11  20  32  50  76 108 135 165 208 256 304
#
# _framework density 21.12171
#
# number of rings (size 3 to 8) (size 9 to 14) (size 15 to 20)
#    0.000    2.000    0.000    9.000    0.000    0.571 
#    0.000    0.000    0.000   28.286    0.000    0.000 
#    0.000    0.000    0.000    0.000    0.000    0.000 
#
# Total GULP energy -173450.319532 kJ/mol
# GULP energy per Si atom -12389.308538 kJ/mol
# Density = 2.107364 g / cm^3
# Si number density = 21.121710 Si / 1000 Ang^3
#
#
#
# Elastic Constant Matrix: (Units=GPa)
#
#
# Indices 1 2 3 4 5 6 
#
# 1 198.8768 76.2917 47.5295 -30.7650 -2.9517 20.8216
# 2 76.2917 121.4902 42.8079 -40.2430 -1.6147 -8.6195
# 3 47.5295 42.8079 79.2772 -41.8009 4.9535 -1.5963
# 4 -30.7650 -40.2430 -41.8009 32.2107 -2.1901 -0.4149
# 5 -2.9517 -1.6147 4.9535 -2.1901 25.1049 -18.4955
# 6 20.8216 -8.6195 -1.5963 -0.4149 -18.4955 47.1460
#
#
#
# Elastic Compliance Matrix: (Units=1/GPa)
#
#
# Indices 1 2 3 4 5 6 
#
# 1 0.008125 -0.006020 -0.004963 -0.006537 -0.003718 -0.006373
# 2 -0.006020 0.020481 0.009648 0.033145 0.009522 0.010757
# 3 -0.004963 0.009648 0.045511 0.066592 0.001896 0.006827
# 4 -0.006537 0.033145 0.066592 0.153912 0.015333 0.018571
# 5 -0.003718 0.009522 0.001896 0.015333 0.061339 0.027646
# 6 -0.006373 0.010757 0.006827 0.018571 0.027646 0.037232
#
#
# Mechanical properties :
#
#
# Convention : Reuss Voigt Hill
#
# Bulk Modulus (GPa) = 13.99650 81.43360 47.71505
# Shear Modulus (GPa) = 14.16090 36.42667 25.29379
#
# Velocity S-wave (km/s) = 2.59210 4.15735 3.46428
# Velocity P-wave (km/s) = 3.94964 7.85384 6.21621
#
# Compressibility (1/GPa) = 0.07144642
#
# Stress axis : x y z
#
# Youngs Moduli (GPa) = 123.08365 48.82617 21.97280
#
# Poissons Ratio (x) = 0.29394 0.10905
# Poissons Ratio (y) = 0.74098 -0.21200
# Poissons Ratio (z) = 0.61088 -0.47109
#
# Static dielectric constant tensor:
#      x y z
#    x 5.853980 1.261640 -0.534690 
#    y 1.261640 4.330700 -0.628000 
#    z -0.534690 -0.628000 3.550310 
# 
# 
# High freq. dielectric constant tensor:
#      x y z
#    x 1.861410 0.016080 -0.007370 
#    y 0.016080 1.807940 -0.046870 
#    z -0.007370 -0.046870 1.780290 
# 
# From -- ./inp_files/181528.got.cif
#   From: 2010.06.25/outbox.cif.g09.slc.cpg/sg2_91_cif.got.tgz:181528.got - 2010.06.27 13:26:56.
