data_PCOD8038944
_publ_section_title
;
Structure prediction by ZEFSAII (Michael W. Deem and Ramdas Pophale) SiO2 
 PCOD8038944
Probable space group: P -1
;
_chemical_formula_sum "Si O2"
_cell_formula_units_Z 16
_cell_length_a 8.108209
_cell_length_b 5.084386
_cell_length_c 14.841777
_cell_angle_alpha 81.050396
_cell_angle_beta 99.977272
_cell_angle_gamma 93.993777
_cell_volume 594.692965
_symmetry_space_group_name_H-M "P -1"
_symmetry_group_IT_number 2
_symmetry_cell_setting 'triclinic'
loop_
_space_group_symop_operation_xyz
x,y,z
-x,-y,-z
loop_
_atom_site_type_symbol
_atom_site_label
_atom_site_fract_x
_atom_site_fract_y
_atom_site_fract_z
Si Si1 0.548844 0.351059 0.236428
Si Si2 0.616356 0.908929 0.139951
Si Si3 0.431488 0.397416 0.593241
Si Si4 0.827732 0.631076 0.868860
Si Si5 0.241874 0.821604 0.387080
Si Si6 0.242464 0.925048 0.033677
Si Si7 0.950771 0.662884 0.690671
Si Si8 0.174146 0.931360 0.564508
O O1 0.634700 0.089620 0.221505
O O2 0.583284 0.363751 0.347252
O O3 0.352098 0.355855 0.196902
O O4 0.643139 0.605632 0.185070
O O5 0.433572 0.952279 0.081279
O O6 0.758920 0.996762 0.076010
O O7 0.500000 0.500000 0.500000
O O8 0.584751 0.210651 0.649699
O O9 0.264979 0.211849 0.582556
O O10 0.837816 0.369329 0.945083
O O11 0.965799 0.633280 0.801900
O O12 0.866062 0.877076 0.927050
O O13 0.100704 0.619983 0.343791
O O14 0.190308 0.124243 0.355033
O O15 0.266688 0.766296 0.501819
O O16 0.130999 0.756169 0.659793
O O17 0.000000 0.000000 0.500000
#
# Coordination Sequence:
#
# PCOD8038944 Si02
#       8
#     2   2   2   2   2   2   2   2
#     4  10  21  33  55  81 118 157 196 246 297 351
#     4   9  18  33  52  83 121 153 188 243 302 358
#     4  12  25  42  64  92 121 165 212 255 306 361
#     4  10  18  31  56  85 119 155 194 243 294 359
#     4  11  23  41  63  84 118 161 210 255 305 354
#     4   9  17  30  53  86 119 153 189 237 304 360
#     4  11  22  40  62  89 123 162 200 253 306 358
#     4  10  24  42  61  86 120 161 209 261 305 358
#
# _framework density 26.904639
#
# number of rings (size 3 to 8) (size 9 to 14) (size 15 to 20)
#    0.000    1.750    1.250    3.750    3.500    5.000 
#    0.000    0.000    0.000    0.000    0.000    5.250 
#    0.000    0.000    0.000    0.000    0.000    0.000 
#
# Total GULP energy -198463.663180 kJ/mol
# GULP energy per Si atom -12403.978949 kJ/mol
# Density = 2.684340 g / cm^3
# Si number density = 26.904639 Si / 1000 Ang^3
#
#
#
# Elastic Constant Matrix: (Units=GPa)
#
#
# Indices 1 2 3 4 5 6 
#
# 1 60.0194 16.5331 10.7251 3.3211 -24.4120 9.4571
# 2 16.5331 107.7532 19.6939 17.1376 -16.5427 7.9095
# 3 10.7251 19.6939 124.4655 1.6203 -44.1052 3.6738
# 4 3.3211 17.1376 1.6203 55.1073 1.4893 -9.4066
# 5 -24.4120 -16.5427 -44.1052 1.4893 38.8860 1.3141
# 6 9.4571 7.9095 3.6738 -9.4066 1.3141 31.8714
#
#
#
# Elastic Compliance Matrix: (Units=1/GPa)
#
#
# Indices 1 2 3 4 5 6 
#
# 1 0.028367 0.000013 0.007488 -0.004669 0.026884 -0.011770
# 2 0.000013 0.011049 0.000354 -0.004325 0.005421 -0.004287
# 3 0.007488 0.000354 0.015658 -0.002638 0.022910 -0.005838
# 4 -0.004669 -0.004325 -0.002638 0.021720 -0.008917 0.009541
# 5 0.026884 0.005421 0.022910 -0.008917 0.071819 -0.017556
# 6 -0.011770 -0.004287 -0.005838 0.009541 -0.017556 0.040145
#
#
# Mechanical properties :
#
#
# Convention : Reuss Voigt Hill
#
# Bulk Modulus (GPa) = 14.12735 42.90471 28.51603
# Shear Modulus (GPa) = 25.42697 41.52534 33.47616
#
# Velocity S-wave (km/s) = 3.07755 3.93291 3.53122
# Velocity P-wave (km/s) = 4.22974 6.05023 5.21996
#
# Compressibility (1/GPa) = 0.07078469
#
# Stress axis : x y z
#
# Youngs Moduli (GPa) = 35.25197 90.50984 63.86586
#
# Poissons Ratio (x) = -0.00116 -0.47825
# Poissons Ratio (y) = -0.00045 -0.02264
# Poissons Ratio (z) = -0.26398 -0.03208
#
# Static dielectric constant tensor:
#      x y z
#    x 5.531950 -0.334810 -0.745310 
#    y -0.334810 4.875060 0.053770 
#    z -0.745310 0.053770 5.391350 
# 
# 
# High freq. dielectric constant tensor:
#      x y z
#    x 2.082760 -0.005800 -0.012540 
#    y -0.005800 2.085520 -0.000510 
#    z -0.012540 -0.000510 2.094480 
# 
# From -- ./inp_files/488436.got.cif
#   From: 2010.06.25/outbox.cif.g09.slc.cpg/sg2_245_cif.got.tgz:488436.got - 2010.06.27 13:26:56.
