data_PCOD8038261
_publ_section_title
;
Structure prediction by ZEFSAII (Michael W. Deem and Ramdas Pophale) SiO2 
 PCOD8038261
Probable space group: P -1
;
_chemical_formula_sum "Si O2"
_cell_formula_units_Z 16
_cell_length_a 12.000000
_cell_length_b 9.000000
_cell_length_c 15.000000
_cell_angle_alpha 70.000000
_cell_angle_beta 50.000000
_cell_angle_gamma 110.000000
_cell_volume 728.972637
_symmetry_space_group_name_H-M "P -1"
_symmetry_group_IT_number 2
_symmetry_cell_setting 'triclinic'
loop_
_space_group_symop_operation_xyz
x,y,z
-x,-y,-z
loop_
_atom_site_type_symbol
_atom_site_label
_atom_site_fract_x
_atom_site_fract_y
_atom_site_fract_z
Si Si1 0.978598 0.556072 0.711847
Si Si2 0.520384 0.791149 0.221137
Si Si3 0.057867 0.309475 0.639616
Si Si4 0.751646 0.127720 0.667073
Si Si5 0.180969 0.174434 0.044726
Si Si6 0.043544 0.777295 0.971296
Si Si7 0.236904 0.749010 0.715493
Si Si8 0.399112 0.567167 0.992197
O O1 0.957063 0.348004 0.756003
O O2 0.135365 0.751981 0.511334
O O3 0.087819 0.688849 0.723260
O O4 0.733281 0.439585 0.863854
O O5 0.337703 0.556346 0.432693
O O6 0.410011 0.859867 0.225398
O O7 0.769266 0.035257 0.086830
O O8 0.584010 0.723357 0.122466
O O9 0.950687 0.269462 0.608193
O O10 0.990949 0.079492 0.755107
O O11 0.604557 0.845272 0.789401
O O12 0.241705 0.379984 0.029075
O O13 0.053158 0.135534 0.030973
O O14 0.185394 0.808742 0.815643
O O15 0.829851 0.490367 0.178768
O O16 0.500000 0.000000 0.500000
O O17 0.500000 0.500000 0.000000
#
# Coordination Sequence:
#
# PCOD8038261 Si02
#       8
#     2   2   2   2   2   2   2   2
#     4  11  24  43  68  96 130 173 225 269 323 397
#     4  11  25  44  71  94 133 180 221 275 325 389
#     4  11  25  44  68 101 131 176 227 267 328 395
#     4  11  25  44  70  97 131 176 226 270 325 395
#     4  12  26  43  67 101 138 173 217 273 336 394
#     4  11  25  44  65 100 134 171 224 270 329 393
#     4  11  23  41  69  97 131 174 219 272 328 391
#     4  12  26  42  65  99 136 176 215 272 335 390
#
# _framework density 21.948698
#
# number of rings (size 3 to 8) (size 9 to 14) (size 15 to 20)
#    0.000    0.750    2.500    5.625    7.000    4.000 
#    0.000    0.000    0.000    0.000    0.000    0.000 
#    0.000    0.000    0.000    0.000    0.000    0.000 
#
# Total GULP energy -198423.325525 kJ/mol
# GULP energy per Si atom -12401.457845 kJ/mol
# Density = 2.189874 g / cm^3
# Si number density = 21.948698 Si / 1000 Ang^3
#
#
#
# Elastic Constant Matrix: (Units=GPa)
#
#
# Indices 1 2 3 4 5 6 
#
# 1 103.7952 3.9025 31.9659 -5.0848 9.1220 -10.8021
# 2 3.9025 77.2841 29.4606 0.4660 -4.5055 -2.0490
# 3 31.9659 29.4606 102.1858 -0.8942 -0.4127 -3.0659
# 4 -5.0848 0.4660 -0.8942 32.4030 2.6818 -5.6447
# 5 9.1220 -4.5055 -0.4127 2.6818 25.4661 5.6672
# 6 -10.8021 -2.0490 -3.0659 -5.6447 5.6672 18.1170
#
#
#
# Elastic Compliance Matrix: (Units=1/GPa)
#
#
# Indices 1 2 3 4 5 6 
#
# 1 0.012770 0.000652 -0.003854 0.004361 -0.007361 0.010697
# 2 0.000652 0.014741 -0.004433 -0.000327 0.002224 0.000508
# 3 -0.003854 -0.004433 0.012232 -0.000513 0.001124 -0.001240
# 4 0.004361 -0.000327 -0.000513 0.035098 -0.008931 0.016206
# 5 -0.007361 0.002224 0.001124 -0.008931 0.048103 -0.021777
# 6 0.010697 0.000508 -0.001240 0.016206 -0.021777 0.073284
#
#
# Mechanical properties :
#
#
# Convention : Reuss Voigt Hill
#
# Bulk Modulus (GPa) = 40.85597 45.99145 43.42371
# Shear Modulus (GPa) = 22.76288 29.72630 26.24459
#
# Velocity S-wave (km/s) = 3.22389 3.68415 3.46168
# Velocity P-wave (km/s) = 5.70199 6.25274 5.98371
#
# Compressibility (1/GPa) = 0.02447623
#
# Stress axis : x y z
#
# Youngs Moduli (GPa) = 78.30561 67.83736 81.75042
#
# Poissons Ratio (x) = -0.04425 0.31503
# Poissons Ratio (y) = -0.05108 0.36237
# Poissons Ratio (z) = 0.30175 0.30070
#
# Static dielectric constant tensor:
#      x y z
#    x 4.038130 0.013600 -0.053490 
#    y 0.013600 5.077420 -0.350420 
#    z -0.053490 -0.350420 4.193130 
# 
# 
# High freq. dielectric constant tensor:
#      x y z
#    x 1.866570 -0.002660 0.006380 
#    y -0.002660 1.869860 -0.000250 
#    z 0.006380 -0.000250 1.873160 
# 
# From -- ./inp_files/272622.got.cif
#   From: 2010.06.25/outbox.ucp.g09.slc.cvg/sg2_137_cif.got.tgz:272622.got - 2010.06.28 11:54:26.
