data_PCOD8038037
_publ_section_title
;
Structure prediction by ZEFSAII (Michael W. Deem and Ramdas Pophale) SiO2 
 PCOD8038037
Probable space group: P -1
;
_chemical_formula_sum "Si O2"
_cell_formula_units_Z 14
_cell_length_a 8.977602
_cell_length_b 18.041573
_cell_length_c 25.139876
_cell_angle_alpha 20.117357
_cell_angle_beta 137.913642
_cell_angle_gamma 149.413099
_cell_volume 659.689653
_symmetry_space_group_name_H-M "P -1"
_symmetry_group_IT_number 2
_symmetry_cell_setting 'triclinic'
loop_
_space_group_symop_operation_xyz
x,y,z
-x,-y,-z
loop_
_atom_site_type_symbol
_atom_site_label
_atom_site_fract_x
_atom_site_fract_y
_atom_site_fract_z
Si Si1 0.233700 0.123757 0.085906
Si Si2 0.807843 0.720524 0.711136
Si Si3 0.783329 0.143534 0.368301
Si Si4 0.294389 0.148775 0.198576
Si Si5 0.051708 0.231572 0.167387
Si Si6 0.201368 0.762541 0.118408
Si Si7 0.554202 0.931421 0.916535
O O1 0.139801 0.958977 0.229839
O O2 0.184014 0.919213 0.162056
O O3 0.608912 0.423677 0.981390
O O4 0.042214 0.209916 0.969190
O O5 0.973719 0.880863 0.704041
O O6 0.071501 0.805403 0.685025
O O7 0.666252 0.844479 0.566913
O O8 0.516302 0.352537 0.885322
O O9 0.491370 0.099063 0.312453
O O10 0.037299 0.428390 0.282818
O O11 0.027008 0.029966 0.250919
O O12 0.500000 0.500000 0.000000
O O13 0.776227 0.212443 0.097570
O O14 0.309040 0.816458 0.172063
O O15 0.500000 0.000000 0.000000
#
# Coordination Sequence:
#
# PCOD8038037 Si02
#       7
#     2   2   2   2   2   2   2
#     4  10  20  35  58  85 115 146 194 239 274 333
#     4  10  21  36  57  85 118 148 192 236 285 336
#     4  11  21  37  56  88 115 156 182 241 286 338
#     4  10  17  33  59  83 110 141 203 229 275 324
#     4  10  19  36  62  87 110 151 199 236 272 341
#     4  12  22  36  57  87 119 151 191 232 289 340
#     4  11  21  37  61  91 112 149 194 237 283 339
#
# _framework density 21.222102
#
# number of rings (size 3 to 8) (size 9 to 14) (size 15 to 20)
#    0.000    1.429    4.286    5.571    0.000    0.571 
#    0.000    0.714    0.000    0.857    0.000    0.000 
#    0.000    0.000    0.000    0.000    0.000    0.000 
#
# Total GULP energy -173524.440113 kJ/mol
# GULP energy per Si atom -12394.602865 kJ/mol
# Density = 2.117380 g / cm^3
# Si number density = 21.222102 Si / 1000 Ang^3
#
#
#
# Elastic Constant Matrix: (Units=GPa)
#
#
# Indices 1 2 3 4 5 6 
#
# 1 179.8157 43.5629 36.5579 16.9432 -2.7329 -28.1195
# 2 43.5629 70.3177 22.4772 19.7702 -2.5735 -11.8779
# 3 36.5579 22.4772 59.8218 19.7046 7.0697 -5.3726
# 4 16.9432 19.7702 19.7046 22.1736 0.7848 -0.7896
# 5 -2.7329 -2.5735 7.0697 0.7848 21.4655 18.7239
# 6 -28.1195 -11.8779 -5.3726 -0.7896 18.7239 48.2685
#
#
#
# Elastic Compliance Matrix: (Units=1/GPa)
#
#
# Indices 1 2 3 4 5 6 
#
# 1 0.007498 -0.003055 -0.002680 -0.000402 -0.002120 0.004134
# 2 -0.003055 0.021347 -0.000645 -0.016032 0.000348 0.003004
# 3 -0.002680 -0.000645 0.028047 -0.021536 -0.014788 0.006786
# 4 -0.000402 -0.016032 -0.021536 0.078137 0.010405 -0.009334
# 5 -0.002120 0.000348 -0.014788 0.010405 0.080313 -0.033780
# 6 0.004134 0.003004 0.006786 -0.009334 -0.033780 0.037571
#
#
# Mechanical properties :
#
#
# Convention : Reuss Voigt Hill
#
# Bulk Modulus (GPa) = 22.65875 57.23903 39.94889
# Shear Modulus (GPa) = 17.83255 32.20536 25.01895
#
# Velocity S-wave (km/s) = 2.90191 3.89979 3.43725
# Velocity P-wave (km/s) = 4.68276 6.87806 5.88370
#
# Compressibility (1/GPa) = 0.04413305
#
# Stress axis : x y z
#
# Youngs Moduli (GPa) = 133.36187 46.84405 35.65387
#
# Poissons Ratio (x) = 0.14310 0.09557
# Poissons Ratio (y) = 0.40741 0.02299
# Poissons Ratio (z) = 0.35746 0.03021
#
# Static dielectric constant tensor:
#      x y z
#    x 5.201140 -0.645070 -0.122400 
#    y -0.645070 3.954780 0.313670 
#    z -0.122400 0.313670 3.449980 
# 
# 
# High freq. dielectric constant tensor:
#      x y z
#    x 1.873580 -0.015910 0.005360 
#    y -0.015910 1.824460 0.034760 
#    z 0.005360 0.034760 1.774190 
# 
# From -- ./inp_files/189992.got.cif
#   From: 2010.06.25/outbox.cif.g09.slc.cpg/sg2_95_cif.got.tgz:189992.got - 2010.06.27 13:26:56.
