data_PCOD8038947
_publ_section_title
;
Structure prediction by ZEFSAII (Michael W. Deem and Ramdas Pophale) SiO2 
 PCOD8038947
Probable space group: P -1
;
_chemical_formula_sum "Si O2"
_cell_formula_units_Z 14
_cell_length_a 9.306338
_cell_length_b 7.731265
_cell_length_c 12.374769
_cell_angle_alpha 97.897744
_cell_angle_beta 99.886857
_cell_angle_gamma 131.047232
_cell_volume 622.885368
_symmetry_space_group_name_H-M "P -1"
_symmetry_group_IT_number 2
_symmetry_cell_setting 'triclinic'
loop_
_space_group_symop_operation_xyz
x,y,z
-x,-y,-z
loop_
_atom_site_type_symbol
_atom_site_label
_atom_site_fract_x
_atom_site_fract_y
_atom_site_fract_z
Si Si1 0.828363 0.656778 0.882122
Si Si2 0.007742 0.001244 0.628515
Si Si3 0.294392 0.554411 0.762007
Si Si4 0.845197 0.211384 0.940751
Si Si5 0.308955 0.157783 0.267102
Si Si6 0.125656 0.790956 0.767074
Si Si7 0.464524 0.784689 0.033488
O O1 0.744814 0.766151 0.835341
O O2 0.648464 0.408781 0.900200
O O3 0.912254 0.608406 0.788524
O O4 0.030892 0.850190 0.999498
O O5 0.140037 0.265666 0.719406
O O6 0.097698 0.889289 0.666079
O O7 0.000000 0.000000 0.500000
O O8 0.778495 0.842296 0.631794
O O9 0.446968 0.654129 0.687909
O O10 0.179334 0.638748 0.728368
O O11 0.412603 0.649978 0.900609
O O12 0.633801 0.096054 0.965059
O O13 0.787578 0.112403 0.801894
O O14 0.000000 0.500000 0.000000
O O15 0.298531 0.020674 0.886469
#
# Coordination Sequence:
#
# PCOD8038947 Si02
#       7
#     2   2   2   2   2   2   2
#     4  10  21  34  57  91 136 175 200 243 312 388
#     4  11  28  49  65  90 126 169 230 281 312 364
#     4  12  24  41  70  97 132 174 207 257 329 386
#     4  10  18  31  56  91 130 166 193 242 308 390
#     4  11  23  40  62  92 125 168 219 263 316 380
#     4  11  23  41  67  96 131 169 210 261 325 388
#     4  11  21  37  62 102 139 161 202 253 318 406
#
# _framework density 22.476047000000001
#
# number of rings (size 3 to 8) (size 9 to 14) (size 15 to 20)
#    0.000    1.143    2.857    4.286    2.000    5.714 
#    0.000    0.714    0.000    0.000    0.000    0.000 
#    0.000    0.000    0.000    0.000    0.000    0.000 
#
# Total GULP energy -173447.762939 kJ/mol
# GULP energy per Si atom -12389.125924 kJ/mol
# Density = 2.242489 g / cm^3
# Si number density = 22.476047 Si / 1000 Ang^3
#
#
#
# Elastic Constant Matrix: (Units=GPa)
#
#
# Indices 1 2 3 4 5 6 
#
# 1 103.4658 30.0656 24.5814 -15.9087 -14.6437 5.3184
# 2 30.0656 93.9298 26.6996 -20.7778 -5.8516 3.6561
# 3 24.5814 26.6996 93.5328 -30.7071 -6.1986 -4.0764
# 4 -15.9087 -20.7778 -30.7071 28.5899 0.4695 -1.5540
# 5 -14.6437 -5.8516 -6.1986 0.4695 24.6167 -9.6335
# 6 5.3184 3.6561 -4.0764 -1.5540 -9.6335 30.9254
#
#
#
# Elastic Compliance Matrix: (Units=1/GPa)
#
#
# Indices 1 2 3 4 5 6 
#
# 1 0.012054 -0.002349 -0.000678 0.004185 0.006499 0.000350
# 2 -0.002349 0.013376 -0.000599 0.007725 0.001303 -0.000462
# 3 -0.000678 -0.000599 0.017657 0.018342 0.005576 0.005173
# 4 0.004185 0.007725 0.018342 0.062840 0.010578 0.007238
# 5 0.006499 0.001303 0.005576 0.010578 0.052385 0.016313
# 6 0.000350 -0.000462 0.005173 0.007238 0.016313 0.038458
#
#
# Mechanical properties :
#
#
# Convention : Reuss Voigt Hill
#
# Bulk Modulus (GPa) = 27.90412 50.40239 39.15325
# Shear Modulus (GPa) = 23.15185 30.79850 26.97518
#
# Velocity S-wave (km/s) = 3.21295 3.70575 3.46811
# Velocity P-wave (km/s) = 5.11918 6.38621 5.78748
#
# Compressibility (1/GPa) = 0.03583701
#
# Stress axis : x y z
#
# Youngs Moduli (GPa) = 82.96187 74.75993 56.63408
#
# Poissons Ratio (x) = 0.17559 0.03837
# Poissons Ratio (y) = 0.19485 0.03391
# Poissons Ratio (z) = 0.05621 0.04477
#
# Static dielectric constant tensor:
#      x y z
#    x 4.656630 0.155020 0.018030 
#    y 0.155020 4.392640 -0.203690 
#    z 0.018030 -0.203690 3.508510 
# 
# 
# High freq. dielectric constant tensor:
#      x y z
#    x 1.909380 0.007520 -0.011010 
#    y 0.007520 1.906430 -0.021970 
#    z -0.011010 -0.021970 1.829340 
# 
# From -- ./inp_files/382646.got.cif
#   From: 2010.06.25/outbox.cif.g09.slc.cpg/sg2_192_cif.got.tgz:382646.got - 2010.06.27 13:26:56.
