data_PCOD8038735
_publ_section_title
;
Structure prediction by ZEFSAII (Michael W. Deem and Ramdas Pophale) SiO2 
 PCOD8038735
Probable space group: P -1
;
_chemical_formula_sum "Si O2"
_cell_formula_units_Z 16
_cell_length_a 12.843698
_cell_length_b 10.159444
_cell_length_c 23.332432
_cell_angle_alpha 40.974803
_cell_angle_beta 150.019565
_cell_angle_gamma 143.724434
_cell_volume 883.444332
_symmetry_space_group_name_H-M "P -1"
_symmetry_group_IT_number 2
_symmetry_cell_setting 'triclinic'
loop_
_space_group_symop_operation_xyz
x,y,z
-x,-y,-z
loop_
_atom_site_type_symbol
_atom_site_label
_atom_site_fract_x
_atom_site_fract_y
_atom_site_fract_z
Si Si1 0.391748 0.931794 0.865043
Si Si2 0.683863 0.003546 0.369765
Si Si3 0.540971 0.297269 0.139031
Si Si4 0.933194 0.190398 0.049210
Si Si5 0.879375 0.757782 0.108504
Si Si6 0.060156 0.608688 0.900513
Si Si7 0.990989 0.080482 0.380297
Si Si8 0.784706 0.427129 0.717235
O O1 0.366574 0.772932 0.851068
O O2 0.307477 0.773726 0.933296
O O3 0.197956 0.022143 0.728819
O O4 0.655903 0.128626 0.932560
O O5 0.836599 0.037858 0.490166
O O6 0.489117 0.742798 0.360440
O O7 0.570520 0.175665 0.250754
O O8 0.854605 0.046533 0.384751
O O9 0.699168 0.567980 0.129219
O O10 0.265704 0.227759 0.021357
O O11 0.004822 0.247836 0.131077
O O12 0.985732 0.989948 0.119024
O O13 0.088256 0.410173 0.012357
O O14 0.085895 0.709192 0.202061
O O15 0.851115 0.494624 0.792839
O O16 0.158452 0.349101 0.364729
#
# Coordination Sequence:
#
# PCOD8038735 Si02
#       8
#     2   2   2   2   2   2   2   2
#     4   9  16  33  49  68  96 127 158 201 237 280
#     4  10  18  30  49  74 100 127 159 204 245 274
#     4   9  17  31  47  69 103 129 155 194 246 289
#     4  10  21  31  47  71 103 129 159 191 240 294
#     4  10  18  32  47  71 104 128 154 196 245 292
#     4  10  19  32  46  70 100 129 162 194 230 296
#     4   9  18  31  47  74 102 121 161 208 242 275
#     4  11  19  32  51  75 101 125 162 197 245 286
#
# _framework density 18.110931999999998
#
# number of rings (size 3 to 8) (size 9 to 14) (size 15 to 20)
#    0.000    2.250    3.750    3.000    0.000    2.000 
#    0.000    0.000    0.000    0.000    0.000   11.375 
#    0.000    0.125    0.000    0.000    0.000    0.000 
#
# Total GULP energy -198222.248345 kJ/mol
# GULP energy per Si atom -12388.890522 kJ/mol
# Density = 1.806971 g / cm^3
# Si number density = 18.110932 Si / 1000 Ang^3
#
#
#
# Elastic Constant Matrix: (Units=GPa)
#
#
# Indices 1 2 3 4 5 6 
#
# 1 74.9524 36.9457 32.5336 13.0029 15.0778 7.9772
# 2 36.9457 71.1880 29.7014 -0.5416 4.7450 4.8974
# 3 32.5336 29.7014 87.9874 -10.3461 6.7165 3.8622
# 4 13.0029 -0.5416 -10.3461 38.5134 20.5571 3.4453
# 5 15.0778 4.7450 6.7165 20.5571 47.9549 8.7712
# 6 7.9772 4.8974 3.8622 3.4453 8.7712 35.1560
#
#
#
# Elastic Compliance Matrix: (Units=1/GPa)
#
#
# Indices 1 2 3 4 5 6 
#
# 1 0.022270 -0.008878 -0.006034 -0.008381 -0.001319 -0.002003
# 2 -0.008878 0.020037 -0.003216 0.002252 0.000431 -0.000752
# 3 -0.006034 -0.003216 0.015901 0.008132 -0.003525 0.000153
# 4 -0.008381 0.002252 0.008132 0.039339 -0.015730 0.000764
# 5 -0.001319 0.000431 -0.003525 -0.015730 0.029407 -0.005169
# 6 -0.002003 -0.000752 0.000153 0.000764 -0.005169 0.030202
#
#
# Mechanical properties :
#
#
# Convention : Reuss Voigt Hill
#
# Bulk Modulus (GPa) = 45.55753 48.05437 46.80595
# Shear Modulus (GPa) = 24.90922 33.32133 29.11528
#
# Velocity S-wave (km/s) = 3.71262 4.29400 4.01385
# Velocity P-wave (km/s) = 6.60207 7.15370 6.88342
#
# Compressibility (1/GPa) = 0.02195027
#
# Stress axis : x y z
#
# Youngs Moduli (GPa) = 44.90371 49.90789 62.89042
#
# Poissons Ratio (x) = 0.44309 0.37950
# Poissons Ratio (y) = 0.39866 0.20226
# Poissons Ratio (z) = 0.27096 0.16051
#
# Static dielectric constant tensor:
#      x y z
#    x 3.075090 0.196510 0.004940 
#    y 0.196510 3.482170 -0.252320 
#    z 0.004940 -0.252320 4.094110 
# 
# 
# High freq. dielectric constant tensor:
#      x y z
#    x 1.664710 0.033220 -0.001420 
#    y 0.033220 1.704490 -0.007380 
#    z -0.001420 -0.007380 1.691300 
# 
# From -- ./inp_files/316728.got.cif
#   From: 2010.06.25/outbox.cif.g09.slc.cpg/sg2_159_cif.got.tgz:316728.got - 2010.06.27 13:26:56.
