data_PCOD8038098
_publ_section_title
;
Structure prediction by ZEFSAII (Michael W. Deem and Ramdas Pophale) SiO2 
 PCOD8038098
Probable space group: P -1
;
_chemical_formula_sum "Si O2"
_cell_formula_units_Z 14
_cell_length_a 21.784147
_cell_length_b 15.794223
_cell_length_c 11.097646
_cell_angle_alpha 138.528413
_cell_angle_beta 150.496618
_cell_angle_gamma 21.855006
_cell_volume 663.417886
_symmetry_space_group_name_H-M "P -1"
_symmetry_group_IT_number 2
_symmetry_cell_setting 'triclinic'
loop_
_space_group_symop_operation_xyz
x,y,z
-x,-y,-z
loop_
_atom_site_type_symbol
_atom_site_label
_atom_site_fract_x
_atom_site_fract_y
_atom_site_fract_z
Si Si1 0.793474 0.246873 0.979467
Si Si2 0.971572 0.457319 0.033940
Si Si3 0.931941 0.357697 0.204165
Si Si4 0.232378 0.250077 0.776867
Si Si5 0.222488 0.749371 0.778682
Si Si6 0.617597 0.576815 0.465448
Si Si7 0.220277 0.027201 0.116506
O O1 0.747535 0.421507 0.020604
O O2 0.883936 0.196619 0.216239
O O3 0.561814 0.359521 0.701711
O O4 0.000000 0.000000 0.000000
O O5 0.925908 0.600391 0.213037
O O6 0.198711 0.172193 0.150319
O O7 0.746696 0.558188 0.758676
O O8 0.000000 0.500000 0.000000
O O9 0.784872 0.608569 0.183436
O O10 0.137030 0.214672 0.497697
O O11 0.047186 0.189357 0.107111
O O12 0.500000 0.000000 0.000000
O O13 0.173313 0.689553 0.524915
O O14 0.500000 0.500000 0.000000
O O15 0.149344 0.959923 0.848854
O O16 0.483544 0.781001 0.354630
#
# Coordination Sequence:
#
# PCOD8038098 Si02
#       7
#     2   2   2   2   2   2   2
#     4  10  17  33  64  89 108 151 192 232 297 343
#     4  11  25  41  57  85 117 159 198 232 285 347
#     4  10  19  37  64  85 113 153 190 240 290 338
#     4  10  23  41  58  84 118 152 198 242 277 338
#     4   8  17  33  56  86 114 144 182 233 286 339
#     4  10  21  39  59  86 122 147 186 244 287 343
#     4   9  18  39  61  84 117 148 190 239 290 336
#
# _framework density 21.102838999999999
#
# number of rings (size 3 to 8) (size 9 to 14) (size 15 to 20)
#    0.000    2.571    2.857    0.857    2.000    1.143 
#    7.714    5.714    0.000    0.000    0.000    0.000 
#    0.000    0.000    0.000    0.000    0.000    0.000 
#
# Total GULP energy -173466.205599 kJ/mol
# GULP energy per Si atom -12390.443257 kJ/mol
# Density = 2.105481 g / cm^3
# Si number density = 21.102839 Si / 1000 Ang^3
#
#
#
# Elastic Constant Matrix: (Units=GPa)
#
#
# Indices 1 2 3 4 5 6 
#
# 1 129.7123 42.2216 22.5694 8.4098 3.6966 4.6686
# 2 42.2216 110.9894 22.9275 8.8369 -6.0690 3.5059
# 3 22.5694 22.9275 75.8975 -3.5242 2.1688 6.2014
# 4 8.4098 8.8369 -3.5242 20.2159 4.9643 -3.3272
# 5 3.6966 -6.0690 2.1688 4.9643 24.5481 -0.4800
# 6 4.6686 3.5059 6.2014 -3.3272 -0.4800 32.4596
#
#
#
# Elastic Compliance Matrix: (Units=1/GPa)
#
#
# Indices 1 2 3 4 5 6 
#
# 1 0.009248 -0.002970 -0.001858 -0.002676 -0.001440 -0.000950
# 2 -0.002970 0.011459 -0.002907 -0.005545 0.004644 -0.000755
# 3 -0.001858 -0.002907 0.015071 0.005067 -0.002831 -0.001821
# 4 -0.002676 -0.005545 0.005067 0.058038 -0.013040 0.005772
# 5 -0.001440 0.004644 -0.002831 -0.013040 0.044980 -0.000425
# 6 -0.000950 -0.000755 -0.001821 0.005772 -0.000425 0.031959
#
#
# Mechanical properties :
#
#
# Convention : Reuss Voigt Hill
#
# Bulk Modulus (GPa) = 49.24121 54.67071 51.95596
# Shear Modulus (GPa) = 25.90724 30.70344 28.30534
#
# Velocity S-wave (km/s) = 3.50761 3.81851 3.66636
# Velocity P-wave (km/s) = 6.30785 6.73828 6.52661
#
# Compressibility (1/GPa) = 0.02030819
#
# Stress axis : x y z
#
# Youngs Moduli (GPa) = 108.12992 87.26432 66.35093
#
# Poissons Ratio (x) = 0.25917 0.12331
# Poissons Ratio (y) = 0.32114 0.19289
# Poissons Ratio (z) = 0.20095 0.25368
#
# Static dielectric constant tensor:
#      x y z
#    x 4.564420 -0.154560 -0.471690 
#    y -0.154560 4.504580 0.729000 
#    z -0.471690 0.729000 4.002620 
# 
# 
# High freq. dielectric constant tensor:
#      x y z
#    x 1.819240 0.004880 -0.013850 
#    y 0.004880 1.837980 0.026340 
#    z -0.013850 0.026340 1.802860 
# 
# From -- ./inp_files/475374.got.cif
#   From: 2010.06.25/outbox.cif.g09.slc.cpg/sg2_238_cif.got.tgz:475374.got - 2010.06.27 13:26:56.
