data_PCOD8038909
_publ_section_title
;
Structure prediction by ZEFSAII (Michael W. Deem and Ramdas Pophale) SiO2 
 PCOD8038909
Probable space group: P -1
;
_chemical_formula_sum "Si O2"
_cell_formula_units_Z 16
_cell_length_a 9.909597
_cell_length_b 10.861253
_cell_length_c 9.502728
_cell_angle_alpha 84.224110
_cell_angle_beta 62.003036
_cell_angle_gamma 70.136772
_cell_volume 847.226327
_symmetry_space_group_name_H-M "P -1"
_symmetry_group_IT_number 2
_symmetry_cell_setting 'triclinic'
loop_
_space_group_symop_operation_xyz
x,y,z
-x,-y,-z
loop_
_atom_site_type_symbol
_atom_site_label
_atom_site_fract_x
_atom_site_fract_y
_atom_site_fract_z
Si Si1 0.603042 0.592470 0.469242
Si Si2 0.549858 0.637328 0.801532
Si Si3 0.050502 0.578480 0.592195
Si Si4 0.473596 0.232849 0.782213
Si Si5 0.957848 0.179251 0.602126
Si Si6 0.748679 0.757532 0.863943
Si Si7 0.239506 0.011805 0.340179
Si Si8 0.689076 0.352714 0.858157
O O1 0.500000 0.500000 0.500000
O O2 0.534436 0.665463 0.640637
O O3 0.793716 0.515134 0.393143
O O4 0.579329 0.698722 0.347943
O O5 0.605844 0.749842 0.830840
O O6 0.682284 0.495035 0.788654
O O7 0.377345 0.640148 0.951106
O O8 0.092041 0.704370 0.501810
O O9 0.000000 0.500000 0.500000
O O10 0.908252 0.631753 0.771966
O O11 0.579415 0.301053 0.811788
O O12 0.576677 0.080749 0.713626
O O13 0.310987 0.240343 0.946422
O O14 0.877591 0.254803 0.777173
O O15 0.153937 0.105773 0.506715
O O16 0.871074 0.075303 0.624713
O O17 0.772195 0.895682 0.800397
#
# Coordination Sequence:
#
# PCOD8038909 Si02
#       8
#     2   2   2   2   2   2   2   2
#     4  12  21  35  55  84 118 142 172 227 290 327
#     4  10  18  31  54  81 111 142 176 225 273 332
#     4  11  20  35  58  84 111 141 181 223 276 334
#     4  10  20  33  52  80 111 143 183 229 275 321
#     4   9  16  31  55  82 101 140 188 229 256 312
#     4  10  20  34  56  79 107 148 191 223 263 321
#     4   9  18  32  53  79 108 144 191 228 257 317
#     4   9  16  31  53  81 106 140 189 221 263 332
#
# _framework density 18.885154
#
# number of rings (size 3 to 8) (size 9 to 14) (size 15 to 20)
#    0.000    2.000    3.750    1.125    0.000    0.500 
#    0.000    0.625    0.000    0.750    0.000    0.000 
#    0.000    0.000    0.000    0.000    0.000    0.000 
#
# Total GULP energy -198226.414346 kJ/mol
# GULP energy per Si atom -12389.150897 kJ/mol
# Density = 1.884217 g / cm^3
# Si number density = 18.885154 Si / 1000 Ang^3
#
#
#
# Elastic Constant Matrix: (Units=GPa)
#
#
# Indices 1 2 3 4 5 6 
#
# 1 50.1282 24.6628 40.2383 0.7432 -4.3625 -13.4187
# 2 24.6628 106.9779 71.7730 8.0631 -9.5063 -17.9522
# 3 40.2383 71.7730 170.0029 8.6375 -13.2649 -23.2771
# 4 0.7432 8.0631 8.6375 35.1665 -7.6294 -13.8912
# 5 -4.3625 -9.5063 -13.2649 -7.6294 26.2913 2.8274
# 6 -13.4187 -17.9522 -23.2771 -13.8912 2.8274 31.7640
#
#
#
# Elastic Compliance Matrix: (Units=1/GPa)
#
#
# Indices 1 2 3 4 5 6 
#
# 1 0.026977 -0.001924 -0.004428 0.004975 0.002016 0.009060
# 2 -0.001924 0.013679 -0.004730 -0.000290 0.001816 0.003163
# 3 -0.004428 -0.004730 0.009388 0.000217 0.002113 0.002243
# 4 0.004975 -0.000290 0.000217 0.037417 0.009796 0.017587
# 5 0.002016 0.001816 0.002113 0.009796 0.042513 0.003926
# 6 0.009060 0.003163 0.002243 0.017587 0.003926 0.046083
#
#
# Mechanical properties :
#
#
# Convention : Reuss Voigt Hill
#
# Bulk Modulus (GPa) = 35.86804 66.71747 51.29275
# Shear Modulus (GPa) = 24.09481 31.34001 27.71741
#
# Velocity S-wave (km/s) = 3.57579 4.07812 3.83519
# Velocity P-wave (km/s) = 6.00686 7.58811 6.84331
#
# Compressibility (1/GPa) = 0.02787997
#
# Stress axis : x y z
#
# Youngs Moduli (GPa) = 37.06914 73.10564 106.51643
#
# Poissons Ratio (x) = 0.14065 0.47163
# Poissons Ratio (y) = 0.07132 0.50383
# Poissons Ratio (z) = 0.16413 0.34580
#
# Static dielectric constant tensor:
#      x y z
#    x 2.929190 -0.028260 -0.399890 
#    y -0.028260 3.846750 0.332840 
#    z -0.399890 0.332840 3.856750 
# 
# 
# High freq. dielectric constant tensor:
#      x y z
#    x 1.685820 0.010860 -0.047120 
#    y 0.010860 1.744380 0.014030 
#    z -0.047120 0.014030 1.741850 
# 
# From -- ./inp_files/186534.got.cif
#   From: 2010.06.25/outbox.cif.g09.slc.cpg/sg2_94_cif.got.tgz:186534.got - 2010.06.27 13:26:56.
