data_PCOD8038549
_publ_section_title
;
Structure prediction by ZEFSAII (Michael W. Deem and Ramdas Pophale) SiO2 
 PCOD8038549
Probable space group: P -1
;
_chemical_formula_sum "Si O2"
_cell_formula_units_Z 16
_cell_length_a 9.708551
_cell_length_b 11.435955
_cell_length_c 14.152420
_cell_angle_alpha 109.130200
_cell_angle_beta 58.075312
_cell_angle_gamma 61.911153
_cell_volume 750.426212
_symmetry_space_group_name_H-M "P -1"
_symmetry_group_IT_number 2
_symmetry_cell_setting 'triclinic'
loop_
_space_group_symop_operation_xyz
x,y,z
-x,-y,-z
loop_
_atom_site_type_symbol
_atom_site_label
_atom_site_fract_x
_atom_site_fract_y
_atom_site_fract_z
Si Si1 0.099873 0.215825 0.247828
Si Si2 0.590514 0.360594 0.843691
Si Si3 0.883103 0.587467 0.350451
Si Si4 0.715186 0.988401 0.270510
Si Si5 0.943070 0.452386 0.920617
Si Si6 0.410182 0.393243 0.174605
Si Si7 0.926556 0.031908 0.769014
Si Si8 0.582684 0.062727 0.123096
O O1 0.320660 0.136640 0.219448
O O2 0.878210 0.457918 0.371185
O O3 0.969180 0.174109 0.333606
O O4 0.206204 0.106272 0.078297
O O5 0.594290 0.452983 0.776046
O O6 0.885917 0.119650 0.702264
O O7 0.500000 0.500000 0.000000
O O8 0.375960 0.383025 0.912255
O O9 0.587387 0.828116 0.529967
O O10 0.975570 0.514296 0.189557
O O11 0.100696 0.546683 0.305932
O O12 0.712704 0.964973 0.152952
O O13 0.881076 0.779839 0.206903
O O14 0.866249 0.023398 0.252084
O O15 0.000000 0.500000 0.000000
O O16 0.502385 0.259230 0.198382
O O17 0.618124 0.218796 0.971842
#
# Coordination Sequence:
#
# PCOD8038549 Si02
#       8
#     2   2   2   2   2   2   2   2
#     4   9  20  37  62  85 122 163 203 243 292 349
#     4  10  17  37  64  86 111 152 207 245 288 348
#     4  11  22  40  61  89 126 158 193 246 308 359
#     4  12  24  37  61  94 124 155 196 250 308 352
#     4  12  24  39  65  93 117 154 205 255 294 349
#     4   9  17  36  62  84 112 162 204 232 284 357
#     4  10  19  36  62  87 117 165 201 242 292 356
#     4   9  20  36  60  91 118 157 208 247 285 355
#
# _framework density 21.321214999999999
#
# number of rings (size 3 to 8) (size 9 to 14) (size 15 to 20)
#    0.000    1.750    5.000    1.875    1.750    4.500 
#    2.250    0.000    2.750    1.500    0.000    0.000 
#    0.000    0.000    0.000    0.000    0.000    0.000 
#
# Total GULP energy -198225.359401 kJ/mol
# GULP energy per Si atom -12389.084963 kJ/mol
# Density = 2.127269 g / cm^3
# Si number density = 21.321215 Si / 1000 Ang^3
#
#
#
# Elastic Constant Matrix: (Units=GPa)
#
#
# Indices 1 2 3 4 5 6 
#
# 1 93.8056 25.1722 19.1077 -4.3954 -17.1907 -3.0656
# 2 25.1722 97.7085 3.8694 5.2070 -4.1132 9.9107
# 3 19.1077 3.8694 46.1109 6.1527 -17.1039 -0.3621
# 4 -4.3954 5.2070 6.1527 15.3929 -5.5797 -5.3624
# 5 -17.1907 -4.1132 -17.1039 -5.5797 18.5772 0.8275
# 6 -3.0656 9.9107 -0.3621 -5.3624 0.8275 34.5841
#
#
#
# Elastic Compliance Matrix: (Units=1/GPa)
#
#
# Indices 1 2 3 4 5 6 
#
# 1 0.016109 -0.004625 -0.002271 0.014443 0.015926 0.004588
# 2 -0.004625 0.012252 0.000828 -0.008769 -0.003207 -0.005195
# 3 -0.002271 0.000828 0.033360 -0.004850 0.027405 -0.001497
# 4 0.014443 -0.008769 -0.004850 0.092292 0.033910 0.017241
# 5 0.015926 -0.003207 0.027405 0.033910 0.103033 0.005410
# 6 0.004588 -0.005195 -0.001497 0.017241 0.005410 0.033339
#
#
# Mechanical properties :
#
#
# Convention : Reuss Voigt Hill
#
# Bulk Modulus (GPa) = 20.16736 37.10263 28.63499
# Shear Modulus (GPa) = 15.67155 26.34254 21.00704
#
# Velocity S-wave (km/s) = 2.71407 3.51879 3.14230
# Velocity P-wave (km/s) = 4.39328 5.82655 5.15992
#
# Compressibility (1/GPa) = 0.04958508
#
# Stress axis : x y z
#
# Youngs Moduli (GPa) = 62.07606 81.61619 29.97646
#
# Poissons Ratio (x) = 0.37746 0.06808
# Poissons Ratio (y) = 0.28709 -0.02482
# Poissons Ratio (z) = 0.14099 -0.06758
#
# Static dielectric constant tensor:
#      x y z
#    x 3.817890 0.471680 -0.113360 
#    y 0.471680 5.085540 0.243620 
#    z -0.113360 0.243620 3.318550 
# 
# 
# High freq. dielectric constant tensor:
#      x y z
#    x 1.823450 0.011690 -0.017320 
#    y 0.011690 1.863140 0.014710 
#    z -0.017320 0.014710 1.787160 
# 
# From -- ./inp_files/500545.got.cif
#   From: 2010.06.25/outbox.cif.g09.slc.cpg/sg2_251_cif.got.tgz:500545.got - 2010.06.27 13:26:56.
