data_PCOD8038275
_publ_section_title
;
Structure prediction by ZEFSAII (Michael W. Deem and Ramdas Pophale) SiO2 
 PCOD8038275
Probable space group: P -1
;
_chemical_formula_sum "Si O2"
_cell_formula_units_Z 16
_cell_length_a 11.560911
_cell_length_b 11.207330
_cell_length_c 9.420077
_cell_angle_alpha 63.172730
_cell_angle_beta 127.070388
_cell_angle_gamma 122.784120
_cell_volume 804.418876
_symmetry_space_group_name_H-M "P -1"
_symmetry_group_IT_number 2
_symmetry_cell_setting 'triclinic'
loop_
_space_group_symop_operation_xyz
x,y,z
-x,-y,-z
loop_
_atom_site_type_symbol
_atom_site_label
_atom_site_fract_x
_atom_site_fract_y
_atom_site_fract_z
Si Si1 0.763888 0.395020 0.783236
Si Si2 0.259328 0.452890 0.888509
Si Si3 0.390945 0.086802 0.330149
Si Si4 0.940375 0.964540 0.815426
Si Si5 0.365634 0.598908 0.602313
Si Si6 0.498509 0.368781 0.802753
Si Si7 0.946184 0.660442 0.948466
Si Si8 0.734414 0.836997 0.073636
O O1 0.743802 0.372390 0.612183
O O2 0.598207 0.331216 0.775355
O O3 0.850284 0.562135 0.800751
O O4 0.870345 0.305961 0.955102
O O5 0.258502 0.537469 0.696246
O O6 0.268815 0.299467 0.947101
O O7 0.411405 0.555081 0.029651
O O8 0.109649 0.423588 0.896276
O O9 0.228595 0.021924 0.337498
O O10 0.485240 0.255715 0.337316
O O11 0.500000 0.000000 0.500000
O O12 0.334707 0.070316 0.131517
O O13 0.911760 0.803281 0.836076
O O14 0.089125 0.076108 0.780198
O O15 0.000000 0.000000 0.000000
O O16 0.419703 0.478720 0.632928
O O17 0.371449 0.213484 0.837650
#
# Coordination Sequence:
#
# PCOD8038275 Si02
#       8
#     2   2   2   2   2   2   2   2
#     4  10  23  34  58  87 117 158 189 241 293 349
#     4  10  17  34  62  83 112 147 197 247 284 333
#     4  11  21  33  56  91 119 141 190 252 292 331
#     4  10  20  35  59  84 112 156 195 234 291 349
#     4  11  20  34  59  88 114 147 195 253 290 327
#     4  10  18  37  58  83 117 152 197 234 291 344
#     4  10  20  40  57  82 121 155 195 233 294 356
#     4  10  18  35  61  86 107 159 195 236 285 347
#
# _framework density 19.890135999999998
#
# number of rings (size 3 to 8) (size 9 to 14) (size 15 to 20)
#    0.000    1.750    5.000    1.875    3.500    0.500 
#    0.000    1.875    0.000    3.750    0.000    0.000 
#    0.000    0.000    0.000    0.000    0.000    0.000 
#
# Total GULP energy -198257.148267 kJ/mol
# GULP energy per Si atom -12391.071767 kJ/mol
# Density = 1.984486 g / cm^3
# Si number density = 19.890136 Si / 1000 Ang^3
#
#
#
# Elastic Constant Matrix: (Units=GPa)
#
#
# Indices 1 2 3 4 5 6 
#
# 1 86.5362 40.1036 30.6911 -3.1266 20.2249 23.0115
# 2 40.1036 66.8752 30.9573 -3.2031 10.0332 22.2848
# 3 30.6911 30.9573 68.9662 1.1468 8.6713 9.0330
# 4 -3.1266 -3.2031 1.1468 22.6383 -5.5041 -1.6122
# 5 20.2249 10.0332 8.6713 -5.5041 30.0514 0.3244
# 6 23.0115 22.2848 9.0330 -1.6122 0.3244 33.4397
#
#
#
# Elastic Compliance Matrix: (Units=1/GPa)
#
#
# Indices 1 2 3 4 5 6 
#
# 1 0.020627 -0.005926 -0.003940 -0.001082 -0.010867 -0.009128
# 2 -0.005926 0.026047 -0.007357 0.001930 -0.002111 -0.011179
# 3 -0.003940 -0.007357 0.019432 -0.002655 -0.001010 0.002247
# 4 -0.001082 0.001930 -0.002655 0.046886 0.009412 0.002345
# 5 -0.010867 -0.002111 -0.001010 0.009412 0.043211 0.009192
# 6 -0.009128 -0.011179 0.002247 0.002345 0.009192 0.043053
#
#
# Mechanical properties :
#
#
# Convention : Reuss Voigt Hill
#
# Bulk Modulus (GPa) = 31.58415 47.32019 39.45217
# Shear Modulus (GPa) = 20.47029 25.26757 22.86893
#
# Velocity S-wave (km/s) = 3.21155 3.56807 3.39449
# Velocity P-wave (km/s) = 5.44663 6.38884 5.93646
#
# Compressibility (1/GPa) = 0.03166145
#
# Stress axis : x y z
#
# Youngs Moduli (GPa) = 48.47946 38.39217 51.46030
#
# Poissons Ratio (x) = 0.22750 0.20274
# Poissons Ratio (y) = 0.28728 0.37861
# Poissons Ratio (z) = 0.19099 0.28246
#
# Static dielectric constant tensor:
#      x y z
#    x 3.932760 0.473400 0.088560 
#    y 0.473400 3.896600 0.105690 
#    z 0.088560 0.105690 3.358630 
# 
# 
# High freq. dielectric constant tensor:
#      x y z
#    x 1.777790 0.016330 0.009360 
#    y 0.016330 1.768520 0.009820 
#    z 0.009360 0.009820 1.744840 
# 
# From -- ./inp_files/257221.got.cif
#   From: 2010.06.25/outbox.cif.g09.slc.cpg/sg2_129_cif.got.tgz:257221.got - 2010.06.27 13:26:56.
