data_PCOD8038450
_publ_section_title
;
Structure prediction by ZEFSAII (Michael W. Deem and Ramdas Pophale) SiO2 
 PCOD8038450
Probable space group: P -1
;
_chemical_formula_sum "Si O2"
_cell_formula_units_Z 14
_cell_length_a 11.876136
_cell_length_b 9.714187
_cell_length_c 8.783290
_cell_angle_alpha 46.424528
_cell_angle_beta 57.576951
_cell_angle_gamma 61.683788
_cell_volume 610.507159
_symmetry_space_group_name_H-M "P -1"
_symmetry_group_IT_number 2
_symmetry_cell_setting 'triclinic'
loop_
_space_group_symop_operation_xyz
x,y,z
-x,-y,-z
loop_
_atom_site_type_symbol
_atom_site_label
_atom_site_fract_x
_atom_site_fract_y
_atom_site_fract_z
Si Si1 0.082619 0.117894 0.049128
Si Si2 0.418289 0.209253 0.935665
Si Si3 0.191916 0.726037 0.797843
Si Si4 0.485778 0.561144 0.791329
Si Si5 0.123964 0.750615 0.482896
Si Si6 0.142299 0.302532 0.162211
Si Si7 0.278482 0.339552 0.625320
O O1 0.082727 0.284429 0.050072
O O2 0.920211 0.129609 0.126285
O O3 0.155167 0.914055 0.219508
O O4 0.177453 0.180869 0.796978
O O5 0.294452 0.178954 0.160879
O O6 0.502735 0.363116 0.829790
O O7 0.354383 0.312139 0.751836
O O8 0.500000 0.000000 0.000000
O O9 0.346728 0.713042 0.749334
O O10 0.181274 0.787276 0.580979
O O11 0.152667 0.520817 0.015944
O O12 0.607413 0.677309 0.574887
O O13 0.500000 0.500000 0.000000
O O14 0.189753 0.549845 0.517212
O O15 0.960263 0.769145 0.590061
#
# Coordination Sequence:
#
# PCOD8038450 Si02
#       7
#     2   2   2   2   2   2   2
#     4  10  19  31  59  95 121 156 203 263 315 368
#     4  10  22  38  68  96 121 165 222 255 307 373
#     4  10  17  36  58  86 128 162 204 252 313 373
#     4  11  25  42  62  89 133 176 201 255 329 370
#     4  11  18  32  62  96 124 155 201 268 323 356
#     4   9  16  31  53  90 127 148 193 269 311 346
#     4  11  22  38  62  93 128 153 214 274 299 372
#
# _framework density 22.931754999999999
#
# number of rings (size 3 to 8) (size 9 to 14) (size 15 to 20)
#    0.000    1.714    5.714    3.000    4.000    1.143 
#    0.000    1.429    0.000    0.857    0.000    0.000 
#    0.000    0.000    0.000    0.000    0.000    0.000 
#
# Total GULP energy -173447.404675 kJ/mol
# GULP energy per Si atom -12389.100334 kJ/mol
# Density = 2.287956 g / cm^3
# Si number density = 22.931755 Si / 1000 Ang^3
#
#
#
# Elastic Constant Matrix: (Units=GPa)
#
#
# Indices 1 2 3 4 5 6 
#
# 1 67.3756 45.0233 59.8501 1.4101 -11.9945 -37.0804
# 2 45.0233 74.9382 55.9420 -18.6310 -1.6634 -37.6807
# 3 59.8501 55.9420 154.5403 3.1857 -22.6670 -33.4131
# 4 1.4101 -18.6310 3.1857 20.7557 -11.0822 2.5889
# 5 -11.9945 -1.6634 -22.6670 -11.0822 28.8792 8.8198
# 6 -37.0804 -37.6807 -33.4131 2.5889 8.8198 36.8860
#
#
#
# Elastic Compliance Matrix: (Units=1/GPa)
#
#
# Indices 1 2 3 4 5 6 
#
# 1 0.043946 -0.011557 -0.006845 -0.017462 -0.003079 0.028133
# 2 -0.011557 0.057248 -0.009915 0.048718 -0.001202 0.034750
# 3 -0.006845 -0.009915 0.012205 -0.006323 0.005849 -0.006908
# 4 -0.017462 0.048718 -0.006323 0.107571 0.028142 0.012206
# 5 -0.003079 -0.001202 0.005849 0.028142 0.052833 -0.013632
# 6 0.028133 0.034750 -0.006908 0.012206 -0.013632 0.087036
#
#
# Mechanical properties :
#
#
# Convention : Reuss Voigt Hill
#
# Bulk Modulus (GPa) = 17.61615 68.72053 43.16834
# Shear Modulus (GPa) = 11.45756 26.37343 18.91549
#
# Velocity S-wave (km/s) = 2.23768 3.39497 2.87515
# Velocity P-wave (km/s) = 3.79143 6.73797 5.46695
#
# Compressibility (1/GPa) = 0.05676610
#
# Stress axis : x y z
#
# Youngs Moduli (GPa) = 22.75540 17.46789 81.93107
#
# Poissons Ratio (x) = 0.20188 0.56079
# Poissons Ratio (y) = 0.26299 0.81232
# Poissons Ratio (z) = 0.15575 0.17319
#
# Static dielectric constant tensor:
#      x y z
#    x 4.553620 -0.806170 -0.623350 
#    y -0.806170 4.132930 0.126700 
#    z -0.623350 0.126700 4.166970 
# 
# 
# High freq. dielectric constant tensor:
#      x y z
#    x 1.881990 -0.044900 -0.032080 
#    y -0.044900 1.887860 -0.012300 
#    z -0.032080 -0.012300 1.899930 
# 
# From -- ./inp_files/255648.got.cif
#   From: 2010.06.25/outbox.cif.g09.slc.cpg/sg2_128_cif.got.tgz:255648.got - 2010.06.27 13:26:56.
