data_PCOD8038259
_publ_section_title
;
Structure prediction by ZEFSAII (Michael W. Deem and Ramdas Pophale) SiO2 
 PCOD8038259
Probable space group: P -1
;
_chemical_formula_sum "Si O2"
_cell_formula_units_Z 14
_cell_length_a 8.986887
_cell_length_b 12.241931
_cell_length_c 8.804302
_cell_angle_alpha 100.327997
_cell_angle_beta 65.869272
_cell_angle_gamma 131.587614
_cell_volume 655.121253
_symmetry_space_group_name_H-M "P -1"
_symmetry_group_IT_number 2
_symmetry_cell_setting 'triclinic'
loop_
_space_group_symop_operation_xyz
x,y,z
-x,-y,-z
loop_
_atom_site_type_symbol
_atom_site_label
_atom_site_fract_x
_atom_site_fract_y
_atom_site_fract_z
Si Si1 0.286595 0.727264 0.866874
Si Si2 0.714512 0.094209 0.334750
Si Si3 0.925013 0.583379 0.217437
Si Si4 0.887690 0.684070 0.576223
Si Si5 0.754976 0.877938 0.683189
Si Si6 0.438408 0.428086 0.676071
Si Si7 0.806061 0.905212 0.334896
O O1 0.317701 0.856485 0.797226
O O2 0.163230 0.582248 0.775970
O O3 0.521355 0.785402 0.834852
O O4 0.156040 0.690730 0.066066
O O5 0.916330 0.243591 0.372019
O O6 0.500000 0.000000 0.500000
O O7 0.772297 0.990792 0.251249
O O8 0.954873 0.651120 0.385996
O O9 0.750601 0.574973 0.186252
O O10 0.829258 0.785546 0.593631
O O11 0.664036 0.531907 0.701801
O O12 0.745320 0.929253 0.532675
O O13 0.939283 0.017246 0.747691
O O14 0.500000 0.500000 0.500000
O O15 0.352955 0.265144 0.681987
#
# Coordination Sequence:
#
# PCOD8038259 Si02
#       7
#     2   2   2   2   2   2   2
#     4  11  22  38  58  91 126 151 185 251 307 335
#     4  11  24  37  57  91 126 151 184 247 307 345
#     4  10  21  37  63  90 116 152 202 246 285 341
#     4  10  20  38  65  87 108 157 213 234 273 352
#     4  10  17  34  62  84 108 157 205 230 276 358
#     4  10  17  34  61  87 105 151 212 241 260 345
#     4  10  19  33  59  84 113 150 203 237 277 342
#
# _framework density 21.370090000000001
#
# number of rings (size 3 to 8) (size 9 to 14) (size 15 to 20)
#    0.000    1.714    5.714    0.857    0.000    0.571 
#    0.000    4.286    0.000    0.000    0.000    0.000 
#    0.000    0.000    0.000    0.000    0.000    0.000 
#
# Total GULP energy -173495.925837 kJ/mol
# GULP energy per Si atom -12392.566131 kJ/mol
# Density = 2.132145 g / cm^3
# Si number density = 21.370090 Si / 1000 Ang^3
#
#
#
# Elastic Constant Matrix: (Units=GPa)
#
#
# Indices 1 2 3 4 5 6 
#
# 1 67.8477 32.9574 24.0885 -11.6977 -20.1674 2.6718
# 2 32.9574 134.1359 21.0171 -19.0299 -6.5790 4.3634
# 3 24.0885 21.0171 62.7567 -14.5908 -31.1124 2.9784
# 4 -11.6977 -19.0299 -14.5908 29.8701 6.6546 -7.4197
# 5 -20.1674 -6.5790 -31.1124 6.6546 30.5241 -14.0204
# 6 2.6718 4.3634 2.9784 -7.4197 -14.0204 44.5622
#
#
#
# Elastic Compliance Matrix: (Units=1/GPa)
#
#
# Indices 1 2 3 4 5 6 
#
# 1 0.021704 -0.004432 0.002539 0.004321 0.017400 0.005157
# 2 -0.004432 0.009345 -0.003599 0.003386 -0.006136 -0.001776
# 3 0.002539 -0.003599 0.041874 0.012136 0.047543 0.014380
# 4 0.004321 0.003386 0.012136 0.043135 0.010761 0.009166
# 5 0.017400 -0.006136 0.047543 0.010761 0.103108 0.030612
# 6 0.005157 -0.001776 0.014380 0.009166 0.030612 0.032502
#
#
# Mechanical properties :
#
#
# Convention : Reuss Voigt Hill
#
# Bulk Modulus (GPa) = 16.14466 46.76292 31.45379
# Shear Modulus (GPa) = 17.64922 33.43644 25.54283
#
# Velocity S-wave (km/s) = 2.87694 3.95984 3.46101
# Velocity P-wave (km/s) = 4.31357 6.54500 5.54274
#
# Compressibility (1/GPa) = 0.06194000
#
# Stress axis : x y z
#
# Youngs Moduli (GPa) = 46.07429 107.00735 23.88105
#
# Poissons Ratio (x) = 0.47425 -0.06064
# Poissons Ratio (y) = 0.20420 0.08595
# Poissons Ratio (z) = -0.11700 0.38514
#
# Static dielectric constant tensor:
#      x y z
#    x 4.072360 0.237590 -0.456980 
#    y 0.237590 4.253880 -0.314620 
#    z -0.456980 -0.314620 3.421290 
# 
# 
# High freq. dielectric constant tensor:
#      x y z
#    x 1.833440 0.004310 -0.036130 
#    y 0.004310 1.856910 -0.023580 
#    z -0.036130 -0.023580 1.788020 
# 
# From -- ./inp_files/188342.got.cif
#   From: 2010.06.25/outbox.cif.g09.slc.cpg/sg2_95_cif.got.tgz:188342.got - 2010.06.27 13:26:56.
