data_PCOD8038710
_publ_section_title
;
Structure prediction by ZEFSAII (Michael W. Deem and Ramdas Pophale) SiO2 
 PCOD8038710
Probable space group: P -1
;
_chemical_formula_sum "Si O2"
_cell_formula_units_Z 16
_cell_length_a 11.438267
_cell_length_b 9.193439
_cell_length_c 13.901768
_cell_angle_alpha 69.690854
_cell_angle_beta 43.598378
_cell_angle_gamma 83.234821
_cell_volume 925.053625
_symmetry_space_group_name_H-M "P -1"
_symmetry_group_IT_number 2
_symmetry_cell_setting 'triclinic'
loop_
_space_group_symop_operation_xyz
x,y,z
-x,-y,-z
loop_
_atom_site_type_symbol
_atom_site_label
_atom_site_fract_x
_atom_site_fract_y
_atom_site_fract_z
Si Si1 0.156878 0.567310 0.321161
Si Si2 0.807813 0.513079 0.887267
Si Si3 0.907962 0.215036 0.842205
Si Si4 0.785251 0.857952 0.047910
Si Si5 0.531552 0.582082 0.167956
Si Si6 0.281003 0.285190 0.683458
Si Si7 0.958395 0.339266 0.122124
Si Si8 0.607606 0.392306 0.347937
O O1 0.165727 0.449322 0.251654
O O2 0.129102 0.736045 0.256797
O O3 0.333905 0.591828 0.269101
O O4 0.000000 0.500000 0.500000
O O5 0.832579 0.332335 0.932876
O O6 0.952043 0.634651 0.832596
O O7 0.616241 0.527572 0.032995
O O8 0.113604 0.239381 0.726852
O O9 0.808877 0.037645 0.960165
O O10 0.635446 0.755986 0.095269
O O11 0.729353 0.843109 0.196050
O O12 0.965970 0.797115 0.945353
O O13 0.542979 0.456772 0.273345
O O14 0.448382 0.278563 0.521002
O O15 0.299037 0.461981 0.674203
O O16 0.750964 0.286173 0.267553
O O17 0.000000 0.500000 0.000000
#
# Coordination Sequence:
#
# PCOD8038710 Si02
#       8
#     2   2   2   2   2   2   2   2
#     4  10  21  35  57  79 100 135 181 223 255 300
#     4   9  19  32  56  75 102 131 180 213 255 298
#     4  10  20  34  53  77 105 141 168 220 265 312
#     4  10  21  32  55  76 110 135 174 212 267 317
#     4  10  19  34  53  80  98 135 181 217 249 305
#     4  10  18  31  50  80 106 135 173 216 259 310
#     4  11  16  34  54  81 101 140 175 214 253 315
#     4  10  18  29  54  78 107 132 176 221 253 297
#
# _framework density 17.296294
#
# number of rings (size 3 to 8) (size 9 to 14) (size 15 to 20)
#    0.750    1.250    5.000    1.500    0.000    1.500 
#    0.000    0.625    2.750    3.000    0.000    0.000 
#    0.000    0.000    0.000    0.000    0.000    0.000 
#
# Total GULP energy -198319.869476 kJ/mol
# GULP energy per Si atom -12394.991842 kJ/mol
# Density = 1.725693 g / cm^3
# Si number density = 17.296294 Si / 1000 Ang^3
#
#
#
# Elastic Constant Matrix: (Units=GPa)
#
#
# Indices 1 2 3 4 5 6 
#
# 1 105.7082 22.3834 65.4413 0.3218 -14.3237 -6.3843
# 2 22.3834 54.9973 48.6364 -6.8400 -1.2894 -8.6668
# 3 65.4413 48.6364 156.3407 7.7639 -8.2856 -9.2894
# 4 0.3218 -6.8400 7.7639 22.1679 -2.9994 4.1730
# 5 -14.3237 -1.2894 -8.2856 -2.9994 32.3341 4.9464
# 6 -6.3843 -8.6668 -9.2894 4.1730 4.9464 16.3505
#
#
#
# Elastic Compliance Matrix: (Units=1/GPa)
#
#
# Indices 1 2 3 4 5 6 
#
# 1 0.013527 -0.000318 -0.005420 0.002252 0.004798 0.000007
# 2 -0.000318 0.028675 -0.008913 0.010290 -0.001527 0.007847
# 3 -0.005420 -0.008913 0.011881 -0.007299 -0.000692 0.001982
# 4 0.002252 0.010290 -0.007299 0.054287 0.006667 -0.013686
# 5 0.004798 -0.001527 -0.000692 0.006667 0.035221 -0.011686
# 6 0.000007 0.007847 0.001982 -0.013686 -0.011686 0.073477
#
#
# Mechanical properties :
#
#
# Convention : Reuss Voigt Hill
#
# Bulk Modulus (GPa) = 40.35491 65.55203 52.95347
# Shear Modulus (GPa) = 19.63630 26.20950 22.92290
#
# Velocity S-wave (km/s) = 3.37306 3.89694 3.64443
# Velocity P-wave (km/s) = 6.20905 7.63085 6.95637
#
# Compressibility (1/GPa) = 0.02478013
#
# Stress axis : x y z
#
# Youngs Moduli (GPa) = 73.92848 34.87358 84.16567
#
# Poissons Ratio (x) = 0.01110 0.45618
# Poissons Ratio (y) = 0.02354 0.75017
# Poissons Ratio (z) = 0.40069 0.31083
#
# Static dielectric constant tensor:
#      x y z
#    x 3.220910 -0.040730 -0.044440 
#    y -0.040730 2.934880 0.234680 
#    z -0.044440 0.234680 3.333560 
# 
# 
# High freq. dielectric constant tensor:
#      x y z
#    x 1.671670 -0.002190 -0.003140 
#    y -0.002190 1.630180 0.016870 
#    z -0.003140 0.016870 1.668810 
# 
# From -- ./inp_files/344634.got.cif
#   From: 2010.06.25/outbox.cif.g09.slc.cpg/sg2_173_cif.got.tgz:344634.got - 2010.06.27 13:26:56.
