data_PCOD8038337
_publ_section_title
;
Structure prediction by ZEFSAII (Michael W. Deem and Ramdas Pophale) SiO2 
 PCOD8038337
Probable space group: P -1
;
_chemical_formula_sum "Si O2"
_cell_formula_units_Z 14
_cell_length_a 17.646660
_cell_length_b 9.750514
_cell_length_c 10.144375
_cell_angle_alpha 45.400866
_cell_angle_beta 114.747473
_cell_angle_gamma 140.499671
_cell_volume 760.759553
_symmetry_space_group_name_H-M "P -1"
_symmetry_group_IT_number 2
_symmetry_cell_setting 'triclinic'
loop_
_space_group_symop_operation_xyz
x,y,z
-x,-y,-z
loop_
_atom_site_type_symbol
_atom_site_label
_atom_site_fract_x
_atom_site_fract_y
_atom_site_fract_z
Si Si1 0.724664 0.924054 0.557022
Si Si2 0.128223 0.872870 0.712835
Si Si3 0.488091 0.151374 0.575806
Si Si4 0.710143 0.533955 0.666067
Si Si5 0.697077 0.928516 0.830041
Si Si6 0.159157 0.637554 0.125502
Si Si7 0.432215 0.656659 0.780122
O O1 0.603408 0.827419 0.481780
O O2 0.696264 0.645436 0.710997
O O3 0.756178 0.032397 0.656778
O O4 0.838448 0.171204 0.374482
O O5 0.983228 0.661849 0.760122
O O6 0.199148 0.199757 0.551319
O O7 0.178972 0.827824 0.898018
O O8 0.574850 0.273449 0.682576
O O9 0.574418 0.337057 0.386406
O O10 0.406835 0.819841 0.718213
O O11 0.766119 0.424494 0.820569
O O12 0.568036 0.820728 0.813980
O O13 0.793543 0.197674 0.813221
O O14 0.674905 0.670643 0.031139
#
# Coordination Sequence:
#
# PCOD8038337 Si02
#       7
#     2   2   2   2   2   2   2
#     4   9  22  36  54  84 124 135 181 238 283 320
#     4   9  23  38  57  84 113 144 191 238 264 334
#     4  10  17  35  56  84 114 148 177 232 283 327
#     4  10  20  37  59  85 108 153 180 233 273 340
#     4  10  19  36  55  85 109 148 187 229 269 344
#     4  11  20  39  64  78 109 152 197 219 279 327
#     4   9  19  31  56  83 114 142 189 225 272 336
#
# _framework density 18.402660999999998
#
# number of rings (size 3 to 8) (size 9 to 14) (size 15 to 20)
#    0.857    1.429    1.429    1.714    0.000    1.714 
#    0.000    1.429    0.000    2.571    0.000    0.000 
#    0.000    0.000    0.000    0.000    0.000    0.000 
#
# Total GULP energy -173543.084008 kJ/mol
# GULP energy per Si atom -12395.934572 kJ/mol
# Density = 1.836078 g / cm^3
# Si number density = 18.402661 Si / 1000 Ang^3
#
#
#
# Elastic Constant Matrix: (Units=GPa)
#
#
# Indices 1 2 3 4 5 6 
#
# 1 87.0658 27.7962 19.1572 10.6334 16.4118 -13.4024
# 2 27.7962 52.5934 9.4895 9.3330 16.2022 -9.4693
# 3 19.1572 9.4895 50.3792 6.0574 13.3184 -6.1112
# 4 10.6334 9.3330 6.0574 24.6221 -0.5107 -2.6797
# 5 16.4118 16.2022 13.3184 -0.5107 30.8272 1.9926
# 6 -13.4024 -9.4693 -6.1112 -2.6797 1.9926 17.8890
#
#
#
# Elastic Compliance Matrix: (Units=1/GPa)
#
#
# Indices 1 2 3 4 5 6 
#
# 1 0.016387 -0.003791 -0.002122 -0.004204 -0.006507 0.009640
# 2 -0.003791 0.029526 0.002865 -0.009045 -0.015803 0.014173
# 3 -0.002122 0.002865 0.025008 -0.005594 -0.011852 0.008952
# 4 -0.004204 -0.009045 -0.005594 0.047019 0.010444 -0.003968
# 5 -0.006507 -0.015803 -0.011852 0.010444 0.050885 -0.021393
# 6 0.009640 0.014173 0.008952 -0.003968 -0.021393 0.075472
#
#
# Mechanical properties :
#
#
# Convention : Reuss Voigt Hill
#
# Bulk Modulus (GPa) = 15.42636 33.65821 24.54228
# Shear Modulus (GPa) = 18.38217 23.57402 20.97810
#
# Velocity S-wave (km/s) = 3.16395 3.58300 3.37998
# Velocity P-wave (km/s) = 4.66351 5.95372 5.34767
#
# Compressibility (1/GPa) = 0.06482411
#
# Stress axis : x y z
#
# Youngs Moduli (GPa) = 61.02437 33.86843 39.98651
#
# Poissons Ratio (x) = 0.12841 0.08485
# Poissons Ratio (y) = 0.23137 -0.11455
# Poissons Ratio (z) = 0.12949 -0.09702
#
# Static dielectric constant tensor:
#      x y z
#    x 3.269890 -0.117380 0.122350 
#    y -0.117380 3.134050 -0.005830 
#    z 0.122350 -0.005830 3.415070 
# 
# 
# High freq. dielectric constant tensor:
#      x y z
#    x 1.704930 -0.011200 0.011820 
#    y -0.011200 1.699740 0.002010 
#    z 0.011820 0.002010 1.714540 
# 
# From -- ./inp_files/301084.got.cif
#   From: 2010.06.25/outbox.cif.g09.slc.cpg/sg2_151_cif.got.tgz:301084.got - 2010.06.27 13:26:56.
