data_PCOD8038922
_publ_section_title
;
Structure prediction by ZEFSAII (Michael W. Deem and Ramdas Pophale) SiO2 
 PCOD8038922
Probable space group: P -1
;
_chemical_formula_sum "Si O2"
_cell_formula_units_Z 14
_cell_length_a 6.607662
_cell_length_b 8.054338
_cell_length_c 16.641216
_cell_angle_alpha 115.436435
_cell_angle_beta 45.905353
_cell_angle_gamma 121.432258
_cell_volume 539.510898
_symmetry_space_group_name_H-M "P -1"
_symmetry_group_IT_number 2
_symmetry_cell_setting 'triclinic'
loop_
_space_group_symop_operation_xyz
x,y,z
-x,-y,-z
loop_
_atom_site_type_symbol
_atom_site_label
_atom_site_fract_x
_atom_site_fract_y
_atom_site_fract_z
Si Si1 0.184647 0.024626 0.571250
Si Si2 0.731868 0.996214 0.816816
Si Si3 0.291854 0.708693 0.611346
Si Si4 0.400283 0.717644 0.976683
Si Si5 0.099709 0.302195 0.529193
Si Si6 0.199907 0.905676 0.830557
Si Si7 0.163088 0.289292 0.966196
O O1 0.549205 0.135047 0.474107
O O2 0.008251 0.148097 0.597050
O O3 0.065408 0.025005 0.695742
O O4 0.085435 0.802364 0.519004
O O5 0.490611 0.887929 0.792413
O O6 0.681399 0.198225 0.898915
O O7 0.697493 0.868485 0.882490
O O8 0.044625 0.507938 0.604227
O O9 0.544458 0.645176 0.574068
O O10 0.148346 0.808615 0.737246
O O11 0.142679 0.692763 0.977065
O O12 0.422170 0.502958 0.940535
O O13 0.252495 0.136865 0.853876
O O14 0.893954 0.796831 0.944167
#
# Coordination Sequence:
#
# PCOD8038922 Si02
#       7
#     2   2   2   2   2   2   2
#     4   9  15  28  46  75 105 126 164 212 249 299
#     4  10  18  31  55  74  99 133 169 209 246 301
#     4   9  16  27  46  77 106 125 160 215 261 292
#     4   9  20  35  50  71 102 138 170 195 255 314
#     4   8  15  25  43  74 107 125 158 206 261 299
#     4  10  18  32  54  77 101 124 170 219 253 286
#     4   9  20  35  50  74 101 134 167 210 252 303
#
# _framework density 25.949428999999999
#
# number of rings (size 3 to 8) (size 9 to 14) (size 15 to 20)
#    0.857    2.000    1.429    0.000    2.000    0.571 
#    2.571    0.000    0.000    1.714    0.000    0.000 
#    0.000    0.000    0.000    0.000    0.000    0.000 
#
# Total GULP energy -173545.851024 kJ/mol
# GULP energy per Si atom -12396.132216 kJ/mol
# Density = 2.589037 g / cm^3
# Si number density = 25.949429 Si / 1000 Ang^3
#
#
#
# Elastic Constant Matrix: (Units=GPa)
#
#
# Indices 1 2 3 4 5 6 
#
# 1 35.2089 22.1764 28.5347 6.0538 -5.0003 -7.8299
# 2 22.1764 200.0545 110.5800 43.0231 15.1900 2.0607
# 3 28.5347 110.5800 218.5948 21.1385 4.4642 2.6369
# 4 6.0538 43.0231 21.1385 43.6098 9.3215 3.3739
# 5 -5.0003 15.1900 4.4642 9.3215 24.1063 -7.8571
# 6 -7.8299 2.0607 2.6369 3.3739 -7.8571 25.2632
#
#
#
# Elastic Compliance Matrix: (Units=1/GPa)
#
#
# Indices 1 2 3 4 5 6 
#
# 1 0.042464 -0.002609 -0.004191 -0.007445 0.021068 0.021358
# 2 -0.002609 0.008684 -0.003413 -0.005637 -0.003711 -0.001562
# 3 -0.004191 -0.003413 0.006795 0.001064 -0.001112 -0.002218
# 4 -0.007445 -0.005637 0.001064 0.032941 -0.014466 -0.010857
# 5 0.021068 -0.003711 -0.001112 -0.014466 0.063302 0.028568
# 6 0.021358 -0.001562 -0.002218 -0.010857 0.028568 0.056897
#
#
# Mechanical properties :
#
#
# Convention : Reuss Voigt Hill
#
# Bulk Modulus (GPa) = 26.65488 86.27117 56.46303
# Shear Modulus (GPa) = 20.49052 38.10032 29.29542
#
# Velocity S-wave (km/s) = 2.81309 3.83594 3.36362
# Velocity P-wave (km/s) = 4.56568 7.27580 6.07383
#
# Compressibility (1/GPa) = 0.03751658
#
# Stress axis : x y z
#
# Youngs Moduli (GPa) = 23.54947 115.14784 147.17229
#
# Poissons Ratio (x) = 0.30044 0.61682
# Poissons Ratio (y) = 0.06145 0.50228
# Poissons Ratio (z) = 0.09870 0.39298
#
# Static dielectric constant tensor:
#      x y z
#    x 4.522520 -0.133100 0.062980 
#    y -0.133100 4.933780 0.004780 
#    z 0.062980 0.004780 4.338850 
# 
# 
# High freq. dielectric constant tensor:
#      x y z
#    x 2.061230 -0.010310 0.008120 
#    y -0.010310 2.033610 0.008690 
#    z 0.008120 0.008690 2.019410 
# 
# From -- ./inp_files/555574.got.cif
#   From: 2010.06.25/outbox.cif.g09.slc.cpg/sg2_278_cif.got.tgz:555574.got - 2010.06.27 13:26:56.
