data_PCOD8038760
_publ_section_title
;
Structure prediction by ZEFSAII (Michael W. Deem and Ramdas Pophale) SiO2 
 PCOD8038760
Probable space group: P -1
;
_chemical_formula_sum "Si O2"
_cell_formula_units_Z 14
_cell_length_a 15.839601
_cell_length_b 28.798823
_cell_length_c 16.747117
_cell_angle_alpha 159.356738
_cell_angle_beta 17.680967
_cell_angle_gamma 160.343352
_cell_volume 722.775453
_symmetry_space_group_name_H-M "P -1"
_symmetry_group_IT_number 2
_symmetry_cell_setting 'triclinic'
loop_
_space_group_symop_operation_xyz
x,y,z
-x,-y,-z
loop_
_atom_site_type_symbol
_atom_site_label
_atom_site_fract_x
_atom_site_fract_y
_atom_site_fract_z
Si Si1 0.897018 0.238598 0.315945
Si Si2 0.579283 0.305396 0.095441
Si Si3 0.323944 0.578310 0.523811
Si Si4 0.267936 0.398145 0.653692
Si Si5 0.684728 0.992502 0.243644
Si Si6 0.656640 0.714596 0.146337
Si Si7 0.236398 0.374031 0.930567
O O1 0.775020 0.132408 0.330709
O O2 0.585562 0.219441 0.520351
O O3 0.118976 0.402682 0.412661
O O4 0.090822 0.197405 0.009510
O O5 0.313416 0.292002 0.376370
O O6 0.604076 0.432063 0.215937
O O7 0.900503 0.341242 0.911082
O O8 0.503629 0.158151 0.877952
O O9 0.537283 0.606568 0.453992
O O10 0.562391 0.664449 0.375763
O O11 0.087734 0.649869 0.856948
O O12 0.500000 0.000000 0.500000
O O13 0.000000 0.000000 0.000000
O O14 0.834827 0.730777 0.095912
O O15 0.452349 0.543155 0.032940
#
# Coordination Sequence:
#
# PCOD8038760 Si02
#       7
#     2   2   2   2   2   2   2
#     4  10  20  32  51  76 106 140 170 208 264 316
#     4  10  22  37  54  76 104 141 177 214 263 305
#     4  10  18  30  51  80 105 133 171 215 264 307
#     4  10  20  36  55  76 105 138 177 220 257 308
#     4  12  24  38  56  80 109 140 177 218 259 314
#     4   9  17  31  47  73 108 138 168 206 262 322
#     4   9  17  28  48  76 107 134 166 214 263 311
#
# _framework density 19.369778
#
# number of rings (size 3 to 8) (size 9 to 14) (size 15 to 20)
#    0.000    2.000    0.000    4.286    0.000    8.000 
#    0.000    0.000    0.000    0.000    0.000   20.000 
#    0.000    0.000    0.000    0.000    0.000    0.000 
#
# Total GULP energy -173518.488816 kJ/mol
# GULP energy per Si atom -12394.177773 kJ/mol
# Density = 1.932569 g / cm^3
# Si number density = 19.369778 Si / 1000 Ang^3
#
#
#
# Elastic Constant Matrix: (Units=GPa)
#
#
# Indices 1 2 3 4 5 6 
#
# 1 132.4436 36.7503 30.2589 -12.8593 -14.9764 -8.1321
# 2 36.7503 50.7277 32.0910 -14.7943 6.8291 -13.3639
# 3 30.2589 32.0910 93.0240 -25.4379 1.6529 -6.4308
# 4 -12.8593 -14.7943 -25.4379 28.4447 2.5334 3.3831
# 5 -14.9764 6.8291 1.6529 2.5334 32.4544 -10.3568
# 6 -8.1321 -13.3639 -6.4308 3.3831 -10.3568 27.2893
#
#
#
# Elastic Compliance Matrix: (Units=1/GPa)
#
#
# Indices 1 2 3 4 5 6 
#
# 1 0.010881 -0.007994 -0.001078 -0.001115 0.007503 0.002059
# 2 -0.007994 0.035821 -0.006550 0.008828 -0.008631 0.009246
# 3 -0.001078 -0.006550 0.016273 0.010958 -0.001296 -0.001544
# 4 -0.001115 0.008828 0.010958 0.050024 -0.007642 -0.002529
# 5 0.007503 -0.008631 -0.001296 -0.007642 0.041328 0.014336
# 6 0.002059 0.009246 -0.001544 -0.002529 0.014336 0.047176
#
#
# Mechanical properties :
#
#
# Convention : Reuss Voigt Hill
#
# Bulk Modulus (GPa) = 31.51542 52.71063 42.11303
# Shear Modulus (GPa) = 20.54870 29.44402 24.99636
#
# Velocity S-wave (km/s) = 3.26062 3.90308 3.59623
# Velocity P-wave (km/s) = 5.52099 6.89811 6.24761
#
# Compressibility (1/GPa) = 0.03173050
#
# Stress axis : x y z
#
# Youngs Moduli (GPa) = 91.90052 27.91682 61.45189
#
# Poissons Ratio (x) = 0.22317 0.06623
# Poissons Ratio (y) = 0.73467 0.40253
# Poissons Ratio (z) = 0.09904 0.18287
#
# Static dielectric constant tensor:
#      x y z
#    x 3.591750 -0.077920 -0.104110 
#    y -0.077920 3.256770 -0.379130 
#    z -0.104110 -0.379130 3.755800 
# 
# 
# High freq. dielectric constant tensor:
#      x y z
#    x 1.763310 -0.006770 -0.011610 
#    y -0.006770 1.717600 -0.032770 
#    z -0.011610 -0.032770 1.761480 
# 
# From -- ./inp_files/36143.got.cif
#   From: 2010.06.25/outbox.cif.g09.slc.cpg/sg2_19_cif.got.tgz:36143.got - 2010.06.27 13:26:56.
