data_PCOD8038409
_publ_section_title
;
Structure prediction by ZEFSAII (Michael W. Deem and Ramdas Pophale) SiO2 
 PCOD8038409
Probable space group: P -1
;
_chemical_formula_sum "Si O2"
_cell_formula_units_Z 16
_cell_length_a 8.700722
_cell_length_b 11.496129
_cell_length_c 14.856742
_cell_angle_alpha 112.763708
_cell_angle_beta 140.725601
_cell_angle_gamma 88.173286
_cell_volume 770.877369
_symmetry_space_group_name_H-M "P -1"
_symmetry_group_IT_number 2
_symmetry_cell_setting 'triclinic'
loop_
_space_group_symop_operation_xyz
x,y,z
-x,-y,-z
loop_
_atom_site_type_symbol
_atom_site_label
_atom_site_fract_x
_atom_site_fract_y
_atom_site_fract_z
Si Si1 0.337106 0.601558 0.362237
Si Si2 0.673823 0.417951 0.845831
Si Si3 0.555739 0.904342 0.293848
Si Si4 0.069539 0.059626 0.687943
Si Si5 0.984426 0.854548 0.040102
Si Si6 0.884832 0.679281 0.118126
Si Si7 0.822536 0.701013 0.739978
Si Si8 0.801830 0.048909 0.117324
O O1 0.462035 0.592736 0.317605
O O2 0.574608 0.696887 0.566918
O O3 0.177553 0.448171 0.290588
O O4 0.131485 0.668494 0.277933
O O5 0.556841 0.263827 0.791052
O O6 0.632732 0.523479 0.931369
O O7 0.000000 0.500000 0.000000
O O8 0.715906 0.948428 0.285908
O O9 0.305258 0.943298 0.185176
O O10 0.765119 0.002174 0.493905
O O11 0.200186 0.224166 0.828685
O O12 0.025052 0.953157 0.718340
O O13 0.992741 0.757164 0.095566
O O14 0.841980 0.951716 0.030095
O O15 0.809788 0.763653 0.849832
O O16 0.094169 0.797010 0.834299
O O17 0.500000 0.000000 0.000000
#
# Coordination Sequence:
#
# PCOD8038409 Si02
#       8
#     2   2   2   2   2   2   2   2
#     4  10  20  36  64  92 123 152 211 256 299 368
#     4  10  17  35  63  90 122 156 203 259 300 364
#     4  11  21  40  64  93 125 156 211 257 315 353
#     4  10  25  39  61  96 127 161 202 271 303 360
#     4  11  21  39  68  89 117 167 207 252 299 375
#     4  10  20  38  63  95 121 157 210 262 309 351
#     4  11  22  37  61  93 121 168 201 244 309 370
#     4  11  25  41  58  89 129 166 200 246 312 370
#
# _framework density 20.755572000000001
#
# number of rings (size 3 to 8) (size 9 to 14) (size 15 to 20)
#    0.000    1.500    3.750    2.625    1.750    1.500 
#    2.250    1.250    0.000    1.500    0.000    0.000 
#    0.000    0.000    0.000    0.000    0.000    0.000 
#
# Total GULP energy -198280.531442 kJ/mol
# GULP energy per Si atom -12392.533215 kJ/mol
# Density = 2.070833 g / cm^3
# Si number density = 20.755572 Si / 1000 Ang^3
#
#
#
# Elastic Constant Matrix: (Units=GPa)
#
#
# Indices 1 2 3 4 5 6 
#
# 1 82.3172 24.2139 50.0378 0.2691 -3.2251 -10.6978
# 2 24.2139 85.8095 19.8968 -2.4423 3.4388 9.5985
# 3 50.0378 19.8968 114.7218 -9.5554 -17.2287 -6.5349
# 4 0.2691 -2.4423 -9.5554 35.4732 6.3260 -0.3203
# 5 -3.2251 3.4388 -17.2287 6.3260 30.8652 -0.5441
# 6 -10.6978 9.5985 -6.5349 -0.3203 -0.5441 30.9927
#
#
#
# Elastic Compliance Matrix: (Units=1/GPa)
#
#
# Indices 1 2 3 4 5 6 
#
# 1 0.018663 -0.004253 -0.007406 -0.002167 -0.001158 0.006155
# 2 -0.004253 0.013991 -0.001285 0.001140 -0.003062 -0.006114
# 3 -0.007406 -0.001285 0.013372 0.002445 0.006346 0.000798
# 4 -0.002167 0.001140 0.002445 0.029853 -0.005113 -0.000367
# 5 -0.001158 -0.003062 0.006346 -0.005113 0.037253 0.002488
# 6 0.006155 -0.006114 0.000798 -0.000367 0.002488 0.036492
#
#
# Mechanical properties :
#
#
# Convention : Reuss Voigt Hill
#
# Bulk Modulus (GPa) = 49.65692 52.34951 51.00322
# Shear Modulus (GPa) = 27.43893 32.04622 29.74258
#
# Velocity S-wave (km/s) = 3.63988 3.93362 3.78960
# Velocity P-wave (km/s) = 6.45303 6.77553 6.61624
#
# Compressibility (1/GPa) = 0.02013818
#
# Stress axis : x y z
#
# Youngs Moduli (GPa) = 53.58295 71.47626 74.78266
#
# Poissons Ratio (x) = 0.30397 0.55386
# Poissons Ratio (y) = 0.22787 0.09607
# Poissons Ratio (z) = 0.39685 0.09182
#
# Static dielectric constant tensor:
#      x y z
#    x 3.714470 0.150380 -0.403270 
#    y 0.150380 4.008680 0.105970 
#    z -0.403270 0.105970 4.082910 
# 
# 
# High freq. dielectric constant tensor:
#      x y z
#    x 1.791880 0.015670 -0.027490 
#    y 0.015670 1.821040 -0.002460 
#    z -0.027490 -0.002460 1.815820 
# 
# From -- ./inp_files/500621.got.cif
#   From: 2010.06.25/outbox.cif.g09.slc.cpg/sg2_251_cif.got.tgz:500621.got - 2010.06.27 13:26:56.
