data_PCOD8038237
_publ_section_title
;
Structure prediction by ZEFSAII (Michael W. Deem and Ramdas Pophale) SiO2 
 PCOD8038237
Probable space group: P -1
;
_chemical_formula_sum "Si O2"
_cell_formula_units_Z 16
_cell_length_a 11.189024
_cell_length_b 7.572860
_cell_length_c 9.702585
_cell_angle_alpha 108.331895
_cell_angle_beta 104.695745
_cell_angle_gamma 63.842085
_cell_volume 694.065268
_symmetry_space_group_name_H-M "P -1"
_symmetry_group_IT_number 2
_symmetry_cell_setting 'triclinic'
loop_
_space_group_symop_operation_xyz
x,y,z
-x,-y,-z
loop_
_atom_site_type_symbol
_atom_site_label
_atom_site_fract_x
_atom_site_fract_y
_atom_site_fract_z
Si Si1 0.991944 0.646688 0.910276
Si Si2 0.142608 0.860384 0.566030
Si Si3 0.803030 0.969404 0.113300
Si Si4 0.430289 0.827365 0.590783
Si Si5 0.123985 0.446736 0.423426
Si Si6 0.722099 0.608466 0.114260
Si Si7 0.619852 0.748116 0.403984
Si Si8 0.516899 0.203934 0.089664
O O1 0.146967 0.603644 0.910425
O O2 0.913587 0.598056 0.750083
O O3 0.000000 0.500000 0.000000
O O4 0.904942 0.874615 0.992868
O O5 0.271610 0.885086 0.542584
O O6 0.171653 0.630227 0.487081
O O7 0.127512 0.926603 0.737487
O O8 0.000000 0.000000 0.500000
O O9 0.764617 0.799935 0.144338
O O10 0.667894 0.153802 0.065020
O O11 0.520514 0.682477 0.457967
O O12 0.488740 0.740622 0.736385
O O13 0.458180 0.030092 0.627571
O O14 0.251483 0.256917 0.470659
O O15 0.000000 0.500000 0.500000
O O16 0.669440 0.600045 0.251228
O O17 0.603434 0.613338 0.976480
O O18 0.500000 0.000000 0.000000
#
# Coordination Sequence:
#
# PCOD8038237 Si02
#       8
#     2   2   2   2   2   2   2   2
#     4  10  21  36  60  95 123 160 221 252 310 385
#     4  11  21  42  65  88 130 167 208 262 317 381
#     4   9  19  35  62  91 116 163 219 249 303 374
#     4  10  22  37  62  94 123 167 215 253 315 377
#     4  12  25  39  65  96 127 165 208 268 325 367
#     4  10  17  34  60  92 126 161 213 258 306 369
#     4  11  21  36  60  95 131 157 210 264 315 372
#     4   9  16  31  57  89 115 164 212 248 294 382
#
# _framework density 23.052586999999999
#
# number of rings (size 3 to 8) (size 9 to 14) (size 15 to 20)
#    0.000    1.750    5.000    2.250    5.250    0.500 
#    0.000    0.625    0.000    7.500    0.000    0.000 
#    0.000    0.000    0.000    0.000    0.000    0.000 
#
# Total GULP energy -198237.159339 kJ/mol
# GULP energy per Si atom -12389.822459 kJ/mol
# Density = 2.300012 g / cm^3
# Si number density = 23.052587 Si / 1000 Ang^3
#
#
#
# Elastic Constant Matrix: (Units=GPa)
#
#
# Indices 1 2 3 4 5 6 
#
# 1 148.8334 29.0931 94.6014 -3.0473 -11.2634 -45.4887
# 2 29.0931 43.1873 47.6112 -0.9620 3.4034 -29.9768
# 3 94.6014 47.6112 187.2468 -5.9473 -7.0252 -39.5191
# 4 -3.0473 -0.9620 -5.9473 34.4089 -11.9576 4.7953
# 5 -11.2634 3.4034 -7.0252 -11.9576 52.7478 -2.5365
# 6 -45.4887 -29.9768 -39.5191 4.7953 -2.5365 38.7268
#
#
#
# Elastic Compliance Matrix: (Units=1/GPa)
#
#
# Indices 1 2 3 4 5 6 
#
# 1 0.014274 0.009135 -0.005596 -0.001208 0.002326 0.018428
# 2 0.009135 0.062973 -0.010522 -0.007092 -0.002744 0.049436
# 3 -0.005596 -0.010522 0.009941 0.001945 0.001021 -0.004747
# 4 -0.001208 -0.007092 0.001945 0.032886 0.007505 -0.008504
# 5 0.002326 -0.002744 0.001021 0.007505 0.021572 0.002132
# 6 0.018428 0.049436 -0.004747 -0.008504 0.002132 0.082083
#
#
# Mechanical properties :
#
#
# Convention : Reuss Voigt Hill
#
# Bulk Modulus (GPa) = 13.65699 80.20876 46.93288
# Shear Modulus (GPa) = 19.07643 39.04083 29.05863
#
# Velocity S-wave (km/s) = 2.87978 4.11975 3.55426
# Velocity P-wave (km/s) = 4.12246 7.58282 6.10302
#
# Compressibility (1/GPa) = 0.07322259
#
# Stress axis : x y z
#
# Youngs Moduli (GPa) = 70.05841 15.87971 100.58992
#
# Poissons Ratio (x) = -0.14506 0.56289
# Poissons Ratio (y) = -0.63996 1.05840
# Poissons Ratio (z) = 0.39204 0.16708
#
# Static dielectric constant tensor:
#      x y z
#    x 4.799160 -0.656110 -0.150960 
#    y -0.656110 3.867930 -0.020930 
#    z -0.150960 -0.020930 4.576580 
# 
# 
# High freq. dielectric constant tensor:
#      x y z
#    x 1.916180 -0.033050 -0.005240 
#    y -0.033050 1.887020 -0.004590 
#    z -0.005240 -0.004590 1.912350 
# 
# From -- ./inp_files/245084.got.cif
#   From: 2010.06.25/outbox.cif.g09.slc.cpg/sg2_123_cif.got.tgz:245084.got - 2010.06.27 13:26:56.
