data_PCOD8038773
_publ_section_title
;
Structure prediction by ZEFSAII (Michael W. Deem and Ramdas Pophale) SiO2 
 PCOD8038773
Probable space group: P -1
;
_chemical_formula_sum "Si O2"
_cell_formula_units_Z 16
_cell_length_a 8.244606
_cell_length_b 9.671642
_cell_length_c 13.807891
_cell_angle_alpha 75.675827
_cell_angle_beta 48.931987
_cell_angle_gamma 79.972903
_cell_volume 804.189085
_symmetry_space_group_name_H-M "P -1"
_symmetry_group_IT_number 2
_symmetry_cell_setting 'triclinic'
loop_
_space_group_symop_operation_xyz
x,y,z
-x,-y,-z
loop_
_atom_site_type_symbol
_atom_site_label
_atom_site_fract_x
_atom_site_fract_y
_atom_site_fract_z
Si Si1 0.115438 0.789757 0.769914
Si Si2 0.270948 0.335701 0.678724
Si Si3 0.768013 0.995720 0.800399
Si Si4 0.295240 0.939479 0.968767
Si Si5 0.172422 0.878850 0.433403
Si Si6 0.245370 0.623188 0.566405
Si Si7 0.406641 0.038393 0.633221
Si Si8 0.056761 0.225668 0.960969
O O1 0.249288 0.683549 0.665770
O O2 0.268599 0.903698 0.745110
O O3 0.953683 0.874047 0.746589
O O4 0.988096 0.714047 0.922303
O O5 0.154057 0.461949 0.638705
O O6 0.520238 0.379310 0.574270
O O7 0.176620 0.338686 0.825141
O O8 0.247479 0.178683 0.667101
O O9 0.550963 0.920037 0.861470
O O10 0.814719 0.127867 0.686899
O O11 0.755534 0.065754 0.897247
O O12 0.214281 0.087578 0.926934
O O13 0.172931 0.808370 0.991308
O O14 0.104075 0.726901 0.533318
O O15 0.402159 0.928844 0.374902
O O16 0.000000 0.000000 0.500000
O O17 0.500000 0.000000 0.500000
#
# Coordination Sequence:
#
# PCOD8038773 Si02
#       8
#     2   2   2   2   2   2   2   2
#     4  11  20  35  57  89 110 141 191 234 270 334
#     4  10  20  35  56  81 115 149 178 237 277 329
#     4  10  18  30  52  82 112 142 181 230 282 319
#     4   9  18  32  52  82 113 140 181 237 272 331
#     4  11  19  32  54  83 108 146 180 230 270 331
#     4  10  21  36  54  84 116 145 188 224 283 331
#     4  11  19  34  58  85 108 142 188 233 274 320
#     4  10  19  33  56  82 111 143 188 231 280 319
#
# _framework density 19.895818999999999
#
# number of rings (size 3 to 8) (size 9 to 14) (size 15 to 20)
#    0.000    1.750    3.750    4.500    0.000    0.500 
#    0.000    0.000    0.000    7.500    6.500    0.000 
#    0.000    0.000    0.000    0.000    0.000    0.000 
#
# Total GULP energy -198230.378564 kJ/mol
# GULP energy per Si atom -12389.398660 kJ/mol
# Density = 1.985053 g / cm^3
# Si number density = 19.895819 Si / 1000 Ang^3
#
#
#
# Elastic Constant Matrix: (Units=GPa)
#
#
# Indices 1 2 3 4 5 6 
#
# 1 74.2637 18.6302 24.3638 -4.1953 6.5114 -12.3147
# 2 18.6302 81.2198 45.5658 -12.5327 13.5973 -14.5941
# 3 24.3638 45.5658 140.2887 -14.2612 29.1087 -12.9231
# 4 -4.1953 -12.5327 -14.2612 21.1163 -9.0129 5.5044
# 5 6.5114 13.5973 29.1087 -9.0129 36.8253 -2.5119
# 6 -12.3147 -14.5941 -12.9231 5.5044 -2.5119 22.3472
#
#
#
# Elastic Compliance Matrix: (Units=1/GPa)
#
#
# Indices 1 2 3 4 5 6 
#
# 1 0.015482 -0.001494 -0.001514 -0.000933 -0.000752 0.006826
# 2 -0.001494 0.017005 -0.003883 0.004876 -0.001296 0.006690
# 3 -0.001514 -0.003883 0.010150 0.001343 -0.005890 0.001507
# 4 -0.000933 0.004876 0.001343 0.058128 0.010872 -0.009649
# 5 -0.000752 -0.001296 -0.005890 0.010872 0.034849 -0.003427
# 6 0.006826 0.006690 0.001507 -0.009649 -0.003427 0.055742
#
#
# Mechanical properties :
#
#
# Convention : Reuss Voigt Hill
#
# Bulk Modulus (GPa) = 34.65477 52.54355 43.59916
# Shear Modulus (GPa) = 23.28246 29.87193 26.57719
#
# Velocity S-wave (km/s) = 3.42456 3.87902 3.65885
# Velocity P-wave (km/s) = 5.75263 6.82122 6.30959
#
# Compressibility (1/GPa) = 0.02885605
#
# Stress axis : x y z
#
# Youngs Moduli (GPa) = 64.59128 58.80727 98.52583
#
# Poissons Ratio (x) = 0.08784 0.14913
# Poissons Ratio (y) = 0.09647 0.38257
# Poissons Ratio (z) = 0.09776 0.22835
#
# Static dielectric constant tensor:
#      x y z
#    x 3.754600 -0.396180 0.215620 
#    y -0.396180 3.341590 0.063670 
#    z 0.215620 0.063670 4.050460 
# 
# 
# High freq. dielectric constant tensor:
#      x y z
#    x 1.751070 -0.018090 0.012500 
#    y -0.018090 1.732630 0.009980 
#    z 0.012500 0.009980 1.808900 
# 
# From -- ./inp_files/269587.got.cif
#   From: 2010.06.25/outbox.cif.g09.slc.cpg/sg2_135_cif.got.tgz:269587.got - 2010.06.27 13:26:56.
