data_PCOD8038466
_publ_section_title
;
Structure prediction by ZEFSAII (Michael W. Deem and Ramdas Pophale) SiO2 
 PCOD8038466
Probable space group: P -1
;
_chemical_formula_sum "Si O2"
_cell_formula_units_Z 16
_cell_length_a 14.447148
_cell_length_b 19.992879
_cell_length_c 9.025272
_cell_angle_alpha 118.249699
_cell_angle_beta 64.150555
_cell_angle_gamma 159.820899
_cell_volume 791.852425
_symmetry_space_group_name_H-M "P -1"
_symmetry_group_IT_number 2
_symmetry_cell_setting 'triclinic'
loop_
_space_group_symop_operation_xyz
x,y,z
-x,-y,-z
loop_
_atom_site_type_symbol
_atom_site_label
_atom_site_fract_x
_atom_site_fract_y
_atom_site_fract_z
Si Si1 0.097302 0.057583 0.327779
Si Si2 0.620969 0.329169 0.226043
Si Si3 0.844522 0.645398 0.450913
Si Si4 0.667014 0.334812 0.857470
Si Si5 0.729429 0.800825 0.067820
Si Si6 0.459707 0.054223 0.516833
Si Si7 0.575164 0.593869 0.717034
Si Si8 0.835104 0.352802 0.326751
O O1 0.304082 0.128980 0.243897
O O2 0.233653 0.225535 0.337269
O O3 0.000000 0.000000 0.500000
O O4 0.817805 0.844313 0.218713
O O5 0.786519 0.516667 0.353789
O O6 0.694432 0.318044 0.284420
O O7 0.690969 0.347057 0.031320
O O8 0.677916 0.576861 0.624048
O O9 0.732836 0.607167 0.335746
O O10 0.155906 0.870747 0.500504
O O11 0.458092 0.254297 0.865451
O O12 0.582496 0.196727 0.700045
O O13 0.961829 0.558442 0.822715
O O14 0.581091 0.627645 0.916513
O O15 0.000000 0.000000 0.000000
O O16 0.603127 0.146938 0.353306
O O17 0.500000 0.000000 0.500000
O O18 0.000000 0.500000 0.500000
#
# Coordination Sequence:
#
# PCOD8038466 Si02
#       8
#     2   2   2   2   2   2   2   2
#     4  10  21  32  60  93 128 160 211 257 299 370
#     4  11  22  41  63  95 124 166 211 252 310 373
#     4  10  19  36  63  89 124 160 200 251 312 365
#     4  11  21  41  67  89 124 166 209 262 299 377
#     4  10  17  36  60  95 119 160 212 245 310 366
#     4  11  24  42  65  89 122 162 208 259 321 369
#     4   9  19  35  61  88 121 164 203 248 316 366
#     4  10  24  40  64  91 119 163 211 257 311 370
#
# _framework density 20.205784000000001
#
# number of rings (size 3 to 8) (size 9 to 14) (size 15 to 20)
#    0.000    1.750    3.750    3.375    5.250    0.000 
#    0.000    2.500    0.000    8.250    0.000    0.000 
#    0.000    0.000    0.000    0.000    0.000    0.000 
#
# Total GULP energy -198250.705943 kJ/mol
# GULP energy per Si atom -12390.669121 kJ/mol
# Density = 2.015979 g / cm^3
# Si number density = 20.205784 Si / 1000 Ang^3
#
#
#
# Elastic Constant Matrix: (Units=GPa)
#
#
# Indices 1 2 3 4 5 6 
#
# 1 121.7295 61.1279 69.2389 -11.7309 6.5793 24.3450
# 2 61.1279 68.8456 38.7009 -8.3033 1.0554 10.8182
# 3 69.2389 38.7009 154.9311 -1.0265 7.6802 -1.6188
# 4 -11.7309 -8.3033 -1.0265 36.1326 2.4520 2.4566
# 5 6.5793 1.0554 7.6802 2.4520 39.8904 1.7114
# 6 24.3450 10.8182 -1.6188 2.4566 1.7114 24.0143
#
#
#
# Elastic Compliance Matrix: (Units=1/GPa)
#
#
# Indices 1 2 3 4 5 6 
#
# 1 0.023121 -0.012842 -0.007200 0.005728 -0.001641 -0.018609
# 2 -0.012842 0.026533 -0.000942 0.001753 0.001459 0.000719
# 3 -0.007200 -0.000942 0.010026 -0.002802 -0.000921 0.008752
# 4 0.005728 0.001753 -0.002802 0.030654 -0.001916 -0.009784
# 5 -0.001641 0.001459 -0.000921 -0.001916 0.025625 -0.000686
# 6 -0.018609 0.000719 0.008752 -0.009784 -0.000686 0.061823
#
#
# Mechanical properties :
#
#
# Convention : Reuss Voigt Hill
#
# Bulk Modulus (GPa) = 56.45720 75.96017 66.20869
# Shear Modulus (GPa) = 22.15767 31.77002 26.96385
#
# Velocity S-wave (km/s) = 3.31509 3.96955 3.65699
# Velocity P-wave (km/s) = 6.53107 7.66059 7.11827
#
# Compressibility (1/GPa) = 0.01771253
#
# Stress axis : x y z
#
# Youngs Moduli (GPa) = 43.24997 37.68872 99.73896
#
# Poissons Ratio (x) = 0.48399 0.71815
# Poissons Ratio (y) = 0.55540 0.09396
# Poissons Ratio (z) = 0.31141 0.03550
#
# Static dielectric constant tensor:
#      x y z
#    x 3.614700 0.367910 0.159800 
#    y 0.367910 4.107290 0.267000 
#    z 0.159800 0.267000 4.359560 
# 
# 
# High freq. dielectric constant tensor:
#      x y z
#    x 1.784610 0.033600 0.000510 
#    y 0.033600 1.778210 0.006150 
#    z 0.000510 0.006150 1.800200 
# 
# From -- ./inp_files/319417.got.cif
#   From: 2010.06.25/outbox.cif.g09.slc.cpg/sg2_160_cif.got.tgz:319417.got - 2010.06.27 13:26:56.
