data_PCOD8039097
_publ_section_title
;
Structure prediction by ZEFSAII (Michael W. Deem and Ramdas Pophale) SiO2 
 PCOD8039097
Probable space group: P -1
;
_chemical_formula_sum "Si O2"
_cell_formula_units_Z 14
_cell_length_a 9.101027
_cell_length_b 15.174553
_cell_length_c 8.877999
_cell_angle_alpha 140.378753
_cell_angle_beta 90.409065
_cell_angle_gamma 104.034301
_cell_volume 720.317544
_symmetry_space_group_name_H-M "P -1"
_symmetry_group_IT_number 2
_symmetry_cell_setting 'triclinic'
loop_
_space_group_symop_operation_xyz
x,y,z
-x,-y,-z
loop_
_atom_site_type_symbol
_atom_site_label
_atom_site_fract_x
_atom_site_fract_y
_atom_site_fract_z
Si Si1 0.235955 0.502903 0.661767
Si Si2 0.463486 0.499291 0.173103
Si Si3 0.157077 0.206864 0.782868
Si Si4 0.974737 0.986171 0.734292
Si Si5 0.977447 0.408536 0.033467
Si Si6 0.737982 0.372900 0.497577
Si Si7 0.934931 0.192032 0.251459
O O1 0.380561 0.471246 0.691021
O O2 0.298399 0.591779 0.625231
O O3 0.192410 0.611245 0.921244
O O4 0.089104 0.344691 0.425402
O O5 0.404081 0.631175 0.396002
O O6 0.500000 0.500000 0.000000
O O7 0.322855 0.340046 0.998827
O O8 0.167993 0.119553 0.515091
O O9 0.007658 0.256750 0.811855
O O10 0.118771 0.097078 0.780146
O O11 0.044112 0.885528 0.698350
O O12 0.906342 0.081228 0.964477
O O13 0.101024 0.495847 0.277078
O O14 0.000000 0.500000 0.000000
O O15 0.771588 0.220957 0.304388
#
# Coordination Sequence:
#
# PCOD8039097 Si02
#       7
#     2   2   2   2   2   2   2
#     4  11  20  34  59  85 111 137 175 234 281 318
#     4  11  22  36  57  82 110 139 175 231 284 324
#     4  10  20  36  54  81 109 142 181 214 270 318
#     4  10  20  33  57  78 109 145 180 220 247 327
#     4  10  18  32  56  83 109 137 179 229 268 312
#     4  10  20  34  54  82 111 138 179 231 274 316
#     4  10  19  35  57  83 104 139 184 217 269 315
#
# _framework density 19.435873000000001
#
# number of rings (size 3 to 8) (size 9 to 14) (size 15 to 20)
#    0.000    1.714    0.000    9.000    0.000    0.000 
#    0.000    0.000    0.000   29.143    0.000    0.000 
#    0.000    0.000    0.000    0.000    0.000    0.000 
#
# Total GULP energy -173528.654817 kJ/mol
# GULP energy per Si atom -12394.903916 kJ/mol
# Density = 1.939164 g / cm^3
# Si number density = 19.435873 Si / 1000 Ang^3
#
#
#
# Elastic Constant Matrix: (Units=GPa)
#
#
# Indices 1 2 3 4 5 6 
#
# 1 102.4638 18.4052 24.2823 -8.6524 -29.2072 -8.7424
# 2 18.4052 97.9087 19.4398 -21.4390 -22.1962 -13.3843
# 3 24.2823 19.4398 63.3524 -15.6001 -23.5751 -2.6326
# 4 -8.6524 -21.4390 -15.6001 36.6638 2.3288 -1.4732
# 5 -29.2072 -22.1962 -23.5751 2.3288 30.8643 -4.3211
# 6 -8.7424 -13.3843 -2.6326 -1.4732 -4.3211 23.0226
#
#
#
# Elastic Compliance Matrix: (Units=1/GPa)
#
#
# Indices 1 2 3 4 5 6 
#
# 1 0.016568 0.005105 0.003123 0.007330 0.023203 0.014440
# 2 0.005105 0.019555 0.005596 0.014228 0.024827 0.019517
# 3 0.003123 0.005596 0.027894 0.014590 0.029150 0.014034
# 4 0.007330 0.014228 0.014590 0.042586 0.027998 0.020703
# 5 0.023203 0.024827 0.029150 0.027998 0.098936 0.046938
# 6 0.014440 0.019517 0.014034 0.020703 0.046938 0.072005
#
#
# Mechanical properties :
#
#
# Convention : Reuss Voigt Hill
#
# Bulk Modulus (GPa) = 10.90944 43.10885 27.00914
# Shear Modulus (GPa) = 17.82855 31.54998 24.68927
#
# Velocity S-wave (km/s) = 3.03198 4.03337 3.56798
# Velocity P-wave (km/s) = 4.22877 6.62714 5.55884
#
# Compressibility (1/GPa) = 0.09166374
#
# Stress axis : x y z
#
# Youngs Moduli (GPa) = 60.35894 51.13893 35.85023
#
# Poissons Ratio (x) = -0.26105 -0.11196
# Poissons Ratio (y) = -0.30812 -0.20063
# Poissons Ratio (z) = -0.18849 -0.28619
#
# Static dielectric constant tensor:
#      x y z
#    x 3.996750 -0.128280 -0.476490 
#    y -0.128280 3.556400 -0.160380 
#    z -0.476490 -0.160380 3.984560 
# 
# 
# High freq. dielectric constant tensor:
#      x y z
#    x 1.737220 -0.018770 -0.023160 
#    y -0.018770 1.757470 -0.024340 
#    z -0.023160 -0.024340 1.764480 
# 
# From -- ./inp_files/153946.got.cif
#   From: 2010.06.25/outbox.cif.g09.slc.cpg/sg2_77_cif.got.tgz:153946.got - 2010.06.27 13:26:56.
