data_PCOD8039413
_publ_section_title
;
Structure prediction by ZEFSAII (Michael W. Deem and Ramdas Pophale) SiO2 
 PCOD8039413
Probable space group: P -1
;
_chemical_formula_sum "Si O2"
_cell_formula_units_Z 12
_cell_length_a 16.042621
_cell_length_b 20.820859
_cell_length_c 23.787855
_cell_angle_alpha 164.288840
_cell_angle_beta 161.259133
_cell_angle_gamma 27.694717
_cell_volume 659.277644
_symmetry_space_group_name_H-M "P -1"
_symmetry_group_IT_number 2
_symmetry_cell_setting 'triclinic'
loop_
_space_group_symop_operation_xyz
x,y,z
-x,-y,-z
loop_
_atom_site_type_symbol
_atom_site_label
_atom_site_fract_x
_atom_site_fract_y
_atom_site_fract_z
Si Si1 0.902951 0.019073 0.239190
Si Si2 0.452228 0.636176 0.686848
Si Si3 0.146214 0.685471 0.797972
Si Si4 0.203207 0.205358 0.234934
Si Si5 0.976853 0.250005 0.014648
Si Si6 0.396174 0.439004 0.945072
O O1 0.682919 0.161377 0.203518
O O2 0.753317 0.768343 0.967178
O O3 0.149591 0.183031 0.572358
O O4 0.027281 0.957480 0.208644
O O5 0.460726 0.436714 0.573362
O O6 0.252268 0.485692 0.382599
O O7 0.917853 0.702373 0.710107
O O8 0.000000 0.500000 0.500000
O O9 0.368747 0.581258 0.880900
O O10 0.293616 0.961374 0.099921
O O11 0.976762 0.139696 0.984869
O O12 0.709463 0.338378 0.910945
O O13 0.500000 0.500000 0.000000
#
# Coordination Sequence:
#
# PCOD8039413 Si02
#       6
#     2   2   2   2   2   2
#     4  10  18  33  60  83 115 142 182 236 278 314
#     4   8  18  34  55  89 110 141 187 230 271 334
#     4  11  23  39  56  78 116 154 180 228 283 330
#     4   9  21  36  56  85 107 145 195 219 271 344
#     4   9  19  33  60  85 108 144 185 231 274 325
#     4  11  22  37  53  86 114 141 194 232 269 330
#
# _framework density 18.201739
#
# number of rings (size 3 to 8) (size 9 to 14) (size 15 to 20)
#    1.000    1.333    1.667    0.500    4.667    3.333 
#    0.000    0.833    0.000    2.000    0.000    0.000 
#    0.000    0.000    0.000    0.000    0.000    0.000 
#
# Total GULP energy -148711.922023 kJ/mol
# GULP energy per Si atom -12392.660169 kJ/mol
# Density = 1.816031 g / cm^3
# Si number density = 18.201739 Si / 1000 Ang^3
#
#
#
# Elastic Constant Matrix: (Units=GPa)
#
#
# Indices 1 2 3 4 5 6 
#
# 1 89.8189 40.9017 31.7303 4.9259 -15.9786 3.1714
# 2 40.9017 102.4540 28.4750 -1.8631 -7.2054 13.2719
# 3 31.7303 28.4750 52.8804 -2.5279 0.7638 11.8953
# 4 4.9259 -1.8631 -2.5279 27.7242 4.4065 2.8721
# 5 -15.9786 -7.2054 0.7638 4.4065 34.6962 11.9323
# 6 3.1714 13.2719 11.8953 2.8721 11.9323 30.3118
#
#
#
# Elastic Compliance Matrix: (Units=1/GPa)
#
#
# Indices 1 2 3 4 5 6 
#
# 1 0.018014 -0.004336 -0.009080 -0.005690 0.007983 0.000974
# 2 -0.004336 0.013288 -0.003361 0.001506 0.002413 -0.005138
# 3 -0.009080 -0.003361 0.028224 0.005324 -0.003501 -0.007781
# 4 -0.005690 0.001506 0.005324 0.039006 -0.006207 -0.003406
# 5 0.007983 0.002413 -0.003501 -0.006207 0.039139 -0.015336
# 6 0.000974 -0.005138 -0.007781 -0.003406 -0.015336 0.044551
#
#
# Mechanical properties :
#
#
# Convention : Reuss Voigt Hill
#
# Bulk Modulus (GPa) = 38.50332 49.70750 44.10541
# Shear Modulus (GPa) = 22.27826 28.14954 25.21390
#
# Velocity S-wave (km/s) = 3.50231 3.93686 3.72593
# Velocity P-wave (km/s) = 6.12817 6.93063 6.54172
#
# Compressibility (1/GPa) = 0.02597179
#
# Stress axis : x y z
#
# Youngs Moduli (GPa) = 55.51358 75.25520 35.43051
#
# Poissons Ratio (x) = 0.32629 0.32173
# Poissons Ratio (y) = 0.24070 0.11907
# Poissons Ratio (z) = 0.50409 0.25292
#
# Static dielectric constant tensor:
#      x y z
#    x 3.236870 0.007030 0.074380 
#    y 0.007030 3.326750 0.239680 
#    z 0.074380 0.239680 3.328200 
# 
# 
# High freq. dielectric constant tensor:
#      x y z
#    x 1.699510 -0.006770 0.000250 
#    y -0.006770 1.690250 0.026380 
#    z 0.000250 0.026380 1.697370 
# 
# From -- ./inp_files/103910.got.cif
#   From: 2010.06.25/outbox.cif.g09.slc.cpg/sg2_52_cif.got.tgz:103910.got - 2010.06.27 13:26:56.
