data_PCOD8039232
_publ_section_title
;
Structure prediction by ZEFSAII (Michael W. Deem and Ramdas Pophale) SiO2 
 PCOD8039232
Probable space group: P -1
;
_chemical_formula_sum "Si O2"
_cell_formula_units_Z 16
_cell_length_a 12.116613
_cell_length_b 4.982758
_cell_length_c 16.706076
_cell_angle_alpha 120.316996
_cell_angle_beta 55.815444
_cell_angle_gamma 99.960094
_cell_volume 711.556887
_symmetry_space_group_name_H-M "P -1"
_symmetry_group_IT_number 2
_symmetry_cell_setting 'triclinic'
loop_
_space_group_symop_operation_xyz
x,y,z
-x,-y,-z
loop_
_atom_site_type_symbol
_atom_site_label
_atom_site_fract_x
_atom_site_fract_y
_atom_site_fract_z
Si Si1 0.551820 0.259698 0.372608
Si Si2 0.831969 0.381938 0.310714
Si Si3 0.602528 0.838821 0.999246
Si Si4 0.872133 0.130318 0.709797
Si Si5 0.591240 0.260433 0.815672
Si Si6 0.428976 0.651050 0.339247
Si Si7 0.121172 0.163722 0.171197
Si Si8 0.160960 0.906408 0.566195
O O1 0.500000 0.500000 0.500000
O O2 0.711973 0.244726 0.293595
O O3 0.477341 0.355409 0.332810
O O4 0.519160 0.921922 0.361604
O O5 0.817890 0.753786 0.356791
O O6 0.975690 0.198872 0.190689
O O7 0.822358 0.333680 0.402768
O O8 0.536505 0.894497 0.123473
O O9 0.627205 0.474562 0.907410
O O10 0.749776 0.952720 0.956674
O O11 0.500000 0.000000 0.000000
O O12 0.734725 0.019053 0.712269
O O13 0.868999 0.495580 0.742489
O O14 0.011760 0.928135 0.589363
O O15 0.875813 0.091638 0.798586
O O16 0.551534 0.445312 0.776792
O O17 0.271708 0.782958 0.436341
#
# Coordination Sequence:
#
# PCOD8039232 Si02
#       8
#     2   2   2   2   2   2   2   2
#     4  12  22  38  58  80 113 156 191 228 274 324
#     4  10  19  34  56  79 110 144 193 224 268 326
#     4  10  19  38  63  79 112 147 186 229 286 336
#     4   9  18  32  52  79 115 144 180 214 274 335
#     4  10  23  36  55  88 114 147 185 233 278 334
#     4  12  24  35  57  86 117 148 190 231 274 325
#     4   9  18  32  56  84 102 141 189 227 267 334
#     4  10  18  33  53  81 112 151 180 221 267 332
#
# _framework density 22.485901999999999
#
# number of rings (size 3 to 8) (size 9 to 14) (size 15 to 20)
#    0.000    1.750    3.750    1.125    1.750    0.500 
#    0.000    0.000    0.000    9.000    0.000    0.000 
#    0.000    0.000    0.000    0.000    0.000    0.000 
#
# Total GULP energy -198273.008343 kJ/mol
# GULP energy per Si atom -12392.063021 kJ/mol
# Density = 2.243472 g / cm^3
# Si number density = 22.485902 Si / 1000 Ang^3
#
#
#
# Elastic Constant Matrix: (Units=GPa)
#
#
# Indices 1 2 3 4 5 6 
#
# 1 110.8645 -4.0824 61.6044 -15.9352 -44.6528 -10.3818
# 2 -4.0824 61.9621 8.0897 -14.4419 -6.8525 -8.9743
# 3 61.6044 8.0897 81.0457 -30.2920 -28.3716 -1.1289
# 4 -15.9352 -14.4419 -30.2920 27.8103 5.9623 -0.9027
# 5 -44.6528 -6.8525 -28.3716 5.9623 46.8491 -7.2287
# 6 -10.3818 -8.9743 -1.1289 -0.9027 -7.2287 33.4180
#
#
#
# Elastic Compliance Matrix: (Units=1/GPa)
#
#
# Indices 1 2 3 4 5 6 
#
# 1 0.026249 0.008022 -0.012983 0.001158 0.020391 0.014313
# 2 0.008022 0.023439 0.002422 0.017179 0.012202 0.011972
# 3 -0.012983 0.002422 0.035678 0.031484 0.005560 -0.000125
# 4 0.001158 0.017179 0.031484 0.077069 0.014615 0.011280
# 5 0.020391 0.012202 0.005560 0.014615 0.047221 0.020408
# 6 0.014313 0.011972 -0.000125 0.011280 0.020408 0.042301
#
#
# Mechanical properties :
#
#
# Convention : Reuss Voigt Hill
#
# Bulk Modulus (GPa) = 12.45517 42.78842 27.62179
# Shear Modulus (GPa) = 17.61831 34.16618 25.89224
#
# Velocity S-wave (km/s) = 2.80219 3.90224 3.39704
# Velocity P-wave (km/s) = 4.00260 6.27484 5.26281
#
# Compressibility (1/GPa) = 0.08028794
#
# Stress axis : x y z
#
# Youngs Moduli (GPa) = 38.09658 42.66448 28.02868
#
# Poissons Ratio (x) = -0.34227 0.36389
# Poissons Ratio (y) = -0.30563 -0.06787
# Poissons Ratio (z) = 0.49460 -0.10332
#
# Static dielectric constant tensor:
#      x y z
#    x 4.331860 0.007310 -0.812240 
#    y 0.007310 4.106370 -0.163560 
#    z -0.812240 -0.163560 4.228500 
# 
# 
# High freq. dielectric constant tensor:
#      x y z
#    x 1.875620 -0.010360 -0.053240 
#    y -0.010360 1.895560 -0.025080 
#    z -0.053240 -0.025080 1.853020 
# 
# From -- ./inp_files/76125.got.cif
#   From: 2010.06.25/outbox.cif.g09.slc.cpg/sg2_39_cif.got.tgz:76125.got - 2010.06.27 13:26:56.
