data_PCOD8039292
_publ_section_title
;
Structure prediction by ZEFSAII (Michael W. Deem and Ramdas Pophale) SiO2 
 PCOD8039292
Probable space group: P -1
;
_chemical_formula_sum "Si O2"
_cell_formula_units_Z 16
_cell_length_a 9.015752
_cell_length_b 27.201414
_cell_length_c 9.097286
_cell_angle_alpha 152.222261
_cell_angle_beta 116.025940
_cell_angle_gamma 73.113999
_cell_volume 908.513561
_symmetry_space_group_name_H-M "P -1"
_symmetry_group_IT_number 2
_symmetry_cell_setting 'triclinic'
loop_
_space_group_symop_operation_xyz
x,y,z
-x,-y,-z
loop_
_atom_site_type_symbol
_atom_site_label
_atom_site_fract_x
_atom_site_fract_y
_atom_site_fract_z
Si Si1 0.683742 0.297041 0.369388
Si Si2 0.244432 0.717885 0.325394
Si Si3 0.499422 0.190170 0.735342
Si Si4 0.676420 0.080495 0.312208
Si Si5 0.299978 0.486548 0.206768
Si Si6 0.144961 0.069218 0.144916
Si Si7 0.020563 0.276242 0.554166
Si Si8 0.384761 0.597843 0.827810
O O1 0.630281 0.282192 0.479227
O O2 0.720028 0.424354 0.684859
O O3 0.861969 0.259677 0.327522
O O4 0.537046 0.224582 0.012303
O O5 0.293327 0.835219 0.585007
O O6 0.049697 0.696847 0.244025
O O7 0.262178 0.624591 0.971811
O O8 0.656992 0.139478 0.614663
O O9 0.313951 0.110102 0.427220
O O10 0.498264 0.294264 0.909296
O O11 0.500000 0.000000 0.000000
O O12 0.819414 0.010513 0.181427
O O13 0.268797 0.527821 0.466377
O O14 0.490179 0.470134 0.229024
O O15 0.165818 0.375217 0.821210
O O16 0.089257 0.167970 0.303606
O O17 0.000000 0.000000 0.000000
#
# Coordination Sequence:
#
# PCOD8039292 Si02
#       8
#     2   2   2   2   2   2   2   2
#     4   9  20  35  54  76 111 140 165 210 268 315
#     4   9  19  34  51  79 111 131 172 216 263 307
#     4   9  18  35  57  76 103 138 176 210 256 315
#     4   9  18  33  56  78  96 139 178 214 253 307
#     4  10  18  33  56  77 105 141 177 206 258 306
#     4  11  18  33  56  80 100 132 178 224 255 297
#     4  10  20  33  53  78 109 136 171 214 261 306
#     4   9  18  32  55  81 101 137 181 213 241 317
#
# _framework density 17.611184000000002
#
# number of rings (size 3 to 8) (size 9 to 14) (size 15 to 20)
#    0.750    1.750    2.500    0.375    0.000    1.000 
#    0.000    6.250    2.750    0.000    0.000    0.000 
#    0.000    0.000    0.000    0.000    0.000    0.000 
#
# Total GULP energy -198232.723122 kJ/mol
# GULP energy per Si atom -12389.545195 kJ/mol
# Density = 1.757110 g / cm^3
# Si number density = 17.611184 Si / 1000 Ang^3
#
#
#
# Elastic Constant Matrix: (Units=GPa)
#
#
# Indices 1 2 3 4 5 6 
#
# 1 69.5049 25.8329 22.9963 13.0082 -15.8201 -9.8675
# 2 25.8329 68.7654 34.2748 9.5566 -10.9578 -12.2143
# 3 22.9963 34.2748 68.9402 13.9679 -6.9050 -7.3254
# 4 13.0082 9.5566 13.9679 25.2700 -1.5266 -2.6935
# 5 -15.8201 -10.9578 -6.9050 -1.5266 37.1007 5.1513
# 6 -9.8675 -12.2143 -7.3254 -2.6935 5.1513 24.6706
#
#
#
# Elastic Compliance Matrix: (Units=1/GPa)
#
#
# Indices 1 2 3 4 5 6 
#
# 1 0.019669 -0.003700 -0.002405 -0.006674 0.006112 0.003316
# 2 -0.003700 0.021774 -0.008532 -0.000811 0.002374 0.006183
# 3 -0.002405 -0.008532 0.021026 -0.007126 0.000037 0.000271
# 4 -0.006674 -0.000811 -0.007126 0.047153 -0.002540 0.000491
# 5 0.006112 0.002374 0.000037 -0.002540 0.030584 -0.003033
# 6 0.003316 0.006183 0.000271 0.000491 -0.003033 0.045689
#
#
# Mechanical properties :
#
#
# Convention : Reuss Voigt Hill
#
# Bulk Modulus (GPa) = 30.12479 41.49096 35.80788
# Shear Modulus (GPa) = 22.10102 25.68202 23.89152
#
# Velocity S-wave (km/s) = 3.54636 3.82288 3.68722
# Velocity P-wave (km/s) = 5.82336 6.56479 6.20516
#
# Compressibility (1/GPa) = 0.03319525
#
# Stress axis : x y z
#
# Youngs Moduli (GPa) = 50.84073 45.92637 47.56092
#
# Poissons Ratio (x) = 0.16993 0.11437
# Poissons Ratio (y) = 0.18811 0.40579
# Poissons Ratio (z) = 0.12226 0.39184
#
# Static dielectric constant tensor:
#      x y z
#    x 3.468270 -0.074560 -0.406260 
#    y -0.074560 3.110250 0.172650 
#    z -0.406260 0.172650 3.404650 
# 
# 
# High freq. dielectric constant tensor:
#      x y z
#    x 1.673000 -0.005710 -0.011500 
#    y -0.005710 1.665910 0.022120 
#    z -0.011500 0.022120 1.677190 
# 
# From -- ./inp_files/212179.got.cif
#   From: 2010.06.25/outbox.cif.g09.slc.cpg/sg2_107_cif.got.tgz:212179.got - 2010.06.27 13:26:56.
