data_PCOD8039289
_publ_section_title
;
Structure prediction by ZEFSAII (Michael W. Deem and Ramdas Pophale) SiO2 
 PCOD8039289
Probable space group: P -1
;
_chemical_formula_sum "Si O2"
_cell_formula_units_Z 14
_cell_length_a 9.863046
_cell_length_b 16.481446
_cell_length_c 25.178195
_cell_angle_alpha 24.771785
_cell_angle_beta 153.887382
_cell_angle_gamma 151.195776
_cell_volume 712.374851
_symmetry_space_group_name_H-M "P -1"
_symmetry_group_IT_number 2
_symmetry_cell_setting 'triclinic'
loop_
_space_group_symop_operation_xyz
x,y,z
-x,-y,-z
loop_
_atom_site_type_symbol
_atom_site_label
_atom_site_fract_x
_atom_site_fract_y
_atom_site_fract_z
Si Si1 0.648319 0.111814 0.160751
Si Si2 0.829204 0.279021 0.828759
Si Si3 0.225077 0.021612 0.164637
Si Si4 0.225513 0.815393 0.388244
Si Si5 0.449572 0.455966 0.666755
Si Si6 0.387119 0.294917 0.326043
Si Si7 0.746705 0.628048 0.176339
O O1 0.541772 0.078722 0.204593
O O2 0.032739 0.158884 0.262476
O O3 0.475691 0.906489 0.189415
O O4 0.550443 0.299397 0.991149
O O5 0.705002 0.436868 0.724269
O O6 0.042732 0.401733 0.781980
O O7 0.050903 0.192368 0.996393
O O8 0.331828 0.011764 0.269526
O O9 0.973235 0.799421 0.193192
O O10 0.284197 0.624768 0.489898
O O11 0.439657 0.853602 0.495302
O O12 0.842081 0.760143 0.299922
O O13 0.638069 0.530682 0.744623
O O14 0.604601 0.408620 0.285253
#
# Coordination Sequence:
#
# PCOD8039289 Si02
#       7
#     2   2   2   2   2   2   2
#     4   9  19  31  53  80 106 133 166 215 262 299
#     4   9  19  33  57  80  99 127 181 218 247 288
#     4   9  16  34  52  78 102 139 165 210 253 313
#     4   9  18  33  55  71 106 139 173 196 261 312
#     4   9  18  34  54  80  95 139 180 205 243 311
#     4  10  18  33  56  74 103 142 171 199 260 314
#     4   9  16  33  53  74 105 139 168 204 257 313
#
# _framework density 19.652573
#
# number of rings (size 3 to 8) (size 9 to 14) (size 15 to 20)
#    0.857    2.000    1.429    2.143    0.000    1.143 
#    0.000   10.000    3.143    0.000    3.714    0.000 
#    0.000    0.000    0.000    0.000    0.000    0.000 
#
# Total GULP energy -173512.262417 kJ/mol
# GULP energy per Si atom -12393.733030 kJ/mol
# Density = 1.960784 g / cm^3
# Si number density = 19.652573 Si / 1000 Ang^3
#
#
#
# Elastic Constant Matrix: (Units=GPa)
#
#
# Indices 1 2 3 4 5 6 
#
# 1 113.3873 27.7124 54.1222 -0.5092 -11.3919 15.9653
# 2 27.7124 51.4396 23.4112 11.6973 -6.4563 19.0464
# 3 54.1222 23.4112 73.2262 7.9226 -22.0886 11.4739
# 4 -0.5092 11.6973 7.9226 11.9944 -1.0488 1.4913
# 5 -11.3919 -6.4563 -22.0886 -1.0488 42.2160 -5.6682
# 6 15.9653 19.0464 11.4739 1.4913 -5.6682 23.5498
#
#
#
# Elastic Compliance Matrix: (Units=1/GPa)
#
#
# Indices 1 2 3 4 5 6 
#
# 1 0.016155 -0.006343 -0.012118 0.014822 -0.002788 -0.001528
# 2 -0.006343 0.041257 -0.000363 -0.036968 -0.000077 -0.026568
# 3 -0.012118 -0.000363 0.028107 -0.017602 0.010744 -0.001485
# 4 0.014822 -0.036968 -0.017602 0.128867 -0.005106 0.019037
# 5 -0.002788 -0.000077 0.010744 -0.005106 0.028957 0.004011
# 6 -0.001528 -0.026568 -0.001485 0.019037 0.004011 0.065470
#
#
# Mechanical properties :
#
#
# Convention : Reuss Voigt Hill
#
# Bulk Modulus (GPa) = 20.88928 49.83832 35.36380
# Shear Modulus (GPa) = 13.79629 24.40584 19.10106
#
# Velocity S-wave (km/s) = 2.65242 3.52783 3.12097
# Velocity P-wave (km/s) = 4.47580 6.48143 5.56964
#
# Compressibility (1/GPa) = 0.04787144
#
# Stress axis : x y z
#
# Youngs Moduli (GPa) = 61.89924 24.23857 35.57876
#
# Poissons Ratio (x) = 0.15375 0.43114
# Poissons Ratio (y) = 0.39264 0.01290
# Poissons Ratio (z) = 0.75008 0.00879
#
# Static dielectric constant tensor:
#      x y z
#    x 3.448940 0.143450 -0.190160 
#    y 0.143450 3.127020 0.138690 
#    z -0.190160 0.138690 3.375510 
# 
# 
# High freq. dielectric constant tensor:
#      x y z
#    x 1.761670 0.017220 -0.014270 
#    y 0.017220 1.730760 0.016420 
#    z -0.014270 0.016420 1.751470 
# 
# From -- ./inp_files/212847.got.cif
#   From: 2010.06.25/outbox.cif.g09.slc.cpg/sg2_107_cif.got.tgz:212847.got - 2010.06.27 13:26:56.
