data_PCOD8039726
_publ_section_title
;
Structure prediction by ZEFSAII (Michael W. Deem and Ramdas Pophale) SiO2 
 PCOD8039726
Probable space group: P -1
;
_chemical_formula_sum "Si O2"
_cell_formula_units_Z 16
_cell_length_a 12.895922
_cell_length_b 7.578080
_cell_length_c 14.769786
_cell_angle_alpha 46.398083
_cell_angle_beta 55.181624
_cell_angle_gamma 45.997879
_cell_volume 740.059821
_symmetry_space_group_name_H-M "P -1"
_symmetry_group_IT_number 2
_symmetry_cell_setting 'triclinic'
loop_
_space_group_symop_operation_xyz
x,y,z
-x,-y,-z
loop_
_atom_site_type_symbol
_atom_site_label
_atom_site_fract_x
_atom_site_fract_y
_atom_site_fract_z
Si Si1 0.651348 0.341364 0.241888
Si Si2 0.174120 0.315788 0.648756
Si Si3 0.413257 0.935400 0.362529
Si Si4 0.848181 0.500260 0.747608
Si Si5 0.817718 0.376337 0.997826
Si Si6 0.296101 0.283836 0.791673
Si Si7 0.880564 0.949362 0.974280
Si Si8 0.602059 0.535490 0.565350
O O1 0.703284 0.440782 0.269318
O O2 0.480612 0.432848 0.308569
O O3 0.756918 0.010602 0.293939
O O4 0.669232 0.497984 0.088552
O O5 0.193152 0.376512 0.722117
O O6 0.252194 0.444849 0.501048
O O7 0.001931 0.476884 0.655535
O O8 0.537696 0.950301 0.235441
O O9 0.482515 0.800974 0.471942
O O10 0.352993 0.756414 0.404128
O O11 0.278224 0.249667 0.336339
O O12 0.805774 0.577527 0.848886
O O13 0.854553 0.201439 0.828835
O O14 0.853646 0.070935 0.048077
O O15 0.952581 0.314053 0.020235
O O16 0.235071 0.157795 0.943988
#
# Coordination Sequence:
#
# PCOD8039726 Si02
#       8
#     2   2   2   2   2   2   2   2
#     4  11  19  34  59  87 110 146 187 230 267 338
#     4  11  18  38  59  80 111 146 195 226 270 331
#     4   9  20  37  54  86 111 142 197 230 266 334
#     4  10  18  34  61  83 113 147 178 237 281 316
#     4   9  16  32  55  85 112 138 179 225 275 334
#     4  10  19  33  58  82 113 151 182 219 276 337
#     4   9  15  33  53  83 111 144 177 214 283 328
#     4   9  21  36  56  79 110 152 189 227 274 325
#
# _framework density 21.619872000000001
#
# number of rings (size 3 to 8) (size 9 to 14) (size 15 to 20)
#    0.750    1.500    3.750    1.125    0.000    1.500 
#    0.000    3.125    0.000    7.500    0.000    0.000 
#    0.000    0.000    0.000    0.000    0.000    0.000 
#
# Total GULP energy -198243.902507 kJ/mol
# GULP energy per Si atom -12390.243907 kJ/mol
# Density = 2.157066 g / cm^3
# Si number density = 21.619872 Si / 1000 Ang^3
#
#
#
# Elastic Constant Matrix: (Units=GPa)
#
#
# Indices 1 2 3 4 5 6 
#
# 1 44.4145 14.9089 30.2464 3.5789 -29.3660 -12.2342
# 2 14.9089 47.2216 32.9997 17.9008 -8.4110 -12.4365
# 3 30.2464 32.9997 94.7611 21.2261 -36.3479 -21.5132
# 4 3.5789 17.9008 21.2261 39.9819 -10.9611 -2.7090
# 5 -29.3660 -8.4110 -36.3479 -10.9611 34.8262 8.6666
# 6 -12.2342 -12.4365 -21.5132 -2.7090 8.6666 27.5349
#
#
#
# Elastic Compliance Matrix: (Units=1/GPa)
#
#
# Indices 1 2 3 4 5 6 
#
# 1 0.065274 -0.018741 0.007639 0.015894 0.061305 0.008774
# 2 -0.018741 0.038838 -0.012666 -0.015732 -0.026082 0.005980
# 3 0.007639 -0.012666 0.024974 -0.000222 0.027239 0.008590
# 4 0.015894 -0.015732 -0.000222 0.036467 0.021711 -0.003462
# 5 0.061305 -0.026082 0.027239 0.021711 0.108169 0.004831
# 6 0.008774 0.005980 0.008590 -0.003462 0.004831 0.047767
#
#
# Mechanical properties :
#
#
# Convention : Reuss Voigt Hill
#
# Bulk Modulus (GPa) = 12.26265 38.07860 25.17062
# Shear Modulus (GPa) = 12.61963 27.68475 20.15219
#
# Velocity S-wave (km/s) = 2.41862 3.58232 3.05637
# Velocity P-wave (km/s) = 3.67204 5.89591 4.91150
#
# Compressibility (1/GPa) = 0.08154846
#
# Stress axis : x y z
#
# Youngs Moduli (GPa) = 15.32005 25.74799 40.04242
#
# Poissons Ratio (x) = 0.48255 -0.30587
# Poissons Ratio (y) = 0.28712 0.50717
# Poissons Ratio (z) = -0.11702 0.32612
#
# Static dielectric constant tensor:
#      x y z
#    x 3.580880 0.015870 -0.500540 
#    y 0.015870 3.632180 0.359250 
#    z -0.500540 0.359250 4.022430 
# 
# 
# High freq. dielectric constant tensor:
#      x y z
#    x 1.815720 0.004030 -0.042140 
#    y 0.004030 1.826470 0.025220 
#    z -0.042140 0.025220 1.842640 
# 
# From -- ./inp_files/572192.got.cif
#   From: 2010.06.25/outbox.cif.g09.slc.cpg/sg2_287_cif.got.tgz:572192.got - 2010.06.27 13:26:56.
