data_PCOD8039765
_publ_section_title
;
Structure prediction by ZEFSAII (Michael W. Deem and Ramdas Pophale) SiO2 
 PCOD8039765
Probable space group: P -1
;
_chemical_formula_sum "Si O2"
_cell_formula_units_Z 16
_cell_length_a 12.105445
_cell_length_b 10.250098
_cell_length_c 18.691617
_cell_angle_alpha 45.737536
_cell_angle_beta 27.563005
_cell_angle_gamma 49.357104
_cell_volume 764.835864
_symmetry_space_group_name_H-M "P -1"
_symmetry_group_IT_number 2
_symmetry_cell_setting 'triclinic'
loop_
_space_group_symop_operation_xyz
x,y,z
-x,-y,-z
loop_
_atom_site_type_symbol
_atom_site_label
_atom_site_fract_x
_atom_site_fract_y
_atom_site_fract_z
Si Si1 0.518953 0.072753 0.293643
Si Si2 0.394699 0.549071 0.866038
Si Si3 0.869279 0.852139 0.282689
Si Si4 0.890585 0.620679 0.083279
Si Si5 0.322246 0.982918 0.930930
Si Si6 0.481748 0.617276 0.628268
Si Si7 0.131116 0.940593 0.656484
Si Si8 0.371410 0.146367 0.070717
O O1 0.490551 0.293313 0.215359
O O2 0.606722 0.976108 0.206473
O O3 0.703049 0.010814 0.275649
O O4 0.259382 0.013653 0.485069
O O5 0.501385 0.553041 0.723359
O O6 0.466039 0.345667 0.931672
O O7 0.107563 0.602380 0.021693
O O8 0.739191 0.662071 0.430683
O O9 0.928589 0.897433 0.314069
O O10 0.129402 0.830286 0.102970
O O11 0.646543 0.537803 0.283019
O O12 0.814613 0.832387 0.025759
O O13 0.000000 0.500000 0.000000
O O14 0.562375 0.918643 0.861807
O O15 0.304835 0.800761 0.656230
O O16 0.909460 0.844577 0.788453
O O17 0.500000 0.000000 0.000000
#
# Coordination Sequence:
#
# PCOD8039765 Si02
#       8
#     2   2   2   2   2   2   2   2
#     4  11  23  40  66  93 128 164 208 257 318 373
#     4  11  20  37  64  92 122 166 205 253 314 372
#     4  11  19  38  64  96 122 156 211 263 305 358
#     4  10  19  36  62  91 121 160 211 252 305 365
#     4  12  25  41  62  96 129 166 205 262 313 369
#     4  10  18  34  63  94 116 154 213 257 298 361
#     4  11  20  40  65  95 123 166 207 258 313 369
#     4  12  25  40  63  93 129 165 213 256 306 376
#
# _framework density 20.919521
#
# number of rings (size 3 to 8) (size 9 to 14) (size 15 to 20)
#    0.000    1.000    6.250    3.375    0.000    1.000 
#    0.000    7.500    0.000    0.000    0.000    0.000 
#    0.000    0.000    0.000    0.000    0.000    0.000 
#
# Total GULP energy -198273.721690 kJ/mol
# GULP energy per Si atom -12392.107606 kJ/mol
# Density = 2.087191 g / cm^3
# Si number density = 20.919521 Si / 1000 Ang^3
#
#
#
# Elastic Constant Matrix: (Units=GPa)
#
#
# Indices 1 2 3 4 5 6 
#
# 1 74.6832 24.9595 35.7286 -2.1280 8.9194 -4.0252
# 2 24.9595 75.2676 19.4639 -17.3417 10.7380 -5.6959
# 3 35.7286 19.4639 118.5310 -15.6976 8.7086 11.1471
# 4 -2.1280 -17.3417 -15.6976 27.1709 7.2143 -0.0585
# 5 8.9194 10.7380 8.7086 7.2143 22.0554 -2.2390
# 6 -4.0252 -5.6959 11.1471 -0.0585 -2.2390 19.9665
#
#
#
# Elastic Compliance Matrix: (Units=1/GPa)
#
#
# Indices 1 2 3 4 5 6 
#
# 1 0.018067 -0.005266 -0.005752 -0.005195 -0.000233 0.005310
# 2 -0.005266 0.020903 0.001219 0.017335 -0.013924 0.002710
# 3 -0.005752 0.001219 0.012564 0.009480 -0.007203 -0.008606
# 4 -0.005195 0.017335 0.009480 0.061031 -0.030516 -0.004638
# 5 -0.000233 -0.013924 -0.007203 -0.030516 0.065780 0.007289
# 6 0.005310 0.002710 -0.008606 -0.004638 0.007289 0.057536
#
#
# Mechanical properties :
#
#
# Convention : Reuss Voigt Hill
#
# Bulk Modulus (GPa) = 31.31180 47.64288 39.47734
# Shear Modulus (GPa) = 18.78822 26.39387 22.59105
#
# Velocity S-wave (km/s) = 3.00011 3.55588 3.28975
# Velocity P-wave (km/s) = 5.19626 6.29943 5.77425
#
# Compressibility (1/GPa) = 0.03193684
#
# Stress axis : x y z
#
# Youngs Moduli (GPa) = 55.34847 47.84101 79.59078
#
# Poissons Ratio (x) = 0.25193 0.45777
# Poissons Ratio (y) = 0.29146 -0.09701
# Poissons Ratio (z) = 0.31834 -0.05831
#
# Static dielectric constant tensor:
#      x y z
#    x 3.685850 0.063490 -0.369620 
#    y 0.063490 3.565760 -0.415830 
#    z -0.369620 -0.415830 4.221290 
# 
# 
# High freq. dielectric constant tensor:
#      x y z
#    x 1.796180 0.002310 -0.013560 
#    y 0.002310 1.788770 -0.028890 
#    z -0.013560 -0.028890 1.825400 
# 
# From -- ./inp_files/566484.got.cif
#   From: 2010.06.25/outbox.cif.g09.slc.cpg/sg2_284_cif.got.tgz:566484.got - 2010.06.27 13:26:56.
