data_PCOD8039075
_publ_section_title
;
Structure prediction by ZEFSAII (Michael W. Deem and Ramdas Pophale) SiO2 
 PCOD8039075
Probable space group: P -1
;
_chemical_formula_sum "Si O2"
_cell_formula_units_Z 16
_cell_length_a 16.599774
_cell_length_b 11.993937
_cell_length_c 11.469063
_cell_angle_alpha 52.402345
_cell_angle_beta 151.074892
_cell_angle_gamma 132.684082
_cell_volume 810.968990
_symmetry_space_group_name_H-M "P -1"
_symmetry_group_IT_number 2
_symmetry_cell_setting 'triclinic'
loop_
_space_group_symop_operation_xyz
x,y,z
-x,-y,-z
loop_
_atom_site_type_symbol
_atom_site_label
_atom_site_fract_x
_atom_site_fract_y
_atom_site_fract_z
Si Si1 0.220162 0.910200 0.369307
Si Si2 0.026371 0.669292 0.450457
Si Si3 0.565780 0.623681 0.105251
Si Si4 0.023860 0.210523 0.465513
Si Si5 0.327932 0.350887 0.097840
Si Si6 0.934060 0.083097 0.194855
Si Si7 0.864118 0.825136 0.827305
Si Si8 0.435330 0.132805 0.218297
O O1 0.183521 0.771911 0.500428
O O2 0.240447 0.059597 0.373158
O O3 0.400768 0.925017 0.518226
O O4 0.060832 0.889366 0.091815
O O5 0.073144 0.710812 0.619385
O O6 0.000000 0.500000 0.500000
O O7 0.843187 0.696347 0.175020
O O8 0.772599 0.673142 0.370463
O O9 0.448665 0.531468 0.126572
O O10 0.500000 0.500000 0.000000
O O11 0.530016 0.770496 0.921003
O O12 0.923205 0.180541 0.232377
O O13 0.007844 0.053097 0.604244
O O14 0.263288 0.324450 0.168040
O O15 0.423803 0.236201 0.248713
O O16 0.093048 0.195334 0.240633
O O17 0.744859 0.016608 0.929957
#
# Coordination Sequence:
#
# PCOD8039075 Si02
#       8
#     2   2   2   2   2   2   2   2
#     4  10  20  31  54  84 110 136 182 228 274 309
#     4  11  19  32  55  86 108 136 179 231 276 309
#     4   9  16  31  54  81 106 130 181 225 262 310
#     4  10  19  34  58  80 105 148 179 219 274 321
#     4  10  19  33  53  82 112 137 181 227 270 311
#     4  10  19  36  56  75 113 146 183 212 267 336
#     4  10  20  35  51  79 114 142 176 223 270 329
#     4  10  18  32  55  85 106 140 180 229 268 313
#
# _framework density 19.729482999999998
#
# number of rings (size 3 to 8) (size 9 to 14) (size 15 to 20)
#    0.000    2.000    5.000    2.250    1.750    2.000 
#    0.000    1.250    2.750    3.000    0.000    0.000 
#    0.000    0.000    0.000    0.000    0.000    0.000 
#
# Total GULP energy -198253.124883 kJ/mol
# GULP energy per Si atom -12390.820305 kJ/mol
# Density = 1.968458 g / cm^3
# Si number density = 19.729483 Si / 1000 Ang^3
#
#
#
# Elastic Constant Matrix: (Units=GPa)
#
#
# Indices 1 2 3 4 5 6 
#
# 1 144.1609 45.8769 29.5881 -4.0658 -6.7249 10.7120
# 2 45.8769 64.4221 7.2118 -0.7312 -10.2614 9.9970
# 3 29.5881 7.2118 41.5802 -5.5357 12.9082 0.2791
# 4 -4.0658 -0.7312 -5.5357 18.9130 -2.8830 4.8395
# 5 -6.7249 -10.2614 12.9082 -2.8830 29.2617 -2.8613
# 6 10.7120 9.9970 0.2791 4.8395 -2.8613 39.6065
#
#
#
# Elastic Compliance Matrix: (Units=1/GPa)
#
#
# Indices 1 2 3 4 5 6 
#
# 1 0.010675 -0.005983 -0.007596 0.000691 0.003662 -0.001143
# 2 -0.005983 0.021522 -0.001341 0.001034 0.006527 -0.003459
# 3 -0.007596 -0.001341 0.035919 0.006136 -0.017443 0.000130
# 4 0.000691 0.001034 0.006136 0.057136 0.002732 -0.007275
# 5 0.003662 0.006527 -0.017443 0.002732 0.045310 0.000424
# 6 -0.001143 -0.003459 0.000130 -0.007275 0.000424 0.027349
#
#
# Mechanical properties :
#
#
# Convention : Reuss Voigt Hill
#
# Bulk Modulus (GPa) = 26.12584 46.16854 36.14719
# Shear Modulus (GPa) = 20.78925 28.72202 24.75564
#
# Velocity S-wave (km/s) = 3.24962 3.81962 3.54609
# Velocity P-wave (km/s) = 5.22980 6.55014 5.92685
#
# Compressibility (1/GPa) = 0.03827629
#
# Stress axis : x y z
#
# Youngs Moduli (GPa) = 93.67709 46.46488 27.84069
#
# Poissons Ratio (x) = 0.27800 0.21147
# Poissons Ratio (y) = 0.56048 0.03733
# Poissons Ratio (z) = 0.71154 0.06230
#
# Static dielectric constant tensor:
#      x y z
#    x 4.011760 0.458420 -0.018570 
#    y 0.458420 3.704890 -0.066130 
#    z -0.018570 -0.066130 3.317810 
# 
# 
# High freq. dielectric constant tensor:
#      x y z
#    x 1.778810 0.029890 0.003310 
#    y 0.029890 1.745630 -0.014470 
#    z 0.003310 -0.014470 1.731840 
# 
# From -- ./inp_files/464406.got.cif
#   From: 2010.06.25/outbox.cif.g09.slc.cpg/sg2_233_cif.got.tgz:464406.got - 2010.06.27 13:26:56.
