data_PCOD8039493
_publ_section_title
;
Structure prediction by ZEFSAII (Michael W. Deem and Ramdas Pophale) SiO2 
 PCOD8039493
Probable space group: P -1
;
_chemical_formula_sum "Si O2"
_cell_formula_units_Z 16
_cell_length_a 12.946772
_cell_length_b 14.178403
_cell_length_c 16.011524
_cell_angle_alpha 129.360715
_cell_angle_beta 23.853026
_cell_angle_gamma 117.161986
_cell_volume 844.207447
_symmetry_space_group_name_H-M "P -1"
_symmetry_group_IT_number 2
_symmetry_cell_setting 'triclinic'
loop_
_space_group_symop_operation_xyz
x,y,z
-x,-y,-z
loop_
_atom_site_type_symbol
_atom_site_label
_atom_site_fract_x
_atom_site_fract_y
_atom_site_fract_z
Si Si1 0.442504 0.950328 0.105227
Si Si2 0.040483 0.667422 0.885148
Si Si3 0.517565 0.140540 0.555262
Si Si4 0.115917 0.023874 0.101644
Si Si5 0.044861 0.811219 0.311581
Si Si6 0.169556 0.770074 0.012776
Si Si7 0.764890 0.639050 0.449893
Si Si8 0.559859 0.207629 0.380391
O O1 0.335164 0.830263 0.113620
O O2 0.213508 0.064719 0.392462
O O3 0.500000 0.000000 0.000000
O O4 0.727919 0.899951 0.918441
O O5 0.110549 0.674393 0.935572
O O6 0.122238 0.517492 0.712654
O O7 0.203391 0.734905 0.746448
O O8 0.713000 0.750199 0.155420
O O9 0.426834 0.195164 0.559286
O O10 0.500000 0.000000 0.500000
O O11 0.822622 0.132831 0.348306
O O12 0.058871 0.919335 0.144237
O O13 0.302820 0.942570 0.840883
O O14 0.021309 0.684996 0.306169
O O15 0.004367 0.783613 0.228423
O O16 0.505807 0.710138 0.744540
O O17 0.659833 0.690277 0.462917
#
# Coordination Sequence:
#
# PCOD8039493 Si02
#       8
#     2   2   2   2   2   2   2   2
#     4  11  21  36  52  84 114 143 186 237 289 324
#     4  10  22  35  54  83 117 153 186 221 275 342
#     4  12  22  34  54  82 117 153 189 216 269 350
#     4  10  20  35  52  77 118 144 174 229 278 331
#     4  11  20  32  59  81 107 145 183 233 288 325
#     4  10  18  34  53  82 115 144 175 230 278 333
#     4  10  20  36  55  84 115 147 186 234 276 328
#     4  10  20  35  54  80 115 151 174 229 281 328
#
# _framework density 18.952687999999998
#
# number of rings (size 3 to 8) (size 9 to 14) (size 15 to 20)
#    0.000    1.750    6.250    2.625    0.000    3.000 
#    0.000    0.000    0.000    0.750    0.000    4.375 
#    0.000    0.000    0.000    0.000    0.000    0.000 
#
# Total GULP energy -198230.613221 kJ/mol
# GULP energy per Si atom -12389.413326 kJ/mol
# Density = 1.890955 g / cm^3
# Si number density = 18.952688 Si / 1000 Ang^3
#
#
#
# Elastic Constant Matrix: (Units=GPa)
#
#
# Indices 1 2 3 4 5 6 
#
# 1 40.8468 21.3366 16.9558 -4.3429 -2.3530 6.4797
# 2 21.3366 66.5438 29.8168 -5.3420 2.2624 7.8472
# 3 16.9558 29.8168 72.8987 -4.8454 0.6054 -11.1870
# 4 -4.3429 -5.3420 -4.8454 28.2049 -2.5621 -3.4381
# 5 -2.3530 2.2624 0.6054 -2.5621 32.6257 -7.8840
# 6 6.4797 7.8472 -11.1870 -3.4381 -7.8840 25.0419
#
#
#
# Elastic Compliance Matrix: (Units=1/GPa)
#
#
# Indices 1 2 3 4 5 6 
#
# 1 0.031893 -0.006476 -0.005940 0.001738 0.000983 -0.008328
# 2 -0.006476 0.022838 -0.009520 -0.000088 -0.004585 -0.011189
# 3 -0.005940 -0.009520 0.021613 0.003285 0.003921 0.015861
# 4 0.001738 -0.000088 0.003285 0.037662 0.004903 0.007760
# 5 0.000983 -0.004585 0.003921 0.004903 0.034877 0.014588
# 6 -0.008328 -0.011189 0.015861 0.007760 0.014588 0.058338
#
#
# Mechanical properties :
#
#
# Convention : Reuss Voigt Hill
#
# Bulk Modulus (GPa) = 30.79575 35.16751 32.98163
# Shear Modulus (GPa) = 19.09007 24.65314 21.87161
#
# Velocity S-wave (km/s) = 3.17716 3.61054 3.40076
# Velocity P-wave (km/s) = 5.45373 5.99808 5.73237
#
# Compressibility (1/GPa) = 0.03247202
#
# Stress axis : x y z
#
# Youngs Moduli (GPa) = 31.35478 43.78633 46.26912
#
# Poissons Ratio (x) = 0.28358 0.27483
# Poissons Ratio (y) = 0.20307 0.44046
# Poissons Ratio (z) = 0.18624 0.41683
#
# Static dielectric constant tensor:
#      x y z
#    x 3.396420 0.228460 -0.030360 
#    y 0.228460 3.518020 -0.388250 
#    z -0.030360 -0.388250 3.629210 
# 
# 
# High freq. dielectric constant tensor:
#      x y z
#    x 1.695530 0.012970 0.007920 
#    y 0.012970 1.723940 -0.034960 
#    z 0.007920 -0.034960 1.743990 
# 
# From -- ./inp_files/569877.got.cif
#   From: 2010.06.25/outbox.cif.g09.slc.cpg/sg2_285_cif.got.tgz:569877.got - 2010.06.27 13:26:56.
