data_PCOD8039498
_publ_section_title
;
Structure prediction by ZEFSAII (Michael W. Deem and Ramdas Pophale) SiO2 
 PCOD8039498
Probable space group: P -1
;
_chemical_formula_sum "Si O2"
_cell_formula_units_Z 16
_cell_length_a 10.913871
_cell_length_b 19.841242
_cell_length_c 14.923498
_cell_angle_alpha 160.714967
_cell_angle_beta 130.849212
_cell_angle_gamma 51.914832
_cell_volume 807.336085
_symmetry_space_group_name_H-M "P -1"
_symmetry_group_IT_number 2
_symmetry_cell_setting 'triclinic'
loop_
_space_group_symop_operation_xyz
x,y,z
-x,-y,-z
loop_
_atom_site_type_symbol
_atom_site_label
_atom_site_fract_x
_atom_site_fract_y
_atom_site_fract_z
Si Si1 0.251081 0.390129 0.722842
Si Si2 0.595206 0.304155 0.693805
Si Si3 0.654191 0.597995 0.650074
Si Si4 0.129093 0.588130 0.742011
Si Si5 0.214656 0.823197 0.836494
Si Si6 0.068198 0.995321 0.163782
Si Si7 0.421413 0.141719 0.910387
Si Si8 0.532260 0.499911 0.291190
O O1 0.423546 0.326216 0.687014
O O2 0.128012 0.460103 0.673108
O O3 0.176216 0.191682 0.485829
O O4 0.268901 0.568093 0.027970
O O5 0.585494 0.383058 0.685989
O O6 0.651065 0.068436 0.426474
O O7 0.500000 0.500000 0.500000
O O8 0.792951 0.423789 0.490570
O O9 0.598206 0.657366 0.596795
O O10 0.696327 0.787634 0.973915
O O11 0.312821 0.592852 0.800787
O O12 0.000000 0.500000 0.500000
O O13 0.078712 0.825467 0.034467
O O14 0.117674 0.935544 0.851676
O O15 0.398144 0.905592 0.025072
O O16 0.131877 0.877298 0.958444
O O17 0.431808 0.312494 0.051909
#
# Coordination Sequence:
#
# PCOD8039498 Si02
#       8
#     2   2   2   2   2   2   2   2
#     4  10  22  33  47  77 107 138 171 204 248 309
#     4  10  20  34  50  72 106 139 174 205 243 309
#     4   8  16  31  51  77 103 129 169 213 259 295
#     4  11  20  30  51  80 106 133 165 207 260 311
#     4   9  16  28  50  76  99 130 161 203 262 301
#     4  11  18  31  51  71 107 138 159 203 264 306
#     4  10  18  34  54  75 105 134 170 214 257 292
#     4   9  18  32  50  76 106 131 167 211 258 301
#
# _framework density 19.818263000000002
#
# number of rings (size 3 to 8) (size 9 to 14) (size 15 to 20)
#    0.000    2.500    3.750    1.500    1.750    1.500 
#    0.000    3.750    0.000    0.750    0.000    8.750 
#    0.000    0.000    0.000    0.000    0.000    0.000 
#
# Total GULP energy -198254.985407 kJ/mol
# GULP energy per Si atom -12390.936588 kJ/mol
# Density = 1.977316 g / cm^3
# Si number density = 19.818263 Si / 1000 Ang^3
#
#
#
# Elastic Constant Matrix: (Units=GPa)
#
#
# Indices 1 2 3 4 5 6 
#
# 1 22.6192 8.3333 20.1607 0.4332 -6.5651 -0.2002
# 2 8.3333 62.9239 29.6859 2.6547 3.6515 9.7578
# 3 20.1607 29.6859 149.9491 11.1284 -1.8131 7.1238
# 4 0.4332 2.6547 11.1284 22.8165 3.1286 2.2120
# 5 -6.5651 3.6515 -1.8131 3.1286 31.0543 3.7480
# 6 -0.2002 9.7578 7.1238 2.2120 3.7480 24.3933
#
#
#
# Elastic Compliance Matrix: (Units=1/GPa)
#
#
# Indices 1 2 3 4 5 6 
#
# 1 0.055274 -0.005411 -0.006411 0.000869 0.011541 0.002638
# 2 -0.005411 0.019080 -0.002796 0.000256 -0.002798 -0.006454
# 3 -0.006411 -0.002796 0.008397 -0.003539 -0.000052 -0.001057
# 4 0.000869 0.000256 -0.003539 0.046363 -0.004412 -0.002588
# 5 0.011541 -0.002798 -0.000052 -0.004412 0.035881 -0.003884
# 6 0.002638 -0.006454 -0.001057 -0.002588 -0.003884 0.044738
#
#
# Mechanical properties :
#
#
# Convention : Reuss Voigt Hill
#
# Bulk Modulus (GPa) = 18.68629 39.09467 28.89048
# Shear Modulus (GPa) = 19.46979 27.47364 23.47171
#
# Velocity S-wave (km/s) = 3.13775 3.72732 3.44517
# Velocity P-wave (km/s) = 4.75149 6.18815 5.51679
#
# Compressibility (1/GPa) = 0.05351518
#
# Stress axis : x y z
#
# Youngs Moduli (GPa) = 18.09159 52.41006 119.09587
#
# Poissons Ratio (x) = 0.28361 0.76347
# Poissons Ratio (y) = 0.09790 0.33300
# Poissons Ratio (z) = 0.11598 0.14654
#
# Static dielectric constant tensor:
#      x y z
#    x 3.622710 0.057810 -0.483830 
#    y 0.057810 3.781020 0.260820 
#    z -0.483830 0.260820 4.172110 
# 
# 
# High freq. dielectric constant tensor:
#      x y z
#    x 1.737680 0.004150 -0.002120 
#    y 0.004150 1.759420 0.018940 
#    z -0.002120 0.018940 1.764500 
# 
# From -- ./inp_files/523986.got.cif
#   From: 2010.06.25/outbox.cif.g09.slc.cpg/sg2_262_cif.got.tgz:523986.got - 2010.06.27 13:26:56.
