data_PCOD8039035
_publ_section_title
;
Structure prediction by ZEFSAII (Michael W. Deem and Ramdas Pophale) SiO2 
 PCOD8039035
Probable space group: P -1
;
_chemical_formula_sum "Si O2"
_cell_formula_units_Z 16
_cell_length_a 13.048160
_cell_length_b 11.802158
_cell_length_c 9.188587
_cell_angle_alpha 51.743159
_cell_angle_beta 44.349676
_cell_angle_gamma 67.432590
_cell_volume 772.216700
_symmetry_space_group_name_H-M "P -1"
_symmetry_group_IT_number 2
_symmetry_cell_setting 'triclinic'
loop_
_space_group_symop_operation_xyz
x,y,z
-x,-y,-z
loop_
_atom_site_type_symbol
_atom_site_label
_atom_site_fract_x
_atom_site_fract_y
_atom_site_fract_z
Si Si1 0.917217 0.812350 0.958277
Si Si2 0.176916 0.191127 0.447733
Si Si3 0.781633 0.481056 0.819372
Si Si4 0.908995 0.523314 0.355932
Si Si5 0.393745 0.800965 0.680788
Si Si6 0.053100 0.774823 0.563037
Si Si7 0.235529 0.911186 0.503744
Si Si8 0.721322 0.930112 0.275009
O O1 0.916677 0.794383 0.797342
O O2 0.085740 0.869749 0.784619
O O3 0.862126 0.657259 0.206790
O O4 0.804818 0.924793 0.039209
O O5 0.243884 0.358038 0.225614
O O6 0.174584 0.144032 0.656149
O O7 0.006710 0.171381 0.573828
O O8 0.276210 0.085303 0.341326
O O9 0.788669 0.480678 0.637385
O O10 0.932389 0.432047 0.768519
O O11 0.648917 0.366061 0.099140
O O12 0.912325 0.390416 0.346799
O O13 0.360743 0.827712 0.520978
O O14 0.566138 0.831665 0.508178
O O15 0.303284 0.905496 0.789477
O O16 0.202543 0.866328 0.403344
#
# Coordination Sequence:
#
# PCOD8039035 Si02
#       8
#     2   2   2   2   2   2   2   2
#     4  10  19  34  55  87 105 148 183 228 273 323
#     4  10  19  35  54  86 111 141 184 233 271 327
#     4  10  19  32  57  83 112 143 181 235 279 316
#     4  10  18  32  53  87 116 139 180 233 279 326
#     4  10  21  39  56  81 111 155 182 227 277 329
#     4   9  20  32  58  81 119 141 180 226 286 322
#     4   9  20  34  59  81 112 145 184 223 280 324
#     4  10  22  37  59  79 115 145 192 226 270 328
#
# _framework density 20.719570999999998
#
# number of rings (size 3 to 8) (size 9 to 14) (size 15 to 20)
#    0.750    1.500    2.500    0.750    0.000    5.500 
#    0.000    0.000    2.750    6.000    0.000    0.000 
#    0.000    0.000    0.000    0.000    0.000    0.000 
#
# Total GULP energy -198238.996492 kJ/mol
# GULP energy per Si atom -12389.937281 kJ/mol
# Density = 2.067241 g / cm^3
# Si number density = 20.719571 Si / 1000 Ang^3
#
#
#
# Elastic Constant Matrix: (Units=GPa)
#
#
# Indices 1 2 3 4 5 6 
#
# 1 77.0270 35.9666 23.7961 3.2283 8.6205 13.0830
# 2 35.9666 89.4227 26.9939 -3.8895 4.6058 17.4307
# 3 23.7961 26.9939 46.4422 -14.5839 1.3908 5.1927
# 4 3.2283 -3.8895 -14.5839 30.0288 -0.3937 1.3577
# 5 8.6205 4.6058 1.3908 -0.3937 17.0354 -4.7060
# 6 13.0830 17.4307 5.1927 1.3577 -4.7060 27.4863
#
#
#
# Elastic Compliance Matrix: (Units=1/GPa)
#
#
# Indices 1 2 3 4 5 6 
#
# 1 0.020270 -0.003740 -0.009317 -0.007011 -0.010576 -0.006981
# 2 -0.003740 0.016521 -0.006789 -0.000444 -0.004274 -0.008124
# 3 -0.009317 -0.006789 0.035302 0.017237 0.004622 0.002011
# 4 -0.007011 -0.000444 0.017237 0.042463 0.002900 -0.001238
# 5 -0.010576 -0.004274 0.004622 0.002900 0.070071 0.018725
# 6 -0.006981 -0.008124 0.002011 -0.001238 0.018725 0.047744
#
#
# Mechanical properties :
#
#
# Convention : Reuss Voigt Hill
#
# Bulk Modulus (GPa) = 30.86377 42.93391 36.89884
# Shear Modulus (GPa) = 17.67636 23.31911 20.49774
#
# Velocity S-wave (km/s) = 2.92400 3.35843 3.14872
# Velocity P-wave (km/s) = 5.13108 5.98374 5.57374
#
# Compressibility (1/GPa) = 0.03240045
#
# Stress axis : x y z
#
# Youngs Moduli (GPa) = 49.33340 60.52898 28.32729
#
# Poissons Ratio (x) = 0.22637 0.26392
# Poissons Ratio (y) = 0.18450 0.19233
# Poissons Ratio (z) = 0.45963 0.41096
#
# Static dielectric constant tensor:
#      x y z
#    x 3.626160 0.205690 0.174880 
#    y 0.205690 3.849100 -0.184510 
#    z 0.174880 -0.184510 3.301100 
# 
# 
# High freq. dielectric constant tensor:
#      x y z
#    x 1.794660 0.016220 0.022640 
#    y 0.016220 1.817050 -0.025930 
#    z 0.022640 -0.025930 1.770680 
# 
# From -- ./inp_files/304615.got.cif
#   From: 2010.06.25/outbox.cif.g09.slc.cpg/sg2_153_cif.got.tgz:304615.got - 2010.06.27 13:26:56.
