data_PCOD8039183
_publ_section_title
;
Structure prediction by ZEFSAII (Michael W. Deem and Ramdas Pophale) SiO2 
 PCOD8039183
Probable space group: P -1
;
_chemical_formula_sum "Si O2"
_cell_formula_units_Z 16
_cell_length_a 15.276145
_cell_length_b 14.327425
_cell_length_c 8.639985
_cell_angle_alpha 93.325807
_cell_angle_beta 116.391764
_cell_angle_gamma 139.628585
_cell_volume 800.778232
_symmetry_space_group_name_H-M "P -1"
_symmetry_group_IT_number 2
_symmetry_cell_setting 'triclinic'
loop_
_space_group_symop_operation_xyz
x,y,z
-x,-y,-z
loop_
_atom_site_type_symbol
_atom_site_label
_atom_site_fract_x
_atom_site_fract_y
_atom_site_fract_z
Si Si1 0.565195 0.798088 0.824661
Si Si2 0.990607 0.890894 0.906016
Si Si3 0.602373 0.525100 0.395058
Si Si4 0.645173 0.514316 0.763189
Si Si5 0.483224 0.093333 0.942594
Si Si6 0.247488 0.849413 0.441502
Si Si7 0.598713 0.207407 0.539624
Si Si8 0.774920 0.436859 0.988807
O O1 0.442282 0.600943 0.767521
O O2 0.422524 0.716143 0.566122
O O3 0.593823 0.903261 0.983354
O O4 0.790133 0.961487 0.957454
O O5 0.840335 0.759642 0.621992
O O6 0.888889 0.738710 0.943427
O O7 0.000000 0.000000 0.000000
O O8 0.523760 0.418211 0.492291
O O9 0.460221 0.491182 0.220174
O O10 0.627698 0.402531 0.832286
O O11 0.318505 0.963034 0.662025
O O12 0.700031 0.317040 0.070009
O O13 0.500000 0.000000 0.000000
O O14 0.302834 0.786507 0.496731
O O15 0.006884 0.665187 0.216629
O O16 0.370453 0.987623 0.399673
O O17 0.758314 0.354576 0.820398
#
# Coordination Sequence:
#
# PCOD8039183 Si02
#       8
#     2   2   2   2   2   2   2   2
#     4  12  20  38  62  88 124 162 199 250 304 363
#     4  10  18  32  61  94 122 150 193 255 301 357
#     4   9  19  34  57  96 121 148 197 246 306 357
#     4   9  17  36  59  93 119 150 194 254 308 349
#     4  11  26  44  58  84 127 171 206 250 303 363
#     4  10  22  41  58  90 120 159 203 257 304 361
#     4  10  20  36  64  89 119 151 205 259 305 351
#     4  11  22  40  62  87 123 164 200 254 310 363
#
# _framework density 19.980561999999999
#
# number of rings (size 3 to 8) (size 9 to 14) (size 15 to 20)
#    0.750    1.000    3.750    1.125    0.000    1.500 
#    4.500    0.625    0.000    1.500    0.000    0.000 
#    0.000    0.000    0.000    0.000    0.000    0.000 
#
# Total GULP energy -198243.498049 kJ/mol
# GULP energy per Si atom -12390.218628 kJ/mol
# Density = 1.993509 g / cm^3
# Si number density = 19.980562 Si / 1000 Ang^3
#
#
#
# Elastic Constant Matrix: (Units=GPa)
#
#
# Indices 1 2 3 4 5 6 
#
# 1 121.1842 23.3918 35.7846 -0.8922 -11.4996 -16.3062
# 2 23.3918 58.3508 17.8540 -0.1452 1.1628 -15.2817
# 3 35.7846 17.8540 77.7427 17.6969 2.5556 3.1758
# 4 -0.8922 -0.1452 17.6969 24.1974 -4.1933 -3.2006
# 5 -11.4996 1.1628 2.5556 -4.1933 28.4144 2.5205
# 6 -16.3062 -15.2817 3.1758 -3.2006 2.5205 29.2922
#
#
#
# Elastic Compliance Matrix: (Units=1/GPa)
#
#
# Indices 1 2 3 4 5 6 
#
# 1 0.012479 -0.000561 -0.008087 0.008519 0.006356 0.007915
# 2 -0.000561 0.023072 -0.007155 0.006995 -0.000677 0.013323
# 3 -0.008087 -0.007155 0.023630 -0.020485 -0.007026 -0.012430
# 4 0.008519 0.006995 -0.020485 0.060985 0.012567 0.016195
# 5 0.006356 -0.000677 -0.007026 0.012567 0.040114 0.001868
# 6 0.007915 0.013323 -0.012430 0.016195 0.001868 0.048451
#
#
# Mechanical properties :
#
#
# Convention : Reuss Voigt Hill
#
# Bulk Modulus (GPa) = 36.26320 45.70428 40.98374
# Shear Modulus (GPa) = 20.03787 28.39728 24.21758
#
# Velocity S-wave (km/s) = 3.17024 3.77403 3.48524
# Velocity P-wave (km/s) = 5.62043 6.47419 6.06236
#
# Compressibility (1/GPa) = 0.02757617
#
# Stress axis : x y z
#
# Youngs Moduli (GPa) = 80.13508 43.34314 42.31893
#
# Poissons Ratio (x) = 0.02431 0.34222
# Poissons Ratio (y) = 0.04495 0.30278
# Poissons Ratio (z) = 0.64803 0.31011
#
# Static dielectric constant tensor:
#      x y z
#    x 3.727450 -0.222840 -0.134350 
#    y -0.222840 3.434790 0.167660 
#    z -0.134350 0.167660 3.500390 
# 
# 
# High freq. dielectric constant tensor:
#      x y z
#    x 1.784340 -0.026310 -0.005480 
#    y -0.026310 1.750100 0.017490 
#    z -0.005480 0.017490 1.770280 
# 
# From -- ./inp_files/313584.got.cif
#   From: 2010.06.25/outbox.cif.g09.slc.cpg/sg2_157_cif.got.tgz:313584.got - 2010.06.27 13:26:56.
