data_PCOD8039802
_publ_section_title
;
Structure prediction by ZEFSAII (Michael W. Deem and Ramdas Pophale) SiO2 
 PCOD8039802
Probable space group: P -1
;
_chemical_formula_sum "Si O2"
_cell_formula_units_Z 16
_cell_length_a 11.526143
_cell_length_b 8.641171
_cell_length_c 9.721080
_cell_angle_alpha 71.153272
_cell_angle_beta 84.197363
_cell_angle_gamma 127.365737
_cell_volume 669.016696
_symmetry_space_group_name_H-M "P -1"
_symmetry_group_IT_number 2
_symmetry_cell_setting 'triclinic'
loop_
_space_group_symop_operation_xyz
x,y,z
-x,-y,-z
loop_
_atom_site_type_symbol
_atom_site_label
_atom_site_fract_x
_atom_site_fract_y
_atom_site_fract_z
Si Si1 0.395869 0.916329 0.670818
Si Si2 0.379529 0.399021 0.231690
Si Si3 0.231054 0.054240 0.724871
Si Si4 0.993971 0.657334 0.048025
Si Si5 0.116395 0.569706 0.618891
Si Si6 0.762375 0.617226 0.489401
Si Si7 0.904175 0.092941 0.515070
Si Si8 0.652211 0.445531 0.082939
O O1 0.393526 0.099112 0.679639
O O2 0.216214 0.717340 0.699585
O O3 0.433895 0.814117 0.809700
O O4 0.500000 0.000000 0.500000
O O5 0.375536 0.493653 0.349027
O O6 0.553206 0.484496 0.171474
O O7 0.244094 0.128050 0.322633
O O8 0.351324 0.508898 0.088588
O O9 0.122065 0.926847 0.638616
O O10 0.272158 0.287215 0.657793
O O11 0.137608 0.912669 0.912903
O O12 0.024421 0.652148 0.211815
O O13 0.833737 0.611353 0.061758
O O14 0.000000 0.500000 0.000000
O O15 0.227016 0.555797 0.518238
O O16 0.072979 0.691221 0.500362
O O17 0.927827 0.829473 0.486450
#
# Coordination Sequence:
#
# PCOD8039802 Si02
#       8
#     2   2   2   2   2   2   2   2
#     4  10  19  36  59  78 106 142 186 226 263 334
#     4  10  21  34  58  82 111 143 190 223 270 329
#     4  10  19  33  55  81 102 145 191 221 268 322
#     4  11  18  35  57  80 107 140 194 229 262 328
#     4  10  22  33  55  84 108 143 184 227 282 322
#     4  11  21  34  52  83 117 141 178 234 281 320
#     4  10  18  35  54  77 108 152 184 220 265 332
#     4  10  19  34  57  86 102 143 187 231 263 316
#
# _framework density 23.915697000000002
#
# number of rings (size 3 to 8) (size 9 to 14) (size 15 to 20)
#    0.000    1.750    3.750    5.625    0.000    0.500 
#    0.000    5.625    0.000    8.250    0.000    0.000 
#    0.000    0.000    0.000    0.000    0.000    0.000 
#
# Total GULP energy -198252.120710 kJ/mol
# GULP energy per Si atom -12390.757544 kJ/mol
# Density = 2.386126 g / cm^3
# Si number density = 23.915697 Si / 1000 Ang^3
#
#
#
# Elastic Constant Matrix: (Units=GPa)
#
#
# Indices 1 2 3 4 5 6 
#
# 1 127.4668 12.4683 66.2039 0.2889 1.9667 -37.8564
# 2 12.4683 35.9598 17.2139 -0.5641 6.2243 -26.5904
# 3 66.2039 17.2139 194.4422 -13.1652 8.1690 -34.3295
# 4 0.2889 -0.5641 -13.1652 21.1600 -14.5563 1.0330
# 5 1.9667 6.2243 8.1690 -14.5563 44.6769 -5.0274
# 6 -37.8564 -26.5904 -34.3295 1.0330 -5.0274 36.2517
#
#
#
# Elastic Compliance Matrix: (Units=1/GPa)
#
#
# Indices 1 2 3 4 5 6 
#
# 1 0.014322 0.012294 -0.002265 -0.002551 -0.000300 0.021859
# 2 0.012294 0.073512 0.001106 -0.004065 -0.004740 0.067265
# 3 -0.002265 0.001106 0.006991 0.004688 0.000762 0.005038
# 4 -0.002551 -0.004065 0.004688 0.064412 0.020790 -0.000158
# 5 -0.000300 -0.004740 0.000762 0.020790 0.029743 0.000463
# 6 0.021859 0.067265 0.005038 -0.000158 0.000463 0.104589
#
#
# Mechanical properties :
#
#
# Convention : Reuss Voigt Hill
#
# Bulk Modulus (GPa) = 8.54013 61.07122 34.80567
# Shear Modulus (GPa) = 16.11184 37.88324 26.99754
#
# Velocity S-wave (km/s) = 2.59838 3.98431 3.36350
# Velocity P-wave (km/s) = 3.54694 6.83796 5.44695
#
# Compressibility (1/GPa) = 0.11709426
#
# Stress axis : x y z
#
# Youngs Moduli (GPa) = 69.82483 13.60320 143.03556
#
# Poissons Ratio (x) = -0.16724 0.32404
# Poissons Ratio (y) = -0.85845 -0.15817
# Poissons Ratio (z) = 0.15818 -0.01504
#
# Static dielectric constant tensor:
#      x y z
#    x 4.581150 -0.399170 0.202480 
#    y -0.399170 4.129580 -0.425270 
#    z 0.202480 -0.425270 4.798970 
# 
# 
# High freq. dielectric constant tensor:
#      x y z
#    x 1.961450 -0.037060 0.004710 
#    y -0.037060 1.911300 -0.012700 
#    z 0.004710 -0.012700 1.960250 
# 
# From -- ./inp_files/353533.got.cif
#   From: 2010.06.25/outbox.cif.g09.slc.cpg/sg2_177_cif.got.tgz:353533.got - 2010.06.27 13:26:56.
