data_PCOD8039524
_publ_section_title
;
Structure prediction by ZEFSAII (Michael W. Deem and Ramdas Pophale) SiO2 
 PCOD8039524
Probable space group: P -1
;
_chemical_formula_sum "Si O2"
_cell_formula_units_Z 12
_cell_length_a 16.552331
_cell_length_b 9.335505
_cell_length_c 24.861736
_cell_angle_alpha 138.438967
_cell_angle_beta 161.979823
_cell_angle_gamma 35.631166
_cell_volume 685.834789
_symmetry_space_group_name_H-M "P -1"
_symmetry_group_IT_number 2
_symmetry_cell_setting 'triclinic'
loop_
_space_group_symop_operation_xyz
x,y,z
-x,-y,-z
loop_
_atom_site_type_symbol
_atom_site_label
_atom_site_fract_x
_atom_site_fract_y
_atom_site_fract_z
Si Si1 0.184573 0.192414 0.651993
Si Si2 0.772425 0.737862 0.114490
Si Si3 0.574103 0.404622 0.959960
Si Si4 0.873392 0.484659 0.830694
Si Si5 0.836214 0.875505 0.995106
Si Si6 0.824620 0.217111 0.528457
O O1 0.278927 0.393610 0.747353
O O2 0.920106 0.312072 0.562163
O O3 0.481264 0.967783 0.806306
O O4 0.101323 0.067601 0.514773
O O5 0.949674 0.585374 0.132241
O O6 0.995154 0.779400 0.304880
O O7 0.641512 0.581015 0.016311
O O8 0.500000 0.000000 0.000000
O O9 0.858478 0.120517 0.061131
O O10 0.500000 0.500000 0.000000
O O11 0.956021 0.674710 0.966457
O O12 0.523476 0.600003 0.629172
O O13 0.979934 0.241056 0.866719
#
# Coordination Sequence:
#
# PCOD8039524 Si02
#       6
#     2   2   2   2   2   2
#     4   8  17  34  59  76 107 144 184 212 267 324
#     4  12  23  35  57  79 111 147 186 223 270 321
#     4  10  18  36  59  80 106 144 189 217 260 329
#     4  10  19  34  58  83 110 138 181 225 273 321
#     4   8  18  36  57  81 104 145 181 215 269 330
#     4  10  18  34  55  83 110 140 178 226 272 316
#
# _framework density 17.496924
#
# number of rings (size 3 to 8) (size 9 to 14) (size 15 to 20)
#    1.000    1.333    1.667    2.500    0.000    2.000 
#    0.000    1.667    3.667    0.000    0.000    0.000 
#    0.000    0.000    0.000    0.000    0.000    0.000 
#
# Total GULP energy -148675.903663 kJ/mol
# GULP energy per Si atom -12389.658639 kJ/mol
# Density = 1.745710 g / cm^3
# Si number density = 17.496924 Si / 1000 Ang^3
#
#
#
# Elastic Constant Matrix: (Units=GPa)
#
#
# Indices 1 2 3 4 5 6 
#
# 1 131.8485 68.8543 58.6846 5.3668 10.6276 -5.1478
# 2 68.8543 119.6950 45.8738 8.8528 0.8914 11.5100
# 3 58.6846 45.8738 84.2271 11.2592 3.7246 3.2724
# 4 5.3668 8.8528 11.2592 31.3562 -6.8365 1.7145
# 5 10.6276 0.8914 3.7246 -6.8365 26.8495 -2.5405
# 6 -5.1478 11.5100 3.2724 1.7145 -2.5405 29.2522
#
#
#
# Elastic Compliance Matrix: (Units=1/GPa)
#
#
# Indices 1 2 3 4 5 6 
#
# 1 0.014291 -0.006177 -0.006705 0.000570 -0.003873 0.005326
# 2 -0.006177 0.013625 -0.002804 -0.001124 0.001534 -0.005935
# 3 -0.006705 -0.002804 0.018880 -0.005023 -0.001341 -0.002011
# 4 0.000570 -0.001124 -0.005023 0.036032 0.009667 -0.000168
# 5 -0.003873 0.001534 -0.001341 0.009667 0.041554 0.001907
# 6 0.005326 -0.005935 -0.002011 -0.000168 0.001907 0.037858
#
#
# Mechanical properties :
#
#
# Convention : Reuss Voigt Hill
#
# Bulk Modulus (GPa) = 64.83094 75.84400 70.33747
# Shear Modulus (GPa) = 25.15662 28.31546 26.73604
#
# Velocity S-wave (km/s) = 3.79591 4.02719 3.91326
# Velocity P-wave (km/s) = 7.50634 8.06632 7.79136
#
# Compressibility (1/GPa) = 0.01542473
#
# Stress axis : x y z
#
# Youngs Moduli (GPa) = 69.97224 73.39533 52.96475
#
# Poissons Ratio (x) = 0.45334 0.35514
# Poissons Ratio (y) = 0.43220 0.14852
# Poissons Ratio (z) = 0.46917 0.20581
#
# Static dielectric constant tensor:
#      x y z
#    x 3.535460 0.161380 0.191970 
#    y 0.161380 3.679160 0.258250 
#    z 0.191970 0.258250 3.304720 
# 
# 
# High freq. dielectric constant tensor:
#      x y z
#    x 1.662050 -0.024690 0.002650 
#    y -0.024690 1.676500 0.008450 
#    z 0.002650 0.008450 1.667390 
# 
# From -- ./inp_files/158796.got.cif
#   From: 2010.06.25/outbox.cif.g09.slc.cpg/sg2_80_cif.got.tgz:158796.got - 2010.06.27 13:26:56.
