data_PCOD8039117
_publ_section_title
;
Structure prediction by ZEFSAII (Michael W. Deem and Ramdas Pophale) SiO2 
 PCOD8039117
Probable space group: P -1
;
_chemical_formula_sum "Si O2"
_cell_formula_units_Z 16
_cell_length_a 9.382934
_cell_length_b 18.366413
_cell_length_c 19.691423
_cell_angle_alpha 21.139240
_cell_angle_beta 129.278871
_cell_angle_gamma 132.747528
_cell_volume 898.696299
_symmetry_space_group_name_H-M "P -1"
_symmetry_group_IT_number 2
_symmetry_cell_setting 'triclinic'
loop_
_space_group_symop_operation_xyz
x,y,z
-x,-y,-z
loop_
_atom_site_type_symbol
_atom_site_label
_atom_site_fract_x
_atom_site_fract_y
_atom_site_fract_z
Si Si1 0.497738 0.700193 0.000012
Si Si2 0.820772 0.668435 0.715696
Si Si3 0.906504 0.788624 0.999986
Si Si4 0.144946 0.729860 0.000002
Si Si5 0.107583 0.677684 0.283361
Si Si6 0.892416 0.755583 0.283387
Si Si7 0.179231 0.900175 0.715698
Si Si8 0.422665 0.105391 0.999986
O O1 0.365711 0.458153 0.185593
O O2 0.672416 0.703226 0.999991
O O3 0.365731 0.829360 0.814411
O O4 0.591708 0.812589 0.000053
O O5 0.000018 0.763010 0.736990
O O6 0.768370 0.850248 0.499999
O O7 0.873149 0.511730 0.814361
O O8 0.979291 0.665963 0.187969
O O9 0.975171 0.729347 0.000018
O O10 0.979282 0.041937 0.811972
O O11 0.126815 0.859537 0.814361
O O12 0.353869 0.843202 0.999995
O O13 0.137496 0.450939 0.499983
O O14 0.999995 0.744297 0.255708
O O15 0.317879 0.852134 0.185885
O O16 0.682125 0.776118 0.185889
#
# Coordination Sequence:
#
# PCOD8039117 Si02
#       8
#     2   2   2   2   2   2   2   2
#     4  10  18  32  57  80 103 134 177 213 254 306
#     4   9  19  38  60  79 100 132 174 213 254 313
#     4  11  21  36  48  80 114 137 168 217 264 306
#     4  10  22  34  55  78 111 136 166 216 266 310
#     4  10  19  32  52  73 104 143 181 218 251 294
#     4  10  19  32  52  73 104 143 181 218 251 294
#     4   9  19  38  60  79 100 132 174 213 254 313
#     4   9  17  34  50  74  98 139 189 215 244 297
#
# _framework density 17.803567999999999
#
# number of rings (size 3 to 8) (size 9 to 14) (size 15 to 20)
#    0.000    2.500    2.500    2.250    0.000    8.000 
#    0.000    3.750    0.000    3.000    0.000    0.000 
#    0.000    0.000    0.000    0.000    0.000    0.000 
#
# Total GULP energy -198405.815514 kJ/mol
# GULP energy per Si atom -12400.363470 kJ/mol
# Density = 1.776305 g / cm^3
# Si number density = 17.803568 Si / 1000 Ang^3
#
#
#
# Elastic Constant Matrix: (Units=GPa)
#
#
# Indices 1 2 3 4 5 6 
#
# 1 139.3272 48.0832 58.1899 1.7478 9.8603 11.2820
# 2 48.0832 80.3884 59.6768 3.6176 -2.3900 16.7782
# 3 58.1899 59.6768 175.6295 4.7528 -16.0835 9.5957
# 4 1.7478 3.6176 4.7528 24.1620 0.1579 -0.6935
# 5 9.8603 -2.3900 -16.0835 0.1579 7.5668 -0.6726
# 6 11.2820 16.7782 9.5957 -0.6935 -0.6726 21.3143
#
#
#
# Elastic Compliance Matrix: (Units=1/GPa)
#
#
# Indices 1 2 3 4 5 6 
#
# 1 0.013454 -0.004290 -0.005785 0.000952 -0.031391 -0.002099
# 2 -0.004290 0.021499 -0.005100 -0.002265 0.000486 -0.012415
# 3 -0.005785 -0.005100 0.012176 -0.001349 0.032066 0.002563
# 4 0.000952 -0.002265 -0.001349 0.042047 -0.005428 0.003083
# 5 -0.031391 0.000486 0.032066 -0.005428 0.242309 0.009267
# 6 -0.002099 -0.012415 0.002563 0.003083 0.009267 0.057040
#
#
# Mechanical properties :
#
#
# Convention : Reuss Voigt Hill
#
# Bulk Modulus (GPa) = 59.59982 80.80498 70.20240
# Shear Modulus (GPa) = 11.77943 25.90163 18.84053
#
# Velocity S-wave (km/s) = 2.57501 3.81840 3.25660
# Velocity P-wave (km/s) = 6.51075 8.05765 7.32515
#
# Compressibility (1/GPa) = 0.01677858
#
# Stress axis : x y z
#
# Youngs Moduli (GPa) = 74.32819 46.51354 82.12639
#
# Poissons Ratio (x) = 0.19956 0.47514
# Poissons Ratio (y) = 0.31890 0.41881
# Poissons Ratio (z) = 0.43002 0.23720
#
# Static dielectric constant tensor:
#      x y z
#    x 3.146970 0.201680 -0.047160 
#    y 0.201680 3.248700 0.035810 
#    z -0.047160 0.035810 3.411340 
# 
# 
# High freq. dielectric constant tensor:
#      x y z
#    x 1.670380 0.016240 -0.004230 
#    y 0.016240 1.686540 0.002660 
#    z -0.004230 0.002660 1.694760 
# 
# From -- ./inp_files/302087.got.cif
#   From: 2010.06.25/outbox.cif.g09.slc.cpg/sg2_152_cif.got.tgz:302087.got - 2010.06.27 13:26:56.
