data_PCOD8039869
_publ_section_title
;
Structure prediction by ZEFSAII (Michael W. Deem and Ramdas Pophale) SiO2 
 PCOD8039869
Probable space group: P -1
;
_chemical_formula_sum "Si O2"
_cell_formula_units_Z 16
_cell_length_a 14.032596
_cell_length_b 9.027669
_cell_length_c 14.041470
_cell_angle_alpha 123.998732
_cell_angle_beta 140.705912
_cell_angle_gamma 77.490733
_cell_volume 851.119991
_symmetry_space_group_name_H-M "P -1"
_symmetry_group_IT_number 2
_symmetry_cell_setting 'triclinic'
loop_
_space_group_symop_operation_xyz
x,y,z
-x,-y,-z
loop_
_atom_site_type_symbol
_atom_site_label
_atom_site_fract_x
_atom_site_fract_y
_atom_site_fract_z
Si Si1 0.558105 0.347414 0.944336
Si Si2 0.303263 0.290124 0.465042
Si Si3 0.011406 0.735623 0.191502
Si Si4 0.893046 0.518292 0.336382
Si Si5 0.792975 0.844329 0.445233
Si Si6 0.820412 0.145538 0.835938
Si Si7 0.061260 0.445436 0.257588
Si Si8 0.339827 0.573451 0.161264
O O1 0.383570 0.155886 0.728232
O O2 0.644028 0.428075 0.939757
O O3 0.500000 0.500000 0.000000
O O4 0.707020 0.336382 0.120879
O O5 0.235012 0.246678 0.503541
O O6 0.498230 0.421071 0.659843
O O7 0.228914 0.426250 0.405017
O O8 0.091177 0.594981 0.246734
O O9 0.064465 0.783622 0.141610
O O10 0.813310 0.626533 0.000507
O O11 0.071699 0.933961 0.371230
O O12 0.864876 0.718338 0.391912
O O13 0.995390 0.526874 0.324338
O O14 0.000000 0.500000 0.500000
O O15 0.737495 0.911493 0.695788
O O16 0.681621 0.231007 0.753009
O O17 0.927997 0.230860 0.045109
#
# Coordination Sequence:
#
# PCOD8039869 Si02
#       8
#     2   2   2   2   2   2   2   2
#     4   9  18  34  55  81 107 144 184 225 263 324
#     4  10  20  34  57  85 110 139 187 234 270 320
#     4  10  21  38  58  81 114 147 182 223 274 336
#     4  11  19  34  58  83 111 142 185 232 273 317
#     4   9  20  36  57  83 111 144 186 225 270 328
#     4  10  20  37  58  80 110 148 188 224 268 332
#     4  11  20  35  56  81 113 147 181 227 283 319
#     4  10  18  35  57  83 109 146 185 221 276 328
#
# _framework density 18.798759
#
# number of rings (size 3 to 8) (size 9 to 14) (size 15 to 20)
#    0.000    2.000    3.750    2.250    0.000    0.500 
#    0.000    3.750    0.000    1.500    0.000    0.000 
#    0.000    0.000    0.000    0.000    0.000    0.000 
#
# Total GULP energy -198274.437072 kJ/mol
# GULP energy per Si atom -12392.152317 kJ/mol
# Density = 1.875597 g / cm^3
# Si number density = 18.798759 Si / 1000 Ang^3
#
#
#
# Elastic Constant Matrix: (Units=GPa)
#
#
# Indices 1 2 3 4 5 6 
#
# 1 78.9572 24.2959 40.9947 7.3450 4.1597 -15.4694
# 2 24.2959 70.3028 63.2054 -2.5873 21.5832 -11.6938
# 3 40.9947 63.2054 135.7215 -14.2152 15.0837 -11.1556
# 4 7.3450 -2.5873 -14.2152 38.2301 -11.1534 2.1309
# 5 4.1597 21.5832 15.0837 -11.1534 34.2701 0.6067
# 6 -15.4694 -11.6938 -11.1556 2.1309 0.6067 24.2572
#
#
#
# Elastic Compliance Matrix: (Units=1/GPa)
#
#
# Indices 1 2 3 4 5 6 
#
# 1 0.017944 0.000976 -0.005448 -0.006779 -0.002780 0.010073
# 2 0.000976 0.033636 -0.013911 -0.009088 -0.018345 0.011697
# 3 -0.005448 -0.013911 0.015387 0.007554 0.005177 -0.003897
# 4 -0.006779 -0.009088 0.007554 0.034383 0.014564 -0.008615
# 5 -0.002780 -0.018345 0.005177 0.014564 0.043720 -0.010608
# 6 0.010073 0.011697 -0.003897 -0.008615 -0.010608 0.052518
#
#
# Mechanical properties :
#
#
# Convention : Reuss Voigt Hill
#
# Bulk Modulus (GPa) = 33.10978 60.21928 46.66453
# Shear Modulus (GPa) = 20.45651 29.78384 25.12018
#
# Velocity S-wave (km/s) = 3.30234 3.98471 3.65947
# Velocity P-wave (km/s) = 5.67376 7.29889 6.53702
#
# Compressibility (1/GPa) = 0.03020255
#
# Stress axis : x y z
#
# Youngs Moduli (GPa) = 55.72922 29.72963 64.98886
#
# Poissons Ratio (x) = -0.02901 0.35403
# Poissons Ratio (y) = -0.05438 0.90405
# Poissons Ratio (z) = 0.30359 0.41356
#
# Static dielectric constant tensor:
#      x y z
#    x 3.437440 -0.275450 0.010680 
#    y -0.275450 3.162350 -0.002280 
#    z 0.010680 -0.002280 4.088320 
# 
# 
# High freq. dielectric constant tensor:
#      x y z
#    x 1.729320 -0.028830 -0.007990 
#    y -0.028830 1.692780 -0.001650 
#    z -0.007990 -0.001650 1.754050 
# 
# From -- ./inp_files/530710.got.cif
#   From: 2010.06.25/outbox.cif.g09.slc.cpg/sg2_266_cif.got.tgz:530710.got - 2010.06.27 13:26:56.
