data_PCOD8039720
_publ_section_title
;
Structure prediction by ZEFSAII (Michael W. Deem and Ramdas Pophale) SiO2 
 PCOD8039720
Probable space group: P -1
;
_chemical_formula_sum "Si O2"
_cell_formula_units_Z 16
_cell_length_a 12.212090
_cell_length_b 11.161112
_cell_length_c 8.883167
_cell_angle_alpha 95.560026
_cell_angle_beta 126.013696
_cell_angle_gamma 119.648443
_cell_volume 709.961972
_symmetry_space_group_name_H-M "P -1"
_symmetry_group_IT_number 2
_symmetry_cell_setting 'triclinic'
loop_
_space_group_symop_operation_xyz
x,y,z
-x,-y,-z
loop_
_atom_site_type_symbol
_atom_site_label
_atom_site_fract_x
_atom_site_fract_y
_atom_site_fract_z
Si Si1 0.868067 0.307051 0.404081
Si Si2 0.940512 0.857902 0.044456
Si Si3 0.729660 0.359982 0.831580
Si Si4 0.197299 0.142750 0.754207
Si Si5 0.099847 0.721995 0.242534
Si Si6 0.677083 0.535201 0.605218
Si Si7 0.774393 0.599277 0.346960
Si Si8 0.563851 0.250607 0.990272
O O1 0.805152 0.255844 0.520281
O O2 0.674266 0.202112 0.142642
O O3 0.000000 0.500000 0.500000
O O4 0.998697 0.272985 0.458983
O O5 0.820591 0.843317 0.079986
O O6 0.099573 0.868699 0.247611
O O7 0.844921 0.701768 0.843284
O O8 0.000000 0.000000 0.000000
O O9 0.791128 0.266301 0.810476
O O10 0.652162 0.384633 0.627613
O O11 0.570320 0.244441 0.813430
O O12 0.896614 0.536494 0.064507
O O13 0.286632 0.312307 0.764853
O O14 0.346587 0.124836 0.849747
O O15 0.000000 0.000000 0.500000
O O16 0.500000 0.500000 0.500000
O O17 0.704396 0.548660 0.452804
O O18 0.671974 0.435201 0.150492
#
# Coordination Sequence:
#
# PCOD8039720 Si02
#       8
#     2   2   2   2   2   2   2   2
#     4  10  18  34  60  96 124 156 200 259 325 375
#     4  11  24  43  64  87 124 174 221 257 321 383
#     4  10  19  33  60  97 132 157 206 262 329 374
#     4  12  25  44  63  87 126 172 218 264 311 378
#     4  10  19  36  60  95 130 166 203 267 322 384
#     4  11  22  36  62  97 129 164 210 267 321 382
#     4  11  20  38  65  93 129 161 208 258 325 380
#     4  11  22  37  66  98 126 161 209 265 321 385
#
# _framework density 22.536418000000001
#
# number of rings (size 3 to 8) (size 9 to 14) (size 15 to 20)
#    0.000    1.250    3.750    4.875    3.500    0.000 
#    0.000    0.625    0.000    2.250    0.000    0.000 
#    0.000    0.000    0.000    0.000    0.000    0.000 
#
# Total GULP energy -198318.759882 kJ/mol
# GULP energy per Si atom -12394.922493 kJ/mol
# Density = 2.248512 g / cm^3
# Si number density = 22.536418 Si / 1000 Ang^3
#
#
#
# Elastic Constant Matrix: (Units=GPa)
#
#
# Indices 1 2 3 4 5 6 
#
# 1 154.6510 45.1022 33.2675 -19.2681 8.6944 30.3247
# 2 45.1022 94.9830 37.4341 -41.1149 -5.4853 15.7896
# 3 33.2675 37.4341 54.7231 -21.6240 15.9079 15.2614
# 4 -19.2681 -41.1149 -21.6240 38.6214 8.2798 -7.2117
# 5 8.6944 -5.4853 15.9079 8.2798 42.4694 -11.3666
# 6 30.3247 15.7896 15.2614 -7.2117 -11.3666 32.8259
#
#
#
# Elastic Compliance Matrix: (Units=1/GPa)
#
#
# Indices 1 2 3 4 5 6 
#
# 1 0.009456 -0.003027 0.001245 0.001637 -0.005642 -0.009452
# 2 -0.003027 0.022894 -0.007733 0.017945 0.003078 0.000387
# 3 0.001245 -0.007733 0.045628 0.019546 -0.028652 -0.024271
# 4 0.001637 0.017945 0.019546 0.058618 -0.020354 -0.013402
# 5 -0.005642 0.003078 -0.028652 -0.020354 0.047575 0.029055
# 6 -0.009452 0.000387 -0.024271 -0.013402 0.029055 0.057410
#
#
# Mechanical properties :
#
#
# Convention : Reuss Voigt Hill
#
# Bulk Modulus (GPa) = 16.96362 59.55164 38.25763
# Shear Modulus (GPa) = 17.84057 35.35356 26.59706
#
# Velocity S-wave (km/s) = 2.81665 3.96502 3.43910
# Velocity P-wave (km/s) = 4.25694 6.88795 5.72562
#
# Compressibility (1/GPa) = 0.05894969
#
# Stress axis : x y z
#
# Youngs Moduli (GPa) = 105.75771 43.67912 21.91627
#
# Poissons Ratio (x) = 0.13220 -0.02729
# Poissons Ratio (y) = 0.32008 0.16948
# Poissons Ratio (z) = -0.13170 0.33777
#
# Static dielectric constant tensor:
#      x y z
#    x 4.391160 -0.079270 0.230710 
#    y -0.079270 3.966430 -0.372780 
#    z 0.230710 -0.372780 3.879040 
# 
# 
# High freq. dielectric constant tensor:
#      x y z
#    x 1.903750 0.000190 0.002970 
#    y 0.000190 1.871710 -0.035910 
#    z 0.002970 -0.035910 1.873670 
# 
# From -- ./inp_files/208327.got.cif
#   From: 2010.06.25/outbox.cif.g09.slc.cpg/sg2_105_cif.got.tgz:208327.got - 2010.06.27 13:26:56.
