data_PCOD8039628
_publ_section_title
;
Structure prediction by ZEFSAII (Michael W. Deem and Ramdas Pophale) SiO2 
 PCOD8039628
Probable space group: P -1
;
_chemical_formula_sum "Si O2"
_cell_formula_units_Z 16
_cell_length_a 11.638870
_cell_length_b 12.771894
_cell_length_c 9.129378
_cell_angle_alpha 129.620736
_cell_angle_beta 115.023610
_cell_angle_gamma 46.139422
_cell_volume 753.283605
_symmetry_space_group_name_H-M "P -1"
_symmetry_group_IT_number 2
_symmetry_cell_setting 'triclinic'
loop_
_space_group_symop_operation_xyz
x,y,z
-x,-y,-z
loop_
_atom_site_type_symbol
_atom_site_label
_atom_site_fract_x
_atom_site_fract_y
_atom_site_fract_z
Si Si1 0.696427 0.893150 0.076831
Si Si2 0.632496 0.509997 0.911503
Si Si3 0.947784 0.113217 0.352308
Si Si4 0.649879 0.193827 0.144617
Si Si5 0.516544 0.288952 0.697858
Si Si6 0.973170 0.218811 0.777861
Si Si7 0.399525 0.149310 0.302633
Si Si8 0.760264 0.979053 0.731954
O O1 0.874890 0.779735 0.132331
O O2 0.640431 0.075059 0.144294
O O3 0.567337 0.955883 0.194537
O O4 0.685643 0.787440 0.847035
O O5 0.528698 0.639808 0.838869
O O6 0.602972 0.368462 0.764039
O O7 0.819884 0.411440 0.900291
O O8 0.597425 0.602913 0.130974
O O9 0.762716 0.238232 0.313299
O O10 0.958938 0.170259 0.566629
O O11 0.007211 0.916810 0.215315
O O12 0.055252 0.131611 0.315296
O O13 0.735971 0.101920 0.957541
O O14 0.421957 0.284157 0.505230
O O15 0.650403 0.091609 0.635617
O O16 0.287578 0.140032 0.347081
#
# Coordination Sequence:
#
# PCOD8039628 Si02
#       8
#     2   2   2   2   2   2   2   2
#     4   9  20  38  60  87 109 144 193 239 273 322
#     4  10  21  37  56  85 118 148 178 231 289 335
#     4  10  19  33  57  87 111 143 191 235 279 323
#     4   9  20  34  57  87 114 145 180 236 286 331
#     4  10  20  35  56  84 114 152 184 226 279 343
#     4  10  20  35  58  83 115 144 185 238 280 326
#     4  10  20  36  60  83 112 150 192 232 272 330
#     4  10  18  34  58  85 111 145 192 236 270 326
#
# _framework density 21.240341000000001
#
# number of rings (size 3 to 8) (size 9 to 14) (size 15 to 20)
#    0.000    2.250    1.250    1.500    3.500    0.500 
#    0.000    0.625    0.000   12.750    0.000    0.000 
#    0.000    0.000    0.000    0.000    0.000    0.000 
#
# Total GULP energy -198348.128808 kJ/mol
# GULP energy per Si atom -12396.758051 kJ/mol
# Density = 2.119200 g / cm^3
# Si number density = 21.240341 Si / 1000 Ang^3
#
#
#
# Elastic Constant Matrix: (Units=GPa)
#
#
# Indices 1 2 3 4 5 6 
#
# 1 87.6140 13.2527 15.2999 -7.3928 4.0516 -20.0967
# 2 13.2527 55.6932 17.6036 -9.6999 -3.6760 -25.3918
# 3 15.2999 17.6036 114.0313 -17.5556 26.6852 -13.6790
# 4 -7.3928 -9.6999 -17.5556 21.5734 -5.8801 4.9821
# 5 4.0516 -3.6760 26.6852 -5.8801 22.5821 -7.4233
# 6 -20.0967 -25.3918 -13.6790 4.9821 -7.4233 40.4073
#
#
#
# Elastic Compliance Matrix: (Units=1/GPa)
#
#
# Indices 1 2 3 4 5 6 
#
# 1 0.013185 0.001024 -0.001152 0.003064 0.002208 0.006839
# 2 0.001024 0.033203 -0.006193 0.011346 0.022744 0.022057
# 3 -0.001152 -0.006193 0.014281 0.004421 -0.017650 -0.003417
# 4 0.003064 0.011346 0.004421 0.058423 0.013042 0.005342
# 5 0.002208 0.022744 -0.017650 0.013042 0.079190 0.022356
# 6 0.006839 0.022057 -0.003417 0.005342 0.022356 0.044301
#
#
# Mechanical properties :
#
#
# Convention : Reuss Voigt Hill
#
# Bulk Modulus (GPa) = 20.82146 38.85008 29.83577
# Shear Modulus (GPa) = 18.43425 30.99137 24.71281
#
# Velocity S-wave (km/s) = 2.94919 3.82394 3.41469
# Velocity P-wave (km/s) = 4.62829 6.15037 5.44280
#
# Compressibility (1/GPa) = 0.04802736
#
# Stress axis : x y z
#
# Youngs Moduli (GPa) = 75.84320 30.11797 70.02298
#
# Poissons Ratio (x) = -0.03084 0.08065
# Poissons Ratio (y) = -0.07766 0.43365
# Poissons Ratio (z) = 0.08736 0.18652
#
# Static dielectric constant tensor:
#      x y z
#    x 3.918340 -0.101540 0.084660 
#    y -0.101540 3.646040 -0.276760 
#    z 0.084660 -0.276760 3.814540 
# 
# 
# High freq. dielectric constant tensor:
#      x y z
#    x 1.840510 -0.007320 0.003640 
#    y -0.007320 1.791650 -0.026450 
#    z 0.003640 -0.026450 1.831610 
# 
# From -- ./inp_files/263558.got.cif
#   From: 2010.06.25/outbox.cif.g09.slc.cpg/sg2_132_cif.got.tgz:263558.got - 2010.06.27 13:26:56.
