data_PCOD8039077
_publ_section_title
;
Structure prediction by ZEFSAII (Michael W. Deem and Ramdas Pophale) SiO2 
 PCOD8039077
Probable space group: P -1
;
_chemical_formula_sum "Si O2"
_cell_formula_units_Z 16
_cell_length_a 15.814938
_cell_length_b 7.110103
_cell_length_c 9.022347
_cell_angle_alpha 91.984714
_cell_angle_beta 69.553542
_cell_angle_gamma 61.127421
_cell_volume 806.485168
_symmetry_space_group_name_H-M "P -1"
_symmetry_group_IT_number 2
_symmetry_cell_setting 'triclinic'
loop_
_space_group_symop_operation_xyz
x,y,z
-x,-y,-z
loop_
_atom_site_type_symbol
_atom_site_label
_atom_site_fract_x
_atom_site_fract_y
_atom_site_fract_z
Si Si1 0.842423 0.184389 0.365153
Si Si2 0.740170 0.077274 0.928763
Si Si3 0.657491 0.316174 0.283750
Si Si4 0.104209 0.254805 0.557873
Si Si5 0.973359 0.746613 0.706720
Si Si6 0.308404 0.582104 0.275377
Si Si7 0.679763 0.858190 0.722250
Si Si8 0.444388 0.724279 0.369556
O O1 0.759976 0.313899 0.285317
O O2 0.794296 0.303372 0.553897
O O3 0.951094 0.175009 0.272129
O O4 0.862472 0.938156 0.348919
O O5 0.726814 0.290023 0.855892
O O6 0.863642 0.886390 0.866287
O O7 0.679666 0.978357 0.876240
O O8 0.689141 0.150822 0.122721
O O9 0.571795 0.569327 0.295990
O O10 0.607082 0.233581 0.435089
O O11 0.044615 0.214373 0.458082
O O12 0.206673 0.251420 0.431913
O O13 0.026435 0.484475 0.695868
O O14 0.347698 0.325255 0.223366
O O15 0.402982 0.597925 0.290075
O O16 0.411659 0.960076 0.325269
#
# Coordination Sequence:
#
# PCOD8039077 Si02
#       8
#     2   2   2   2   2   2   2   2
#     4  11  19  35  58  81 111 151 191 222 263 334
#     4  10  22  37  53  86 120 144 178 234 286 323
#     4  10  21  40  59  78 117 150 180 230 285 335
#     4  10  18  32  55  87 110 139 190 230 263 321
#     4  10  20  31  57  82 113 147 185 227 272 320
#     4  10  19  35  60  87 109 143 193 233 268 326
#     4  10  18  36  60  86 111 142 190 236 268 324
#     4   9  20  41  62  79 105 151 191 229 277 328
#
# _framework density 19.839175000000001
#
# number of rings (size 3 to 8) (size 9 to 14) (size 15 to 20)
#    0.000    2.000    6.250    0.375    0.000    2.500 
#    0.000   13.750    0.000    0.000    0.000    0.000 
#    0.000    0.000    0.000    0.000    0.000    0.000 
#
# Total GULP energy -198413.877517 kJ/mol
# GULP energy per Si atom -12400.867345 kJ/mol
# Density = 1.979402 g / cm^3
# Si number density = 19.839175 Si / 1000 Ang^3
#
#
#
# Elastic Constant Matrix: (Units=GPa)
#
#
# Indices 1 2 3 4 5 6 
#
# 1 81.8727 47.0226 32.1001 5.5808 -2.0399 -20.8998
# 2 47.0226 125.8400 34.1004 24.9210 2.4425 0.3840
# 3 32.1001 34.1004 101.4444 15.5065 9.6899 -8.2843
# 4 5.5808 24.9210 15.5065 13.3721 -3.8239 -4.9742
# 5 -2.0399 2.4425 9.6899 -3.8239 14.0402 6.3705
# 6 -20.8998 0.3840 -8.2843 -4.9742 6.3705 28.8726
#
#
#
# Elastic Compliance Matrix: (Units=1/GPa)
#
#
# Indices 1 2 3 4 5 6 
#
# 1 0.029436 -0.017663 -0.009989 0.045376 0.016203 0.022919
# 2 -0.017663 0.024739 0.006716 -0.058458 -0.019759 -0.016899
# 3 -0.009989 0.006716 0.018680 -0.038177 -0.024487 -0.003135
# 4 0.045376 -0.058458 -0.038177 0.252189 0.090896 0.046061
# 5 0.016203 -0.019759 -0.024487 0.090896 0.121474 -0.006177
# 6 0.022919 -0.016899 -0.003135 0.046061 -0.006177 0.059849
#
#
# Mechanical properties :
#
#
# Convention : Reuss Voigt Hill
#
# Bulk Modulus (GPa) = 32.27619 59.51147 45.89383
# Shear Modulus (GPa) = 8.95149 24.31924 16.63537
#
# Velocity S-wave (km/s) = 2.12646 3.50497 2.89885
# Velocity P-wave (km/s) = 4.72582 6.81482 5.86409
#
# Compressibility (1/GPa) = 0.03098259
#
# Stress axis : x y z
#
# Youngs Moduli (GPa) = 33.97147 40.42256 53.53462
#
# Poissons Ratio (x) = 0.71399 0.53477
# Poissons Ratio (y) = 0.60004 -0.35955
# Poissons Ratio (z) = 0.33935 -0.27149
#
# Static dielectric constant tensor:
#      x y z
#    x 3.621500 -0.297860 -0.022760 
#    y -0.297860 3.618120 0.175580 
#    z -0.022760 0.175580 3.270920 
# 
# 
# High freq. dielectric constant tensor:
#      x y z
#    x 1.771970 -0.020250 -0.003180 
#    y -0.020250 1.768780 0.018440 
#    z -0.003180 0.018440 1.743460 
# 
# From -- ./inp_files/458888.got.cif
#   From: 2010.06.25/outbox.cif.g09.slc.cpg/sg2_230_cif.got.tgz:458888.got - 2010.06.27 13:26:56.
