data_PCOD8039976
_publ_section_title
;
Structure prediction by ZEFSAII (Michael W. Deem and Ramdas Pophale) SiO2 
 PCOD8039976
Probable space group: P -1
;
_chemical_formula_sum "Si O2"
_cell_formula_units_Z 16
_cell_length_a 10.130662
_cell_length_b 14.685436
_cell_length_c 9.269098
_cell_angle_alpha 93.744348
_cell_angle_beta 102.066970
_cell_angle_gamma 138.683837
_cell_volume 835.862748
_symmetry_space_group_name_H-M "P -1"
_symmetry_group_IT_number 2
_symmetry_cell_setting 'triclinic'
loop_
_space_group_symop_operation_xyz
x,y,z
-x,-y,-z
loop_
_atom_site_type_symbol
_atom_site_label
_atom_site_fract_x
_atom_site_fract_y
_atom_site_fract_z
Si Si1 0.777103 0.373866 0.023415
Si Si2 0.498616 0.287486 0.558443
Si Si3 0.992477 0.771376 0.632011
Si Si4 0.373619 0.272315 0.945740
Si Si5 0.343832 0.304539 0.257523
Si Si6 0.018687 0.448526 0.359620
Si Si7 0.669399 0.632821 0.310326
Si Si8 0.626805 0.896600 0.242237
O O1 0.637455 0.394388 0.010082
O O2 0.826592 0.367016 0.195201
O O3 0.617799 0.216905 0.888473
O O4 0.000000 0.500000 0.000000
O O5 0.403516 0.252253 0.372451
O O6 0.752050 0.400601 0.637686
O O7 0.481224 0.371014 0.652741
O O8 0.378543 0.140089 0.595716
O O9 0.844424 0.731472 0.724223
O O10 0.996352 0.665425 0.618901
O O11 0.902423 0.757446 0.455301
O O12 0.236303 0.938572 0.721855
O O13 0.276230 0.227793 0.079608
O O14 0.312371 0.333140 0.851959
O O15 0.257965 0.123601 0.827389
O O16 0.561560 0.477928 0.297109
O O17 0.000000 0.500000 0.500000
#
# Coordination Sequence:
#
# PCOD8039976 Si02
#       8
#     2   2   2   2   2   2   2   2
#     4  10  20  39  63  79 114 160 195 232 281 350
#     4  10  18  37  59  85 113 153 195 227 296 347
#     4  11  23  37  60  88 118 153 192 242 292 341
#     4   9  21  35  58  91 118 150 193 232 295 339
#     4  11  19  34  60  91 121 146 193 242 284 352
#     4  12  22  38  64  85 110 153 202 245 280 340
#     4  10  18  35  60  86 120 146 193 238 288 347
#     4   9  22  39  56  89 115 157 195 225 302 344
#
# _framework density 19.141898000000001
#
# number of rings (size 3 to 8) (size 9 to 14) (size 15 to 20)
#    0.750    1.000    3.750    1.875    0.000    5.500 
#    0.000    0.625    0.000    0.000    0.000    0.000 
#    0.000    0.000    0.000    0.000    0.000    0.000 
#
# Total GULP energy -198266.388376 kJ/mol
# GULP energy per Si atom -12391.649273 kJ/mol
# Density = 1.909833 g / cm^3
# Si number density = 19.141898 Si / 1000 Ang^3
#
#
#
# Elastic Constant Matrix: (Units=GPa)
#
#
# Indices 1 2 3 4 5 6 
#
# 1 69.7607 36.4344 48.5541 2.1054 4.7449 -4.1808
# 2 36.4344 96.7904 43.0384 7.4382 -6.8197 2.5481
# 3 48.5541 43.0384 157.6025 -18.3290 3.2270 1.8862
# 4 2.1054 7.4382 -18.3290 23.2617 1.7572 6.6878
# 5 4.7449 -6.8197 3.2270 1.7572 23.5076 3.8733
# 6 -4.1808 2.5481 1.8862 6.6878 3.8733 14.1377
#
#
#
# Elastic Compliance Matrix: (Units=1/GPa)
#
#
# Indices 1 2 3 4 5 6 
#
# 1 0.024138 -0.006246 -0.006877 -0.009572 -0.007628 0.015799
# 2 -0.006246 0.015094 -0.003036 -0.006289 0.007040 -0.003116
# 3 -0.006877 -0.003036 0.010892 0.012753 -0.000485 -0.008840
# 4 -0.009572 -0.006289 0.012753 0.065844 -0.000914 -0.034296
# 5 -0.007628 0.007040 -0.000485 -0.000914 0.048965 -0.016443
# 6 0.015799 -0.003116 -0.008840 -0.034296 -0.016443 0.097874
#
#
# Mechanical properties :
#
#
# Convention : Reuss Voigt Hill
#
# Bulk Modulus (GPa) = 56.16092 64.46745 60.31418
# Shear Modulus (GPa) = 16.60797 25.25652 20.93225
#
# Velocity S-wave (km/s) = 2.94874 3.63635 3.31044
# Velocity P-wave (km/s) = 6.40284 7.16816 6.79628
#
# Compressibility (1/GPa) = 0.01780598
#
# Stress axis : x y z
#
# Youngs Moduli (GPa) = 41.42896 66.25102 91.81372
#
# Poissons Ratio (x) = 0.41381 0.63138
# Poissons Ratio (y) = 0.25877 0.27874
# Poissons Ratio (z) = 0.28490 0.20113
#
# Static dielectric constant tensor:
#      x y z
#    x 3.020670 -0.065880 0.285530 
#    y -0.065880 3.210310 -0.090120 
#    z 0.285530 -0.090120 3.696920 
# 
# 
# High freq. dielectric constant tensor:
#      x y z
#    x 1.720820 0.003400 0.005580 
#    y 0.003400 1.717750 -0.008180 
#    z 0.005580 -0.008180 1.760410 
# 
# From -- ./inp_files/267689.got.cif
#   From: 2010.06.25/outbox.cif.g09.slc.cpg/sg2_134_cif.got.tgz:267689.got - 2010.06.27 13:26:56.
