data_PCOD8039055
_publ_section_title
;
Structure prediction by ZEFSAII (Michael W. Deem and Ramdas Pophale) SiO2 
 PCOD8039055
Probable space group: P -1
;
_chemical_formula_sum "Si O2"
_cell_formula_units_Z 14
_cell_length_a 11.601714
_cell_length_b 18.282556
_cell_length_c 7.411206
_cell_angle_alpha 127.043844
_cell_angle_beta 91.006239
_cell_angle_gamma 126.925277
_cell_volume 806.375058
_symmetry_space_group_name_H-M "P -1"
_symmetry_group_IT_number 2
_symmetry_cell_setting 'triclinic'
loop_
_space_group_symop_operation_xyz
x,y,z
-x,-y,-z
loop_
_atom_site_type_symbol
_atom_site_label
_atom_site_fract_x
_atom_site_fract_y
_atom_site_fract_z
Si Si1 0.326189 0.949283 0.365046
Si Si2 0.669658 0.044135 0.015198
Si Si3 0.044332 0.785646 0.417407
Si Si4 0.551347 0.550773 0.784588
Si Si5 0.596068 0.829491 0.491291
Si Si6 0.330575 0.516200 0.019631
Si Si7 0.136804 0.145737 0.612145
O O1 0.160534 0.831364 0.314880
O O2 0.500000 0.000000 0.500000
O O3 0.261714 0.876163 0.057402
O O4 0.380688 0.090656 0.565785
O O5 0.167773 0.848595 0.686292
O O6 0.612929 0.902130 0.780214
O O7 0.500000 0.000000 0.000000
O O8 0.967650 0.841853 0.488492
O O9 0.884530 0.614893 0.174618
O O10 0.500000 0.500000 0.500000
O O11 0.592266 0.482744 0.793934
O O12 0.390071 0.501546 0.814961
O O13 0.728012 0.722940 0.048033
O O14 0.400788 0.663313 0.236700
O O15 0.750030 0.845413 0.514337
O O16 0.000000 0.000000 0.500000
#
# Coordination Sequence:
#
# PCOD8039055 Si02
#       7
#     2   2   2   2   2   2   2
#     4  10  20  38  59  77 106 149 191 235 284 323
#     4  10  21  37  59  82 103 149 198 231 281 330
#     4  11  20  35  61  81 117 146 184 239 276 342
#     4   9  19  34  54  75 120 161 179 219 274 343
#     4   9  20  37  55  82 117 144 186 230 282 337
#     4   9  20  36  51  84 115 148 185 228 285 327
#     4  10  18  32  54  88 114 143 184 223 279 330
#
# _framework density 17.361647000000001
#
# number of rings (size 3 to 8) (size 9 to 14) (size 15 to 20)
#    0.857    1.429    2.857    0.857    0.000    5.143 
#    0.000    2.857    0.000    1.714    0.000    0.000 
#    0.000    0.000    0.000    0.000    0.000    0.000 
#
# Total GULP energy -173490.180141 kJ/mol
# GULP energy per Si atom -12392.155724 kJ/mol
# Density = 1.732213 g / cm^3
# Si number density = 17.361647 Si / 1000 Ang^3
#
#
#
# Elastic Constant Matrix: (Units=GPa)
#
#
# Indices 1 2 3 4 5 6 
#
# 1 92.9781 34.6272 43.9927 -2.7077 17.6668 19.6499
# 2 34.6272 121.0522 75.7603 1.2798 11.0535 14.9005
# 3 43.9927 75.7603 121.2051 1.0370 15.1776 10.9127
# 4 -2.7077 1.2798 1.0370 47.5517 -0.2876 2.4402
# 5 17.6668 11.0535 15.1776 -0.2876 27.0822 -3.7516
# 6 19.6499 14.9005 10.9127 2.4402 -3.7516 21.8574
#
#
#
# Elastic Compliance Matrix: (Units=1/GPa)
#
#
# Indices 1 2 3 4 5 6 
#
# 1 0.018529 0.000356 -0.003844 0.001944 -0.012460 -0.017337
# 2 0.000356 0.014284 -0.008188 0.000128 -0.002357 -0.006389
# 3 -0.003844 -0.008188 0.014955 -0.000401 -0.002368 0.001209
# 4 0.001944 0.000128 -0.000401 0.021356 -0.001460 -0.004269
# 5 -0.012460 -0.002357 -0.002368 -0.001460 0.050488 0.022820
# 6 -0.017337 -0.006389 0.001209 -0.004269 0.022820 0.069482
#
#
# Mechanical properties :
#
#
# Convention : Reuss Voigt Hill
#
# Bulk Modulus (GPa) = 40.95502 71.55508 56.25505
# Shear Modulus (GPa) = 22.66709 31.35528 27.01118
#
# Velocity S-wave (km/s) = 3.61721 4.25433 3.94864
# Velocity P-wave (km/s) = 6.40985 8.08927 7.29803
#
# Compressibility (1/GPa) = 0.02441703
#
# Stress axis : x y z
#
# Youngs Moduli (GPa) = 53.96869 70.00901 66.86766
#
# Poissons Ratio (x) = -0.02496 0.25701
# Poissons Ratio (y) = -0.01924 0.54754
# Poissons Ratio (z) = 0.20743 0.57326
#
# Static dielectric constant tensor:
#      x y z
#    x 3.243950 0.052110 0.006350 
#    y 0.052110 3.300610 0.140140 
#    z 0.006350 0.140140 3.137320 
# 
# 
# High freq. dielectric constant tensor:
#      x y z
#    x 1.667070 0.005990 0.004250 
#    y 0.005990 1.671510 0.008170 
#    z 0.004250 0.008170 1.657580 
# 
# From -- ./inp_files/63322.got.cif
#   From: 2010.06.25/outbox.cif.g09.slc.cpg/sg2_32_cif.got.tgz:63322.got - 2010.06.27 13:26:56.
