data_PCOD8039273
_publ_section_title
;
Structure prediction by ZEFSAII (Michael W. Deem and Ramdas Pophale) SiO2 
 PCOD8039273
Probable space group: P -1
;
_chemical_formula_sum "Si O2"
_cell_formula_units_Z 16
_cell_length_a 11.703774
_cell_length_b 22.984532
_cell_length_c 9.041583
_cell_angle_alpha 145.386774
_cell_angle_beta 67.856115
_cell_angle_gamma 136.344922
_cell_volume 791.916897
_symmetry_space_group_name_H-M "P -1"
_symmetry_group_IT_number 2
_symmetry_cell_setting 'triclinic'
loop_
_space_group_symop_operation_xyz
x,y,z
-x,-y,-z
loop_
_atom_site_type_symbol
_atom_site_label
_atom_site_fract_x
_atom_site_fract_y
_atom_site_fract_z
Si Si1 0.307012 0.286746 0.252090
Si Si2 0.653116 0.261810 0.945597
Si Si3 0.263438 0.966907 0.343059
Si Si4 0.026307 0.627867 0.823655
Si Si5 0.378571 0.555855 0.810131
Si Si6 0.580356 0.334985 0.416139
Si Si7 0.004099 0.046051 0.430165
Si Si8 0.602484 0.786772 0.443168
O O1 0.247944 0.367456 0.474485
O O2 0.411784 0.334247 0.141862
O O3 0.450703 0.344372 0.434930
O O4 0.101695 0.091973 0.933090
O O5 0.476702 0.095309 0.589122
O O6 0.840162 0.304617 0.951084
O O7 0.727942 0.419343 0.170415
O O8 0.579482 0.239600 0.102168
O O9 0.108852 0.919169 0.434342
O O10 0.295693 0.049912 0.348794
O O11 0.158582 0.789239 0.991496
O O12 0.000000 0.500000 0.500000
O O13 0.802619 0.524142 0.740715
O O14 0.421787 0.620305 0.090027
O O15 0.481963 0.229688 0.394462
O O16 0.233595 0.196905 0.580408
O O17 0.000000 0.000000 0.500000
#
# Coordination Sequence:
#
# PCOD8039273 Si02
#       8
#     2   2   2   2   2   2   2   2
#     4  10  18  33  55  81 118 152 183 226 275 344
#     4   9  18  39  58  81 108 153 199 234 270 336
#     4  10  19  38  60  81 108 153 196 228 273 346
#     4  10  22  37  61  82 109 149 197 234 282 336
#     4   9  18  33  56  80 115 151 186 226 277 335
#     4  10  21  37  54  88 122 143 184 241 285 327
#     4  10  18  33  55  82 109 150 187 220 274 348
#     4  10  21  35  56  87 121 146 186 230 288 334
#
# _framework density 20.204141
#
# number of rings (size 3 to 8) (size 9 to 14) (size 15 to 20)
#    0.000    2.250    5.000    0.375    1.750    6.000 
#    0.000    5.000    0.000    0.000    0.000    0.000 
#    0.000    0.000    0.000    0.000    0.000    0.000 
#
# Total GULP energy -198232.248999 kJ/mol
# GULP energy per Si atom -12389.515562 kJ/mol
# Density = 2.015816 g / cm^3
# Si number density = 20.204141 Si / 1000 Ang^3
#
#
#
# Elastic Constant Matrix: (Units=GPa)
#
#
# Indices 1 2 3 4 5 6 
#
# 1 87.4851 24.8776 36.3429 4.0790 20.4578 -12.4153
# 2 24.8776 83.8071 35.4617 -6.1170 8.5660 -8.3766
# 3 36.3429 35.4617 90.6678 6.6788 -2.6172 -12.2473
# 4 4.0790 -6.1170 6.6788 21.7442 -4.8154 -0.6640
# 5 20.4578 8.5660 -2.6172 -4.8154 36.2412 6.3156
# 6 -12.4153 -8.3766 -12.2473 -0.6640 6.3156 13.9232
#
#
#
# Elastic Compliance Matrix: (Units=1/GPa)
#
#
# Indices 1 2 3 4 5 6 
#
# 1 0.020841 -0.000552 -0.005426 -0.005386 -0.016337 0.020633
# 2 -0.000552 0.015985 -0.005718 0.005612 -0.004229 0.006281
# 3 -0.005426 -0.005718 0.016444 -0.004568 0.004294 0.004021
# 4 -0.005386 0.005612 -0.004568 0.051873 0.009549 -0.007302
# 5 -0.016337 -0.004229 0.004294 0.009549 0.045212 -0.033388
# 6 0.020633 0.006281 0.004021 -0.007302 -0.033388 0.112333
#
#
# Mechanical properties :
#
#
# Convention : Reuss Voigt Hill
#
# Bulk Modulus (GPa) = 33.46793 50.59159 42.02976
# Shear Modulus (GPa) = 16.88970 25.40024 21.14497
#
# Velocity S-wave (km/s) = 2.89442 3.54952 3.23858
# Velocity P-wave (km/s) = 5.26983 6.47251 5.90188
#
# Compressibility (1/GPa) = 0.02987935
#
# Stress axis : x y z
#
# Youngs Moduli (GPa) = 47.98248 62.55871 60.81230
#
# Poissons Ratio (x) = 0.03451 0.32996
# Poissons Ratio (y) = 0.02647 0.34772
# Poissons Ratio (z) = 0.26034 0.35770
#
# Static dielectric constant tensor:
#      x y z
#    x 4.186860 0.043270 0.289920 
#    y 0.043270 3.268690 0.072430 
#    z 0.289920 0.072430 3.717270 
# 
# 
# High freq. dielectric constant tensor:
#      x y z
#    x 1.794690 -0.011710 0.016450 
#    y -0.011710 1.734850 0.001140 
#    z 0.016450 0.001140 1.785990 
# 
# From -- ./inp_files/211881.got.cif
#   From: 2010.06.25/outbox.cif.g09.slc.cpg/sg2_106_cif.got.tgz:211881.got - 2010.06.27 13:26:56.
