data_PCOD8039239
_publ_section_title
;
Structure prediction by ZEFSAII (Michael W. Deem and Ramdas Pophale) SiO2 
 PCOD8039239
Probable space group: P -1
;
_chemical_formula_sum "Si O2"
_cell_formula_units_Z 16
_cell_length_a 14.457412
_cell_length_b 9.516217
_cell_length_c 8.684979
_cell_angle_alpha 90.607117
_cell_angle_beta 129.341761
_cell_angle_gamma 106.024293
_cell_volume 860.057150
_symmetry_space_group_name_H-M "P -1"
_symmetry_group_IT_number 2
_symmetry_cell_setting 'triclinic'
loop_
_space_group_symop_operation_xyz
x,y,z
-x,-y,-z
loop_
_atom_site_type_symbol
_atom_site_label
_atom_site_fract_x
_atom_site_fract_y
_atom_site_fract_z
Si Si1 0.534058 0.580636 0.698034
Si Si2 0.032553 0.917493 0.675396
Si Si3 0.608084 0.271544 0.268582
Si Si4 0.501991 0.702085 0.167325
Si Si5 0.416537 0.962124 0.138092
Si Si6 0.783853 0.884122 0.550180
Si Si7 0.782552 0.143279 0.331630
Si Si8 0.252747 0.098804 0.131109
O O1 0.500000 0.500000 0.500000
O O2 0.406791 0.614485 0.616836
O O3 0.566510 0.468343 0.847732
O O4 0.659385 0.732150 0.824942
O O5 0.100184 0.807574 0.669148
O O6 0.900723 0.828208 0.626847
O O7 0.000000 0.000000 0.500000
O O8 0.127630 0.042647 0.890838
O O9 0.754306 0.288962 0.373300
O O10 0.550789 0.101180 0.271045
O O11 0.523756 0.295072 0.039647
O O12 0.444882 0.811096 0.201605
O O13 0.653629 0.753334 0.358976
O O14 0.332115 0.988363 0.189031
O O15 0.345928 0.954223 0.899348
O O16 0.789158 0.910143 0.737642
O O17 0.805796 0.042656 0.491327
#
# Coordination Sequence:
#
# PCOD8039239 Si02
#       8
#     2   2   2   2   2   2   2   2
#     4  11  23  34  48  81 118 142 166 210 271 329
#     4   9  20  34  55  81 101 135 184 232 255 294
#     4  10  18  33  54  75 109 138 177 218 261 314
#     4  11  19  33  52  84 107 142 171 214 270 321
#     4   9  17  31  54  77 107 133 178 222 259 311
#     4  11  18  30  55  80 110 131 179 216 267 304
#     4   9  16  32  52  79  99 134 174 226 259 299
#     4  10  21  35  52  80 111 142 173 215 266 314
#
# _framework density 18.603414000000001
#
# number of rings (size 3 to 8) (size 9 to 14) (size 15 to 20)
#    0.000    2.000    3.750    1.500    1.750    1.500 
#    0.000    0.000    0.000    0.750    9.750   12.250 
#    0.000    0.000    0.000    0.000    0.000    0.000 
#
# Total GULP energy -198266.612502 kJ/mol
# GULP energy per Si atom -12391.663281 kJ/mol
# Density = 1.856107 g / cm^3
# Si number density = 18.603414 Si / 1000 Ang^3
#
#
#
# Elastic Constant Matrix: (Units=GPa)
#
#
# Indices 1 2 3 4 5 6 
#
# 1 176.9059 53.9527 55.0040 -2.4292 -2.4226 -20.7742
# 2 53.9527 83.1472 17.4681 -8.4546 2.2071 -13.6835
# 3 55.0040 17.4681 71.0106 2.7878 3.0374 -1.7310
# 4 -2.4292 -8.4546 2.7878 16.8361 0.5842 -1.2212
# 5 -2.4226 2.2071 3.0374 0.5842 30.0446 1.0941
# 6 -20.7742 -13.6835 -1.7310 -1.2212 1.0941 27.9499
#
#
#
# Elastic Compliance Matrix: (Units=1/GPa)
#
#
# Indices 1 2 3 4 5 6 
#
# 1 0.009390 -0.003989 -0.006270 0.000672 0.001503 0.004609
# 2 -0.003989 0.016677 -0.001132 0.008453 -0.001799 0.005570
# 3 -0.006270 -0.001132 0.019401 -0.004912 -0.002137 -0.004144
# 4 0.000672 0.008453 -0.004912 0.065132 -0.001600 0.007242
# 5 0.001503 -0.001799 -0.002137 -0.001600 0.033831 -0.001290
# 6 0.004609 0.005570 -0.004144 0.007242 -0.001290 0.042041
#
#
# Mechanical properties :
#
#
# Convention : Reuss Voigt Hill
#
# Bulk Modulus (GPa) = 44.08072 64.87927 54.47999
# Shear Modulus (GPa) = 23.06104 28.60869 25.83487
#
# Velocity S-wave (km/s) = 3.52463 3.92576 3.73059
# Velocity P-wave (km/s) = 6.34905 7.44979 6.92134
#
# Compressibility (1/GPa) = 0.02268566
#
# Stress axis : x y z
#
# Youngs Moduli (GPa) = 106.49862 59.96396 51.54356
#
# Poissons Ratio (x) = 0.23918 0.32320
# Poissons Ratio (y) = 0.42479 0.05834
# Poissons Ratio (z) = 0.66779 0.06787
#
# Static dielectric constant tensor:
#      x y z
#    x 4.163460 -0.216280 0.078030 
#    y -0.216280 3.267080 -0.080510 
#    z 0.078030 -0.080510 3.307820 
# 
# 
# High freq. dielectric constant tensor:
#      x y z
#    x 1.745740 -0.017240 -0.010730 
#    y -0.017240 1.679820 -0.013510 
#    z -0.010730 -0.013510 1.707600 
# 
# From -- ./inp_files/177810.got.cif
#   From: 2010.06.25/outbox.cif.g09.slc.cpg/sg2_89_cif.got.tgz:177810.got - 2010.06.27 13:26:56.
