data_PCOD8039597
_publ_section_title
;
Structure prediction by ZEFSAII (Michael W. Deem and Ramdas Pophale) SiO2 
 PCOD8039597
Probable space group: P -1
;
_chemical_formula_sum "Si O2"
_cell_formula_units_Z 12
_cell_length_a 11.478091
_cell_length_b 9.211084
_cell_length_c 12.574778
_cell_angle_alpha 130.587907
_cell_angle_beta 65.542051
_cell_angle_gamma 140.803086
_cell_volume 626.698080
_symmetry_space_group_name_H-M "P -1"
_symmetry_group_IT_number 2
_symmetry_cell_setting 'triclinic'
loop_
_space_group_symop_operation_xyz
x,y,z
-x,-y,-z
loop_
_atom_site_type_symbol
_atom_site_label
_atom_site_fract_x
_atom_site_fract_y
_atom_site_fract_z
Si Si1 0.157912 0.154997 0.374807
Si Si2 0.191227 0.172547 0.141290
Si Si3 0.802222 0.585129 0.946093
Si Si4 0.503491 0.223739 0.070798
Si Si5 0.037122 0.617417 0.160207
Si Si6 0.230687 0.375974 0.668917
O O1 0.216407 0.304181 0.309158
O O2 0.282615 0.387276 0.531676
O O3 0.187436 0.956307 0.260345
O O4 0.935902 0.951801 0.387562
O O5 0.267967 0.399331 0.130264
O O6 0.300258 0.088217 0.054200
O O7 0.970022 0.893166 0.079161
O O8 0.877117 0.453395 0.831751
O O9 0.631951 0.390857 0.999045
O O10 0.586085 0.444544 0.241352
O O11 0.500000 0.000000 0.000000
O O12 0.843462 0.485554 0.221942
O O13 0.000000 0.500000 0.000000
#
# Coordination Sequence:
#
# PCOD8039597 Si02
#       6
#     2   2   2   2   2   2
#     4   9  18  36  58  82 111 150 186 232 279 330
#     4  11  22  34  58  81 119 154 176 232 294 329
#     4  11  21  37  53  87 118 144 188 233 281 337
#     4  12  22  35  61  88 112 144 195 239 271 330
#     4  10  14  31  60  80 105 144 188 229 267 320
#     4   9  19  34  60  84 111 141 195 235 275 324
#
# _framework density 19.147977999999998
#
# number of rings (size 3 to 8) (size 9 to 14) (size 15 to 20)
#    1.000    0.667    5.000    2.500    0.000    0.667 
#    0.000    0.833    0.000    2.000    0.000    0.000 
#    0.000    0.000    0.000    0.000    0.000    0.000 
#
# Total GULP energy -148700.773553 kJ/mol
# GULP energy per Si atom -12391.731129 kJ/mol
# Density = 1.910440 g / cm^3
# Si number density = 19.147978 Si / 1000 Ang^3
#
#
#
# Elastic Constant Matrix: (Units=GPa)
#
#
# Indices 1 2 3 4 5 6 
#
# 1 94.2918 26.4194 35.2546 -17.2349 5.2984 -19.5479
# 2 26.4194 82.9080 33.5113 -27.2252 13.3640 -16.7159
# 3 35.2546 33.5113 135.6702 -24.1396 6.0135 -21.9187
# 4 -17.2349 -27.2252 -24.1396 28.5817 -4.9496 6.4248
# 5 5.2984 13.3640 6.0135 -4.9496 20.9888 -4.7578
# 6 -19.5479 -16.7159 -21.9187 6.4248 -4.7578 29.7981
#
#
#
# Elastic Compliance Matrix: (Units=1/GPa)
#
#
# Indices 1 2 3 4 5 6 
#
# 1 0.013567 -0.000960 -0.001447 0.004647 0.000128 0.006316
# 2 -0.000960 0.020017 -0.000740 0.015329 -0.007415 0.005567
# 3 -0.001447 -0.000740 0.009652 0.005618 0.000437 0.004594
# 4 0.004647 0.015329 0.005618 0.056559 0.001668 0.003852
# 5 0.000128 -0.007415 0.000437 0.001668 0.053609 0.004446
# 6 0.006316 0.005567 0.004594 0.003852 0.004446 0.044084
#
#
# Mechanical properties :
#
#
# Convention : Reuss Voigt Hill
#
# Bulk Modulus (GPa) = 27.06790 55.91561 41.49175
# Shear Modulus (GPa) = 23.13798 30.38604 26.76201
#
# Velocity S-wave (km/s) = 3.47994 3.98792 3.74256
# Velocity P-wave (km/s) = 5.50577 7.10422 6.35545
#
# Compressibility (1/GPa) = 0.03694413
#
# Stress axis : x y z
#
# Youngs Moduli (GPa) = 73.70946 49.95636 103.60664
#
# Poissons Ratio (x) = 0.04794 0.14990
# Poissons Ratio (y) = 0.07073 0.07663
# Poissons Ratio (z) = 0.10664 0.03695
#
# Static dielectric constant tensor:
#      x y z
#    x 3.596930 -0.049190 0.061140 
#    y -0.049190 3.425670 -0.144040 
#    z 0.061140 -0.144040 3.428780 
# 
# 
# High freq. dielectric constant tensor:
#      x y z
#    x 1.726040 0.011330 0.004440 
#    y 0.011330 1.729520 -0.016370 
#    z 0.004440 -0.016370 1.735110 
# 
# From -- ./inp_files/418121.got.cif
#   From: 2010.06.25/outbox.cif.g09.slc.cpg/sg2_210_cif.got.tgz:418121.got - 2010.06.27 13:26:56.
