data_PCOD8039841
_publ_section_title
;
Structure prediction by ZEFSAII (Michael W. Deem and Ramdas Pophale) SiO2 
 PCOD8039841
Probable space group: P -1
;
_chemical_formula_sum "Si O2"
_cell_formula_units_Z 16
_cell_length_a 8.504899
_cell_length_b 12.263757
_cell_length_c 12.388334
_cell_angle_alpha 43.422683
_cell_angle_beta 93.795359
_cell_angle_gamma 92.328526
_cell_volume 886.176591
_symmetry_space_group_name_H-M "P -1"
_symmetry_group_IT_number 2
_symmetry_cell_setting 'triclinic'
loop_
_space_group_symop_operation_xyz
x,y,z
-x,-y,-z
loop_
_atom_site_type_symbol
_atom_site_label
_atom_site_fract_x
_atom_site_fract_y
_atom_site_fract_z
Si Si1 0.580879 0.147467 0.455005
Si Si2 0.149976 0.616717 0.126999
Si Si3 0.742118 0.712654 0.679610
Si Si4 0.151876 0.889524 0.079060
Si Si5 0.911490 0.766065 0.854252
Si Si6 0.639386 0.116945 0.099650
Si Si7 0.806855 0.055882 0.363480
Si Si8 0.688170 0.005961 0.784149
O O1 0.448183 0.286567 0.345740
O O2 0.733996 0.175294 0.366464
O O3 0.634318 0.113649 0.603711
O O4 0.500000 0.000000 0.500000
O O5 0.185405 0.431917 0.283733
O O6 0.105012 0.709981 0.169099
O O7 0.007954 0.635017 0.020949
O O8 0.309222 0.697350 0.027262
O O9 0.786791 0.681257 0.830195
O O10 0.826624 0.876081 0.535454
O O11 0.241119 0.877784 0.205792
O O12 0.268076 0.963541 0.939647
O O13 0.000000 0.000000 0.000000
O O14 0.025956 0.877438 0.710128
O O15 0.821083 0.878960 0.851861
O O16 0.690468 0.035533 0.271916
O O17 0.453585 0.093181 0.097629
#
# Coordination Sequence:
#
# PCOD8039841 Si02
#       8
#     2   2   2   2   2   2   2   2
#     4  10  19  32  56  81 110 140 184 218 271 320
#     4   9  22  36  52  84 112 144 177 228 283 313
#     4  11  19  35  55  81 120 139 173 233 281 320
#     4  10  20  37  59  79 109 142 190 226 262 325
#     4  11  20  33  60  82 110 146 189 220 268 329
#     4   9  19  35  57  82 103 142 193 220 267 321
#     4  10  18  35  56  85 107 145 189 218 270 323
#     4  12  18  35  60  85 101 144 195 225 255 321
#
# _framework density 18.055091000000001
#
# number of rings (size 3 to 8) (size 9 to 14) (size 15 to 20)
#    0.750    1.000    6.250    1.125    0.000    0.000 
#    0.000    7.500    0.000    3.000    0.000    0.000 
#    0.000    0.000    0.000    0.000    0.000    0.000 
#
# Total GULP energy -198244.149763 kJ/mol
# GULP energy per Si atom -12390.259360 kJ/mol
# Density = 1.801400 g / cm^3
# Si number density = 18.055091 Si / 1000 Ang^3
#
#
#
# Elastic Constant Matrix: (Units=GPa)
#
#
# Indices 1 2 3 4 5 6 
#
# 1 106.4040 32.8126 40.4677 2.4752 6.8194 -19.9657
# 2 32.8126 96.4170 42.2507 10.0086 22.6567 -13.1965
# 3 40.4677 42.2507 60.4774 12.5529 20.2038 -7.7989
# 4 2.4752 10.0086 12.5529 34.3039 -3.5184 9.5451
# 5 6.8194 22.6567 20.2038 -3.5184 30.2003 7.7932
# 6 -19.9657 -13.1965 -7.7989 9.5451 7.7932 33.5562
#
#
#
# Elastic Compliance Matrix: (Units=1/GPa)
#
#
# Indices 1 2 3 4 5 6 
#
# 1 0.013871 -0.000777 -0.009383 0.001638 0.002714 0.004670
# 2 -0.000777 0.018453 -0.004014 -0.008693 -0.015048 0.011829
# 3 -0.009383 -0.004014 0.041416 -0.020428 -0.028819 0.014968
# 4 0.001638 -0.008693 -0.020428 0.050616 0.033281 -0.029319
# 5 0.002714 -0.015048 -0.028819 0.033281 0.076832 -0.038311
# 6 0.004670 0.011829 0.014968 -0.029319 -0.038311 0.057947
#
#
# Mechanical properties :
#
#
# Convention : Reuss Voigt Hill
#
# Bulk Modulus (GPa) = 22.03116 54.92893 38.48005
# Shear Modulus (GPa) = 16.52275 29.46323 22.99299
#
# Velocity S-wave (km/s) = 3.02839 4.04400 3.57247
# Velocity P-wave (km/s) = 4.94539 7.23148 6.19480
#
# Compressibility (1/GPa) = 0.04539025
#
# Stress axis : x y z
#
# Youngs Moduli (GPa) = 72.09497 54.19238 24.14544
#
# Poissons Ratio (x) = 0.04213 0.22655
# Poissons Ratio (y) = 0.05605 0.09693
# Poissons Ratio (z) = 0.67643 0.21755
#
# Static dielectric constant tensor:
#      x y z
#    x 3.679390 -0.147070 0.095250 
#    y -0.147070 3.263580 0.286460 
#    z 0.095250 0.286460 3.100200 
# 
# 
# High freq. dielectric constant tensor:
#      x y z
#    x 1.711500 -0.004750 0.015400 
#    y -0.004750 1.681820 0.025980 
#    z 0.015400 0.025980 1.671640 
# 
# From -- ./inp_files/386705.got.cif
#   From: 2010.06.25/outbox.cif.g09.slc.cpg/sg2_194_cif.got.tgz:386705.got - 2010.06.27 13:26:56.
