data_PCOD8039024
_publ_section_title
;
Structure prediction by ZEFSAII (Michael W. Deem and Ramdas Pophale) SiO2 
 PCOD8039024
Probable space group: P -1
;
_chemical_formula_sum "Si O2"
_cell_formula_units_Z 16
_cell_length_a 16.025411
_cell_length_b 12.675203
_cell_length_c 5.357759
_cell_angle_alpha 115.537630
_cell_angle_beta 131.685639
_cell_angle_gamma 55.252406
_cell_volume 665.401907
_symmetry_space_group_name_H-M "P -1"
_symmetry_group_IT_number 2
_symmetry_cell_setting 'triclinic'
loop_
_space_group_symop_operation_xyz
x,y,z
-x,-y,-z
loop_
_atom_site_type_symbol
_atom_site_label
_atom_site_fract_x
_atom_site_fract_y
_atom_site_fract_z
Si Si1 0.476033 0.146406 0.103331
Si Si2 0.132100 0.882307 0.145812
Si Si3 0.442292 0.227451 0.618733
Si Si4 0.780024 0.400937 0.937462
Si Si5 0.809102 0.773752 0.880822
Si Si6 0.637488 0.483078 0.237887
Si Si7 0.858336 0.023867 0.239765
Si Si8 0.810003 0.656397 0.262865
O O1 0.530863 0.177082 0.499847
O O2 0.530232 0.178758 0.988861
O O3 0.334130 0.249365 0.928614
O O4 0.500000 0.000000 0.000000
O O5 0.118624 0.746809 0.989932
O O6 0.204563 0.898163 0.552130
O O7 0.203969 0.892596 0.047951
O O8 0.000000 0.000000 0.000000
O O9 0.341126 0.166672 0.357329
O O10 0.358645 0.378764 0.604141
O O11 0.711483 0.405131 0.544641
O O12 0.690522 0.419231 0.013615
O O13 0.838301 0.504711 0.165627
O O14 0.867017 0.686755 0.659811
O O15 0.867165 0.687088 0.155752
O O16 0.848787 0.889503 0.076000
O O17 0.500000 0.500000 0.000000
O O18 0.000000 0.000000 0.500000
#
# Coordination Sequence:
#
# PCOD8039024 Si02
#       8
#     2   2   2   2   2   2   2   2
#     4  10  18  32  53  79 115 158 198 258 308 357
#     4  10  23  42  68  96 129 172 217 277 337 402
#     4  10  19  37  52  82 117 159 209 257 305 368
#     4  12  21  43  68  92 130 180 218 278 337 387
#     4  10  18  35  63  87 119 160 209 260 315 387
#     4  12  23  40  62  94 135 173 223 271 321 399
#     4  10  21  40  64  92 131 165 202 268 334 401
#     4  10  19  35  61  91 116 165 216 260 317 382
#
# _framework density 24.045617
#
# number of rings (size 3 to 8) (size 9 to 14) (size 15 to 20)
#    0.000    1.500    5.000    2.250    0.000    0.000 
#    0.000   15.000    0.000   18.000    0.000    0.000 
#    0.000    0.000    0.000    0.000    0.000    0.000 
#
# Total GULP energy -198241.909249 kJ/mol
# GULP energy per Si atom -12390.119328 kJ/mol
# Density = 2.399089 g / cm^3
# Si number density = 24.045617 Si / 1000 Ang^3
#
#
#
# Elastic Constant Matrix: (Units=GPa)
#
#
# Indices 1 2 3 4 5 6 
#
# 1 75.3035 44.5091 73.0079 -9.1429 -42.8589 39.8668
# 2 44.5091 192.7451 53.6170 26.3830 -22.2330 29.2098
# 3 73.0079 53.6170 115.2451 7.0080 -53.4982 37.6985
# 4 -9.1429 26.3830 7.0080 31.4678 22.8839 -0.1900
# 5 -42.8589 -22.2330 -53.4982 22.8839 74.0554 -12.9716
# 6 39.8668 29.2098 37.6985 -0.1900 -12.9716 33.5514
#
#
#
# Elastic Compliance Matrix: (Units=1/GPa)
#
#
# Indices 1 2 3 4 5 6 
#
# 1 0.085687 -0.006356 -0.033695 0.035748 0.002248 -0.057349
# 2 -0.006356 0.008522 0.005022 -0.014916 0.006583 -0.003049
# 3 -0.033695 0.005022 0.043374 -0.042516 0.025901 -0.003297
# 4 0.035748 -0.014916 -0.042516 0.096041 -0.043853 0.001869
# 5 0.002248 0.006583 0.025901 -0.043853 0.045512 -0.020157
# 6 -0.057349 -0.003049 -0.003297 0.001869 -0.020157 0.096525
#
#
# Mechanical properties :
#
#
# Convention : Reuss Voigt Hill
#
# Bulk Modulus (GPa) = 14.80975 80.61799 47.71387
# Shear Modulus (GPa) = 10.67856 41.95890 26.31873
#
# Velocity S-wave (km/s) = 2.10964 4.18182 3.31196
# Velocity P-wave (km/s) = 3.47944 7.54431 5.87466
#
# Compressibility (1/GPa) = 0.06752310
#
# Stress axis : x y z
#
# Youngs Moduli (GPa) = 11.67044 117.34276 23.05532
#
# Poissons Ratio (x) = 0.74588 0.77686
# Poissons Ratio (y) = 0.07418 -0.11579
# Poissons Ratio (z) = 0.39324 -0.58932
#
# Static dielectric constant tensor:
#      x y z
#    x 3.324840 -1.764680 1.195010 
#    y -1.764680 2.053220 3.939290 
#    z 1.195010 3.939290 0.453350 
# 
# 
# High freq. dielectric constant tensor:
#      x y z
#    x 1.938240 0.025600 -0.054080 
#    y 0.025600 1.954990 0.006970 
#    z -0.054080 0.006970 1.957910 
# 
# From -- ./inp_files/109403.got.cif
#   From: 2010.06.25/outbox.cif.g09.slc.cpg/sg2_55_cif.got.tgz:109403.got - 2010.06.27 13:26:56.
