data_PCOD8039134
_publ_section_title
;
Structure prediction by ZEFSAII (Michael W. Deem and Ramdas Pophale) SiO2 
 PCOD8039134
Probable space group: P -1
;
_chemical_formula_sum "Si O2"
_cell_formula_units_Z 16
_cell_length_a 18.483376
_cell_length_b 14.222277
_cell_length_c 10.177852
_cell_angle_alpha 122.969723
_cell_angle_beta 33.208379
_cell_angle_gamma 144.618533
_cell_volume 763.952052
_symmetry_space_group_name_H-M "P -1"
_symmetry_group_IT_number 2
_symmetry_cell_setting 'triclinic'
loop_
_space_group_symop_operation_xyz
x,y,z
-x,-y,-z
loop_
_atom_site_type_symbol
_atom_site_label
_atom_site_fract_x
_atom_site_fract_y
_atom_site_fract_z
Si Si1 0.612523 0.979394 0.732352
Si Si2 0.597278 0.478839 0.999417
Si Si3 0.011797 0.633154 0.534582
Si Si4 0.215810 0.082618 0.367749
Si Si5 0.047411 0.373854 0.880042
Si Si6 0.140876 0.983577 0.117655
Si Si7 0.526367 0.365985 0.729552
Si Si8 0.819424 0.332599 0.965434
O O1 0.695679 0.935194 0.664746
O O2 0.436036 0.817687 0.775287
O O3 0.814308 0.175061 0.506137
O O4 0.500000 0.000000 0.000000
O O5 0.788877 0.544783 0.832285
O O6 0.621699 0.468837 0.801311
O O7 0.377344 0.289353 0.247819
O O8 0.603621 0.615923 0.121126
O O9 0.000000 0.500000 0.500000
O O10 0.077493 0.672035 0.311159
O O11 0.997186 0.995670 0.678734
O O12 0.176910 0.985010 0.219841
O O13 0.276703 0.535991 0.585341
O O14 0.067562 0.469404 0.048401
O O15 0.981098 0.205482 0.899760
O O16 0.860655 0.294568 0.009161
O O17 0.365067 0.153757 0.832091
#
# Coordination Sequence:
#
# PCOD8039134 Si02
#       8
#     2   2   2   2   2   2   2   2
#     4  10  20  36  56  81 111 152 192 238 286 339
#     4  10  18  32  57  90 115 143 192 245 293 330
#     4  11  21  36  60  87 116 146 194 246 286 344
#     4  10  19  33  60  87 119 145 194 246 292 340
#     4  11  21  42  59  82 124 154 195 238 288 360
#     4  10  20  34  59  92 113 155 189 241 299 335
#     4  10  20  33  58  88 117 146 191 245 287 344
#     4  10  23  40  59  81 115 162 192 233 299 346
#
# _framework density 20.943724
#
# number of rings (size 3 to 8) (size 9 to 14) (size 15 to 20)
#    0.000    1.750    2.500    3.750    1.750    1.000 
#    2.250    1.875    0.000    1.500    0.000    0.000 
#    0.000    0.000    0.000    0.000    0.000    0.000 
#
# Total GULP energy -198346.117289 kJ/mol
# GULP energy per Si atom -12396.632331 kJ/mol
# Density = 2.089606 g / cm^3
# Si number density = 20.943724 Si / 1000 Ang^3
#
#
#
# Elastic Constant Matrix: (Units=GPa)
#
#
# Indices 1 2 3 4 5 6 
#
# 1 78.3940 25.0704 20.5381 -6.6074 -33.2382 -6.0181
# 2 25.0704 118.5988 18.5428 -13.9189 -7.1517 -4.0207
# 3 20.5381 18.5428 68.8779 -15.1927 -19.9174 1.8996
# 4 -6.6074 -13.9189 -15.1927 25.5248 -1.5143 -3.9845
# 5 -33.2382 -7.1517 -19.9174 -1.5143 32.0919 -2.7837
# 6 -6.0181 -4.0207 1.8996 -3.9845 -2.7837 31.2640
#
#
#
# Elastic Compliance Matrix: (Units=1/GPa)
#
#
# Indices 1 2 3 4 5 6 
#
# 1 0.027861 -0.002953 0.003972 0.011272 0.031978 0.009026
# 2 -0.002953 0.009660 -0.001336 0.003794 -0.001460 0.001109
# 3 0.003972 -0.001336 0.022350 0.015150 0.018647 0.002826
# 4 0.011272 0.003794 0.015150 0.056448 0.025559 0.011207
# 5 0.031978 -0.001460 0.018647 0.025559 0.078040 0.015041
# 6 0.009026 0.001109 0.002826 0.011207 0.015041 0.036461
#
#
# Mechanical properties :
#
#
# Convention : Reuss Voigt Hill
#
# Bulk Modulus (GPa) = 16.88145 43.79703 30.33924
# Shear Modulus (GPa) = 19.90450 31.22410 25.56430
#
# Velocity S-wave (km/s) = 3.08617 3.86535 3.49753
# Velocity P-wave (km/s) = 4.55819 6.39362 5.55228
#
# Compressibility (1/GPa) = 0.05923661
#
# Stress axis : x y z
#
# Youngs Moduli (GPa) = 35.89189 103.52197 44.74353
#
# Poissons Ratio (x) = 0.30574 -0.17772
# Poissons Ratio (y) = 0.10600 0.05976
# Poissons Ratio (z) = -0.14256 0.13827
#
# Static dielectric constant tensor:
#      x y z
#    x 3.613970 0.043440 -0.314960 
#    y 0.043440 3.889890 -0.195520 
#    z -0.314960 -0.195520 3.819940 
# 
# 
# High freq. dielectric constant tensor:
#      x y z
#    x 1.793030 -0.014990 -0.029340 
#    y -0.014990 1.826460 -0.017480 
#    z -0.029340 -0.017480 1.813020 
# 
# From -- ./inp_files/252195.got.cif
#   From: 2010.06.25/outbox.cif.g09.slc.cpg/sg2_127_cif.got.tgz:252195.got - 2010.06.27 13:26:56.
