data_PCOD8039542
_publ_section_title
;
Structure prediction by ZEFSAII (Michael W. Deem and Ramdas Pophale) SiO2 
 PCOD8039542
Probable space group: P -1
;
_chemical_formula_sum "Si O2"
_cell_formula_units_Z 14
_cell_length_a 22.664835
_cell_length_b 12.076817
_cell_length_c 8.430407
_cell_angle_alpha 125.151931
_cell_angle_beta 127.153184
_cell_angle_gamma 23.038425
_cell_volume 718.284671
_symmetry_space_group_name_H-M "P -1"
_symmetry_group_IT_number 2
_symmetry_cell_setting 'triclinic'
loop_
_space_group_symop_operation_xyz
x,y,z
-x,-y,-z
loop_
_atom_site_type_symbol
_atom_site_label
_atom_site_fract_x
_atom_site_fract_y
_atom_site_fract_z
Si Si1 0.651997 0.932084 0.221522
Si Si2 0.772687 0.967952 0.261369
Si Si3 0.876875 0.558063 0.546179
Si Si4 0.683199 0.063530 0.862354
Si Si5 0.275454 0.440028 0.554528
Si Si6 0.667426 0.365050 0.216325
Si Si7 0.439903 0.116780 0.239917
O O1 0.660338 0.075034 0.294666
O O2 0.811317 0.639387 0.330889
O O3 0.504124 0.145403 0.272058
O O4 0.645398 0.845179 0.988136
O O5 0.945339 0.687196 0.378396
O O6 0.716807 0.211542 0.335058
O O7 0.764863 0.894522 0.023224
O O8 0.777439 0.841532 0.692814
O O9 0.861483 0.445031 0.532037
O O10 0.506103 0.295229 0.764951
O O11 0.677090 0.239046 0.984216
O O12 0.223961 0.680670 0.687767
O O13 0.316442 0.358708 0.369335
O O14 0.416574 0.187456 0.694512
#
# Coordination Sequence:
#
# PCOD8039542 Si02
#       7
#     2   2   2   2   2   2   2
#     4  10  19  33  52  79 108 139 177 216 256 314
#     4  10  20  34  54  77 112 139 172 215 264 316
#     4  11  21  33  56  80 107 142 178 208 263 313
#     4   9  19  35  54  81 100 137 183 219 255 304
#     4  10  18  34  56  79 104 134 180 224 254 312
#     4   9  19  33  57  78 108 131 176 227 267 291
#     4   9  19  32  57  80 102 137 182 221 258 296
#
# _framework density 19.490880000000001
#
# number of rings (size 3 to 8) (size 9 to 14) (size 15 to 20)
#    0.857    1.429    0.000    5.143    0.000    0.571 
#    0.000    2.857    0.000    0.857    0.000    0.000 
#    0.000    0.000    0.000    0.000    0.000    0.000 
#
# Total GULP energy -173464.404143 kJ/mol
# GULP energy per Si atom -12390.314582 kJ/mol
# Density = 1.944652 g / cm^3
# Si number density = 19.490880 Si / 1000 Ang^3
#
#
#
# Elastic Constant Matrix: (Units=GPa)
#
#
# Indices 1 2 3 4 5 6 
#
# 1 136.3040 18.7017 35.4523 11.2705 15.0839 9.5071
# 2 18.7017 40.9267 20.3215 -12.6692 8.0467 -1.8360
# 3 35.4523 20.3215 81.4486 -11.2266 -7.5489 0.0932
# 4 11.2705 -12.6692 -11.2266 24.8359 9.9126 7.3006
# 5 15.0839 8.0467 -7.5489 9.9126 25.0818 2.9677
# 6 9.5071 -1.8360 0.0932 7.3006 2.9677 19.8373
#
#
#
# Elastic Compliance Matrix: (Units=1/GPa)
#
#
# Indices 1 2 3 4 5 6 
#
# 1 0.010168 -0.003796 -0.004710 -0.006657 -0.003418 -0.002241
# 2 -0.003796 0.045508 -0.007695 0.032988 -0.027437 -0.001968
# 3 -0.004710 -0.007695 0.017494 0.002526 0.009676 -0.000915
# 4 -0.006657 0.032988 0.002526 0.080810 -0.035605 -0.018182
# 5 -0.003418 -0.027437 0.009676 -0.035605 0.067467 0.002064
# 6 -0.002241 -0.001968 -0.000915 -0.018182 0.002064 0.057689
#
#
# Mechanical properties :
#
#
# Convention : Reuss Voigt Hill
#
# Bulk Modulus (GPa) = 24.53095 45.29226 34.91160
# Shear Modulus (GPa) = 15.37856 26.23125 20.80490
#
# Velocity S-wave (km/s) = 2.81198 3.67252 3.27068
# Velocity P-wave (km/s) = 4.81209 6.42428 5.67572
#
# Compressibility (1/GPa) = 0.04076484
#
# Stress axis : x y z
#
# Youngs Moduli (GPa) = 98.35195 21.97439 57.16218
#
# Poissons Ratio (x) = 0.08342 0.26925
# Poissons Ratio (y) = 0.37339 0.43989
# Poissons Ratio (z) = 0.46326 0.16910
#
# Static dielectric constant tensor:
#      x y z
#    x 3.738330 0.099720 0.096490 
#    y 0.099720 3.079070 -0.232440 
#    z 0.096490 -0.232440 3.537460 
# 
# 
# High freq. dielectric constant tensor:
#      x y z
#    x 1.767130 0.009060 0.013720 
#    y 0.009060 1.712340 -0.024030 
#    z 0.013720 -0.024030 1.756530 
# 
# From -- ./inp_files/344801.got.cif
#   From: 2010.06.25/outbox.cif.g09.slc.cpg/sg2_173_cif.got.tgz:344801.got - 2010.06.27 13:26:56.
