data_PCOD8039006
_publ_section_title
;
Structure prediction by ZEFSAII (Michael W. Deem and Ramdas Pophale) SiO2 
 PCOD8039006
Probable space group: P -1
;
_chemical_formula_sum "Si O2"
_cell_formula_units_Z 14
_cell_length_a 9.042000
_cell_length_b 14.256647
_cell_length_c 10.953932
_cell_angle_alpha 150.864973
_cell_angle_beta 63.417792
_cell_angle_gamma 112.252400
_cell_volume 614.574485
_symmetry_space_group_name_H-M "P -1"
_symmetry_group_IT_number 2
_symmetry_cell_setting 'triclinic'
loop_
_space_group_symop_operation_xyz
x,y,z
-x,-y,-z
loop_
_atom_site_type_symbol
_atom_site_label
_atom_site_fract_x
_atom_site_fract_y
_atom_site_fract_z
Si Si1 0.761506 0.167721 0.760888
Si Si2 0.650205 0.278661 0.578740
Si Si3 0.646432 0.480408 0.571981
Si Si4 0.707829 0.626052 0.102123
Si Si5 0.392700 0.149710 0.839807
Si Si6 0.722928 0.542067 0.356315
Si Si7 0.103599 0.180963 0.551666
O O1 0.588893 0.119649 0.701810
O O2 0.907997 0.143340 0.579111
O O3 0.791689 0.017281 0.689722
O O4 0.757304 0.380362 0.058550
O O5 0.725340 0.347688 0.499857
O O6 0.455772 0.342780 0.718935
O O7 0.685605 0.052583 0.324751
O O8 0.729493 0.401171 0.799780
O O9 0.765969 0.472696 0.399963
O O10 0.470039 0.393795 0.501576
O O11 0.626380 0.704121 0.874006
O O12 0.701010 0.764767 0.145348
O O13 0.864992 0.677314 0.183059
O O14 0.835569 0.723994 0.488526
#
# Coordination Sequence:
#
# PCOD8039006 Si02
#       7
#     2   2   2   2   2   2   2
#     4  10  22  34  54  80 110 140 176 208 271 317
#     4  10  18  32  52  79 109 135 169 223 263 303
#     4   9  19  32  53  78 105 138 181 215 258 311
#     4  10  20  31  54  81 111 133 176 217 266 313
#     4  10  19  34  55  83 105 137 174 220 264 312
#     4  10  19  35  51  75 110 143 172 216 262 311
#     4  11  21  36  52  83 112 137 171 220 262 321
#
# _framework density 22.779990000000002
#
# number of rings (size 3 to 8) (size 9 to 14) (size 15 to 20)
#    0.000    2.000    2.857    0.857    2.000    1.143 
#    0.000    4.286    0.000    3.429    0.000   10.000 
#    0.000    0.000    0.000    0.000    0.000    0.000 
#
# Total GULP energy -173615.475763 kJ/mol
# GULP energy per Si atom -12401.105412 kJ/mol
# Density = 2.272814 g / cm^3
# Si number density = 22.779990 Si / 1000 Ang^3
#
#
#
# Elastic Constant Matrix: (Units=GPa)
#
#
# Indices 1 2 3 4 5 6 
#
# 1 48.6088 11.7179 2.6552 1.7238 1.6964 0.8029
# 2 11.7179 142.1698 22.4707 16.7954 -5.4463 -6.7542
# 3 2.6552 22.4707 45.9908 28.4501 -1.9065 4.1269
# 4 1.7238 16.7954 28.4501 42.2994 -5.8012 3.1920
# 5 1.6964 -5.4463 -1.9065 -5.8012 18.8916 1.7284
# 6 0.8029 -6.7542 4.1269 3.1920 1.7284 19.5232
#
#
#
# Elastic Compliance Matrix: (Units=1/GPa)
#
#
# Indices 1 2 3 4 5 6 
#
# 1 0.021137 -0.001837 -0.000144 -0.000275 -0.002415 -0.001216
# 2 -0.001837 0.008081 -0.003644 -0.000741 0.001568 0.003624
# 3 -0.000144 -0.003644 0.039458 -0.025302 -0.004361 -0.005073
# 4 -0.000275 -0.000741 -0.025302 0.042631 0.010605 -0.002806
# 5 -0.002415 0.001568 -0.004361 0.010605 0.056895 -0.005207
# 6 -0.001216 0.003624 -0.005073 -0.002806 -0.005207 0.054517
#
#
# Mechanical properties :
#
#
# Convention : Reuss Voigt Hill
#
# Bulk Modulus (GPa) = 17.41335 34.49522 25.95428
# Shear Modulus (GPa) = 19.75414 29.47120 24.61267
#
# Velocity S-wave (km/s) = 2.94797 3.60075 3.29059
# Velocity P-wave (km/s) = 4.38727 5.69762 5.08483
#
# Compressibility (1/GPa) = 0.05742722
#
# Stress axis : x y z
#
# Youngs Moduli (GPa) = 47.30972 123.74698 25.34315
#
# Poissons Ratio (x) = 0.22736 0.00364
# Poissons Ratio (y) = 0.08692 0.09234
# Poissons Ratio (z) = 0.00680 0.45090
#
# Static dielectric constant tensor:
#      x y z
#    x 3.761640 -0.102970 0.182100 
#    y -0.102970 4.253790 0.272900 
#    z 0.182100 0.272900 4.013700 
# 
# 
# High freq. dielectric constant tensor:
#      x y z
#    x 1.871510 -0.018100 0.014290 
#    y -0.018100 1.903900 0.029650 
#    z 0.014290 0.029650 1.877320 
# 
# From -- ./inp_files/278458.got.cif
#   From: 2010.06.25/outbox.cif.g09.slc.cpg/sg2_140_cif.got.tgz:278458.got - 2010.06.27 13:26:56.
