data_PCOD8039328
_publ_section_title
;
Structure prediction by ZEFSAII (Michael W. Deem and Ramdas Pophale) SiO2 
 PCOD8039328
Probable space group: P -1
;
_chemical_formula_sum "Si O2"
_cell_formula_units_Z 16
_cell_length_a 9.045204
_cell_length_b 13.578045
_cell_length_c 14.696245
_cell_angle_alpha 77.613856
_cell_angle_beta 131.168686
_cell_angle_gamma 138.157000
_cell_volume 757.326719
_symmetry_space_group_name_H-M "P -1"
_symmetry_group_IT_number 2
_symmetry_cell_setting 'triclinic'
loop_
_space_group_symop_operation_xyz
x,y,z
-x,-y,-z
loop_
_atom_site_type_symbol
_atom_site_label
_atom_site_fract_x
_atom_site_fract_y
_atom_site_fract_z
Si Si1 0.967178 0.026312 0.138027
Si Si2 0.136472 0.809526 0.684816
Si Si3 0.176506 0.659975 0.177849
Si Si4 0.598531 0.164839 0.587000
Si Si5 0.546938 0.120303 0.374857
Si Si6 0.209242 0.703281 0.888583
Si Si7 0.060033 0.990763 0.654983
Si Si8 0.155354 0.820220 0.013142
O O1 0.929115 0.017255 0.231846
O O2 0.075797 0.180422 0.107331
O O3 0.594344 0.833685 0.986360
O O4 0.261328 0.070962 0.221958
O O5 0.148406 0.766973 0.596808
O O6 0.996506 0.665159 0.726234
O O7 0.923964 0.824920 0.593336
O O8 0.512213 0.000701 0.833997
O O9 0.151673 0.672321 0.273634
O O10 0.569443 0.820397 0.270551
O O11 0.996785 0.478476 0.120482
O O12 0.974242 0.662954 0.039006
O O13 0.695724 0.230370 0.507893
O O14 0.636528 0.062271 0.639784
O O15 0.208177 0.035654 0.476706
O O16 0.262425 0.809120 0.966555
#
# Coordination Sequence:
#
# PCOD8039328 Si02
#       8
#     2   2   2   2   2   2   2   2
#     4  10  19  35  59  86 109 147 184 226 273 329
#     4  10  18  35  59  85 105 147 190 225 271 324
#     4  11  21  33  57  89 114 143 177 230 288 323
#     4  10  21  38  57  84 110 143 193 237 256 330
#     4  10  21  36  61  81 107 144 199 227 267 316
#     4  11  20  34  55  89 120 138 175 235 283 331
#     4  10  18  35  63  79 108 143 192 232 268 311
#     4  10  18  33  57  83 116 137 183 228 266 333
#
# _framework density 21.126944999999999
#
# number of rings (size 3 to 8) (size 9 to 14) (size 15 to 20)
#    0.000    1.750    6.250    1.500    0.000    2.000 
#    0.000    1.875    0.000    0.000    0.000    0.000 
#    0.000    0.000    0.000    0.000    0.000    0.000 
#
# Total GULP energy -198263.168074 kJ/mol
# GULP energy per Si atom -12391.448005 kJ/mol
# Density = 2.107886 g / cm^3
# Si number density = 21.126945 Si / 1000 Ang^3
#
#
#
# Elastic Constant Matrix: (Units=GPa)
#
#
# Indices 1 2 3 4 5 6 
#
# 1 85.9494 21.0797 25.4734 -8.5201 -8.8134 -14.1901
# 2 21.0797 118.2465 27.0241 -26.3600 9.8041 -13.1065
# 3 25.4734 27.0241 52.9031 -19.0686 -5.5975 -9.4584
# 4 -8.5201 -26.3600 -19.0686 23.2567 -4.4963 4.0812
# 5 -8.8134 9.8041 -5.5975 -4.4963 31.8927 -15.7176
# 6 -14.1901 -13.1065 -9.4584 4.0812 -15.7176 25.3305
#
#
#
# Elastic Compliance Matrix: (Units=1/GPa)
#
#
# Indices 1 2 3 4 5 6 
#
# 1 0.016648 -0.001211 -0.002595 0.002339 0.012203 0.014926
# 2 -0.001211 0.011838 -0.001087 0.011401 -0.001409 0.002330
# 3 -0.002595 -0.001087 0.036170 0.027868 0.019222 0.018927
# 4 0.002339 0.011401 0.027868 0.080727 0.022595 0.018629
# 5 0.012203 -0.001409 0.019222 0.022595 0.066944 0.051183
# 6 0.014926 0.002330 0.018927 0.018629 0.051183 0.084870
#
#
# Mechanical properties :
#
#
# Convention : Reuss Voigt Hill
#
# Bulk Modulus (GPa) = 18.22467 44.91704 31.57086
# Shear Modulus (GPa) = 15.37172 28.33077 21.85124
#
# Velocity S-wave (km/s) = 2.70031 3.66591 3.21952
# Velocity P-wave (km/s) = 4.28570 6.26300 5.36621
#
# Compressibility (1/GPa) = 0.05487066
#
# Stress axis : x y z
#
# Youngs Moduli (GPa) = 60.06628 84.47452 27.64735
#
# Poissons Ratio (x) = 0.10228 0.07174
# Poissons Ratio (y) = 0.07273 0.03005
# Poissons Ratio (z) = 0.15587 0.09182
#
# Static dielectric constant tensor:
#      x y z
#    x 3.910910 -0.285230 -0.146620 
#    y -0.285230 3.783490 -0.698590 
#    z -0.146620 -0.698590 4.057400 
# 
# 
# High freq. dielectric constant tensor:
#      x y z
#    x 1.818590 -0.024610 -0.023840 
#    y -0.024610 1.803120 -0.050440 
#    z -0.023840 -0.050440 1.819820 
# 
# From -- ./inp_files/203130.got.cif
#   From: 2010.06.25/outbox.cif.g09.slc.cpg/sg2_102_cif.got.tgz:203130.got - 2010.06.27 13:26:56.
