data_PCOD8039240
_publ_section_title
;
Structure prediction by ZEFSAII (Michael W. Deem and Ramdas Pophale) SiO2 
 PCOD8039240
Probable space group: P -1
;
_chemical_formula_sum "Si O2"
_cell_formula_units_Z 16
_cell_length_a 15.431553
_cell_length_b 8.663456
_cell_length_c 8.662247
_cell_angle_alpha 72.825847
_cell_angle_beta 54.714488
_cell_angle_gamma 54.700274
_cell_volume 770.211728
_symmetry_space_group_name_H-M "P -1"
_symmetry_group_IT_number 2
_symmetry_cell_setting 'triclinic'
loop_
_space_group_symop_operation_xyz
x,y,z
-x,-y,-z
loop_
_atom_site_type_symbol
_atom_site_label
_atom_site_fract_x
_atom_site_fract_y
_atom_site_fract_z
Si Si1 0.057038 0.736293 0.569982
Si Si2 0.633796 0.697412 0.387687
Si Si3 0.402471 0.705826 0.100533
Si Si4 0.901953 0.600712 0.205733
Si Si5 0.292214 0.698590 0.519737
Si Si6 0.208566 0.979921 0.801063
Si Si7 0.133983 0.888109 0.197373
Si Si8 0.443807 0.929583 0.763243
O O1 0.059209 0.540444 0.644419
O O2 0.171778 0.726306 0.547081
O O3 0.064544 0.782635 0.366995
O O4 0.927555 0.904475 0.722918
O O5 0.775506 0.635507 0.256011
O O6 0.630756 0.507468 0.413502
O O7 0.573175 0.776814 0.594759
O O8 0.563799 0.867392 0.283032
O O9 0.386735 0.712001 0.299697
O O10 0.275617 0.757610 0.135799
O O11 0.500000 0.500000 0.000000
O O12 0.441886 0.854956 0.958940
O O13 0.885868 0.800005 0.212458
O O14 0.000000 0.500000 0.000000
O O15 0.250387 0.862661 0.636994
O O16 0.328994 0.952491 0.773438
O O17 0.131433 0.913256 0.007052
#
# Coordination Sequence:
#
# PCOD8039240 Si02
#       8
#     2   2   2   2   2   2   2   2
#     4   9  18  34  56  74 102 140 179 209 245 317
#     4   9  18  33  52  77 101 139 177 208 250 311
#     4  10  18  33  54  77 102 139 177 209 252 314
#     4  10  18  33  54  77 102 139 177 209 252 314
#     4  10  20  33  53  82 109 132 167 220 266 299
#     4  10  20  33  53  82 109 132 167 220 266 299
#     4   9  18  33  52  77 101 139 177 208 250 311
#     4   9  18  34  56  74 102 140 179 209 245 317
#
# _framework density 20.773510999999999
#
# number of rings (size 3 to 8) (size 9 to 14) (size 15 to 20)
#    0.000    2.500    2.500    0.000    0.000    1.000 
#    0.000    1.250    0.000   13.500    0.000    0.000 
#    0.000    0.000    0.000    0.000    0.000    0.000 
#
# Total GULP energy -198226.387875 kJ/mol
# GULP energy per Si atom -12389.149242 kJ/mol
# Density = 2.072623 g / cm^3
# Si number density = 20.773511 Si / 1000 Ang^3
#
#
#
# Elastic Constant Matrix: (Units=GPa)
#
#
# Indices 1 2 3 4 5 6 
#
# 1 17.9651 18.5644 18.7636 1.1020 -0.3694 -0.3313
# 2 18.5644 200.1351 102.9658 -12.6326 12.0012 5.1507
# 3 18.7636 102.9658 193.3446 -12.7446 5.0267 9.4018
# 4 1.1020 -12.6326 -12.7446 46.6646 -7.2522 -7.1465
# 5 -0.3694 12.0012 5.0267 -7.2522 23.4834 9.0103
# 6 -0.3313 5.1507 9.4018 -7.1465 9.0103 21.4079
#
#
#
# Elastic Compliance Matrix: (Units=1/GPa)
#
#
# Indices 1 2 3 4 5 6 
#
# 1 0.064859 -0.004109 -0.004471 -0.003208 0.002361 0.001891
# 2 -0.004109 0.007373 -0.003452 0.000838 -0.003362 0.001373
# 3 -0.004471 -0.003452 0.007613 0.001043 0.001483 -0.002858
# 4 -0.003208 0.000838 0.001043 0.023526 0.004558 0.005225
# 5 0.002361 -0.003362 0.001483 0.004558 0.053393 -0.020756
# 6 0.001891 0.001373 -0.002858 0.005225 -0.020756 0.058146
#
#
# Mechanical properties :
#
#
# Convention : Reuss Voigt Hill
#
# Bulk Modulus (GPa) = 17.92686 76.89250 47.40968
# Shear Modulus (GPa) = 19.41239 36.38792 27.90015
#
# Velocity S-wave (km/s) = 3.06024 4.18981 3.66876
# Velocity P-wave (km/s) = 4.59730 7.77824 6.38891
#
# Compressibility (1/GPa) = 0.05578220
#
# Stress axis : x y z
#
# Youngs Moduli (GPa) = 15.41799 135.63449 131.34634
#
# Poissons Ratio (x) = 0.55729 0.58727
# Poissons Ratio (y) = 0.06335 0.45338
# Poissons Ratio (z) = 0.06894 0.46818
#
# Static dielectric constant tensor:
#      x y z
#    x 3.061450 -0.255960 -0.289240 
#    y -0.255960 4.444710 -0.454840 
#    z -0.289240 -0.454840 4.341350 
# 
# 
# High freq. dielectric constant tensor:
#      x y z
#    x 1.736440 -0.027130 -0.030710 
#    y -0.027130 1.838360 -0.011350 
#    z -0.030710 -0.011350 1.835630 
# 
# From -- ./inp_files/171336.got.cif
#   From: 2010.06.25/outbox.cif.g09.slc.cpg/sg2_86_cif.got.tgz:171336.got - 2010.06.27 13:26:56.
