data_PCOD8039643
_publ_section_title
;
Structure prediction by ZEFSAII (Michael W. Deem and Ramdas Pophale) SiO2 
 PCOD8039643
Probable space group: P -1
;
_chemical_formula_sum "Si O2"
_cell_formula_units_Z 14
_cell_length_a 19.327223
_cell_length_b 14.027423
_cell_length_c 9.436584
_cell_angle_alpha 38.154449
_cell_angle_beta 31.829318
_cell_angle_gamma 32.958134
_cell_volume 709.566070
_symmetry_space_group_name_H-M "P -1"
_symmetry_group_IT_number 2
_symmetry_cell_setting 'triclinic'
loop_
_space_group_symop_operation_xyz
x,y,z
-x,-y,-z
loop_
_atom_site_type_symbol
_atom_site_label
_atom_site_fract_x
_atom_site_fract_y
_atom_site_fract_z
Si Si1 0.118518 0.165804 0.311698
Si Si2 0.015621 0.156519 0.216123
Si Si3 0.386124 0.441214 0.899153
Si Si4 0.866211 0.270345 0.842114
Si Si5 0.338346 0.159601 0.150691
Si Si6 0.717402 0.261053 0.490609
Si Si7 0.850580 0.936499 0.209261
O O1 0.221471 0.229358 0.138447
O O2 0.088530 0.224869 0.129144
O O3 0.950559 0.265100 0.557603
O O4 0.199237 0.950108 0.447400
O O5 0.839463 0.302332 0.304963
O O6 0.000000 0.000000 0.500000
O O7 0.133121 0.093277 0.953831
O O8 0.564237 0.325285 0.778113
O O9 0.347633 0.626757 0.671748
O O10 0.270022 0.518919 0.144246
O O11 0.351735 0.324677 0.987747
O O12 0.982695 0.203839 0.850378
O O13 0.796577 0.142538 0.096946
O O14 0.278273 0.095906 0.462728
O O15 0.500000 0.000000 0.000000
#
# Coordination Sequence:
#
# PCOD8039643 Si02
#       7
#     2   2   2   2   2   2   2
#     4  10  20  38  64  81 115 151 193 227 280 348
#     4  10  18  37  63  85 109 154 193 229 273 346
#     4  11  21  33  58  86 121 138 189 247 286 318
#     4  10  18  34  58  90 104 145 199 238 266 328
#     4  11  23  37  56  85 118 152 188 233 291 339
#     4  10  19  35  59  86 107 150 189 240 276 329
#     4  10  19  34  60  84 115 147 196 229 276 343
#
# _framework density 19.730367999999999
#
# number of rings (size 3 to 8) (size 9 to 14) (size 15 to 20)
#    0.000    1.714    5.714    1.714    2.000    2.286 
#    0.000    2.143    0.000    0.000    0.000    0.000 
#    0.000    0.000    0.000    0.000    0.000    0.000 
#
# Total GULP energy -173495.569528 kJ/mol
# GULP energy per Si atom -12392.540681 kJ/mol
# Density = 1.968546 g / cm^3
# Si number density = 19.730368 Si / 1000 Ang^3
#
#
#
# Elastic Constant Matrix: (Units=GPa)
#
#
# Indices 1 2 3 4 5 6 
#
# 1 108.5685 35.7213 49.9830 18.3003 8.4501 6.7087
# 2 35.7213 93.4040 39.2879 40.3818 -5.8135 16.9359
# 3 49.9830 39.2879 101.8115 33.7245 6.9703 5.0009
# 4 18.3003 40.3818 33.7245 34.6047 1.7386 1.6183
# 5 8.4501 -5.8135 6.9703 1.7386 36.3916 4.2002
# 6 6.7087 16.9359 5.0009 1.6183 4.2002 22.5850
#
#
#
# Elastic Compliance Matrix: (Units=1/GPa)
#
#
# Indices 1 2 3 4 5 6 
#
# 1 0.012889 -0.004997 -0.005852 0.004805 -0.003066 0.001440
# 2 -0.004997 0.032195 0.002701 -0.037018 0.010150 -0.022491
# 3 -0.005852 0.002701 0.017409 -0.016870 -0.000408 -0.002858
# 4 0.004805 -0.037018 -0.016870 0.085327 -0.010873 0.025975
# 5 -0.003066 0.010150 -0.000408 -0.010873 0.031765 -0.011739
# 6 0.001440 -0.022491 -0.002858 0.025975 -0.011739 0.061670
#
#
# Mechanical properties :
#
#
# Convention : Reuss Voigt Hill
#
# Bulk Modulus (GPa) = 21.64592 61.52983 41.58787
# Shear Modulus (GPa) = 18.31854 30.63572 24.47713
#
# Velocity S-wave (km/s) = 3.05034 3.94473 3.52601
# Velocity P-wave (km/s) = 4.83744 7.21117 6.14010
#
# Compressibility (1/GPa) = 0.04619808
#
# Stress axis : x y z
#
# Youngs Moduli (GPa) = 77.58802 31.06065 57.44279
#
# Poissons Ratio (x) = 0.15521 0.33613
# Poissons Ratio (y) = 0.38770 -0.15517
# Poissons Ratio (z) = 0.45401 -0.08391
#
# Static dielectric constant tensor:
#      x y z
#    x 3.954810 -0.060600 -0.073710 
#    y -0.060600 3.643010 0.383920 
#    z -0.073710 0.383920 3.680190 
# 
# 
# High freq. dielectric constant tensor:
#      x y z
#    x 1.755950 0.010110 -0.003490 
#    y 0.010110 1.751410 0.027030 
#    z -0.003490 0.027030 1.762540 
# 
# From -- ./inp_files/197980.got.cif
#   From: 2010.06.25/outbox.cif.g09.slc.cpg/sg2_99_cif.got.tgz:197980.got - 2010.06.27 13:26:56.
