data_PCOD8039964
_publ_section_title
;
Structure prediction by ZEFSAII (Michael W. Deem and Ramdas Pophale) SiO2 
 PCOD8039964
Probable space group: P -1
;
_chemical_formula_sum "Si O2"
_cell_formula_units_Z 16
_cell_length_a 9.140987
_cell_length_b 16.220517
_cell_length_c 9.000783
_cell_angle_alpha 46.957882
_cell_angle_beta 66.755041
_cell_angle_gamma 64.877088
_cell_volume 871.931604
_symmetry_space_group_name_H-M "P -1"
_symmetry_group_IT_number 2
_symmetry_cell_setting 'triclinic'
loop_
_space_group_symop_operation_xyz
x,y,z
-x,-y,-z
loop_
_atom_site_type_symbol
_atom_site_label
_atom_site_fract_x
_atom_site_fract_y
_atom_site_fract_z
Si Si1 0.100444 0.300746 0.383154
Si Si2 0.034306 0.060997 0.762919
Si Si3 0.848213 0.084788 0.530588
Si Si4 0.515467 0.503665 0.314361
Si Si5 0.570545 0.698844 0.869881
Si Si6 0.719719 0.530862 0.788763
Si Si7 0.355779 0.937548 0.611947
Si Si8 0.810380 0.350679 0.226373
O O1 0.053557 0.192310 0.618882
O O2 0.261404 0.256124 0.267672
O O3 0.145572 0.389531 0.378838
O O4 0.958128 0.369351 0.248770
O O5 0.872107 0.064986 0.722020
O O6 0.199270 0.989029 0.710997
O O7 0.000000 0.000000 0.000000
O O8 0.687430 0.055053 0.557006
O O9 0.843960 0.217198 0.330745
O O10 0.000000 0.000000 0.500000
O O11 0.500000 0.500000 0.500000
O O12 0.340953 0.504355 0.302962
O O13 0.647369 0.392047 0.339855
O O14 0.568690 0.624079 0.111732
O O15 0.563151 0.608249 0.848207
O O16 0.413639 0.803980 0.800922
O O17 0.804648 0.420248 0.989504
O O18 0.500000 0.000000 0.500000
#
# Coordination Sequence:
#
# PCOD8039964 Si02
#       8
#     2   2   2   2   2   2   2   2
#     4   9  19  34  59  81 101 142 195 227 268 334
#     4  10  21  37  55  82 117 147 181 234 291 332
#     4   9  20  34  56  86 109 143 190 226 274 345
#     4  11  22  34  52  83 117 145 177 228 281 339
#     4   9  19  33  58  78 106 140 195 224 271 323
#     4   9  18  34  56  82 104 140 192 223 272 326
#     4  11  18  35  60  82 106 146 191 238 268 328
#     4  10  18  35  60  77 108 146 182 226 279 320
#
# _framework density 18.350062000000001
#
# number of rings (size 3 to 8) (size 9 to 14) (size 15 to 20)
#    0.750    1.500    1.250    3.375    0.000    2.000 
#    0.000    2.500    0.000    0.000    0.000    0.000 
#    0.000    0.000    0.000    0.000    0.000    0.000 
#
# Total GULP energy -198214.428559 kJ/mol
# GULP energy per Si atom -12388.401785 kJ/mol
# Density = 1.830830 g / cm^3
# Si number density = 18.350062 Si / 1000 Ang^3
#
#
#
# Elastic Constant Matrix: (Units=GPa)
#
#
# Indices 1 2 3 4 5 6 
#
# 1 135.7629 33.1327 69.4166 1.1572 14.5871 14.7551
# 2 33.1327 76.2604 47.3236 -20.5603 9.1692 2.2135
# 3 69.4166 47.3236 146.8331 -4.3751 13.5612 17.4871
# 4 1.1572 -20.5603 -4.3751 28.2229 -0.9724 5.1916
# 5 14.5871 9.1692 13.5612 -0.9724 24.4546 -1.6199
# 6 14.7551 2.2135 17.4871 5.1916 -1.6199 25.9083
#
#
#
# Elastic Compliance Matrix: (Units=1/GPa)
#
#
# Indices 1 2 3 4 5 6 
#
# 1 0.010539 -0.002477 -0.003534 -0.002329 -0.003701 -0.003170
# 2 -0.002477 0.021830 -0.005075 0.015154 -0.003309 -0.000272
# 3 -0.003534 -0.005075 0.010882 -0.001058 -0.002386 -0.004835
# 4 -0.002329 0.015154 -0.001058 0.047980 -0.002396 -0.009018
# 5 -0.003701 -0.003309 -0.002386 -0.002396 0.046055 0.007360
# 6 -0.003170 -0.000272 -0.004835 -0.009018 0.007360 0.045957
#
#
# Mechanical properties :
#
#
# Convention : Reuss Voigt Hill
#
# Bulk Modulus (GPa) = 47.44209 73.17801 60.31005
# Shear Modulus (GPa) = 23.53591 29.64940 26.59266
#
# Velocity S-wave (km/s) = 3.58524 4.02402 3.81095
# Velocity P-wave (km/s) = 6.56114 7.84575 7.23202
#
# Compressibility (1/GPa) = 0.02107833
#
# Stress axis : x y z
#
# Youngs Moduli (GPa) = 94.88249 45.80917 91.89660
#
# Poissons Ratio (x) = 0.11345 0.32481
# Poissons Ratio (y) = 0.23498 0.46640
# Poissons Ratio (z) = 0.33536 0.23249
#
# Static dielectric constant tensor:
#      x y z
#    x 3.705500 0.036820 0.197200 
#    y 0.036820 3.355630 -0.265660 
#    z 0.197200 -0.265660 3.233390 
# 
# 
# High freq. dielectric constant tensor:
#      x y z
#    x 1.723580 0.003190 0.015820 
#    y 0.003190 1.701380 -0.034840 
#    z 0.015820 -0.034840 1.685900 
# 
# From -- ./inp_files/214385.got.cif
#   From: 2010.06.25/outbox.cif.g09.slc.cpg/sg2_108_cif.got.tgz:214385.got - 2010.06.27 13:26:56.
