data_PCOD8039350
_publ_section_title
;
Structure prediction by ZEFSAII (Michael W. Deem and Ramdas Pophale) SiO2 
 PCOD8039350
Probable space group: P -1
;
_chemical_formula_sum "Si O2"
_cell_formula_units_Z 14
_cell_length_a 15.707509
_cell_length_b 14.594979
_cell_length_c 6.489002
_cell_angle_alpha 78.137736
_cell_angle_beta 126.694267
_cell_angle_gamma 137.576484
_cell_volume 724.391154
_symmetry_space_group_name_H-M "P -1"
_symmetry_group_IT_number 2
_symmetry_cell_setting 'triclinic'
loop_
_space_group_symop_operation_xyz
x,y,z
-x,-y,-z
loop_
_atom_site_type_symbol
_atom_site_label
_atom_site_fract_x
_atom_site_fract_y
_atom_site_fract_z
Si Si1 0.189044 0.990269 0.818175
Si Si2 0.794807 0.122057 0.726237
Si Si3 0.587383 0.838511 0.319808
Si Si4 0.911145 0.740301 0.208823
Si Si5 0.091055 0.599177 0.287065
Si Si6 0.212538 0.544367 0.799259
Si Si7 0.181623 0.131811 0.093442
O O1 0.022045 0.858395 0.500756
O O2 0.353812 0.117754 0.852348
O O3 0.214118 0.916782 0.032291
O O4 0.170452 0.070290 0.889490
O O5 0.784503 0.227234 0.660842
O O6 0.969147 0.204170 0.836961
O O7 0.634497 0.968914 0.439227
O O8 0.673344 0.811116 0.576969
O O9 0.384502 0.686098 0.106050
O O10 0.800901 0.576080 0.204743
O O11 0.780015 0.731750 0.954439
O O12 0.206524 0.595757 0.550061
O O13 0.947748 0.533438 0.266493
O O14 0.000000 0.500000 0.000000
O O15 0.000000 0.000000 0.000000
#
# Coordination Sequence:
#
# PCOD8039350 Si02
#       7
#     2   2   2   2   2   2   2
#     4  10  18  33  58  81 110 144 186 224 264 322
#     4   9  19  35  57  84 106 143 188 228 267 321
#     4  10  22  36  54  84 118 142 178 230 274 320
#     4  10  19  34  57  80 110 148 186 221 269 321
#     4  10  21  40  63  79 105 146 189 225 278 332
#     4  10  23  40  55  82 115 142 179 233 279 324
#     4  11  19  34  57  86 109 146 189 222 262 322
#
# _framework density 19.326574000000001
#
# number of rings (size 3 to 8) (size 9 to 14) (size 15 to 20)
#    0.000    2.000    4.286    1.286    0.000    4.571 
#    0.000    2.143    0.000    0.000    0.000    0.000 
#    0.000    0.000    0.000    0.000    0.000    0.000 
#
# Total GULP energy -173597.323981 kJ/mol
# GULP energy per Si atom -12399.808856 kJ/mol
# Density = 1.928259 g / cm^3
# Si number density = 19.326574 Si / 1000 Ang^3
#
#
#
# Elastic Constant Matrix: (Units=GPa)
#
#
# Indices 1 2 3 4 5 6 
#
# 1 40.7052 39.1291 27.5778 -13.8738 -4.1307 -24.7283
# 2 39.1291 120.4870 49.6518 -14.2259 13.6211 -41.4167
# 3 27.5778 49.6518 103.4570 -11.6621 6.3111 -16.2570
# 4 -13.8738 -14.2259 -11.6621 37.0123 5.2411 5.4314
# 5 -4.1307 13.6211 6.3111 5.2411 29.2240 -7.5790
# 6 -24.7283 -41.4167 -16.2570 5.4314 -7.5790 35.7686
#
#
#
# Elastic Compliance Matrix: (Units=1/GPa)
#
#
# Indices 1 2 3 4 5 6 
#
# 1 0.063843 -0.005828 -0.008597 0.010661 0.021108 0.036335
# 2 -0.005828 0.016917 -0.004106 0.001914 -0.004962 0.012351
# 3 -0.008597 -0.004106 0.013374 0.000757 -0.003760 -0.005531
# 4 0.010661 0.001914 0.000757 0.031968 -0.004196 0.004187
# 5 0.021108 -0.004962 -0.003760 -0.004196 0.045602 0.017438
# 6 0.036335 0.012351 -0.005531 0.004187 0.017438 0.067923
#
#
# Mechanical properties :
#
#
# Convention : Reuss Voigt Hill
#
# Bulk Modulus (GPa) = 17.52222 55.26295 36.39258
# Shear Modulus (GPa) = 16.90822 30.28701 23.59761
#
# Velocity S-wave (km/s) = 2.96103 3.96298 3.49806
# Velocity P-wave (km/s) = 4.55810 7.04249 5.93182
#
# Compressibility (1/GPa) = 0.05707040
#
# Stress axis : x y z
#
# Youngs Moduli (GPa) = 15.66335 59.11242 74.77342
#
# Poissons Ratio (x) = 0.34452 0.64286
# Poissons Ratio (y) = 0.09129 0.30703
# Poissons Ratio (z) = 0.13466 0.24272
#
# Static dielectric constant tensor:
#      x y z
#    x 3.513650 -0.372890 0.035560 
#    y -0.372890 4.181250 -0.679960 
#    z 0.035560 -0.679960 3.865030 
# 
# 
# High freq. dielectric constant tensor:
#      x y z
#    x 1.737750 -0.016440 -0.010150 
#    y -0.016440 1.754650 -0.018860 
#    z -0.010150 -0.018860 1.751480 
# 
# From -- ./inp_files/27020.got.cif
#   From: 2010.06.25/outbox.cif.g09.slc.cpg/sg2_14_cif.got.tgz:27020.got - 2010.06.27 13:26:56.
