data_PCOD8039348
_publ_section_title
;
Structure prediction by ZEFSAII (Michael W. Deem and Ramdas Pophale) SiO2 
 PCOD8039348
Probable space group: P -1
;
_chemical_formula_sum "Si O2"
_cell_formula_units_Z 14
_cell_length_a 13.108056
_cell_length_b 12.073798
_cell_length_c 8.743700
_cell_angle_alpha 46.940354
_cell_angle_beta 48.866866
_cell_angle_gamma 46.873015
_cell_volume 688.929224
_symmetry_space_group_name_H-M "P -1"
_symmetry_group_IT_number 2
_symmetry_cell_setting 'triclinic'
loop_
_space_group_symop_operation_xyz
x,y,z
-x,-y,-z
loop_
_atom_site_type_symbol
_atom_site_label
_atom_site_fract_x
_atom_site_fract_y
_atom_site_fract_z
Si Si1 0.580187 0.658724 0.197419
Si Si2 0.984862 0.204259 0.226700
Si Si3 0.132691 0.977249 0.712798
Si Si4 0.709623 0.365688 0.562300
Si Si5 0.840019 0.500781 0.886461
Si Si6 0.760697 0.840739 0.768326
Si Si7 0.851951 0.277299 0.826022
O O1 0.635566 0.561082 0.397140
O O2 0.405023 0.715277 0.291222
O O3 0.677856 0.527720 0.091971
O O4 0.613119 0.825330 0.994787
O O5 0.865560 0.259174 0.428432
O O6 0.149465 0.133824 0.201489
O O7 0.968305 0.060945 0.277776
O O8 0.970105 0.357826 0.989369
O O9 0.266662 0.007714 0.466986
O O10 0.021428 0.149549 0.740182
O O11 0.208664 0.823821 0.901011
O O12 0.738045 0.349777 0.730258
O O13 0.861234 0.670484 0.732298
O O14 0.851550 0.441531 0.755402
#
# Coordination Sequence:
#
# PCOD8039348 Si02
#       7
#     2   2   2   2   2   2   2
#     4   8  20  35  54  80 105 131 181 223 254 304
#     4  10  18  33  58  77 103 142 177 211 264 307
#     4  10  21  34  51  81 111 139 173 213 257 324
#     4  10  18  35  57  78 102 141 177 213 262 314
#     4   8  19  33  53  79 106 134 173 220 262 305
#     4  10  18  34  55  79 107 134 173 229 253 300
#     4  10  20  34  53  79 107 144 171 209 266 317
#
# _framework density 20.321390999999998
#
# number of rings (size 3 to 8) (size 9 to 14) (size 15 to 20)
#    0.857    1.714    1.429    0.857    0.000    1.143 
#    0.000    2.857    0.000    0.000    0.000    0.000 
#    0.000    0.000    0.000    0.000    0.000    0.000 
#
# Total GULP energy -173436.046095 kJ/mol
# GULP energy per Si atom -12388.289007 kJ/mol
# Density = 2.027514 g / cm^3
# Si number density = 20.321391 Si / 1000 Ang^3
#
#
#
# Elastic Constant Matrix: (Units=GPa)
#
#
# Indices 1 2 3 4 5 6 
#
# 1 88.3273 11.1685 51.3307 11.0540 19.0305 12.7005
# 2 11.1685 31.8681 -4.2767 -5.4516 10.0967 18.1073
# 3 51.3307 -4.2767 123.7733 -7.8028 3.7173 12.4747
# 4 11.0540 -5.4516 -7.8028 14.7818 0.8185 -1.4425
# 5 19.0305 10.0967 3.7173 0.8185 35.8081 4.1736
# 6 12.7005 18.1073 12.4747 -1.4425 4.1736 24.4671
#
#
#
# Elastic Compliance Matrix: (Units=1/GPa)
#
#
# Indices 1 2 3 4 5 6 
#
# 1 0.026742 -0.017870 -0.014159 -0.033062 -0.007637 0.005916
# 2 -0.017870 0.086772 0.020012 0.050669 -0.011183 -0.060249
# 3 -0.014159 0.020012 0.017765 0.025795 0.001221 -0.015205
# 4 -0.033062 0.050669 0.025795 0.122048 0.000899 -0.026445
# 5 -0.007637 -0.011183 0.001221 0.000899 0.034314 0.005818
# 6 0.005916 -0.060249 -0.015205 -0.026445 0.005818 0.087589
#
#
# Mechanical properties :
#
#
# Convention : Reuss Voigt Hill
#
# Bulk Modulus (GPa) = 9.32455 40.04596 24.68525
# Shear Modulus (GPa) = 11.49394 27.39446 19.44420
#
# Velocity S-wave (km/s) = 2.38083 3.67558 3.09663
# Velocity P-wave (km/s) = 3.48659 6.14510 4.99593
#
# Compressibility (1/GPa) = 0.10724382
#
# Stress axis : x y z
#
# Youngs Moduli (GPa) = 37.39434 11.52448 56.29169
#
# Poissons Ratio (x) = 0.20594 0.79703
# Poissons Ratio (y) = 0.66823 -1.12648
# Poissons Ratio (z) = 0.52947 -0.23062
#
# Static dielectric constant tensor:
#      x y z
#    x 3.346550 0.201300 0.126730 
#    y 0.201300 3.404500 -0.073700 
#    z 0.126730 -0.073700 3.919650 
# 
# 
# High freq. dielectric constant tensor:
#      x y z
#    x 1.762810 0.016290 0.008560 
#    y 0.016290 1.769850 -0.008960 
#    z 0.008560 -0.008960 1.806120 
# 
# From -- ./inp_files/232057.got.cif
#   From: 2010.06.25/outbox.cif.g09.slc.cpg/sg2_117_cif.got.tgz:232057.got - 2010.06.27 13:26:56.
