data_PCOD8039157
_publ_section_title
;
Structure prediction by ZEFSAII (Michael W. Deem and Ramdas Pophale) SiO2 
 PCOD8039157
Probable space group: P -1
;
_chemical_formula_sum "Si O2"
_cell_formula_units_Z 16
_cell_length_a 9.429063
_cell_length_b 16.064298
_cell_length_c 9.831645
_cell_angle_alpha 120.919259
_cell_angle_beta 40.929869
_cell_angle_gamma 112.459933
_cell_volume 836.938820
_symmetry_space_group_name_H-M "P -1"
_symmetry_group_IT_number 2
_symmetry_cell_setting 'triclinic'
loop_
_space_group_symop_operation_xyz
x,y,z
-x,-y,-z
loop_
_atom_site_type_symbol
_atom_site_label
_atom_site_fract_x
_atom_site_fract_y
_atom_site_fract_z
Si Si1 0.928842 0.499020 0.891604
Si Si2 0.873046 0.306783 0.874144
Si Si3 0.704903 0.098072 0.800110
Si Si4 0.679880 0.677211 0.286485
Si Si5 0.824818 0.032508 0.377698
Si Si6 0.346685 0.585478 0.635603
Si Si7 0.291120 0.982505 0.975094
Si Si8 0.495192 0.870540 0.485602
O O1 0.133392 0.533730 0.682667
O O2 0.866031 0.386082 0.819865
O O3 0.000000 0.500000 0.000000
O O4 0.739033 0.579403 0.075506
O O5 0.764888 0.208924 0.818995
O O6 0.120236 0.290209 0.734517
O O7 0.719287 0.344886 0.135943
O O8 0.837661 0.039000 0.538422
O O9 0.768152 0.068470 0.881781
O O10 0.449457 0.074562 0.951033
O O11 0.462696 0.655237 0.506376
O O12 0.606117 0.764695 0.316713
O O13 0.696213 0.125454 0.484881
O O14 0.689087 0.938936 0.353890
O O15 0.059999 0.025227 0.130321
O O16 0.500000 0.500000 0.500000
O O17 0.394907 0.903204 0.731609
#
# Coordination Sequence:
#
# PCOD8039157 Si02
#       8
#     2   2   2   2   2   2   2   2
#     4   8  16  27  42  71 103 129 161 203 253 298
#     4  10  18  28  47  76 104 132 163 201 259 303
#     4  10  21  33  52  78 104 135 171 205 262 308
#     4  10  17  29  48  75 104 127 167 211 250 299
#     4  10  21  38  52  72 107 139 169 213 255 303
#     4  10  14  27  44  70 103 131 156 206 254 290
#     4  10  20  37  52  77 104 130 176 218 252 298
#     4  10  21  34  56  77  98 139 177 208 254 302
#
# _framework density 19.117289
#
# number of rings (size 3 to 8) (size 9 to 14) (size 15 to 20)
#    0.000    2.500    3.750    2.250    0.000    4.000 
#    0.000    0.000    0.000    0.750    0.000    1.750 
#    0.000    0.000    0.000    0.000    0.000    0.000 
#
# Total GULP energy -198213.363493 kJ/mol
# GULP energy per Si atom -12388.335218 kJ/mol
# Density = 1.907378 g / cm^3
# Si number density = 19.117289 Si / 1000 Ang^3
#
#
#
# Elastic Constant Matrix: (Units=GPa)
#
#
# Indices 1 2 3 4 5 6 
#
# 1 44.7164 22.0677 19.4837 1.4645 -11.7443 -8.3455
# 2 22.0677 119.5778 33.6126 4.3321 -21.6533 2.4987
# 3 19.4837 33.6126 82.8817 -12.0901 -29.4489 1.9869
# 4 1.4645 4.3321 -12.0901 28.0946 -2.7097 -9.6529
# 5 -11.7443 -21.6533 -29.4489 -2.7097 29.4166 3.9939
# 6 -8.3455 2.4987 1.9869 -9.6529 3.9939 26.0295
#
#
#
# Elastic Compliance Matrix: (Units=1/GPa)
#
#
# Indices 1 2 3 4 5 6 
#
# 1 0.028674 -0.003771 -0.004127 0.000971 0.003311 0.009722
# 2 -0.003771 0.010693 -0.002347 -0.003419 0.004241 -0.003975
# 3 -0.004127 -0.002347 0.023399 0.012138 0.021394 -0.001665
# 4 0.000971 -0.003419 0.012138 0.047828 0.012315 0.015560
# 5 0.003311 0.004241 0.021394 0.012315 0.061790 -0.005893
# 6 0.009722 -0.003975 -0.001665 0.015560 -0.005893 0.048718
#
#
# Mechanical properties :
#
#
# Convention : Reuss Voigt Hill
#
# Bulk Modulus (GPa) = 23.65249 44.16708 33.90979
# Shear Modulus (GPa) = 19.55537 28.17560 23.86549
#
# Velocity S-wave (km/s) = 3.20177 3.84321 3.53706
# Velocity P-wave (km/s) = 5.10565 6.54577 5.87004
#
# Compressibility (1/GPa) = 0.04227884
#
# Stress axis : x y z
#
# Youngs Moduli (GPa) = 34.87449 93.51765 42.73630
#
# Poissons Ratio (x) = 0.35261 0.17636
# Poissons Ratio (y) = 0.13150 0.10029
# Poissons Ratio (z) = 0.14392 0.21945
#
# Static dielectric constant tensor:
#      x y z
#    x 3.104250 0.100780 -0.064450 
#    y 0.100780 3.904300 -0.456440 
#    z -0.064450 -0.456440 3.175880 
# 
# 
# High freq. dielectric constant tensor:
#      x y z
#    x 1.691730 -0.002380 -0.027530 
#    y -0.002380 1.753560 -0.012450 
#    z -0.027530 -0.012450 1.745970 
# 
# From -- ./inp_files/435910.got.cif
#   From: 2010.06.25/outbox.cif.g09.slc.cpg/sg2_218_cif.got.tgz:435910.got - 2010.06.27 13:26:56.
