data_PCOD8039048
_publ_section_title
;
Structure prediction by ZEFSAII (Michael W. Deem and Ramdas Pophale) SiO2 
 PCOD8039048
Probable space group: P -1
;
_chemical_formula_sum "Si O2"
_cell_formula_units_Z 16
_cell_length_a 18.215134
_cell_length_b 8.231611
_cell_length_c 10.127630
_cell_angle_alpha 42.302597
_cell_angle_beta 59.633796
_cell_angle_gamma 82.114193
_cell_volume 805.261879
_symmetry_space_group_name_H-M "P -1"
_symmetry_group_IT_number 2
_symmetry_cell_setting 'triclinic'
loop_
_space_group_symop_operation_xyz
x,y,z
-x,-y,-z
loop_
_atom_site_type_symbol
_atom_site_label
_atom_site_fract_x
_atom_site_fract_y
_atom_site_fract_z
Si Si1 0.658133 0.631681 0.206033
Si Si2 0.812746 0.835725 0.727837
Si Si3 0.730121 0.410994 0.489445
Si Si4 0.425727 0.954339 0.980549
Si Si5 0.888097 0.437631 0.987845
Si Si6 0.455360 0.964864 0.419889
Si Si7 0.915263 0.451549 0.254647
Si Si8 0.719092 0.001082 0.514317
O O1 0.694785 0.617303 0.329912
O O2 0.600082 0.344073 0.372010
O O3 0.590194 0.780196 0.183789
O O4 0.749140 0.787762 0.943433
O O5 0.866695 0.644954 0.792485
O O6 0.887939 0.137078 0.474374
O O7 0.746630 0.776931 0.691192
O O8 0.840564 0.532378 0.354369
O O9 0.717311 0.185155 0.528552
O O10 0.669971 0.292008 0.746894
O O11 0.464484 0.892004 0.846437
O O12 0.500000 0.000000 0.000000
O O13 0.979992 0.405000 0.867105
O O14 0.913470 0.547211 0.048141
O O15 0.796776 0.161879 0.237714
O O16 0.382585 0.107236 0.395695
O O17 0.500000 0.000000 0.500000
#
# Coordination Sequence:
#
# PCOD8039048 Si02
#       8
#     2   2   2   2   2   2   2   2
#     4  11  18  33  55  71 100 141 170 207 261 300
#     4  10  14  26  46  69  98 134 161 206 252 305
#     4   9  17  29  48  71 101 128 167 210 245 303
#     4  12  20  35  56  74  97 138 178 207 255 313
#     4   9  15  25  42  65 104 137 157 196 264 301
#     4  11  23  37  52  75 106 135 174 221 256 297
#     4   9  16  24  39  73 104 128 161 207 251 297
#     4   9  17  31  45  67  99 134 167 206 250 304
#
# _framework density 19.869312000000001
#
# number of rings (size 3 to 8) (size 9 to 14) (size 15 to 20)
#    0.000    2.250    8.750    0.750    0.000    0.000 
#    0.000    2.500    0.000    0.000    0.000    0.875 
#    0.000    2.000    0.000    0.000    0.000    0.000 
#
# Total GULP energy -198255.592814 kJ/mol
# GULP energy per Si atom -12390.974551 kJ/mol
# Density = 1.982409 g / cm^3
# Si number density = 19.869312 Si / 1000 Ang^3
#
#
#
# Elastic Constant Matrix: (Units=GPa)
#
#
# Indices 1 2 3 4 5 6 
#
# 1 188.3197 33.4293 76.6610 12.5193 4.2018 -32.5022
# 2 33.4293 15.6834 22.9772 7.3170 2.2232 -5.4027
# 3 76.6610 22.9772 130.1924 10.8424 0.7993 -10.6115
# 4 12.5193 7.3170 10.8424 19.9471 -12.6968 5.9849
# 5 4.2018 2.2232 0.7993 -12.6968 45.7002 -2.6120
# 6 -32.5022 -5.4027 -10.6115 5.9849 -2.6120 20.4322
#
#
#
# Elastic Compliance Matrix: (Units=1/GPa)
#
#
# Indices 1 2 3 4 5 6 
#
# 1 0.011990 -0.011739 -0.003013 -0.007546 -0.001638 0.016405
# 2 -0.011739 0.149588 -0.011426 -0.064757 -0.022213 0.031076
# 3 -0.003013 -0.011426 0.011181 0.001221 0.000848 -0.002256
# 4 -0.007546 -0.064757 0.001221 0.116363 0.032815 -0.058382
# 5 -0.001638 -0.022213 0.000848 0.032815 0.031436 -0.013632
# 6 0.016405 0.031076 -0.002256 -0.058382 -0.013632 0.097442
#
#
# Mechanical properties :
#
#
# Convention : Reuss Voigt Hill
#
# Bulk Modulus (GPa) = 8.30537 66.70338 37.50437
# Shear Modulus (GPa) = 9.79453 30.62444 20.20949
#
# Velocity S-wave (km/s) = 2.22265 3.93019 3.19269
# Velocity P-wave (km/s) = 3.28268 7.36472 5.70154
#
# Compressibility (1/GPa) = 0.12040400
#
# Stress axis : x y z
#
# Youngs Moduli (GPa) = 83.40407 6.68501 89.44079
#
# Poissons Ratio (x) = 0.07847 0.26945
# Poissons Ratio (y) = 0.97906 1.02195
# Poissons Ratio (z) = 0.25126 0.07638
#
# Static dielectric constant tensor:
#      x y z
#    x 4.978760 -0.528800 -0.429410 
#    y -0.528800 2.793420 0.085850 
#    z -0.429410 0.085850 4.288110 
# 
# 
# High freq. dielectric constant tensor:
#      x y z
#    x 1.801790 -0.036410 -0.000250 
#    y -0.036410 1.673370 0.001300 
#    z -0.000250 0.001300 1.793980 
# 
# From -- ./inp_files/327104.got.cif
#   From: 2010.06.25/outbox.cif.g09.slc.cpg/sg2_164_cif.got.tgz:327104.got - 2010.06.27 13:26:56.
