data_PCOD8039069
_publ_section_title
;
Structure prediction by ZEFSAII (Michael W. Deem and Ramdas Pophale) SiO2 
 PCOD8039069
Probable space group: P -1
;
_chemical_formula_sum "Si O2"
_cell_formula_units_Z 14
_cell_length_a 26.773602
_cell_length_b 11.667684
_cell_length_c 8.779574
_cell_angle_alpha 56.094812
_cell_angle_beta 139.862858
_cell_angle_gamma 154.783026
_cell_volume 657.750923
_symmetry_space_group_name_H-M "P -1"
_symmetry_group_IT_number 2
_symmetry_cell_setting 'triclinic'
loop_
_space_group_symop_operation_xyz
x,y,z
-x,-y,-z
loop_
_atom_site_type_symbol
_atom_site_label
_atom_site_fract_x
_atom_site_fract_y
_atom_site_fract_z
Si Si1 0.246466 0.164434 0.002349
Si Si2 0.078831 0.421984 0.531899
Si Si3 0.859843 0.770074 0.063420
Si Si4 0.874894 0.180720 0.507009
Si Si5 0.502876 0.642390 0.995816
Si Si6 0.779478 0.711768 0.595481
Si Si7 0.146512 0.771072 0.256570
O O1 0.192387 0.206345 0.947789
O O2 0.423450 0.485256 0.093844
O O3 0.096893 0.899656 0.726400
O O4 0.282295 0.085091 0.250646
O O5 0.176862 0.443044 0.802457
O O6 0.208356 0.719257 0.505699
O O7 0.025740 0.446028 0.531178
O O8 0.744083 0.603546 0.764875
O O9 0.061245 0.118103 0.234426
O O10 0.933402 0.272945 0.752376
O O11 0.702670 0.002612 0.217099
O O12 0.831867 0.954505 0.533259
O O13 0.500000 0.500000 0.000000
O O14 0.393214 0.584299 0.690891
O O15 0.000000 0.500000 0.000000
#
# Coordination Sequence:
#
# PCOD8039069 Si02
#       7
#     2   2   2   2   2   2   2
#     4  11  19  33  55  88 108 140 181 231 271 312
#     4  10  20  34  56  82 111 144 175 224 277 324
#     4  10  18  32  55  83 113 133 184 228 271 311
#     4  10  18  37  55  78 112 144 182 217 275 321
#     4  10  19  34  55  82 113 140 180 229 267 322
#     4   9  18  32  53  83 110 138 174 229 272 319
#     4  10  22  35  52  84 112 138 185 224 273 314
#
# _framework density 21.284652000000001
#
# number of rings (size 3 to 8) (size 9 to 14) (size 15 to 20)
#    0.000    2.000    5.714    0.857    0.000    0.571 
#    0.000    0.000    0.000    1.714    0.000    0.000 
#    0.000    0.000    0.000    0.000    0.000    0.000 
#
# Total GULP energy -173452.347070 kJ/mol
# GULP energy per Si atom -12389.453362 kJ/mol
# Density = 2.123621 g / cm^3
# Si number density = 21.284652 Si / 1000 Ang^3
#
#
#
# Elastic Constant Matrix: (Units=GPa)
#
#
# Indices 1 2 3 4 5 6 
#
# 1 138.2074 38.7959 45.6872 -1.7577 -13.0976 11.1587
# 2 38.7959 90.4146 62.6510 -19.0673 -3.9979 16.3699
# 3 45.6872 62.6510 116.4001 -21.3502 -10.1785 16.9766
# 4 -1.7577 -19.0673 -21.3502 34.9292 5.8519 -5.3834
# 5 -13.0976 -3.9979 -10.1785 5.8519 30.1442 -3.1779
# 6 11.1587 16.3699 16.9766 -5.3834 -3.1779 23.4038
#
#
#
# Elastic Compliance Matrix: (Units=1/GPa)
#
#
# Indices 1 2 3 4 5 6 
#
# 1 0.009088 -0.002636 -0.002264 -0.003092 0.003318 -0.001108
# 2 -0.002636 0.019848 -0.008053 0.005348 -0.002897 -0.005948
# 3 -0.002264 -0.008053 0.015165 0.003949 0.001974 -0.003112
# 4 -0.003092 0.005348 0.003949 0.035125 -0.005893 0.002148
# 5 0.003318 -0.002897 0.001974 -0.005893 0.036315 0.002588
# 6 -0.001108 -0.005948 -0.003112 0.002148 0.002588 0.050519
#
#
# Mechanical properties :
#
#
# Convention : Reuss Voigt Hill
#
# Bulk Modulus (GPa) = 54.95850 71.03224 62.99537
# Shear Modulus (GPa) = 25.24836 30.88798 28.06817
#
# Velocity S-wave (km/s) = 3.44790 3.81358 3.63534
# Velocity P-wave (km/s) = 6.45968 7.26885 6.87617
#
# Compressibility (1/GPa) = 0.01819555
#
# Stress axis : x y z
#
# Youngs Moduli (GPa) = 110.03090 50.38230 65.94075
#
# Poissons Ratio (x) = 0.13279 0.14928
# Poissons Ratio (y) = 0.29001 0.53105
# Poissons Ratio (z) = 0.24910 0.40575
#
# Static dielectric constant tensor:
#      x y z
#    x 4.048300 0.183020 -0.195930 
#    y 0.183020 4.709030 0.287460 
#    z -0.195930 0.287460 4.910980 
# 
# 
# High freq. dielectric constant tensor:
#      x y z
#    x 1.842910 -0.002780 -0.030330 
#    y -0.002780 1.823470 -0.025650 
#    z -0.030330 -0.025650 1.824830 
# 
# From -- ./inp_files/171312.got.cif
#   From: 2010.06.25/outbox.cif.g09.slc.cpg/sg2_86_cif.got.tgz:171312.got - 2010.06.27 13:26:56.
