data_PCOD8039812
_publ_section_title
;
Structure prediction by ZEFSAII (Michael W. Deem and Ramdas Pophale) SiO2 
 PCOD8039812
Probable space group: P -1
;
_chemical_formula_sum "Si O2"
_cell_formula_units_Z 14
_cell_length_a 17.420422
_cell_length_b 12.117700
_cell_length_c 9.802238
_cell_angle_alpha 132.405539
_cell_angle_beta 120.759683
_cell_angle_gamma 32.275806
_cell_volume 806.779125
_symmetry_space_group_name_H-M "P -1"
_symmetry_group_IT_number 2
_symmetry_cell_setting 'triclinic'
loop_
_space_group_symop_operation_xyz
x,y,z
-x,-y,-z
loop_
_atom_site_type_symbol
_atom_site_label
_atom_site_fract_x
_atom_site_fract_y
_atom_site_fract_z
Si Si1 0.393588 0.721182 0.773508
Si Si2 0.843345 0.194045 0.344829
Si Si3 0.317604 0.398911 0.659129
Si Si4 0.608995 0.962733 0.416511
Si Si5 0.399542 0.326511 0.960426
Si Si6 0.668803 0.165680 0.490126
Si Si7 0.172221 0.752652 0.311219
O O1 0.255766 0.818007 0.795837
O O2 0.450781 0.780058 0.969471
O O3 0.518622 0.433886 0.628358
O O4 0.346018 0.857118 0.700742
O O5 0.816052 0.364297 0.354506
O O6 0.805103 0.302612 0.552549
O O7 0.010402 0.923209 0.260414
O O8 0.464752 0.229078 0.566371
O O9 0.301922 0.241760 0.552176
O O10 0.329242 0.475224 0.876579
O O11 0.705558 0.966511 0.441127
O O12 0.565167 0.897117 0.206521
O O13 0.287211 0.497501 0.124921
O O14 0.799491 0.110575 0.584794
#
# Coordination Sequence:
#
# PCOD8039812 Si02
#       7
#     2   2   2   2   2   2   2
#     4   9  17  29  53  79  94 129 172 209 245 285
#     4  10  18  35  55  71 107 131 166 208 252 294
#     4   9  19  33  51  74 106 135 159 204 262 292
#     4   9  18  34  50  73 110 130 160 207 256 299
#     4   9  19  33  50  81  99 126 176 200 252 298
#     4   9  16  32  52  74 101 129 168 209 246 291
#     4   9  20  34  55  77  94 136 174 205 244 293
#
# _framework density 17.352951999999998
#
# number of rings (size 3 to 8) (size 9 to 14) (size 15 to 20)
#    0.857    2.000    1.429    0.857    0.000    1.714 
#    0.000    0.714    3.143    2.571    0.000    0.000 
#    0.000    0.000    0.000    0.000    0.000    0.000 
#
# Total GULP energy -173467.848445 kJ/mol
# GULP energy per Si atom -12390.560603 kJ/mol
# Density = 1.731346 g / cm^3
# Si number density = 17.352952 Si / 1000 Ang^3
#
#
#
# Elastic Constant Matrix: (Units=GPa)
#
#
# Indices 1 2 3 4 5 6 
#
# 1 98.7376 30.5525 13.0554 -6.8018 0.3546 3.3976
# 2 30.5525 41.6216 2.7568 -8.5338 -7.1489 -7.7758
# 3 13.0554 2.7568 62.9472 -4.2578 -4.8328 -7.7375
# 4 -6.8018 -8.5338 -4.2578 12.8105 0.4077 -1.6101
# 5 0.3546 -7.1489 -4.8328 0.4077 15.1906 -2.8684
# 6 3.3976 -7.7758 -7.7375 -1.6101 -2.8684 34.1371
#
#
#
# Elastic Compliance Matrix: (Units=1/GPa)
#
#
# Indices 1 2 3 4 5 6 
#
# 1 0.015244 -0.014606 -0.004360 -0.003631 -0.009808 -0.006828
# 2 -0.014606 0.048099 0.007127 0.027992 0.027832 0.017684
# 3 -0.004360 0.007127 0.018871 0.009329 0.010657 0.007670
# 4 -0.003631 0.027992 0.009329 0.099234 0.016378 0.014909
# 5 -0.009808 0.027832 0.010657 0.016378 0.085448 0.017684
# 6 -0.006828 0.017684 0.007670 0.014909 0.017684 0.037929
#
#
# Mechanical properties :
#
#
# Convention : Reuss Voigt Hill
#
# Bulk Modulus (GPa) = 17.08368 32.89287 24.98828
# Shear Modulus (GPa) = 14.36729 22.89041 18.62885
#
# Velocity S-wave (km/s) = 2.88052 3.63589 3.28003
# Velocity P-wave (km/s) = 4.57487 6.05166 5.36433
#
# Compressibility (1/GPa) = 0.05853538
#
# Stress axis : x y z
#
# Youngs Moduli (GPa) = 65.60030 20.79053 52.99272
#
# Poissons Ratio (x) = 0.30366 0.23104
# Poissons Ratio (y) = 0.95814 -0.37766
# Poissons Ratio (z) = 0.28601 -0.14817
#
# Static dielectric constant tensor:
#      x y z
#    x 3.234240 -0.004760 -0.079890 
#    y -0.004760 2.982190 -0.158380 
#    z -0.079890 -0.158380 3.088530 
# 
# 
# High freq. dielectric constant tensor:
#      x y z
#    x 1.668470 0.006770 -0.008830 
#    y 0.006770 1.640590 -0.012400 
#    z -0.008830 -0.012400 1.654680 
# 
# From -- ./inp_files/254791.got.cif
#   From: 2010.06.25/outbox.cif.g09.slc.cpg/sg2_128_cif.got.tgz:254791.got - 2010.06.27 13:26:56.
