data_PCOD8039164
_publ_section_title
;
Structure prediction by ZEFSAII (Michael W. Deem and Ramdas Pophale) SiO2 
 PCOD8039164
Probable space group: P -1
;
_chemical_formula_sum "Si O2"
_cell_formula_units_Z 16
_cell_length_a 8.419457
_cell_length_b 8.872020
_cell_length_c 22.633250
_cell_angle_alpha 120.940172
_cell_angle_beta 55.689597
_cell_angle_gamma 76.187030
_cell_volume 797.544474
_symmetry_space_group_name_H-M "P -1"
_symmetry_group_IT_number 2
_symmetry_cell_setting 'triclinic'
loop_
_space_group_symop_operation_xyz
x,y,z
-x,-y,-z
loop_
_atom_site_type_symbol
_atom_site_label
_atom_site_fract_x
_atom_site_fract_y
_atom_site_fract_z
Si Si1 0.236707 0.876797 0.296518
Si Si2 0.616235 0.706604 0.790845
Si Si3 0.539615 0.854272 0.536283
Si Si4 0.650953 0.471609 0.218073
Si Si5 0.717167 0.815749 0.969475
Si Si6 0.680024 0.127422 0.531022
Si Si7 0.023535 0.395396 0.411105
Si Si8 0.882824 0.378849 0.786606
O O1 0.533178 0.679683 0.232066
O O2 0.264361 0.712914 0.205217
O O3 0.988536 0.987563 0.417031
O O4 0.164622 0.108703 0.328277
O O5 0.390651 0.701947 0.827295
O O6 0.829458 0.516290 0.762839
O O7 0.789997 0.619450 0.677014
O O8 0.430364 0.010823 0.904930
O O9 0.538833 0.758256 0.454097
O O10 0.694074 0.612918 0.499968
O O11 0.727054 0.906955 0.508465
O O12 0.219553 0.123415 0.677370
O O13 0.466645 0.629141 0.347585
O O14 0.983214 0.285522 0.123685
O O15 0.767908 0.569734 0.905487
O O16 0.500000 0.000000 0.000000
O O17 0.000000 0.500000 0.500000
#
# Coordination Sequence:
#
# PCOD8039164 Si02
#       8
#     2   2   2   2   2   2   2   2
#     4  10  22  35  55  88 125 158 190 232 287 361
#     4  10  22  39  59  89 117 149 199 247 283 345
#     4  10  19  33  58  84 119 148 194 242 288 342
#     4  11  19  36  63  87 118 148 195 244 299 336
#     4  10  21  37  65  91 111 145 200 254 291 332
#     4  10  18  32  59  90 111 154 192 239 295 339
#     4  12  24  37  55  85 127 160 191 233 293 350
#     4   9  19  39  62  88 112 152 195 246 294 333
#
# _framework density 20.061577
#
# number of rings (size 3 to 8) (size 9 to 14) (size 15 to 20)
#    0.000    1.750    1.250    5.250    1.750    2.000 
#    0.000    1.250    0.000    0.000    0.000    0.000 
#    0.000    0.000    0.000    0.000    0.000    0.000 
#
# Total GULP energy -198285.384526 kJ/mol
# GULP energy per Si atom -12392.836533 kJ/mol
# Density = 2.001592 g / cm^3
# Si number density = 20.061577 Si / 1000 Ang^3
#
#
#
# Elastic Constant Matrix: (Units=GPa)
#
#
# Indices 1 2 3 4 5 6 
#
# 1 112.5245 41.0808 54.7763 20.4602 4.7265 -2.8163
# 2 41.0808 90.8667 27.5747 24.3005 2.9449 -2.7152
# 3 54.7763 27.5747 92.4046 21.6197 15.8485 -4.0932
# 4 20.4602 24.3005 21.6197 26.1023 3.6797 1.3391
# 5 4.7265 2.9449 15.8485 3.6797 50.2958 7.5559
# 6 -2.8163 -2.7152 -4.0932 1.3391 7.5559 22.3061
#
#
#
# Elastic Compliance Matrix: (Units=1/GPa)
#
#
# Indices 1 2 3 4 5 6 
#
# 1 0.013896 -0.003739 -0.006921 -0.001843 0.001273 -0.000291
# 2 -0.003739 0.015942 0.000503 -0.012422 -0.000188 0.002370
# 3 -0.006921 0.000503 0.018101 -0.009562 -0.005106 0.004813
# 4 -0.001843 -0.012422 -0.009562 0.059522 0.000655 -0.007295
# 5 0.001273 -0.000188 -0.005106 0.000655 0.022611 -0.008498
# 6 -0.000291 0.002370 0.004813 -0.007295 -0.008498 0.049282
#
#
# Mechanical properties :
#
#
# Convention : Reuss Voigt Hill
#
# Bulk Modulus (GPa) = 36.20119 60.29549 48.24834
# Shear Modulus (GPa) = 23.93749 31.23179 27.58464
#
# Velocity S-wave (km/s) = 3.45802 3.94991 3.71212
# Velocity P-wave (km/s) = 5.83336 7.13602 6.51732
#
# Compressibility (1/GPa) = 0.02762340
#
# Stress axis : x y z
#
# Youngs Moduli (GPa) = 71.96520 62.72767 55.24518
#
# Poissons Ratio (x) = 0.23453 0.38237
# Poissons Ratio (y) = 0.26907 -0.02777
# Poissons Ratio (z) = 0.49810 -0.03153
#
# Static dielectric constant tensor:
#      x y z
#    x 3.986520 0.054660 0.293650 
#    y 0.054660 3.514000 0.441270 
#    z 0.293650 0.441270 3.852960 
# 
# 
# High freq. dielectric constant tensor:
#      x y z
#    x 1.802580 -0.000490 0.010050 
#    y -0.000490 1.744060 0.032670 
#    z 0.010050 0.032670 1.777220 
# 
# From -- ./inp_files/327746.got.cif
#   From: 2010.06.25/outbox.cif.g09.slc.cpg/sg2_164_cif.got.tgz:327746.got - 2010.06.27 13:26:56.
