data_PCOD8039864
_publ_section_title
;
Structure prediction by ZEFSAII (Michael W. Deem and Ramdas Pophale) SiO2 
 PCOD8039864
Probable space group: P -1
;
_chemical_formula_sum "Si O2"
_cell_formula_units_Z 16
_cell_length_a 11.238924
_cell_length_b 16.551053
_cell_length_c 12.350787
_cell_angle_alpha 71.914366
_cell_angle_beta 130.528545
_cell_angle_gamma 148.205342
_cell_volume 733.282301
_symmetry_space_group_name_H-M "P -1"
_symmetry_group_IT_number 2
_symmetry_cell_setting 'triclinic'
loop_
_space_group_symop_operation_xyz
x,y,z
-x,-y,-z
loop_
_atom_site_type_symbol
_atom_site_label
_atom_site_fract_x
_atom_site_fract_y
_atom_site_fract_z
Si Si1 0.464514 0.226000 0.505934
Si Si2 0.901267 0.137797 0.404920
Si Si3 0.378557 0.771455 0.165248
Si Si4 0.313587 0.492215 0.554101
Si Si5 0.743547 0.117417 0.728433
Si Si6 0.749530 0.246658 0.495112
Si Si7 0.714154 0.788727 0.245511
Si Si8 0.253556 0.422148 0.082556
O O1 0.581133 0.247275 0.681975
O O2 0.503678 0.347404 0.478541
O O3 0.718146 0.312834 0.525799
O O4 0.068864 0.007801 0.324344
O O5 0.080619 0.316274 0.411588
O O6 0.200660 0.218043 0.588776
O O7 0.704887 0.997923 0.245306
O O8 0.598643 0.999843 0.376753
O O9 0.411769 0.712943 0.120618
O O10 0.020019 0.648846 0.987364
O O11 0.612723 0.583547 0.753377
O O12 0.060189 0.414585 0.523651
O O13 0.860109 0.218172 0.643632
O O14 0.621341 0.960243 0.699044
O O15 0.079176 0.286911 0.936239
O O16 0.563277 0.640745 0.137636
#
# Coordination Sequence:
#
# PCOD8039864 Si02
#       8
#     2   2   2   2   2   2   2   2
#     4  11  20  38  54  83 111 141 184 222 261 319
#     4   8  15  33  52  79 102 138 180 216 254 315
#     4  10  19  37  61  78 102 144 191 223 260 315
#     4  10  22  33  55  81 118 141 169 225 277 319
#     4   9  17  32  59  81 103 142 185 222 251 322
#     4  10  18  35  57  82 107 143 183 215 265 319
#     4  10  19  34  59  80 106 141 184 229 264 312
#     4  10  20  38  53  83 112 137 179 226 273 319
#
# _framework density 21.819700999999998
#
# number of rings (size 3 to 8) (size 9 to 14) (size 15 to 20)
#    0.000    2.250    3.750    2.250    1.750    0.500 
#    0.000   10.625    0.000    0.000    0.000    0.000 
#    0.000    0.000    0.000    0.000    0.000    0.000 
#
# Total GULP energy -198222.014563 kJ/mol
# GULP energy per Si atom -12388.875910 kJ/mol
# Density = 2.177004 g / cm^3
# Si number density = 21.819701 Si / 1000 Ang^3
#
#
#
# Elastic Constant Matrix: (Units=GPa)
#
#
# Indices 1 2 3 4 5 6 
#
# 1 59.1781 21.9893 12.7242 -4.1813 0.2360 -22.1391
# 2 21.9893 111.8605 43.9787 8.5982 8.3615 -28.9707
# 3 12.7242 43.9787 70.0247 16.6980 -4.6374 -17.7443
# 4 -4.1813 8.5982 16.6980 19.8241 -5.0184 -2.2526
# 5 0.2360 8.3615 -4.6374 -5.0184 24.9197 5.4106
# 6 -22.1391 -28.9707 -17.7443 -2.2526 5.4106 30.4204
#
#
#
# Elastic Compliance Matrix: (Units=1/GPa)
#
#
# Indices 1 2 3 4 5 6 
#
# 1 0.024611 0.000316 -0.002267 0.008249 -0.003016 0.018037
# 2 0.000316 0.015801 -0.006899 -0.001992 -0.009779 0.012845
# 3 -0.002267 -0.006899 0.024277 -0.016808 0.002548 0.004244
# 4 0.008249 -0.001992 -0.016808 0.069972 0.012134 -0.002674
# 5 -0.003016 -0.009779 0.002548 0.012134 0.050279 -0.018065
# 6 0.018037 0.012845 0.004244 -0.002674 -0.018065 0.063723
#
#
# Mechanical properties :
#
#
# Convention : Reuss Voigt Hill
#
# Bulk Modulus (GPa) = 21.28107 44.27197 32.77652
# Shear Modulus (GPa) = 17.72890 25.85756 21.79323
#
# Velocity S-wave (km/s) = 2.85356 3.44620 3.16379
# Velocity P-wave (km/s) = 4.54218 6.01407 5.32918
#
# Compressibility (1/GPa) = 0.04699013
#
# Stress axis : x y z
#
# Youngs Moduli (GPa) = 40.63256 63.28843 41.19085
#
# Poissons Ratio (x) = -0.02000 0.09337
# Poissons Ratio (y) = -0.01284 0.28416
# Poissons Ratio (z) = 0.09210 0.43660
#
# Static dielectric constant tensor:
#      x y z
#    x 4.043280 -0.350360 -0.057180 
#    y -0.350360 3.844030 0.511170 
#    z -0.057180 0.511170 3.690990 
# 
# 
# High freq. dielectric constant tensor:
#      x y z
#    x 1.864190 -0.023920 0.004360 
#    y -0.023920 1.842230 0.039850 
#    z 0.004360 0.039850 1.823660 
# 
# From -- ./inp_files/197180.got.cif
#   From: 2010.06.25/outbox.cif.g09.slc.cpg/sg2_99_cif.got.tgz:197180.got - 2010.06.27 13:26:56.
