data_PCOD8039155
_publ_section_title
;
Structure prediction by ZEFSAII (Michael W. Deem and Ramdas Pophale) SiO2 
 PCOD8039155
Probable space group: P -1
;
_chemical_formula_sum "Si O2"
_cell_formula_units_Z 14
_cell_length_a 10.998822
_cell_length_b 13.173408
_cell_length_c 9.564102
_cell_angle_alpha 146.886243
_cell_angle_beta 44.724136
_cell_angle_gamma 135.989600
_cell_volume 504.204977
_symmetry_space_group_name_H-M "P -1"
_symmetry_group_IT_number 2
_symmetry_cell_setting 'triclinic'
loop_
_space_group_symop_operation_xyz
x,y,z
-x,-y,-z
loop_
_atom_site_type_symbol
_atom_site_label
_atom_site_fract_x
_atom_site_fract_y
_atom_site_fract_z
Si Si1 0.302942 0.537193 0.209304
Si Si2 0.982968 0.865637 0.492781
Si Si3 0.408992 0.471432 0.761301
Si Si4 0.420242 0.192998 0.199970
Si Si5 0.280189 0.765873 0.749724
Si Si6 0.050706 0.129599 0.977115
Si Si7 0.046892 0.507870 0.144752
O O1 0.376527 0.674662 0.443909
O O2 0.457335 0.523702 0.948880
O O3 0.149182 0.598928 0.313674
O O4 0.212607 0.324604 0.104740
O O5 0.779823 0.794479 0.638976
O O6 0.052403 0.673486 0.212134
O O7 0.113638 0.012105 0.667127
O O8 0.000000 0.000000 0.500000
O O9 0.493170 0.311158 0.429909
O O10 0.465735 0.677035 0.869115
O O11 0.182683 0.383917 0.835824
O O12 0.421289 0.967302 0.935444
O O13 0.131873 0.828968 0.862742
O O14 0.163052 0.621481 0.802252
O O15 0.000000 0.000000 0.000000
#
# Coordination Sequence:
#
# PCOD8039155 Si02
#       7
#     2   2   2   2   2   2   2
#     4   9  18  35  61  89 117 162 201 252 303 367
#     4  11  22  36  63  96 120 154 216 260 299 361
#     4   9  21  40  61  80 130 164 197 245 321 366
#     4  10  22  39  57  88 123 164 193 259 306 366
#     4  10  19  34  63  92 118 153 213 255 296 361
#     4  10  18  32  58  91 123 156 196 258 309 357
#     4   9  20  38  63  90 120 160 200 258 306 360
#
# _framework density 27.766487000000001
#
# number of rings (size 3 to 8) (size 9 to 14) (size 15 to 20)
#    0.857    1.429    0.000    4.286    2.000    1.143 
#    0.000    0.714    6.286    4.286    0.000    0.000 
#    0.000    0.000    0.000    0.000    0.000    0.000 
#
# Total GULP energy -173442.559417 kJ/mol
# GULP energy per Si atom -12388.754244 kJ/mol
# Density = 2.770329 g / cm^3
# Si number density = 27.766487 Si / 1000 Ang^3
#
#
#
# Elastic Constant Matrix: (Units=GPa)
#
#
# Indices 1 2 3 4 5 6 
#
# 1 99.8681 77.5308 71.6762 5.2573 12.9173 -24.3695
# 2 77.5308 176.7012 91.2505 2.1644 7.1640 -41.1627
# 3 71.6762 91.2505 230.8549 5.2429 5.7267 -20.4893
# 4 5.2573 2.1644 5.2429 48.6644 -3.7032 -1.3653
# 5 12.9173 7.1640 5.7267 -3.7032 52.7960 -9.5639
# 6 -24.3695 -41.1627 -20.4893 -1.3653 -9.5639 52.5843
#
#
#
# Elastic Compliance Matrix: (Units=1/GPa)
#
#
# Indices 1 2 3 4 5 6 
#
# 1 0.017314 -0.005478 -0.002925 -0.001476 -0.002912 0.002028
# 2 -0.005478 0.010131 -0.001912 0.000567 0.001093 0.004860
# 3 -0.002925 -0.001912 0.005951 -0.000237 0.000222 -0.000499
# 4 -0.001476 0.000567 -0.000237 0.020867 0.001873 0.000549
# 5 -0.002912 0.001093 0.000222 0.001873 0.020213 0.003318
# 6 0.002028 0.004860 -0.000499 0.000549 0.003318 0.024185
#
#
# Mechanical properties :
#
#
# Convention : Reuss Voigt Hill
#
# Bulk Modulus (GPa) = 78.32818 109.81549 94.07183
# Shear Modulus (GPa) = 40.47015 48.60674 44.53844
#
# Velocity S-wave (km/s) = 3.82189 4.18850 4.00939
# Velocity P-wave (km/s) = 6.90989 7.93895 7.44223
#
# Compressibility (1/GPa) = 0.01276680
#
# Stress axis : x y z
#
# Youngs Moduli (GPa) = 57.75569 98.70273 168.03065
#
# Poissons Ratio (x) = 0.54069 0.49144
# Poissons Ratio (y) = 0.31638 0.32135
# Poissons Ratio (z) = 0.16892 0.18877
#
# Static dielectric constant tensor:
#      x y z
#    x 5.540270 0.352400 0.455930 
#    y 0.352400 4.691160 0.188570 
#    z 0.455930 0.188570 6.085440 
# 
# 
# High freq. dielectric constant tensor:
#      x y z
#    x 2.174960 -0.005430 0.010740 
#    y -0.005430 2.108580 -0.005410 
#    z 0.010740 -0.005410 2.143350 
# 
# From -- ./inp_files/466269.got.cif
#   From: 2010.06.25/outbox.cif.g09.slc.cpg/sg2_234_cif.got.tgz:466269.got - 2010.06.27 13:26:56.
