data_PCOD8039362
_publ_section_title
;
Structure prediction by ZEFSAII (Michael W. Deem and Ramdas Pophale) SiO2 
 PCOD8039362
Probable space group: P -1
;
_chemical_formula_sum "Si O2"
_cell_formula_units_Z 16
_cell_length_a 10.100675
_cell_length_b 15.833958
_cell_length_c 16.845866
_cell_angle_alpha 143.474747
_cell_angle_beta 30.906346
_cell_angle_gamma 134.927981
_cell_volume 822.401734
_symmetry_space_group_name_H-M "P -1"
_symmetry_group_IT_number 2
_symmetry_cell_setting 'triclinic'
loop_
_space_group_symop_operation_xyz
x,y,z
-x,-y,-z
loop_
_atom_site_type_symbol
_atom_site_label
_atom_site_fract_x
_atom_site_fract_y
_atom_site_fract_z
Si Si1 0.594689 0.641103 0.303720
Si Si2 0.735745 0.530813 0.307950
Si Si3 0.194745 0.378698 0.493160
Si Si4 0.968534 0.251880 0.948890
Si Si5 0.153039 0.806645 0.739450
Si Si6 0.836202 0.532921 0.684607
Si Si7 0.553429 0.858520 0.910095
Si Si8 0.106985 0.957502 0.028383
O O1 0.779749 0.588438 0.239190
O O2 0.382575 0.735560 0.523148
O O3 0.460318 0.512436 0.221829
O O4 0.771201 0.739716 0.229302
O O5 0.428520 0.494452 0.443429
O O6 0.822702 0.641888 0.417451
O O7 0.916201 0.399314 0.131210
O O8 0.249857 0.231030 0.310785
O O9 0.932101 0.439315 0.638770
O O10 0.989754 0.124983 0.905143
O O11 0.719550 0.226995 0.999977
O O12 0.891061 0.701742 0.798991
O O13 0.225350 0.843994 0.821962
O O14 0.125428 0.960032 0.828257
O O15 0.000000 0.500000 0.500000
O O16 0.685480 0.910473 0.962811
O O17 0.500000 0.000000 0.000000
#
# Coordination Sequence:
#
# PCOD8039362 Si02
#       8
#     2   2   2   2   2   2   2   2
#     4  11  22  36  60  86 120 149 180 239 301 338
#     4  10  20  33  58  84 117 143 186 242 289 332
#     4  10  18  33  58  86 106 147 198 239 273 330
#     4  10  22  37  56  85 118 151 182 233 293 348
#     4  10  21  36  61  84 112 149 196 242 269 334
#     4  10  18  34  58  86 110 144 194 233 281 338
#     4   9  19  33  58  79 109 149 193 228 270 338
#     4  10  21  39  59  82 110 154 201 231 273 332
#
# _framework density 19.455210999999998
#
# number of rings (size 3 to 8) (size 9 to 14) (size 15 to 20)
#    0.000    2.000    2.500    2.625    7.000    0.500 
#    0.000    3.125    2.750    0.000    0.000    0.000 
#    0.000    0.000    0.000    0.000    0.000    0.000 
#
# Total GULP energy -198232.242441 kJ/mol
# GULP energy per Si atom -12389.515153 kJ/mol
# Density = 1.941093 g / cm^3
# Si number density = 19.455211 Si / 1000 Ang^3
#
#
#
# Elastic Constant Matrix: (Units=GPa)
#
#
# Indices 1 2 3 4 5 6 
#
# 1 117.8133 45.7079 36.8250 2.5651 21.2942 -3.5705
# 2 45.7079 88.7146 48.3429 -2.7588 11.4617 0.0886
# 3 36.8250 48.3429 77.8379 10.4580 14.6684 9.8153
# 4 2.5651 -2.7588 10.4580 30.1033 -0.0005 1.2952
# 5 21.2942 11.4617 14.6684 -0.0005 32.2467 15.4573
# 6 -3.5705 0.0886 9.8153 1.2952 15.4573 29.4913
#
#
#
# Elastic Compliance Matrix: (Units=1/GPa)
#
#
# Indices 1 2 3 4 5 6 
#
# 1 0.012792 -0.003981 -0.002628 -0.000860 -0.009378 0.007389
# 2 -0.003981 0.019933 -0.011587 0.006041 -0.000864 0.003502
# 3 -0.002628 -0.011587 0.023634 -0.008750 -0.001569 -0.006943
# 4 -0.000860 0.006041 -0.008750 0.036891 0.002458 -0.000119
# 5 -0.009378 -0.000864 -0.001569 0.002458 0.051511 -0.027717
# 6 0.007389 0.003502 -0.006943 -0.000119 -0.027717 0.051635
#
#
# Mechanical properties :
#
#
# Convention : Reuss Voigt Hill
#
# Bulk Modulus (GPa) = 50.08411 60.67971 55.38191
# Shear Modulus (GPa) = 20.88184 28.60093 24.74138
#
# Velocity S-wave (km/s) = 3.27972 3.83834 3.56997
# Velocity P-wave (km/s) = 6.33572 7.13449 6.74693
#
# Compressibility (1/GPa) = 0.01996641
#
# Stress axis : x y z
#
# Youngs Moduli (GPa) = 78.17593 50.16756 42.31266
#
# Poissons Ratio (x) = 0.19971 0.11120
# Poissons Ratio (y) = 0.31121 0.49027
# Poissons Ratio (z) = 0.20546 0.58129
#
# Static dielectric constant tensor:
#      x y z
#    x 3.513510 0.155250 0.129850 
#    y 0.155250 3.601980 0.327660 
#    z 0.129850 0.327660 3.403440 
# 
# 
# High freq. dielectric constant tensor:
#      x y z
#    x 1.773130 -0.003970 0.006900 
#    y -0.003970 1.729210 0.029910 
#    z 0.006900 0.029910 1.738110 
# 
# From -- ./inp_files/504334.got.cif
#   From: 2010.06.25/outbox.cif.g09.slc.cpg/sg2_253_cif.got.tgz:504334.got - 2010.06.27 13:26:56.
