data_PCOD8039817
_publ_section_title
;
Structure prediction by ZEFSAII (Michael W. Deem and Ramdas Pophale) SiO2 
 PCOD8039817
Probable space group: P -1
;
_chemical_formula_sum "Si O2"
_cell_formula_units_Z 10
_cell_length_a 11.603084
_cell_length_b 14.176026
_cell_length_c 14.688584
_cell_angle_alpha 159.478473
_cell_angle_beta 143.590824
_cell_angle_gamma 44.969976
_cell_volume 490.142754
_symmetry_space_group_name_H-M "P -1"
_symmetry_group_IT_number 2
_symmetry_cell_setting 'triclinic'
loop_
_space_group_symop_operation_xyz
x,y,z
-x,-y,-z
loop_
_atom_site_type_symbol
_atom_site_label
_atom_site_fract_x
_atom_site_fract_y
_atom_site_fract_z
Si Si1 0.247307 0.914673 0.345976
Si Si2 0.377537 0.978070 0.810701
Si Si3 0.443817 0.854103 0.111336
Si Si4 0.639086 0.755912 0.451181
Si Si5 0.885191 0.595970 0.930529
O O1 0.407541 0.735036 0.254257
O O2 0.335910 0.089305 0.650502
O O3 0.219032 0.117479 0.428468
O O4 0.035964 0.717315 0.055050
O O5 0.533293 0.081091 0.921906
O O6 0.273563 0.659785 0.441769
O O7 0.219088 0.168753 0.885874
O O8 0.500000 0.000000 0.000000
O O9 0.313736 0.048944 0.252867
O O10 0.325732 0.541190 0.769124
O O11 0.000000 0.500000 0.000000
#
# Coordination Sequence:
#
# PCOD8039817 Si02
#       5
#     2   2   2   2   2
#     4   9  20  31  59  88 116 141 196 253 291 335
#     4  12  26  41  59  87 128 166 191 241 312 362
#     4  10  18  35  55  80 115 153 192 232 289 355
#     4   9  19  31  55  90 115 144 185 255 301 330
#     4  12  23  39  65  91 119 153 209 255 287 344
#
# _framework density 20.40222
#
# number of rings (size 3 to 8) (size 9 to 14) (size 15 to 20)
#    1.200    0.400    2.000    4.200    2.800    0.000 
#    0.000    0.000    0.000    7.200    0.000    0.000 
#    0.000    0.000    0.000    0.000    0.000    0.000 
#
# Total GULP energy -123971.181572 kJ/mol
# GULP energy per Si atom -12397.118157 kJ/mol
# Density = 2.035578 g / cm^3
# Si number density = 20.402220 Si / 1000 Ang^3
#
#
#
# Elastic Constant Matrix: (Units=GPa)
#
#
# Indices 1 2 3 4 5 6 
#
# 1 123.2582 33.0703 38.8037 4.9707 11.5313 43.9347
# 2 33.0703 54.7821 23.6205 10.5757 1.4262 18.3201
# 3 38.8037 23.6205 81.9792 26.6501 3.7446 20.3471
# 4 4.9707 10.5757 26.6501 37.6913 7.3789 -3.4309
# 5 11.5313 1.4262 3.7446 7.3789 32.0487 8.5972
# 6 43.9347 18.3201 20.3471 -3.4309 8.5972 41.2079
#
#
#
# Elastic Compliance Matrix: (Units=1/GPa)
#
#
# Indices 1 2 3 4 5 6 
#
# 1 0.014344 -0.003427 -0.002838 0.000277 -0.001514 -0.012030
# 2 -0.003427 0.024931 -0.001411 -0.007096 0.004117 -0.008183
# 3 -0.002838 -0.001411 0.021188 -0.015968 0.004733 -0.009126
# 4 0.000277 -0.007096 -0.015968 0.043784 -0.012562 0.017010
# 5 -0.001514 0.004117 0.004733 -0.012562 0.036936 -0.011305
# 6 -0.012030 -0.008183 -0.009126 0.017010 -0.011305 0.049012
#
#
# Mechanical properties :
#
#
# Convention : Reuss Voigt Hill
#
# Bulk Modulus (GPa) = 22.16742 50.11204 36.13973
# Shear Modulus (GPa) = 22.66721 33.15793 27.91257
#
# Velocity S-wave (km/s) = 3.33681 4.03577 3.70282
# Velocity P-wave (km/s) = 5.07292 6.80675 6.00277
#
# Compressibility (1/GPa) = 0.04511125
#
# Stress axis : x y z
#
# Youngs Moduli (GPa) = 69.71464 40.11133 47.19687
#
# Poissons Ratio (x) = 0.13746 0.13392
# Poissons Ratio (y) = 0.23890 0.06661
# Poissons Ratio (z) = 0.19782 0.05661
#
# Static dielectric constant tensor:
#      x y z
#    x 3.545250 0.169370 0.337370 
#    y 0.169370 3.385250 0.293240 
#    z 0.337370 0.293240 2.269080 
# 
# 
# High freq. dielectric constant tensor:
#      x y z
#    x 1.807240 0.020790 -0.006140 
#    y 0.020790 1.765610 0.034020 
#    z -0.006140 0.034020 1.783930 
# 
# From -- ./inp_files/558.got.cif
#   From: 2010.06.25/outbox.cif.g09.slc.cpg/sg2_1_cif.got.tgz:558.got - 2010.06.27 13:26:56.
