data_PCOD8039297
_publ_section_title
;
Structure prediction by ZEFSAII (Michael W. Deem and Ramdas Pophale) SiO2 
 PCOD8039297
Probable space group: P -1
;
_chemical_formula_sum "Si O2"
_cell_formula_units_Z 16
_cell_length_a 18.155494
_cell_length_b 9.148406
_cell_length_c 9.534686
_cell_angle_alpha 134.043775
_cell_angle_beta 49.960038
_cell_angle_gamma 117.394524
_cell_volume 871.272664
_symmetry_space_group_name_H-M "P -1"
_symmetry_group_IT_number 2
_symmetry_cell_setting 'triclinic'
loop_
_space_group_symop_operation_xyz
x,y,z
-x,-y,-z
loop_
_atom_site_type_symbol
_atom_site_label
_atom_site_fract_x
_atom_site_fract_y
_atom_site_fract_z
Si Si1 0.183396 0.173921 0.775060
Si Si2 0.359196 0.430149 0.683000
Si Si3 0.006087 0.622567 0.930405
Si Si4 0.858403 0.039357 0.595875
Si Si5 0.848242 0.018354 0.025133
Si Si6 0.472564 0.812571 0.811914
Si Si7 0.056702 0.247889 0.476806
Si Si8 0.711726 0.202406 0.109917
O O1 0.279842 0.303925 0.784928
O O2 0.196964 0.044863 0.530241
O O3 0.162171 0.015505 0.820360
O O4 0.098825 0.331906 0.968362
O O5 0.418382 0.611487 0.817079
O O6 0.430956 0.263103 0.427307
O O7 0.302350 0.550667 0.707566
O O8 0.062614 0.833711 0.025400
O O9 0.061582 0.490479 0.657699
O O10 0.000000 0.500000 0.000000
O O11 0.944996 0.191464 0.545401
O O12 0.905979 0.852971 0.493549
O O13 0.783126 0.151835 0.861010
O O14 0.751200 0.118644 0.152178
O O15 0.873473 0.807924 0.775213
O O16 0.394950 0.898962 0.852698
O O17 0.500000 0.000000 0.000000
#
# Coordination Sequence:
#
# PCOD8039297 Si02
#       8
#     2   2   2   2   2   2   2   2
#     4  12  22  36  57  84 121 151 187 243 283 335
#     4   9  20  36  60  89 107 143 193 230 283 342
#     4  12  21  37  60  79 112 162 205 227 273 330
#     4  10  18  33  56  80 107 149 194 232 274 323
#     4  11  24  39  50  87 124 150 189 234 290 327
#     4   9  18  37  64  90 107 137 193 242 277 336
#     4  10  20  35  53  75 109 154 197 232 265 327
#     4   9  19  37  61  83 112 146 190 234 278 341
#
# _framework density 18.363942999999999
#
# number of rings (size 3 to 8) (size 9 to 14) (size 15 to 20)
#    0.750    1.000    2.500    4.125    0.000    0.500 
#    2.250    0.625    0.000    0.750    0.000    0.000 
#    0.000    0.000    0.000    0.000    0.000    0.000 
#
# Total GULP energy -198234.437316 kJ/mol
# GULP energy per Si atom -12389.652332 kJ/mol
# Density = 1.832215 g / cm^3
# Si number density = 18.363943 Si / 1000 Ang^3
#
#
#
# Elastic Constant Matrix: (Units=GPa)
#
#
# Indices 1 2 3 4 5 6 
#
# 1 98.1800 44.7382 45.7681 -6.9788 -15.7268 2.9114
# 2 44.7382 77.5940 26.4620 -5.5857 3.7278 2.6929
# 3 45.7681 26.4620 84.3246 13.0604 -8.5365 -1.4953
# 4 -6.9788 -5.5857 13.0604 21.6872 -1.9682 5.3799
# 5 -15.7268 3.7278 -8.5365 -1.9682 36.2162 3.4406
# 6 2.9114 2.6929 -1.4953 5.3799 3.4406 25.0414
#
#
#
# Elastic Compliance Matrix: (Units=1/GPa)
#
#
# Indices 1 2 3 4 5 6 
#
# 1 0.021145 -0.007946 -0.010254 0.013303 0.008904 -0.006298
# 2 -0.007946 0.019053 -0.002875 0.003893 -0.005750 -0.001343
# 3 -0.010254 -0.002875 0.021250 -0.018618 -0.000814 0.006882
# 4 0.013303 0.003893 -0.018618 0.067784 0.006431 -0.018523
# 5 0.008904 -0.005750 -0.000814 0.006431 0.032832 -0.006358
# 6 -0.006298 -0.001343 0.006882 -0.018523 -0.006358 0.046075
#
#
# Mechanical properties :
#
#
# Convention : Reuss Voigt Hill
#
# Bulk Modulus (GPa) = 51.81972 54.89279 53.35625
# Shear Modulus (GPa) = 19.47647 26.13098 22.80372
#
# Velocity S-wave (km/s) = 3.26019 3.77629 3.52769
# Velocity P-wave (km/s) = 6.51546 6.99788 6.76098
#
# Compressibility (1/GPa) = 0.01929767
#
# Stress axis : x y z
#
# Youngs Moduli (GPa) = 47.29298 52.48616 47.05975
#
# Poissons Ratio (x) = 0.41707 0.48253
# Poissons Ratio (y) = 0.37580 0.13529
# Poissons Ratio (z) = 0.48492 0.15089
#
# Static dielectric constant tensor:
#      x y z
#    x 3.573310 0.101880 -0.251340 
#    y 0.101880 3.114000 0.202350 
#    z -0.251340 0.202350 3.481220 
# 
# 
# High freq. dielectric constant tensor:
#      x y z
#    x 1.709880 0.011260 -0.016840 
#    y 0.011260 1.681980 0.023940 
#    z -0.016840 0.023940 1.711210 
# 
# From -- ./inp_files/327973.got.cif
#   From: 2010.06.25/outbox.cif.g09.slc.cpg/sg2_164_cif.got.tgz:327973.got - 2010.06.27 13:26:56.
