data_PCOD8039060
_publ_section_title
;
Structure prediction by ZEFSAII (Michael W. Deem and Ramdas Pophale) SiO2 
 PCOD8039060
Probable space group: P -1
;
_chemical_formula_sum "Si O2"
_cell_formula_units_Z 14
_cell_length_a 14.750151
_cell_length_b 6.318610
_cell_length_c 8.852988
_cell_angle_alpha 79.939558
_cell_angle_beta 88.520883
_cell_angle_gamma 109.539386
_cell_volume 762.468798
_symmetry_space_group_name_H-M "P -1"
_symmetry_group_IT_number 2
_symmetry_cell_setting 'triclinic'
loop_
_space_group_symop_operation_xyz
x,y,z
-x,-y,-z
loop_
_atom_site_type_symbol
_atom_site_label
_atom_site_fract_x
_atom_site_fract_y
_atom_site_fract_z
Si Si1 0.425858 0.341170 0.812614
Si Si2 0.455478 0.854445 0.374527
Si Si3 0.964435 0.754181 0.606572
Si Si4 0.862279 0.336199 0.449918
Si Si5 0.292972 0.463503 0.584128
Si Si6 0.396439 0.217493 0.166723
Si Si7 0.209057 0.149869 0.353730
O O1 0.457552 0.178749 0.718959
O O2 0.332414 0.381854 0.742647
O O3 0.511757 0.580370 0.799973
O O4 0.394630 0.209768 0.987379
O O5 0.381209 0.611723 0.457573
O O6 0.500000 0.000000 0.500000
O O7 0.399886 0.978168 0.256509
O O8 0.920080 0.561598 0.509483
O O9 0.877553 0.764471 0.719899
O O10 0.061792 0.710751 0.669753
O O11 0.000000 0.000000 0.500000
O O12 0.771244 0.385461 0.373219
O O13 0.823865 0.124393 0.595381
O O14 0.233895 0.247790 0.510901
O O15 0.298312 0.248771 0.224341
#
# Coordination Sequence:
#
# PCOD8039060 Si02
#       7
#     2   2   2   2   2   2   2
#     4  11  24  36  49  77 111 146 178 220 265 307
#     4  12  21  35  54  74 102 143 186 224 258 307
#     4   8  16  30  50  82 109 127 165 223 265 310
#     4   9  17  30  52  80 106 132 170 219 267 305
#     4  11  20  32  53  78 103 137 184 219 260 309
#     4  11  22  37  52  74 112 145 178 218 264 315
#     4  10  18  32  55  78 104 139 177 218 260 315
#
# _framework density 18.361407
#
# number of rings (size 3 to 8) (size 9 to 14) (size 15 to 20)
#    0.000    1.714    4.286    1.714    0.000    0.000 
#    0.000    0.000    0.000    0.857    0.000   34.000 
#    0.000    0.000    0.000    0.000    0.000    0.000 
#
# Total GULP energy -173449.360823 kJ/mol
# GULP energy per Si atom -12389.240059 kJ/mol
# Density = 1.831962 g / cm^3
# Si number density = 18.361407 Si / 1000 Ang^3
#
#
#
# Elastic Constant Matrix: (Units=GPa)
#
#
# Indices 1 2 3 4 5 6 
#
# 1 153.3481 15.3466 48.2585 10.9181 -14.6777 -31.2993
# 2 15.3466 79.7205 23.5314 2.2776 0.3601 -2.2903
# 3 48.2585 23.5314 78.8012 5.0324 9.0736 -9.5333
# 4 10.9181 2.2776 5.0324 18.9593 -3.5519 -5.2482
# 5 -14.6777 0.3601 9.0736 -3.5519 13.4711 -1.6003
# 6 -31.2993 -2.2903 -9.5333 -5.2482 -1.6003 33.7702
#
#
#
# Elastic Compliance Matrix: (Units=1/GPa)
#
#
# Indices 1 2 3 4 5 6 
#
# 1 0.014470 0.000502 -0.010585 0.002416 0.024946 0.012015
# 2 0.000502 0.013860 -0.004821 0.000032 0.003458 0.000213
# 3 -0.010585 -0.004821 0.023784 -0.006884 -0.029941 -0.005912
# 4 0.002416 0.000032 -0.006884 0.060806 0.024597 0.010913
# 5 0.024946 0.003458 -0.029941 0.024597 0.130935 0.024930
# 6 0.012015 0.000213 -0.005912 0.010913 0.024930 0.041970
#
#
# Mechanical properties :
#
#
# Convention : Reuss Voigt Hill
#
# Bulk Modulus (GPa) = 44.82845 54.01588 49.42217
# Shear Modulus (GPa) = 15.47668 28.22234 21.84951
#
# Velocity S-wave (km/s) = 2.90641 3.92477 3.45334
# Velocity P-wave (km/s) = 5.97750 7.07252 6.54794
#
# Compressibility (1/GPa) = 0.02230726
#
# Stress axis : x y z
#
# Youngs Moduli (GPa) = 69.10962 72.15180 42.04553
#
# Poissons Ratio (x) = -0.03624 0.44503
# Poissons Ratio (y) = -0.03471 0.20269
# Poissons Ratio (z) = 0.73149 0.34782
#
# Static dielectric constant tensor:
#      x y z
#    x 4.368680 -0.124990 -0.221020 
#    y -0.124990 3.556360 -0.062320 
#    z -0.221020 -0.062320 2.983520 
# 
# 
# High freq. dielectric constant tensor:
#      x y z
#    x 1.739570 -0.010360 -0.017980 
#    y -0.010360 1.728630 -0.008960 
#    z -0.017980 -0.008960 1.649950 
# 
# From -- ./inp_files/29785.got.cif
#   From: 2010.06.25/outbox.cif.g09.slc.cpg/sg2_15_cif.got.tgz:29785.got - 2010.06.27 13:26:56.
