data_PCOD8039505
_publ_section_title
;
Structure prediction by ZEFSAII (Michael W. Deem and Ramdas Pophale) SiO2 
 PCOD8039505
Probable space group: P -1
;
_chemical_formula_sum "Si O2"
_cell_formula_units_Z 16
_cell_length_a 18.884169
_cell_length_b 13.482050
_cell_length_c 9.736943
_cell_angle_alpha 110.860350
_cell_angle_beta 98.620208
_cell_angle_gamma 26.279159
_cell_volume 935.701237
_symmetry_space_group_name_H-M "P -1"
_symmetry_group_IT_number 2
_symmetry_cell_setting 'triclinic'
loop_
_space_group_symop_operation_xyz
x,y,z
-x,-y,-z
loop_
_atom_site_type_symbol
_atom_site_label
_atom_site_fract_x
_atom_site_fract_y
_atom_site_fract_z
Si Si1 0.181840 0.300164 0.907324
Si Si2 0.840562 0.431311 0.909717
Si Si3 0.682282 0.335725 0.739929
Si Si4 0.830173 0.238505 0.977395
Si Si5 0.385568 0.877444 0.597464
Si Si6 0.465463 0.249663 0.170586
Si Si7 0.433300 0.483685 0.742049
Si Si8 0.220514 0.879272 0.631015
O O1 0.230986 0.175215 0.714442
O O2 0.335292 0.064407 0.947628
O O3 0.164424 0.449217 0.956825
O O4 0.000000 0.500000 0.000000
O O5 0.679347 0.641540 0.858874
O O6 0.816212 0.379076 0.996752
O O7 0.017947 0.174353 0.749312
O O8 0.564129 0.601802 0.848714
O O9 0.562271 0.401815 0.788549
O O10 0.765993 0.203044 0.549007
O O11 0.837671 0.147828 0.803729
O O12 0.663275 0.432210 0.114367
O O13 0.000000 0.000000 0.000000
O O14 0.550990 0.697021 0.646052
O O15 0.446657 0.775319 0.409815
O O16 0.324938 0.847929 0.633830
O O17 0.304296 0.698576 0.690021
#
# Coordination Sequence:
#
# PCOD8039505 Si02
#       8
#     2   2   2   2   2   2   2   2
#     4  10  18  34  54  79 103 137 180 228 266 305
#     4  11  21  32  51  80 111 140 174 219 270 319
#     4  10  20  35  56  83 104 143 179 221 265 311
#     4  11  24  35  49  79 118 146 173 208 273 328
#     4   9  18  32  55  80  99 136 180 224 262 300
#     4   9  18  31  50  81 107 132 170 221 271 305
#     4  11  18  36  54  78 112 144 178 213 260 329
#     4  11  17  32  58  82 107 132 182 225 264 311
#
# _framework density 17.099474000000001
#
# number of rings (size 3 to 8) (size 9 to 14) (size 15 to 20)
#    0.750    1.000    5.000    1.500    0.000    3.000 
#    0.000    0.625    0.000    0.000    0.000    5.250 
#    0.000    0.000    0.000    0.000    0.000    0.000 
#
# Total GULP energy -198213.573256 kJ/mol
# GULP energy per Si atom -12388.348329 kJ/mol
# Density = 1.706056 g / cm^3
# Si number density = 17.099474 Si / 1000 Ang^3
#
#
#
# Elastic Constant Matrix: (Units=GPa)
#
#
# Indices 1 2 3 4 5 6 
#
# 1 80.6318 28.4012 44.5151 3.4898 20.2411 9.2414
# 2 28.4012 79.8038 35.8564 6.0979 11.9790 -10.6322
# 3 44.5151 35.8564 91.4097 7.4777 14.3674 9.6772
# 4 3.4898 6.0979 7.4777 30.9983 -1.4118 3.8624
# 5 20.2411 11.9790 14.3674 -1.4118 27.2884 -2.1505
# 6 9.2414 -10.6322 9.6772 3.8624 -2.1505 24.8512
#
#
#
# Elastic Compliance Matrix: (Units=1/GPa)
#
#
# Indices 1 2 3 4 5 6 
#
# 1 0.020897 -0.004248 -0.005912 0.000438 -0.011156 -0.008320
# 2 -0.004248 0.018935 -0.006246 -0.003351 -0.001057 0.012542
# 3 -0.005912 -0.006246 0.017614 -0.001569 -0.002806 -0.007332
# 4 0.000438 -0.003351 -0.001569 0.034146 0.003265 -0.006010
# 5 -0.011156 -0.001057 -0.002806 0.003265 0.047694 0.008409
# 6 -0.008320 0.012542 -0.007332 -0.006010 0.008409 0.053216
#
#
# Mechanical properties :
#
#
# Convention : Reuss Voigt Hill
#
# Bulk Modulus (GPa) = 40.59376 52.15451 46.37413
# Shear Modulus (GPa) = 21.41092 26.16575 23.78833
#
# Velocity S-wave (km/s) = 3.54240 3.91603 3.73389
# Velocity P-wave (km/s) = 6.36575 7.14240 6.76523
#
# Compressibility (1/GPa) = 0.02463433
#
# Stress axis : x y z
#
# Youngs Moduli (GPa) = 47.85291 52.81310 56.77173
#
# Poissons Ratio (x) = 0.22436 0.33562
# Poissons Ratio (y) = 0.20329 0.35460
# Poissons Ratio (z) = 0.28290 0.32987
#
# Static dielectric constant tensor:
#      x y z
#    x 3.271730 -0.145080 0.212830 
#    y -0.145080 3.202010 0.040730 
#    z 0.212830 0.040730 3.307540 
# 
# 
# High freq. dielectric constant tensor:
#      x y z
#    x 1.663390 -0.016770 0.019660 
#    y -0.016770 1.643870 0.008870 
#    z 0.019660 0.008870 1.649580 
# 
# From -- ./inp_files/319959.got.cif
#   From: 2010.06.25/outbox.cif.g09.slc.cpg/sg2_160_cif.got.tgz:319959.got - 2010.06.27 13:26:56.
