data_PCOD8039770
_publ_section_title
;
Structure prediction by ZEFSAII (Michael W. Deem and Ramdas Pophale) SiO2 
 PCOD8039770
Probable space group: P -1
;
_chemical_formula_sum "Si O2"
_cell_formula_units_Z 12
_cell_length_a 11.911551
_cell_length_b 11.030597
_cell_length_c 12.341040
_cell_angle_alpha 79.267868
_cell_angle_beta 144.133017
_cell_angle_gamma 126.825668
_cell_volume 585.207163
_symmetry_space_group_name_H-M "P -1"
_symmetry_group_IT_number 2
_symmetry_cell_setting 'triclinic'
loop_
_space_group_symop_operation_xyz
x,y,z
-x,-y,-z
loop_
_atom_site_type_symbol
_atom_site_label
_atom_site_fract_x
_atom_site_fract_y
_atom_site_fract_z
Si Si1 0.786866 0.998153 0.383522
Si Si2 0.343618 0.681340 0.941060
Si Si3 0.376464 0.423770 0.794206
Si Si4 0.746139 0.983118 0.596218
Si Si5 0.714555 0.251192 0.539259
Si Si6 0.389654 0.207967 0.106508
O O1 0.662660 0.904239 0.421583
O O2 0.490751 0.869170 0.094322
O O3 0.000000 0.000000 0.500000
O O4 0.004866 0.228870 0.527368
O O5 0.461669 0.750550 0.899487
O O6 0.978377 0.486560 0.691168
O O7 0.470718 0.626438 0.117484
O O8 0.477138 0.594521 0.777975
O O9 0.500000 0.500000 0.000000
O O10 0.453293 0.806047 0.469521
O O11 0.842410 0.175779 0.649959
O O12 0.025615 0.036469 0.842401
O O13 0.474479 0.145566 0.269981
#
# Coordination Sequence:
#
# PCOD8039770 Si02
#       6
#     2   2   2   2   2   2
#     4  10  18  34  64  82 108 158 184 226 290 337
#     4  10  19  35  58  86 113 148 189 232 283 331
#     4   9  15  31  59  79 105 142 189 225 267 324
#     4  11  21  40  58  82 118 148 190 233 285 332
#     4  11  24  35  58  90 112 148 192 236 278 332
#     4  11  19  38  61  82 113 151 193 232 274 335
#
# _framework density 20.505558000000001
#
# number of rings (size 3 to 8) (size 9 to 14) (size 15 to 20)
#    0.000    1.667    6.667    2.000    0.000    0.667 
#    0.000    3.333    0.000    4.000    0.000    0.000 
#    0.000    0.000    0.000    0.000    0.000    0.000 
#
# Total GULP energy -148690.211819 kJ/mol
# GULP energy per Si atom -12390.850985 kJ/mol
# Density = 2.045889 g / cm^3
# Si number density = 20.505558 Si / 1000 Ang^3
#
#
#
# Elastic Constant Matrix: (Units=GPa)
#
#
# Indices 1 2 3 4 5 6 
#
# 1 113.2184 19.6377 40.6244 8.5626 -3.4890 33.2016
# 2 19.6377 31.2100 13.3521 -3.0753 -2.0339 7.9430
# 3 40.6244 13.3521 86.9966 6.3264 -7.0345 1.2335
# 4 8.5626 -3.0753 6.3264 30.3890 -1.9609 -2.0967
# 5 -3.4890 -2.0339 -7.0345 -1.9609 31.3414 3.9219
# 6 33.2016 7.9430 1.2335 -2.0967 3.9219 20.5406
#
#
#
# Elastic Compliance Matrix: (Units=1/GPa)
#
#
# Indices 1 2 3 4 5 6 
#
# 1 0.026181 -0.001550 -0.010364 -0.007993 0.005360 -0.042936
# 2 -0.001550 0.039064 -0.005200 0.004815 0.003045 -0.012378
# 3 -0.010364 -0.005200 0.016880 0.000110 0.000084 0.017745
# 4 -0.007993 0.004815 0.000110 0.036638 -0.000114 0.014812
# 5 0.005360 0.003045 0.000084 -0.000114 0.034777 -0.016499
# 6 -0.042936 -0.012378 0.017745 0.014812 -0.016499 0.126469
#
#
# Mechanical properties :
#
#
# Convention : Reuss Voigt Hill
#
# Bulk Modulus (GPa) = 20.87864 42.07260 31.47562
# Shear Modulus (GPa) = 15.14217 26.97493 21.05855
#
# Velocity S-wave (km/s) = 2.72038 3.63091 3.20811
# Velocity P-wave (km/s) = 4.48010 6.17577 5.39497
#
# Compressibility (1/GPa) = 0.04789583
#
# Stress axis : x y z
#
# Youngs Moduli (GPa) = 38.19534 25.59895 59.24258
#
# Poissons Ratio (x) = 0.03969 0.61401
# Poissons Ratio (y) = 0.05922 0.30806
# Poissons Ratio (z) = 0.39587 0.13311
#
# Static dielectric constant tensor:
#      x y z
#    x 3.782560 -0.273740 -0.229800 
#    y -0.273740 3.913140 0.277350 
#    z -0.229800 0.277350 4.069410 
# 
# 
# High freq. dielectric constant tensor:
#      x y z
#    x 1.784110 0.003610 -0.000110 
#    y 0.003610 1.775740 0.007330 
#    z -0.000110 0.007330 1.807150 
# 
# From -- ./inp_files/162149.got.cif
#   From: 2010.06.25/outbox.cif.g09.slc.cpg/sg2_82_cif.got.tgz:162149.got - 2010.06.27 13:26:56.
