data_PCOD8039747
_publ_section_title
;
Structure prediction by ZEFSAII (Michael W. Deem and Ramdas Pophale) SiO2 
 PCOD8039747
Probable space group: P -1
;
_chemical_formula_sum "Si O2"
_cell_formula_units_Z 16
_cell_length_a 11.598149
_cell_length_b 9.658632
_cell_length_c 12.546072
_cell_angle_alpha 127.095681
_cell_angle_beta 92.468189
_cell_angle_gamma 55.139797
_cell_volume 816.306845
_symmetry_space_group_name_H-M "P -1"
_symmetry_group_IT_number 2
_symmetry_cell_setting 'triclinic'
loop_
_space_group_symop_operation_xyz
x,y,z
-x,-y,-z
loop_
_atom_site_type_symbol
_atom_site_label
_atom_site_fract_x
_atom_site_fract_y
_atom_site_fract_z
Si Si1 0.683901 0.318260 0.903548
Si Si2 0.837229 0.248502 0.477684
Si Si3 0.125858 0.701940 0.266692
Si Si4 0.267497 0.508854 0.826585
Si Si5 0.360108 0.865606 0.570442
Si Si6 0.708984 0.587978 0.451454
Si Si7 0.914461 0.616289 0.159619
Si Si8 0.631561 0.061559 0.641578
O O1 0.735726 0.423189 0.875003
O O2 0.722643 0.091974 0.745063
O O3 0.500000 0.500000 0.000000
O O4 0.759194 0.287719 0.008962
O O5 0.795904 0.365387 0.646151
O O6 0.697098 0.260902 0.448004
O O7 0.836214 0.401206 0.459304
O O8 0.007275 0.981275 0.362206
O O9 0.034234 0.613911 0.229646
O O10 0.257055 0.556385 0.722236
O O11 0.122023 0.529135 0.853868
O O12 0.441300 0.246880 0.738851
O O13 0.536656 0.715057 0.546656
O O14 0.336740 0.898388 0.456634
O O15 0.253168 0.118780 0.741740
O O16 0.713621 0.789250 0.524754
O O17 0.000000 0.500000 0.000000
#
# Coordination Sequence:
#
# PCOD8039747 Si02
#       8
#     2   2   2   2   2   2   2   2
#     4  10  20  35  61  83 114 156 194 229 281 351
#     4  10  22  36  58  85 116 149 190 244 289 337
#     4  10  21  38  57  82 113 152 197 229 288 348
#     4  10  19  35  57  90 112 150 194 231 288 341
#     4  10  18  35  59  87 112 152 197 235 278 341
#     4  11  20  35  61  89 116 145 196 246 285 326
#     4  11  19  32  60  84 114 153 191 233 279 346
#     4  10  18  34  62  87 113 146 195 244 272 335
#
# _framework density 19.600473000000001
#
# number of rings (size 3 to 8) (size 9 to 14) (size 15 to 20)
#    0.000    1.750    5.000    1.125    0.000    0.000 
#    0.000    3.125    5.500    3.750    0.000    0.000 
#    0.000    0.000    0.000    0.000    0.000    0.000 
#
# Total GULP energy -198261.731674 kJ/mol
# GULP energy per Si atom -12391.358230 kJ/mol
# Density = 1.955586 g / cm^3
# Si number density = 19.600473 Si / 1000 Ang^3
#
#
#
# Elastic Constant Matrix: (Units=GPa)
#
#
# Indices 1 2 3 4 5 6 
#
# 1 89.9997 15.3425 20.4211 -3.0685 -8.0517 1.3198
# 2 15.3425 90.2524 29.9291 -16.0140 10.1206 4.2540
# 3 20.4211 29.9291 106.8436 -20.7461 2.9338 -5.5657
# 4 -3.0685 -16.0140 -20.7461 16.7482 2.2216 1.8874
# 5 -8.0517 10.1206 2.9338 2.2216 37.4559 -4.1209
# 6 1.3198 4.2540 -5.5657 1.8874 -4.1209 17.1842
#
#
#
# Elastic Compliance Matrix: (Units=1/GPa)
#
#
# Indices 1 2 3 4 5 6 
#
# 1 0.012274 -0.002306 -0.002481 -0.003528 0.003676 0.000094
# 2 -0.002306 0.015497 -0.001304 0.014412 -0.006223 -0.007157
# 3 -0.002481 -0.001304 0.013229 0.014610 -0.001779 0.002766
# 4 -0.003528 0.014412 0.014610 0.093965 -0.012682 -0.011927
# 5 0.003676 -0.006223 -0.001779 -0.012682 0.031110 0.009535
# 6 0.000094 -0.007157 0.002766 -0.011927 0.009535 0.064450
#
#
# Mechanical properties :
#
#
# Convention : Reuss Voigt Hill
#
# Bulk Modulus (GPa) = 34.70079 46.49789 40.59934
# Shear Modulus (GPa) = 19.81660 29.03785 24.42722
#
# Velocity S-wave (km/s) = 3.18311 3.85318 3.53407
# Velocity P-wave (km/s) = 5.59036 6.60079 6.11647
#
# Compressibility (1/GPa) = 0.02881779
#
# Stress axis : x y z
#
# Youngs Moduli (GPa) = 81.47000 64.52933 75.59369
#
# Poissons Ratio (x) = 0.14883 0.18755
# Poissons Ratio (y) = 0.18790 0.09855
# Poissons Ratio (z) = 0.20213 0.08412
#
# Static dielectric constant tensor:
#      x y z
#    x -0.472250 -0.456050 -1.009740 
#    y -0.456050 3.022000 -0.336670 
#    z -1.009740 -0.336670 3.646780 
# 
# 
# High freq. dielectric constant tensor:
#      x y z
#    x 1.785590 0.002340 -0.002600 
#    y 0.002340 1.703780 -0.020980 
#    z -0.002600 -0.020980 1.771370 
# 
# From -- ./inp_files/260019.got.cif
#   From: 2010.06.25/outbox.cif.g09.slc.cpg/sg2_131_cif.got.tgz:260019.got - 2010.06.27 13:26:56.
