data_PCOD8039748
_publ_section_title
;
Structure prediction by ZEFSAII (Michael W. Deem and Ramdas Pophale) SiO2 
 PCOD8039748
Probable space group: P -1
;
_chemical_formula_sum "Si O2"
_cell_formula_units_Z 16
_cell_length_a 11.033596
_cell_length_b 21.171449
_cell_length_c 12.023538
_cell_angle_alpha 152.954324
_cell_angle_beta 50.186767
_cell_angle_gamma 138.812628
_cell_volume 836.776785
_symmetry_space_group_name_H-M "P -1"
_symmetry_group_IT_number 2
_symmetry_cell_setting 'triclinic'
loop_
_space_group_symop_operation_xyz
x,y,z
-x,-y,-z
loop_
_atom_site_type_symbol
_atom_site_label
_atom_site_fract_x
_atom_site_fract_y
_atom_site_fract_z
Si Si1 0.721067 0.766113 0.286682
Si Si2 0.743096 0.887364 0.974537
Si Si3 0.180470 0.491666 0.871869
Si Si4 0.527734 0.504342 0.160510
Si Si5 0.891862 0.112886 0.656106
Si Si6 0.997482 0.869031 0.635320
Si Si7 0.324704 0.702929 0.923093
Si Si8 0.652020 0.559662 0.599072
O O1 0.589372 0.672728 0.323311
O O2 0.927478 0.802705 0.240511
O O3 0.737379 0.937600 0.521653
O O4 0.631336 0.651017 0.053021
O O5 0.536993 0.835706 0.977725
O O6 0.768205 0.755104 0.825089
O O7 0.863002 0.930034 0.856879
O O8 0.820312 0.043640 0.256096
O O9 0.283116 0.500515 0.941546
O O10 0.330714 0.647202 0.957994
O O11 0.117519 0.324410 0.581659
O O12 0.000000 0.500000 0.000000
O O13 0.448052 0.507734 0.330902
O O14 0.946250 0.091133 0.464745
O O15 0.808142 0.226916 0.893299
O O16 0.241650 0.539368 0.638282
O O17 0.500000 0.500000 0.500000
#
# Coordination Sequence:
#
# PCOD8039748 Si02
#       8
#     2   2   2   2   2   2   2   2
#     4  10  24  40  61  79 116 165 210 228 280 344
#     4  10  21  34  56  94 120 153 183 237 314 362
#     4  12  20  34  59  93 121 150 186 252 305 343
#     4  11  20  40  62  85 111 161 203 238 280 361
#     4  11  23  40  58  86 119 159 196 248 283 344
#     4  11  21  35  57  85 126 152 189 237 296 354
#     4  11  21  36  61  91 122 147 193 243 310 352
#     4  10  18  34  62  87 116 148 188 238 304 356
#
# _framework density 19.120989000000002
#
# number of rings (size 3 to 8) (size 9 to 14) (size 15 to 20)
#    0.000    1.250    6.250    1.500    0.000    1.500 
#    0.000    1.250    0.000    0.000    0.000    0.000 
#    0.000    0.000    0.000    0.000    0.000    0.000 
#
# Total GULP energy -198234.356441 kJ/mol
# GULP energy per Si atom -12389.647278 kJ/mol
# Density = 1.907747 g / cm^3
# Si number density = 19.120989 Si / 1000 Ang^3
#
#
#
# Elastic Constant Matrix: (Units=GPa)
#
#
# Indices 1 2 3 4 5 6 
#
# 1 81.5714 35.2037 59.0075 -3.4161 6.5888 -2.2773
# 2 35.2037 93.4881 40.5668 -1.5514 -1.8970 -10.3340
# 3 59.0075 40.5668 97.9160 4.1581 4.4899 -4.5356
# 4 -3.4161 -1.5514 4.1581 37.6345 0.3730 2.4184
# 5 6.5888 -1.8970 4.4899 0.3730 26.2287 6.4271
# 6 -2.2773 -10.3340 -4.5356 2.4184 6.4271 29.6830
#
#
#
# Elastic Compliance Matrix: (Units=1/GPa)
#
#
# Indices 1 2 3 4 5 6 
#
# 1 0.023300 -0.003393 -0.012645 0.003460 -0.003790 -0.000787
# 2 -0.003393 0.014019 -0.003684 0.000425 0.001589 0.003679
# 3 -0.012645 -0.003684 0.019595 -0.003534 -0.000682 0.001177
# 4 0.003460 0.000425 -0.003534 0.027445 -0.000048 -0.002352
# 5 -0.003790 0.001589 -0.000682 -0.000048 0.041471 -0.008817
# 6 -0.000787 0.003679 0.001177 -0.002352 -0.008817 0.037190
#
#
# Mechanical properties :
#
#
# Convention : Reuss Voigt Hill
#
# Bulk Modulus (GPa) = 57.24135 60.28128 58.76132
# Shear Modulus (GPa) = 24.00521 27.92240 25.96380
#
# Velocity S-wave (km/s) = 3.54706 3.82553 3.68893
# Velocity P-wave (km/s) = 6.83936 7.14896 6.99587
#
# Compressibility (1/GPa) = 0.01746989
#
# Stress axis : x y z
#
# Youngs Moduli (GPa) = 42.91834 71.33369 51.03278
#
# Poissons Ratio (x) = 0.24205 0.64532
# Poissons Ratio (y) = 0.14563 0.18798
# Poissons Ratio (z) = 0.54271 0.26276
#
# Static dielectric constant tensor:
#      x y z
#    x 3.459880 -0.035650 0.040130 
#    y -0.035650 3.909480 -0.010550 
#    z 0.040130 -0.010550 4.090950 
# 
# 
# High freq. dielectric constant tensor:
#      x y z
#    x 1.714790 0.004450 0.011550 
#    y 0.004450 1.761800 0.009700 
#    z 0.011550 0.009700 1.738140 
# 
# From -- ./inp_files/338034.got.cif
#   From: 2010.06.25/outbox.cif.g09.slc.cpg/sg2_170_cif.got.tgz:338034.got - 2010.06.27 13:26:56.
