data_PCOD8039659
_publ_section_title
;
Structure prediction by ZEFSAII (Michael W. Deem and Ramdas Pophale) SiO2 
 PCOD8039659
Probable space group: P -1
;
_chemical_formula_sum "Si O2"
_cell_formula_units_Z 16
_cell_length_a 10.757882
_cell_length_b 16.977137
_cell_length_c 10.242620
_cell_angle_alpha 32.422399
_cell_angle_beta 75.204026
_cell_angle_gamma 62.390184
_cell_volume 851.673480
_symmetry_space_group_name_H-M "P -1"
_symmetry_group_IT_number 2
_symmetry_cell_setting 'triclinic'
loop_
_space_group_symop_operation_xyz
x,y,z
-x,-y,-z
loop_
_atom_site_type_symbol
_atom_site_label
_atom_site_fract_x
_atom_site_fract_y
_atom_site_fract_z
Si Si1 0.625680 0.460455 0.628077
Si Si2 0.154419 0.869898 0.855048
Si Si3 0.322288 0.765032 0.700364
Si Si4 0.843041 0.510877 0.147370
Si Si5 0.924488 0.774202 0.678595
Si Si6 0.127677 0.117396 0.172718
Si Si7 0.861047 0.571931 0.342351
Si Si8 0.428181 0.481665 0.870998
O O1 0.500000 0.500000 0.500000
O O2 0.722088 0.555053 0.454042
O O3 0.542104 0.519582 0.706311
O O4 0.739778 0.260113 0.881846
O O5 0.206559 0.792165 0.806508
O O6 0.988534 0.898247 0.871111
O O7 0.156970 0.046243 0.625079
O O8 0.324311 0.634474 0.777187
O O9 0.274211 0.940964 0.396526
O O10 0.484094 0.686755 0.830294
O O11 0.914041 0.482930 0.311221
O O12 0.676307 0.548790 0.157638
O O13 0.927086 0.344323 0.271752
O O14 0.832255 0.673459 0.848138
O O15 0.954383 0.810656 0.767493
O O16 0.189793 0.232395 0.932727
O O17 0.000000 0.500000 0.500000
#
# Coordination Sequence:
#
# PCOD8039659 Si02
#       8
#     2   2   2   2   2   2   2   2
#     4  11  22  39  55  77 110 150 188 217 271 329
#     4  10  18  34  59  82 109 139 180 227 268 324
#     4   9  19  33  55  88 107 142 176 221 279 325
#     4  10  19  35  57  82 113 140 179 231 272 323
#     4   9  19  33  55  89 107 135 177 233 277 310
#     4  10  18  34  59  82 110 137 180 231 265 320
#     4  11  22  39  57  79 106 148 192 225 265 319
#     4  10  19  35  57  80 114 146 176 222 273 335
#
# _framework density 18.786542000000001
#
# number of rings (size 3 to 8) (size 9 to 14) (size 15 to 20)
#    0.000    2.000    2.500    3.000    0.000    0.000 
#    4.500    5.000    0.000    0.000    0.000    0.000 
#    0.000    0.000    0.000    0.000    0.000    0.000 
#
# Total GULP energy -198240.904358 kJ/mol
# GULP energy per Si atom -12390.056522 kJ/mol
# Density = 1.874378 g / cm^3
# Si number density = 18.786542 Si / 1000 Ang^3
#
#
#
# Elastic Constant Matrix: (Units=GPa)
#
#
# Indices 1 2 3 4 5 6 
#
# 1 126.1204 41.3261 74.3583 0.0014 4.2051 -0.6569
# 2 41.3261 69.5049 44.9956 -15.1087 4.8239 -4.0486
# 3 74.3583 44.9956 162.9040 -17.1282 6.3907 0.2618
# 4 0.0014 -15.1087 -17.1282 25.9797 0.7112 0.1394
# 5 4.2051 4.8239 6.3907 0.7112 26.4004 11.5338
# 6 -0.6569 -4.0486 0.2618 0.1394 11.5338 16.8127
#
#
#
# Elastic Compliance Matrix: (Units=1/GPa)
#
#
# Indices 1 2 3 4 5 6 
#
# 1 0.012760 -0.006059 -0.004907 -0.006782 0.001152 -0.001618
# 2 -0.006059 0.023130 -0.002049 0.012255 -0.007704 0.010548
# 3 -0.004907 -0.002049 0.009534 0.005130 -0.001296 0.000013
# 4 -0.006782 0.012255 0.005130 0.049148 -0.006690 0.006789
# 5 0.001152 -0.007704 -0.001296 -0.006690 0.057624 -0.041266
# 6 -0.001618 0.010548 0.000013 0.006789 -0.041266 0.090208
#
#
# Mechanical properties :
#
#
# Convention : Reuss Voigt Hill
#
# Bulk Modulus (GPa) = 51.56060 75.54325 63.55193
# Shear Modulus (GPa) = 18.18844 27.02852 22.60848
#
# Velocity S-wave (km/s) = 3.11491 3.79716 3.47283
# Velocity P-wave (km/s) = 6.35940 7.71513 7.06984
#
# Compressibility (1/GPa) = 0.01939465
#
# Stress axis : x y z
#
# Youngs Moduli (GPa) = 78.36692 43.23454 104.88279
#
# Poissons Ratio (x) = 0.26196 0.51463
# Poissons Ratio (y) = 0.47484 0.21492
# Poissons Ratio (z) = 0.38452 0.08859
#
# Static dielectric constant tensor:
#      x y z
#    x 3.341470 -0.017180 0.002820 
#    y -0.017180 3.286840 -0.027650 
#    z 0.002820 -0.027650 3.716300 
# 
# 
# High freq. dielectric constant tensor:
#      x y z
#    x 1.724030 -0.000650 0.001970 
#    y -0.000650 1.708730 -0.002160 
#    z 0.001970 -0.002160 1.733400 
# 
# From -- ./inp_files/252096.got.cif
#   From: 2010.06.25/outbox.cif.g09.slc.cpg/sg2_127_cif.got.tgz:252096.got - 2010.06.27 13:26:56.
