data_PCOD8039353
_publ_section_title
;
Structure prediction by ZEFSAII (Michael W. Deem and Ramdas Pophale) SiO2 
 PCOD8039353
Probable space group: P -1
;
_chemical_formula_sum "Si O2"
_cell_formula_units_Z 16
_cell_length_a 9.555182
_cell_length_b 7.882476
_cell_length_c 12.591842
_cell_angle_alpha 58.315248
_cell_angle_beta 91.716006
_cell_angle_gamma 92.356844
_cell_volume 806.319097
_symmetry_space_group_name_H-M "P -1"
_symmetry_group_IT_number 2
_symmetry_cell_setting 'triclinic'
loop_
_space_group_symop_operation_xyz
x,y,z
-x,-y,-z
loop_
_atom_site_type_symbol
_atom_site_label
_atom_site_fract_x
_atom_site_fract_y
_atom_site_fract_z
Si Si1 0.653158 0.444996 0.412907
Si Si2 0.076370 0.386816 0.391533
Si Si3 0.111357 0.254687 0.655741
Si Si4 0.157610 0.608509 0.753226
Si Si5 0.145329 0.826304 0.891345
Si Si6 0.654436 0.071472 0.946676
Si Si7 0.099202 0.187848 0.978154
Si Si8 0.355295 0.598116 0.336732
O O1 0.729406 0.660166 0.359820
O O2 0.725961 0.333278 0.352679
O O3 0.492863 0.469866 0.372089
O O4 0.668058 0.330466 0.564522
O O5 0.076357 0.224784 0.539631
O O6 0.232543 0.449771 0.340410
O O7 0.998923 0.589154 0.355616
O O8 0.989089 0.296431 0.319182
O O9 0.105512 0.050066 0.786410
O O10 0.205638 0.702850 0.834843
O O11 0.132714 0.367072 0.837320
O O12 0.995790 0.722853 0.958557
O O13 0.264767 0.825479 0.985205
O O14 0.634654 0.214368 0.800498
O O15 0.747938 0.892016 0.962575
O O16 0.500000 0.000000 0.000000
O O17 0.000000 0.000000 0.000000
#
# Coordination Sequence:
#
# PCOD8039353 Si02
#       8
#     2   2   2   2   2   2   2   2
#     4   9  19  35  58  78 107 139 177 230 268 323
#     4   9  17  31  56  77 103 137 182 227 256 321
#     4   9  17  33  53  79 102 139 185 219 264 314
#     4  11  21  36  53  81 114 144 176 222 288 323
#     4  11  22  35  55  80 115 145 173 225 282 329
#     4  11  21  36  59  81 105 142 188 226 260 326
#     4  10  20  35  55  77 107 145 184 220 258 320
#     4  10  18  33  58  83 100 136 189 226 264 308
#
# _framework density 19.843260999999998
#
# number of rings (size 3 to 8) (size 9 to 14) (size 15 to 20)
#    0.000    2.000    0.000    7.875    0.000    0.500 
#    0.000    3.750    0.000   10.500    0.000    0.000 
#    0.000    0.000    0.000    0.000    0.000    0.000 
#
# Total GULP energy -198220.298351 kJ/mol
# GULP energy per Si atom -12388.768647 kJ/mol
# Density = 1.979810 g / cm^3
# Si number density = 19.843261 Si / 1000 Ang^3
#
#
#
# Elastic Constant Matrix: (Units=GPa)
#
#
# Indices 1 2 3 4 5 6 
#
# 1 158.2993 20.1690 56.3651 11.0405 -9.0543 -1.8631
# 2 20.1690 47.1891 23.6863 20.0881 -2.9911 -3.2203
# 3 56.3651 23.6863 148.5525 9.4171 -8.3031 -1.2638
# 4 11.0405 20.0881 9.4171 29.9677 -4.4224 -3.1674
# 5 -9.0543 -2.9911 -8.3031 -4.4224 26.2884 4.1706
# 6 -1.8631 -3.2203 -1.2638 -3.1674 4.1706 14.2008
#
#
#
# Elastic Compliance Matrix: (Units=1/GPa)
#
#
# Indices 1 2 3 4 5 6 
#
# 1 0.007538 -0.001583 -0.002477 -0.000731 0.001544 -0.000207
# 2 -0.001583 0.032058 -0.003327 -0.019815 -0.001735 0.002856
# 3 -0.002477 -0.003327 0.008240 0.000720 0.001596 -0.000654
# 4 -0.000731 -0.019815 0.000720 0.047934 0.005041 0.004686
# 5 0.001544 -0.001735 0.001596 0.005041 0.041488 -0.011109
# 6 -0.000207 0.002856 -0.000654 0.004686 -0.011109 0.075289
#
#
# Mechanical properties :
#
#
# Convention : Reuss Voigt Hill
#
# Bulk Modulus (GPa) = 30.24737 61.60908 45.92822
# Shear Modulus (GPa) = 20.97829 31.01273 25.99551
#
# Velocity S-wave (km/s) = 3.25499 3.95762 3.62338
# Velocity P-wave (km/s) = 5.42244 7.21103 6.37973
#
# Compressibility (1/GPa) = 0.03306073
#
# Stress axis : x y z
#
# Youngs Moduli (GPa) = 132.66819 31.19328 121.36110
#
# Poissons Ratio (x) = 0.04939 0.30057
# Poissons Ratio (y) = 0.21007 0.40382
# Poissons Ratio (z) = 0.32857 0.10379
#
# Static dielectric constant tensor:
#      x y z
#    x 3.918300 -0.024910 -0.063600 
#    y -0.024910 3.180040 0.199050 
#    z -0.063600 0.199050 4.089570 
# 
# 
# High freq. dielectric constant tensor:
#      x y z
#    x 1.782050 -0.002480 -0.004320 
#    y -0.002480 1.715750 0.005990 
#    z -0.004320 0.005990 1.803290 
# 
# From -- ./inp_files/260374.got.cif
#   From: 2010.06.25/outbox.cif.g09.slc.cpg/sg2_131_cif.got.tgz:260374.got - 2010.06.27 13:26:56.
