data_PCOD8039834
_publ_section_title
;
Structure prediction by ZEFSAII (Michael W. Deem and Ramdas Pophale) SiO2 
 PCOD8039834
Probable space group: P -1
;
_chemical_formula_sum "Si O2"
_cell_formula_units_Z 14
_cell_length_a 16.880237
_cell_length_b 14.310662
_cell_length_c 10.891637
_cell_angle_alpha 126.950579
_cell_angle_beta 32.527026
_cell_angle_gamma 147.101778
_cell_volume 715.174687
_symmetry_space_group_name_H-M "P -1"
_symmetry_group_IT_number 2
_symmetry_cell_setting 'triclinic'
loop_
_space_group_symop_operation_xyz
x,y,z
-x,-y,-z
loop_
_atom_site_type_symbol
_atom_site_label
_atom_site_fract_x
_atom_site_fract_y
_atom_site_fract_z
Si Si1 0.379958 0.535850 0.557423
Si Si2 0.099987 0.532503 0.091134
Si Si3 0.732795 0.950255 0.010022
Si Si4 0.333892 0.871294 0.901318
Si Si5 0.521446 0.207249 0.014890
Si Si6 0.244651 0.205650 0.535940
Si Si7 0.581116 0.247341 0.503841
O O1 0.309268 0.357792 0.487654
O O2 0.636808 0.702294 0.413902
O O3 0.393941 0.604758 0.460238
O O4 0.191329 0.481616 0.849848
O O5 0.824350 0.353143 0.328619
O O6 0.152575 0.686332 0.073081
O O7 0.219786 0.602759 0.125260
O O8 0.621485 0.887658 0.239719
O O9 0.802790 0.123368 0.007265
O O10 0.544266 0.780045 0.024017
O O11 0.967458 0.018793 0.765164
O O12 0.485206 0.875526 0.623021
O O13 0.499096 0.051531 0.915765
O O14 0.337375 0.144231 0.304155
#
# Coordination Sequence:
#
# PCOD8039834 Si02
#       7
#     2   2   2   2   2   2   2
#     4   9  20  33  59  78  97 138 180 218 247 297
#     4  10  18  35  56  79 104 132 176 218 251 304
#     4  10  21  32  53  79 108 139 163 213 263 307
#     4   9  19  34  55  79 100 135 176 213 255 301
#     4   9  21  33  57  77 103 138 176 210 254 303
#     4  10  18  38  55  76 101 137 184 210 247 305
#     4  11  20  34  54  81 108 131 171 213 267 305
#
# _framework density 19.575637
#
# number of rings (size 3 to 8) (size 9 to 14) (size 15 to 20)
#    0.857    1.429    0.000    4.714    0.000    1.143 
#    0.000    0.714    0.000    0.000    0.000    0.000 
#    0.000    0.000    0.000    0.000    0.000    0.000 
#
# Total GULP energy -173477.163146 kJ/mol
# GULP energy per Si atom -12391.225939 kJ/mol
# Density = 1.953108 g / cm^3
# Si number density = 19.575637 Si / 1000 Ang^3
#
#
#
# Elastic Constant Matrix: (Units=GPa)
#
#
# Indices 1 2 3 4 5 6 
#
# 1 73.6794 21.4818 37.7904 -6.4664 -9.6492 11.5704
# 2 21.4818 74.5903 27.8008 9.4235 0.5176 15.2182
# 3 37.7904 27.8008 78.1734 -2.2789 -3.2875 10.3252
# 4 -6.4664 9.4235 -2.2789 16.5803 6.8814 -2.5778
# 5 -9.6492 0.5176 -3.2875 6.8814 23.4613 4.0307
# 6 11.5704 15.2182 10.3252 -2.5778 4.0307 18.8589
#
#
#
# Elastic Compliance Matrix: (Units=1/GPa)
#
#
# Indices 1 2 3 4 5 6 
#
# 1 0.020769 -0.001917 -0.007859 0.003614 0.007809 -0.008068
# 2 -0.001917 0.021783 -0.004730 -0.019404 0.006839 -0.017926
# 3 -0.007859 -0.004730 0.018412 0.002490 -0.001130 -0.000860
# 4 0.003614 -0.019404 0.002490 0.090076 -0.029428 0.030680
# 5 0.007809 0.006839 -0.001130 -0.029428 0.058667 -0.026252
# 6 -0.008068 -0.017926 -0.000860 0.030680 -0.026252 0.082715
#
#
# Mechanical properties :
#
#
# Convention : Reuss Voigt Hill
#
# Bulk Modulus (GPa) = 31.29765 44.50989 37.90377
# Shear Modulus (GPa) = 15.05633 21.07144 18.06389
#
# Velocity S-wave (km/s) = 2.77634 3.28443 3.04102
# Velocity P-wave (km/s) = 5.12837 6.09673 5.63339
#
# Compressibility (1/GPa) = 0.03195128
#
# Stress axis : x y z
#
# Youngs Moduli (GPa) = 48.14895 45.90728 54.31214
#
# Poissons Ratio (x) = 0.08801 0.42684
# Poissons Ratio (y) = 0.09230 0.25692
# Poissons Ratio (z) = 0.37840 0.21716
#
# Static dielectric constant tensor:
#      x y z
#    x 3.614850 0.124040 -0.243140 
#    y 0.124040 3.478840 0.174050 
#    z -0.243140 0.174050 3.238260 
# 
# 
# High freq. dielectric constant tensor:
#      x y z
#    x 1.757760 0.011140 -0.021110 
#    y 0.011140 1.753330 0.012400 
#    z -0.021110 0.012400 1.734150 
# 
# From -- ./inp_files/213862.got.cif
#   From: 2010.06.25/outbox.cif.g09.slc.cpg/sg2_107_cif.got.tgz:213862.got - 2010.06.27 13:26:56.
