data_PCOD8039416
_publ_section_title
;
Structure prediction by ZEFSAII (Michael W. Deem and Ramdas Pophale) SiO2 
 PCOD8039416
Probable space group: P -1
;
_chemical_formula_sum "Si O2"
_cell_formula_units_Z 12
_cell_length_a 11.969575
_cell_length_b 8.553072
_cell_length_c 19.886308
_cell_angle_alpha 138.160976
_cell_angle_beta 28.629385
_cell_angle_gamma 142.281413
_cell_volume 587.786429
_symmetry_space_group_name_H-M "P -1"
_symmetry_group_IT_number 2
_symmetry_cell_setting 'triclinic'
loop_
_space_group_symop_operation_xyz
x,y,z
-x,-y,-z
loop_
_atom_site_type_symbol
_atom_site_label
_atom_site_fract_x
_atom_site_fract_y
_atom_site_fract_z
Si Si1 0.428151 0.836057 0.133877
Si Si2 0.525197 0.902192 0.563205
Si Si3 0.974176 0.958891 0.580279
Si Si4 0.207321 0.633382 0.524902
Si Si5 0.289452 0.054517 0.852556
Si Si6 0.305719 0.414839 0.164566
O O1 0.606909 0.023133 0.158450
O O2 0.268336 0.544804 0.155729
O O3 0.233441 0.953193 0.249576
O O4 0.606054 0.814561 0.971932
O O5 0.626465 0.177962 0.560686
O O6 0.309821 0.885431 0.725688
O O7 0.756479 0.870675 0.469983
O O8 0.385339 0.672397 0.509765
O O9 0.892697 0.658054 0.542397
O O10 0.000000 0.000000 0.500000
O O11 0.965112 0.700840 0.690227
O O12 0.468718 0.359597 0.839362
O O13 0.000000 0.000000 0.000000
#
# Coordination Sequence:
#
# PCOD8039416 Si02
#       6
#     2   2   2   2   2   2
#     4   9  19  34  54  90 115 145 195 239 300 333
#     4  11  24  38  63  88 117 167 195 239 296 360
#     4  12  20  39  59  94 121 148 196 257 298 334
#     4  11  23  41  61  86 123 158 205 232 295 365
#     4  10  18  33  60  86 112 154 201 238 284 349
#     4   9  18  37  59  81 120 158 187 244 288 358
#
# _framework density 20.415578
#
# number of rings (size 3 to 8) (size 9 to 14) (size 15 to 20)
#    1.000    0.667    5.000    1.500    0.000    0.667 
#    3.000    0.833    0.000    3.000    0.000    0.000 
#    0.000    0.000    0.000    0.000    0.000    0.000 
#
# Total GULP energy -148730.954365 kJ/mol
# GULP energy per Si atom -12394.246197 kJ/mol
# Density = 2.036911 g / cm^3
# Si number density = 20.415578 Si / 1000 Ang^3
#
#
#
# Elastic Constant Matrix: (Units=GPa)
#
#
# Indices 1 2 3 4 5 6 
#
# 1 80.7240 -0.7140 35.2624 -6.4553 -16.9302 25.6893
# 2 -0.7140 29.9712 18.7117 -8.4609 -7.4106 12.9311
# 3 35.2624 18.7117 165.8727 3.6090 -26.4067 7.4676
# 4 -6.4553 -8.4609 3.6090 28.2296 8.3698 -6.5389
# 5 -16.9302 -7.4106 -26.4067 8.3698 26.2276 -3.2729
# 6 25.6893 12.9311 7.4676 -6.5389 -3.2729 25.2109
#
#
#
# Elastic Compliance Matrix: (Units=1/GPa)
#
#
# Indices 1 2 3 4 5 6 
#
# 1 0.032233 0.027053 -0.005217 0.001074 0.017537 -0.042620
# 2 0.027053 0.071128 -0.008446 0.009903 0.018842 -0.056532
# 3 -0.005217 -0.008446 0.008780 -0.004973 0.005480 0.006469
# 4 0.001074 0.009903 -0.004973 0.044944 -0.015237 0.004978
# 5 0.017537 0.018842 0.005480 -0.015237 0.062025 -0.025057
# 6 -0.042620 -0.056532 0.006469 0.004978 -0.025057 0.108212
#
#
# Mechanical properties :
#
#
# Convention : Reuss Voigt Hill
#
# Bulk Modulus (GPa) = 7.19834 42.56534 24.88184
# Shear Modulus (GPa) = 14.41549 30.82081 22.61815
#
# Velocity S-wave (km/s) = 2.66014 3.88966 3.33210
# Velocity P-wave (km/s) = 3.60121 6.40838 5.19789
#
# Compressibility (1/GPa) = 0.13892087
#
# Stress axis : x y z
#
# Youngs Moduli (GPa) = 31.02409 14.05921 113.89613
#
# Poissons Ratio (x) = -0.38034 0.59418
# Poissons Ratio (y) = -0.83928 0.96192
# Poissons Ratio (z) = 0.16185 0.11874
#
# Static dielectric constant tensor:
#      x y z
#    x 3.649560 0.268660 0.035840 
#    y 0.268660 3.381220 -0.030460 
#    z 0.035840 -0.030460 3.722830 
# 
# 
# High freq. dielectric constant tensor:
#      x y z
#    x 1.784610 0.026420 0.004160 
#    y 0.026420 1.762020 -0.009970 
#    z 0.004160 -0.009970 1.804430 
# 
# From -- ./inp_files/411817.got.cif
#   From: 2010.06.25/outbox.cif.g09.slc.cpg/sg2_206_cif.got.tgz:411817.got - 2010.06.27 13:26:56.
