data_PCOD8039594
_publ_section_title
;
Structure prediction by ZEFSAII (Michael W. Deem and Ramdas Pophale) SiO2 
 PCOD8039594
Probable space group: P -1
;
_chemical_formula_sum "Si O2"
_cell_formula_units_Z 16
_cell_length_a 14.323714
_cell_length_b 10.020329
_cell_length_c 7.689010
_cell_angle_alpha 104.866387
_cell_angle_beta 125.273609
_cell_angle_gamma 114.493615
_cell_volume 610.425352
_symmetry_space_group_name_H-M "P -1"
_symmetry_group_IT_number 2
_symmetry_cell_setting 'triclinic'
loop_
_space_group_symop_operation_xyz
x,y,z
-x,-y,-z
loop_
_atom_site_type_symbol
_atom_site_label
_atom_site_fract_x
_atom_site_fract_y
_atom_site_fract_z
Si Si1 0.933375 0.717855 0.790309
Si Si2 0.583490 0.795548 0.313015
Si Si3 0.817757 0.236839 0.740352
Si Si4 0.916942 0.960295 0.667566
Si Si5 0.321593 0.894603 0.967579
Si Si6 0.292902 0.637979 0.121389
Si Si7 0.599546 0.287511 0.241418
Si Si8 0.965407 0.238281 0.570349
O O1 0.952274 0.824696 0.663140
O O2 0.752032 0.504800 0.549529
O O3 0.076474 0.727270 0.966371
O O4 0.953349 0.849117 0.007565
O O5 0.731232 0.815198 0.495405
O O6 0.455338 0.681967 0.300440
O O7 0.653827 0.010808 0.456942
O O8 0.485455 0.692660 0.993257
O O9 0.764750 0.353847 0.747685
O O10 0.929601 0.313450 0.717411
O O11 0.930936 0.047914 0.524263
O O12 0.333426 0.799766 0.787027
O O13 0.146756 0.821003 0.734575
O O14 0.328449 0.816339 0.126933
O O15 0.465375 0.134334 0.194598
O O16 0.155260 0.432368 0.800533
#
# Coordination Sequence:
#
# PCOD8039594 Si02
#       8
#     2   2   2   2   2   2   2   2
#     4   9  19  35  63  80 106 152 201 225 275 333
#     4   9  19  36  54  83 116 143 182 238 280 326
#     4  10  20  38  55  83 114 149 189 230 280 338
#     4   9  19  39  58  81 112 148 196 239 265 332
#     4  10  20  34  54  84 127 142 181 234 283 340
#     4  11  21  32  57  87 117 150 181 232 289 336
#     4  10  18  34  57  85 111 154 184 227 286 341
#     4  10  19  36  56  81 114 152 188 231 278 334
#
# _framework density 26.211231000000002
#
# number of rings (size 3 to 8) (size 9 to 14) (size 15 to 20)
#    0.000    2.500    2.500    1.875    0.000    2.500 
#    4.500    0.000    2.750    8.250    0.000    0.000 
#    0.000    0.000    0.000    0.000    0.000    0.000 
#
# Total GULP energy -198222.162183 kJ/mol
# GULP energy per Si atom -12388.885136 kJ/mol
# Density = 2.615157 g / cm^3
# Si number density = 26.211231 Si / 1000 Ang^3
#
#
#
# Elastic Constant Matrix: (Units=GPa)
#
#
# Indices 1 2 3 4 5 6 
#
# 1 53.4542 2.4132 15.0844 9.9051 19.8720 -13.5332
# 2 2.4132 85.1579 19.3495 -5.2654 7.7846 -1.4671
# 3 15.0844 19.3495 125.6473 16.8074 25.0406 -7.9664
# 4 9.9051 -5.2654 16.8074 43.3820 3.6687 6.8845
# 5 19.8720 7.7846 25.0406 3.6687 27.1939 -0.8523
# 6 -13.5332 -1.4671 -7.9664 6.8845 -0.8523 24.1362
#
#
#
# Elastic Compliance Matrix: (Units=1/GPa)
#
#
# Indices 1 2 3 4 5 6 
#
# 1 0.036057 0.000297 0.004237 -0.011249 -0.028069 0.023851
# 2 0.000297 0.012518 -0.001829 0.002441 -0.002460 -0.000459
# 3 0.004237 -0.001829 0.011351 -0.005715 -0.012027 0.007216
# 4 -0.011249 0.002441 -0.005715 0.030024 0.008222 -0.016319
# 5 -0.028069 -0.002460 -0.012027 0.008222 0.067333 -0.019825
# 6 0.023851 -0.000459 0.007216 -0.016319 -0.019825 0.061113
#
#
# Mechanical properties :
#
#
# Convention : Reuss Voigt Hill
#
# Bulk Modulus (GPa) = 15.30586 37.55040 26.42813
# Shear Modulus (GPa) = 21.29795 34.10325 27.70060
#
# Velocity S-wave (km/s) = 2.85362 3.61098 3.25441
# Velocity P-wave (km/s) = 4.08774 5.63407 4.92201
#
# Compressibility (1/GPa) = 0.06533447
#
# Stress axis : x y z
#
# Youngs Moduli (GPa) = 27.73420 79.88556 88.10044
#
# Poissons Ratio (x) = -0.02372 -0.37324
# Poissons Ratio (y) = -0.00823 0.16111
# Poissons Ratio (z) = -0.11750 0.14609
#
# Static dielectric constant tensor:
#      x y z
#    x 4.563930 0.111370 0.330030 
#    y 0.111370 4.851690 -0.128550 
#    z 0.330030 -0.128550 4.822790 
# 
# 
# High freq. dielectric constant tensor:
#      x y z
#    x 2.021850 0.012730 0.020020 
#    y 0.012730 2.036540 0.000940 
#    z 0.020020 0.000940 2.066740 
# 
# From -- ./inp_files/332222.got.cif
#   From: 2010.06.25/outbox.cif.g09.slc.cpg/sg2_167_cif.got.tgz:332222.got - 2010.06.27 13:26:56.
