data_PCOD8039614
_publ_section_title
;
Structure prediction by ZEFSAII (Michael W. Deem and Ramdas Pophale) SiO2 
 PCOD8039614
Probable space group: P -1
;
_chemical_formula_sum "Si O2"
_cell_formula_units_Z 12
_cell_length_a 9.506317
_cell_length_b 8.024308
_cell_length_c 12.171804
_cell_angle_alpha 77.842202
_cell_angle_beta 68.203177
_cell_angle_gamma 123.638874
_cell_volume 604.772319
_symmetry_space_group_name_H-M "P -1"
_symmetry_group_IT_number 2
_symmetry_cell_setting 'triclinic'
loop_
_space_group_symop_operation_xyz
x,y,z
-x,-y,-z
loop_
_atom_site_type_symbol
_atom_site_label
_atom_site_fract_x
_atom_site_fract_y
_atom_site_fract_z
Si Si1 0.281258 0.028770 0.762151
Si Si2 0.968145 0.335033 0.941430
Si Si3 0.185809 0.282645 0.402545
Si Si4 0.712326 0.372244 0.500512
Si Si5 0.360645 0.472393 0.708695
Si Si6 0.998734 0.621917 0.720607
O O1 0.519661 0.146418 0.660473
O O2 0.278668 0.229280 0.718297
O O3 0.132033 0.828443 0.742859
O O4 0.209928 0.931588 0.921947
O O5 0.188698 0.408624 0.852694
O O6 0.897388 0.374104 0.843084
O O7 0.000000 0.500000 0.000000
O O8 0.162031 0.385698 0.501345
O O9 0.412971 0.368584 0.319983
O O10 0.173433 0.386686 0.280384
O O11 0.000000 0.000000 0.500000
O O12 0.611184 0.375858 0.420640
O O13 0.860354 0.331241 0.429628
#
# Coordination Sequence:
#
# PCOD8039614 Si02
#       6
#     2   2   2   2   2   2
#     4  10  18  34  58  80 104 142 180 215 258 316
#     4   9  20  36  55  77 106 143 179 213 260 319
#     4  11  21  34  54  83 110 137 174 224 268 306
#     4  10  20  35  56  81 107 140 179 216 260 316
#     4  10  20  36  56  80 106 140 180 217 260 317
#     4  10  20  35  54  81 110 138 174 221 263 308
#
# _framework density 19.842178000000001
#
# number of rings (size 3 to 8) (size 9 to 14) (size 15 to 20)
#    0.000    2.000    0.000    5.500    0.000    2.667 
#    0.000    6.667    0.000   10.000    0.000    0.000 
#    0.000    0.000    0.000    0.000    0.000    0.000 
#
# Total GULP energy -148757.177403 kJ/mol
# GULP energy per Si atom -12396.431450 kJ/mol
# Density = 1.979702 g / cm^3
# Si number density = 19.842178 Si / 1000 Ang^3
#
#
#
# Elastic Constant Matrix: (Units=GPa)
#
#
# Indices 1 2 3 4 5 6 
#
# 1 97.6044 23.8595 46.2156 -5.6360 6.1129 11.9651
# 2 23.8595 77.4418 30.4493 -1.6544 -10.5399 9.8229
# 3 46.2156 30.4493 137.1076 -8.0043 -8.7830 6.8320
# 4 -5.6360 -1.6544 -8.0043 29.3847 -7.7560 -1.8573
# 5 6.1129 -10.5399 -8.7830 -7.7560 22.2980 7.8232
# 6 11.9651 9.8229 6.8320 -1.8573 7.8232 22.0038
#
#
#
# Elastic Compliance Matrix: (Units=1/GPa)
#
#
# Indices 1 2 3 4 5 6 
#
# 1 0.013665 -0.003059 -0.004214 -0.000474 -0.006094 -0.002630
# 2 -0.003059 0.017528 -0.001344 0.002865 0.013164 -0.010183
# 3 -0.004214 -0.001344 0.009702 0.003265 0.006196 -0.002049
# 4 -0.000474 0.002865 0.003265 0.039503 0.018343 -0.005222
# 5 -0.006094 0.013164 0.006196 0.018343 0.071512 -0.028363
# 6 -0.002630 -0.010183 -0.002049 -0.005222 -0.028363 0.061702
#
#
# Mechanical properties :
#
#
# Convention : Reuss Voigt Hill
#
# Bulk Modulus (GPa) = 42.26206 57.02250 49.64228
# Shear Modulus (GPa) = 20.94393 28.84592 24.89492
#
# Velocity S-wave (km/s) = 3.25241 3.81697 3.54594
# Velocity P-wave (km/s) = 5.95395 6.94450 6.46822
#
# Compressibility (1/GPa) = 0.02366188
#
# Stress axis : x y z
#
# Youngs Moduli (GPa) = 73.17826 57.05098 103.07294
#
# Poissons Ratio (x) = 0.17454 0.43433
# Poissons Ratio (y) = 0.22388 0.13848
# Poissons Ratio (z) = 0.30836 0.07665
#
# Static dielectric constant tensor:
#      x y z
#    x 3.809250 -0.227910 0.268370 
#    y -0.227910 3.507040 -0.104400 
#    z 0.268370 -0.104400 4.678360 
# 
# 
# High freq. dielectric constant tensor:
#      x y z
#    x 1.773050 -0.018670 0.004280 
#    y -0.018670 1.762690 0.004170 
#    z 0.004280 0.004170 1.776190 
# 
# From -- ./inp_files/145045.got.cif
#   From: 2010.06.25/outbox.cif.g09.slc.cpg/sg2_73_cif.got.tgz:145045.got - 2010.06.27 13:26:56.
