data_PCOD8039641
_publ_section_title
;
Structure prediction by ZEFSAII (Michael W. Deem and Ramdas Pophale) SiO2 
 PCOD8039641
Probable space group: P -1
;
_chemical_formula_sum "Si O2"
_cell_formula_units_Z 14
_cell_length_a 5.192008
_cell_length_b 8.255059
_cell_length_c 21.852712
_cell_angle_alpha 46.927150
_cell_angle_beta 56.339985
_cell_angle_gamma 69.245131
_cell_volume 569.024828
_symmetry_space_group_name_H-M "P -1"
_symmetry_group_IT_number 2
_symmetry_cell_setting 'triclinic'
loop_
_space_group_symop_operation_xyz
x,y,z
-x,-y,-z
loop_
_atom_site_type_symbol
_atom_site_label
_atom_site_fract_x
_atom_site_fract_y
_atom_site_fract_z
Si Si1 0.851986 0.910808 0.799469
Si Si2 0.611513 0.361269 0.156828
Si Si3 0.734740 0.914482 0.400901
Si Si4 0.296042 0.149846 0.852697
Si Si5 0.513722 0.611385 0.692750
Si Si6 0.062223 0.782107 0.511350
Si Si7 0.225573 0.160868 0.995265
O O1 0.637528 0.778231 0.813338
O O2 0.054853 0.748137 0.854677
O O3 0.637086 0.047087 0.838619
O O4 0.081639 0.079125 0.688778
O O5 0.459333 0.385839 0.237835
O O6 0.675165 0.597941 0.052866
O O7 0.431431 0.750401 0.473273
O O8 0.953087 0.806035 0.449754
O O9 0.646818 0.165787 0.367402
O O10 0.319692 0.388384 0.753592
O O11 0.142098 0.203967 0.924100
O O12 0.067478 0.962009 0.899353
O O13 0.854656 0.591398 0.622411
O O14 0.000000 0.000000 0.500000
O O15 0.500000 0.000000 0.000000
#
# Coordination Sequence:
#
# PCOD8039641 Si02
#       7
#     2   2   2   2   2   2   2
#     4  11  23  42  61  94 123 165 201 244 309 362
#     4  10  24  40  66  87 126 162 204 249 299 366
#     4  10  20  35  59  86 123 155 203 250 291 355
#     4  10  24  42  62  90 125 158 201 256 304 366
#     4   9  19  39  61  91 116 166 204 249 299 352
#     4  10  18  34  58  89 117 156 206 250 286 350
#     4  10  24  44  64  90 121 158 205 255 303 361
#
# _framework density 24.603494999999999
#
# number of rings (size 3 to 8) (size 9 to 14) (size 15 to 20)
#    0.000    2.000    0.000    4.286   10.000    2.286 
#    2.571    1.429    0.000    0.000    0.000    1.000 
#    0.000    0.000    0.000    0.000    0.000    0.000 
#
# Total GULP energy -173501.187205 kJ/mol
# GULP energy per Si atom -12392.941943 kJ/mol
# Density = 2.454750 g / cm^3
# Si number density = 24.603495 Si / 1000 Ang^3
#
#
#
# Elastic Constant Matrix: (Units=GPa)
#
#
# Indices 1 2 3 4 5 6 
#
# 1 110.0367 8.6815 26.7794 0.9197 -12.5268 -10.1712
# 2 8.6815 57.9540 30.8604 2.9092 -10.0231 -13.3159
# 3 26.7794 30.8604 128.1010 -7.8533 -39.9587 2.2508
# 4 0.9197 2.9092 -7.8533 28.3622 -9.4340 -2.2115
# 5 -12.5268 -10.0231 -39.9587 -9.4340 38.9169 5.6812
# 6 -10.1712 -13.3159 2.2508 -2.2115 5.6812 31.1694
#
#
#
# Elastic Compliance Matrix: (Units=1/GPa)
#
#
# Indices 1 2 3 4 5 6 
#
# 1 0.009955 0.000584 -0.002167 -0.000547 0.000482 0.003528
# 2 0.000584 0.023287 -0.007675 -0.005187 -0.004582 0.011160
# 3 -0.002167 -0.007675 0.016545 0.010848 0.018068 -0.007704
# 4 -0.000547 -0.005187 0.010848 0.045576 0.021231 -0.003814
# 5 0.000482 -0.004582 0.018068 0.021231 0.049931 -0.010699
# 6 0.003528 0.011160 -0.007704 -0.003814 -0.010699 0.040238
#
#
# Mechanical properties :
#
#
# Convention : Reuss Voigt Hill
#
# Bulk Modulus (GPa) = 31.97965 47.63716 39.80840
# Shear Modulus (GPa) = 23.31323 35.00772 29.16047
#
# Velocity S-wave (km/s) = 3.08158 3.77619 3.44643
# Velocity P-wave (km/s) = 5.06831 6.19813 5.66148
#
# Compressibility (1/GPa) = 0.03126989
#
# Stress axis : x y z
#
# Youngs Moduli (GPa) = 100.45525 42.94257 60.44270
#
# Poissons Ratio (x) = -0.02508 0.13097
# Poissons Ratio (y) = -0.05867 0.46392
# Poissons Ratio (z) = 0.21767 0.32960
#
# Static dielectric constant tensor:
#      x y z
#    x 4.596170 -0.128260 -0.728980 
#    y -0.128260 4.528570 0.555730 
#    z -0.728980 0.555730 5.949280 
# 
# 
# High freq. dielectric constant tensor:
#      x y z
#    x 1.966190 -0.003030 -0.020360 
#    y -0.003030 1.954600 0.007900 
#    z -0.020360 0.007900 1.995490 
# 
# From -- ./inp_files/35467.got.cif
#   From: 2010.06.25/outbox.cif.g09.slc.cpg/sg2_18_cif.got.tgz:35467.got - 2010.06.27 13:26:56.
