data_PCOD8039302
_publ_section_title
;
Structure prediction by ZEFSAII (Michael W. Deem and Ramdas Pophale) SiO2 
 PCOD8039302
Probable space group: P -1
;
_chemical_formula_sum "Si O2"
_cell_formula_units_Z 16
_cell_length_a 11.850796
_cell_length_b 29.665865
_cell_length_c 15.118270
_cell_angle_alpha 160.836150
_cell_angle_beta 30.519845
_cell_angle_gamma 150.663969
_cell_volume 830.612433
_symmetry_space_group_name_H-M "P -1"
_symmetry_group_IT_number 2
_symmetry_cell_setting 'triclinic'
loop_
_space_group_symop_operation_xyz
x,y,z
-x,-y,-z
loop_
_atom_site_type_symbol
_atom_site_label
_atom_site_fract_x
_atom_site_fract_y
_atom_site_fract_z
Si Si1 0.510510 0.988905 0.576472
Si Si2 0.784012 0.844964 0.853833
Si Si3 0.651539 0.885621 0.841334
Si Si4 0.288465 0.638330 0.367696
Si Si5 0.843207 0.211969 0.096177
Si Si6 0.171556 0.326608 0.939554
Si Si7 0.984321 0.945823 0.570675
Si Si8 0.823856 0.193711 0.395481
O O1 0.324810 0.844711 0.482964
O O2 0.500000 0.000000 0.500000
O O3 0.763728 0.984811 0.424686
O O4 0.456311 0.134240 0.911442
O O5 0.720699 0.789084 0.692026
O O6 0.892477 0.747457 0.661121
O O7 0.000000 0.000000 0.000000
O O8 0.375322 0.826709 0.895871
O O9 0.787539 0.865489 0.626126
O O10 0.734938 0.053027 0.129621
O O11 0.215904 0.728079 0.660355
O O12 0.568731 0.682098 0.252912
O O13 0.205194 0.672519 0.391213
O O14 0.162887 0.466247 0.150414
O O15 0.070267 0.331239 0.115708
O O16 0.907962 0.068012 0.800621
O O17 0.998249 0.176378 0.735488
#
# Coordination Sequence:
#
# PCOD8039302 Si02
#       8
#     2   2   2   2   2   2   2   2
#     4  10  19  31  55  89 115 141 185 246 286 329
#     4   8  17  31  50  76 112 143 180 226 286 329
#     4  10  18  33  56  82 110 145 185 236 286 327
#     4  11  23  40  57  81 122 155 189 229 286 348
#     4  12  22  37  60  85 114 152 192 238 285 337
#     4  11  24  38  55  87 116 155 190 233 286 340
#     4  12  20  34  58  86 117 141 193 245 280 332
#     4  10  18  35  55  81 113 152 187 230 289 341
#
# _framework density 19.262893999999999
#
# number of rings (size 3 to 8) (size 9 to 14) (size 15 to 20)
#    0.000    1.750    2.500    6.375    0.000    0.000 
#    0.000    0.000    0.000    6.000    0.000    0.000 
#    0.000    0.000    0.000    0.000    0.000    0.000 
#
# Total GULP energy -198243.723826 kJ/mol
# GULP energy per Si atom -12390.232739 kJ/mol
# Density = 1.921905 g / cm^3
# Si number density = 19.262894 Si / 1000 Ang^3
#
#
#
# Elastic Constant Matrix: (Units=GPa)
#
#
# Indices 1 2 3 4 5 6 
#
# 1 149.3521 48.0371 46.0163 1.2891 -24.4777 -18.6188
# 2 48.0371 84.9786 42.3413 -20.5664 -6.7871 -18.7590
# 3 46.0163 42.3413 63.6652 -1.8431 -16.9926 -8.5895
# 4 1.2891 -20.5664 -1.8431 26.5808 -6.7057 1.9721
# 5 -24.4777 -6.7871 -16.9926 -6.7057 23.8242 -3.7144
# 6 -18.6188 -18.7590 -8.5895 1.9721 -3.7144 35.7999
#
#
#
# Elastic Compliance Matrix: (Units=1/GPa)
#
#
# Indices 1 2 3 4 5 6 
#
# 1 0.010436 -0.003516 -0.002592 -0.001675 0.008007 0.003886
# 2 -0.003516 0.027312 -0.013530 0.020122 0.001473 0.008281
# 3 -0.002592 -0.013530 0.030166 -0.004827 0.013716 0.000489
# 4 -0.001675 0.020122 -0.004827 0.056866 0.017700 0.007218
# 5 0.008007 0.001473 0.013716 0.017700 0.067609 0.014266
# 6 0.003886 0.008281 0.000489 0.007218 0.014266 0.035493
#
#
# Mechanical properties :
#
#
# Convention : Reuss Voigt Hill
#
# Bulk Modulus (GPa) = 34.91822 63.42060 49.16941
# Shear Modulus (GPa) = 18.06980 28.01439 23.04210
#
# Velocity S-wave (km/s) = 3.06610 3.81769 3.46235
# Velocity P-wave (km/s) = 5.54087 7.24073 6.44707
#
# Compressibility (1/GPa) = 0.02863835
#
# Stress axis : x y z
#
# Youngs Moduli (GPa) = 95.82025 36.61389 33.14977
#
# Poissons Ratio (x) = 0.12873 0.08592
# Poissons Ratio (y) = 0.33689 0.44852
# Poissons Ratio (z) = 0.24836 0.49539
#
# Static dielectric constant tensor:
#      x y z
#    x 4.191880 -0.254190 -0.182090 
#    y -0.254190 3.622740 -0.553750 
#    z -0.182090 -0.553750 3.706690 
# 
# 
# High freq. dielectric constant tensor:
#      x y z
#    x 1.767490 -0.010880 -0.014630 
#    y -0.010880 1.733260 -0.039970 
#    z -0.014630 -0.039970 1.726730 
# 
# From -- ./inp_files/432075.got.cif
#   From: 2010.06.25/outbox.cif.g09.slc.cpg/sg2_217_cif.got.tgz:432075.got - 2010.06.27 13:26:56.
