data_PCOD8039763
_publ_section_title
;
Structure prediction by ZEFSAII (Michael W. Deem and Ramdas Pophale) SiO2 
 PCOD8039763
Probable space group: P -1
;
_chemical_formula_sum "Si O2"
_cell_formula_units_Z 16
_cell_length_a 8.967297
_cell_length_b 19.407417
_cell_length_c 17.680172
_cell_angle_alpha 158.314158
_cell_angle_beta 52.697477
_cell_angle_gamma 115.581244
_cell_volume 809.089496
_symmetry_space_group_name_H-M "P -1"
_symmetry_group_IT_number 2
_symmetry_cell_setting 'triclinic'
loop_
_space_group_symop_operation_xyz
x,y,z
-x,-y,-z
loop_
_atom_site_type_symbol
_atom_site_label
_atom_site_fract_x
_atom_site_fract_y
_atom_site_fract_z
Si Si1 0.237988 0.255716 0.510586
Si Si2 0.776669 0.338634 0.212218
Si Si3 0.753304 0.623327 0.207119
Si Si4 0.855874 0.643528 0.945839
Si Si5 0.233779 0.831582 0.118898
Si Si6 0.221672 0.082012 0.615017
Si Si7 0.491724 0.800516 0.765051
Si Si8 0.446592 0.671262 0.044428
O O1 0.308260 0.327531 0.637344
O O2 0.449054 0.195823 0.336382
O O3 0.028811 0.440548 0.728402
O O4 0.188447 0.061502 0.340731
O O5 0.658176 0.578370 0.522067
O O6 0.734420 0.191355 0.136046
O O7 0.024105 0.274978 0.067860
O O8 0.700505 0.314450 0.125269
O O9 0.688378 0.831745 0.392173
O O10 0.626408 0.504319 0.093246
O O11 0.000000 0.500000 0.000000
O O12 0.724238 0.838327 0.241344
O O13 0.696152 0.580647 0.886873
O O14 0.403688 0.750169 0.050996
O O15 0.029094 0.833375 0.222779
O O16 0.329707 0.837428 0.316320
O O17 0.500000 0.000000 0.000000
#
# Coordination Sequence:
#
# PCOD8039763 Si02
#       8
#     2   2   2   2   2   2   2   2
#     4  11  21  38  62  88 115 150 198 241 284 342
#     4   9  20  38  59  86 118 146 190 241 286 345
#     4  12  21  39  59  82 115 156 199 237 277 342
#     4  10  23  39  54  87 123 151 187 242 299 341
#     4  11  20  37  62  84 113 156 196 239 279 342
#     4  11  22  38  56  83 116 157 200 234 281 344
#     4  10  18  34  63  93 109 145 198 243 281 334
#     4  12  23  37  58  83 119 157 194 237 292 342
#
# _framework density 19.775316
#
# number of rings (size 3 to 8) (size 9 to 14) (size 15 to 20)
#    0.000    1.250    5.000    3.000    0.000    0.500 
#    4.500    0.000    0.000   12.750    0.000    0.000 
#    0.000    0.000    0.000    0.000    0.000    0.000 
#
# Total GULP energy -198268.744952 kJ/mol
# GULP energy per Si atom -12391.796560 kJ/mol
# Density = 1.973031 g / cm^3
# Si number density = 19.775316 Si / 1000 Ang^3
#
#
#
# Elastic Constant Matrix: (Units=GPa)
#
#
# Indices 1 2 3 4 5 6 
#
# 1 107.1340 54.4432 31.9015 -4.3718 12.2170 24.5743
# 2 54.4432 158.6983 48.7809 -7.6602 13.0345 23.3020
# 3 31.9015 48.7809 98.6531 -0.4670 22.8820 8.5376
# 4 -4.3718 -7.6602 -0.4670 37.8646 3.0735 5.8911
# 5 12.2170 13.0345 22.8820 3.0735 17.1063 4.2989
# 6 24.5743 23.3020 8.5376 5.8911 4.2989 26.6989
#
#
#
# Elastic Compliance Matrix: (Units=1/GPa)
#
#
# Indices 1 2 3 4 5 6 
#
# 1 0.013919 -0.002313 -0.001488 0.003063 -0.004143 -0.010325
# 2 -0.002313 0.008955 -0.003229 0.002306 0.000033 -0.005168
# 3 -0.001488 -0.003229 0.016491 0.000642 -0.019117 0.001851
# 4 0.003063 0.002306 0.000642 0.029454 -0.007500 -0.010329
# 5 -0.004143 0.000033 -0.019117 -0.007500 0.089009 -0.002779
# 6 -0.010325 -0.005168 0.001851 -0.010329 -0.002779 0.053603
#
#
# Mechanical properties :
#
#
# Convention : Reuss Voigt Hill
#
# Bulk Modulus (GPa) = 39.52023 70.52630 55.02327
# Shear Modulus (GPa) = 21.37421 31.62461 26.49941
#
# Velocity S-wave (km/s) = 3.29120 4.00333 3.66461
# Velocity P-wave (km/s) = 5.87117 7.55712 6.76686
#
# Compressibility (1/GPa) = 0.02530350
#
# Stress axis : x y z
#
# Youngs Moduli (GPa) = 71.84647 111.67023 60.63783
#
# Poissons Ratio (x) = 0.25833 0.09023
# Poissons Ratio (y) = 0.16621 0.19582
# Poissons Ratio (z) = 0.10691 0.36062
#
# Static dielectric constant tensor:
#      x y z
#    x 3.473640 0.012820 0.639870 
#    y 0.012820 4.313920 -0.469440 
#    z 0.639870 -0.469440 4.603750 
# 
# 
# High freq. dielectric constant tensor:
#      x y z
#    x 1.729930 0.019860 0.026700 
#    y 0.019860 1.791540 0.002010 
#    z 0.026700 0.002010 1.775120 
# 
# From -- ./inp_files/311306.got.cif
#   From: 2010.06.25/outbox.cif.g09.slc.cpg/sg2_156_cif.got.tgz:311306.got - 2010.06.27 13:26:56.
