data_PCOD8039775
_publ_section_title
;
Structure prediction by ZEFSAII (Michael W. Deem and Ramdas Pophale) SiO2 
 PCOD8039775
Probable space group: P -1
;
_chemical_formula_sum "Si O2"
_cell_formula_units_Z 14
_cell_length_a 14.924213
_cell_length_b 8.223029
_cell_length_c 8.550552
_cell_angle_alpha 67.493755
_cell_angle_beta 40.822030
_cell_angle_gamma 86.081618
_cell_volume 589.628744
_symmetry_space_group_name_H-M "P -1"
_symmetry_group_IT_number 2
_symmetry_cell_setting 'triclinic'
loop_
_space_group_symop_operation_xyz
x,y,z
-x,-y,-z
loop_
_atom_site_type_symbol
_atom_site_label
_atom_site_fract_x
_atom_site_fract_y
_atom_site_fract_z
Si Si1 0.049276 0.859975 0.885269
Si Si2 0.499509 0.742969 0.537443
Si Si3 0.501101 0.345561 0.769668
Si Si4 0.958732 0.314924 0.520311
Si Si5 0.193211 0.202123 0.372084
Si Si6 0.742990 0.107246 0.135148
Si Si7 0.185396 0.478214 0.563501
O O1 0.170773 0.815381 0.845972
O O2 0.115029 0.976082 0.597049
O O3 0.911888 0.659010 0.118080
O O4 0.000000 0.000000 0.000000
O O5 0.474117 0.532095 0.690118
O O6 0.491091 0.771564 0.351519
O O7 0.372401 0.790219 0.775775
O O8 0.657914 0.880762 0.342064
O O9 0.650708 0.394105 0.649930
O O10 0.359228 0.224994 0.102835
O O11 0.890347 0.367287 0.433603
O O12 0.000000 0.500000 0.500000
O O13 0.102301 0.254655 0.330209
O O14 0.843678 0.144490 0.834581
O O15 0.191065 0.341034 0.465411
#
# Coordination Sequence:
#
# PCOD8039775 Si02
#       7
#     2   2   2   2   2   2   2
#     4  10  18  34  64  92 121 155 213 258 303 364
#     4  10  24  39  63  90 125 172 203 263 304 381
#     4  11  23  41  61  91 135 161 210 248 326 364
#     4  10  18  34  64  92 121 155 213 258 303 364
#     4  10  20  35  64  92 124 163 207 256 308 374
#     4  11  20  40  66  91 120 164 220 253 308 366
#     4  10  20  35  64  92 124 163 207 256 308 374
#
# _framework density 23.743753999999999
#
# number of rings (size 3 to 8) (size 9 to 14) (size 15 to 20)
#    0.000    1.714    4.286    3.857    0.000    2.286 
#    0.000    4.286    6.286    0.000    0.000    0.000 
#    0.000    0.000    0.000    0.000    0.000    0.000 
#
# Total GULP energy -173511.441107 kJ/mol
# GULP energy per Si atom -12393.674365 kJ/mol
# Density = 2.368971 g / cm^3
# Si number density = 23.743754 Si / 1000 Ang^3
#
#
#
# Elastic Constant Matrix: (Units=GPa)
#
#
# Indices 1 2 3 4 5 6 
#
# 1 111.4550 12.8769 54.8728 -4.1483 -20.3215 -31.1483
# 2 12.8769 32.9058 23.0852 -5.3875 -5.7689 -5.4406
# 3 54.8728 23.0852 153.1580 -17.8203 -23.4931 -19.6689
# 4 -4.1483 -5.3875 -17.8203 14.3192 -4.9471 8.6974
# 5 -20.3215 -5.7689 -23.4931 -4.9471 38.4420 -0.8933
# 6 -31.1483 -5.4406 -19.6689 8.6974 -0.8933 22.2430
#
#
#
# Elastic Compliance Matrix: (Units=1/GPa)
#
#
# Indices 1 2 3 4 5 6 
#
# 1 0.020558 -0.001537 -0.003919 -0.016321 0.006876 0.031606
# 2 -0.001537 0.035512 -0.002936 0.010738 0.004102 -0.000096
# 3 -0.003919 -0.002936 0.010655 0.014331 0.005793 -0.002156
# 4 -0.016321 0.010738 0.014331 0.127167 0.016792 -0.056607
# 5 0.006876 0.004102 0.005793 0.016792 0.036212 0.010644
# 6 0.031606 -0.000096 -0.002156 -0.056607 0.010644 0.109849
#
#
# Mechanical properties :
#
#
# Convention : Reuss Voigt Hill
#
# Bulk Modulus (GPa) = 20.02309 53.24318 36.63314
# Shear Modulus (GPa) = 13.39098 28.77978 21.08538
#
# Velocity S-wave (km/s) = 2.37740 3.48530 2.98323
# Velocity P-wave (km/s) = 3.99842 6.21845 5.22764
#
# Compressibility (1/GPa) = 0.04994233
#
# Stress axis : x y z
#
# Youngs Moduli (GPa) = 48.64181 28.15935 93.85033
#
# Poissons Ratio (x) = 0.04327 0.36784
# Poissons Ratio (y) = 0.07474 0.27553
# Poissons Ratio (z) = 0.19065 0.08267
#
# Static dielectric constant tensor:
#      x y z
#    x 4.300330 -0.250980 -0.437820 
#    y -0.250980 4.104200 -0.264060 
#    z -0.437820 -0.264060 4.664720 
# 
# 
# High freq. dielectric constant tensor:
#      x y z
#    x 1.930190 -0.018890 -0.018730 
#    y -0.018890 1.925500 -0.014150 
#    z -0.018730 -0.014150 1.946450 
# 
# From -- ./inp_files/235627.got.cif
#   From: 2010.06.25/outbox.cif.g09.slc.cpg/sg2_118_cif.got.tgz:235627.got - 2010.06.27 13:26:56.
