data_PCOD8039897
_publ_section_title
;
Structure prediction by ZEFSAII (Michael W. Deem and Ramdas Pophale) SiO2 
 PCOD8039897
Probable space group: P -1
;
_chemical_formula_sum "Si O2"
_cell_formula_units_Z 14
_cell_length_a 16.796428
_cell_length_b 18.149272
_cell_length_c 11.650838
_cell_angle_alpha 146.755580
_cell_angle_beta 22.586344
_cell_angle_gamma 147.617609
_cell_volume 702.353401
_symmetry_space_group_name_H-M "P -1"
_symmetry_group_IT_number 2
_symmetry_cell_setting 'triclinic'
loop_
_space_group_symop_operation_xyz
x,y,z
-x,-y,-z
loop_
_atom_site_type_symbol
_atom_site_label
_atom_site_fract_x
_atom_site_fract_y
_atom_site_fract_z
Si Si1 0.422870 0.284123 0.145251
Si Si2 0.136930 0.397380 0.844638
Si Si3 0.754697 0.836502 0.220030
Si Si4 0.761133 0.268120 0.846843
Si Si5 0.884634 0.871469 0.842585
Si Si6 0.644191 0.583375 0.183954
Si Si7 0.341655 0.746965 0.789148
O O1 0.287141 0.357487 0.499195
O O2 0.268647 0.162456 0.109849
O O3 0.590395 0.413803 0.014470
O O4 0.563221 0.215134 0.948752
O O5 0.211424 0.363357 0.825162
O O6 0.156380 0.561774 0.021993
O O7 0.885745 0.295475 0.031914
O O8 0.774077 0.683773 0.035886
O O9 0.537657 0.857192 0.594727
O O10 0.731380 0.839197 0.117546
O O11 0.970799 0.961981 0.139578
O O12 0.964368 0.226686 0.476131
O O13 0.682024 0.187919 0.969576
O O14 0.409205 0.607188 0.542103
#
# Coordination Sequence:
#
# PCOD8039897 Si02
#       7
#     2   2   2   2   2   2   2
#     4  11  19  35  61  89 112 145 184 233 281 332
#     4  11  17  34  61  89 117 143 174 238 291 321
#     4   9  23  45  53  77 117 158 179 241 271 331
#     4  11  20  35  61  91 110 145 187 233 275 340
#     4  11  23  41  58  77 118 149 195 223 286 326
#     4   9  19  37  56  82 118 141 186 225 278 334
#     4  10  18  35  58  82 112 147 183 220 285 324
#
# _framework density 19.932984000000001
#
# number of rings (size 3 to 8) (size 9 to 14) (size 15 to 20)
#    0.857    0.857    4.286    2.143    0.000    1.143 
#    5.143    4.286    0.000    0.000    0.000    0.000 
#    0.000    0.000    0.000    0.000    0.000    0.000 
#
# Total GULP energy -173501.445314 kJ/mol
# GULP energy per Si atom -12392.960380 kJ/mol
# Density = 1.988762 g / cm^3
# Si number density = 19.932984 Si / 1000 Ang^3
#
#
#
# Elastic Constant Matrix: (Units=GPa)
#
#
# Indices 1 2 3 4 5 6 
#
# 1 91.6651 31.7373 32.6945 -20.3174 -9.7353 26.6963
# 2 31.7373 55.1141 27.0344 -22.0535 5.2896 6.1386
# 3 32.6945 27.0344 48.2685 -13.6124 5.0396 0.6207
# 4 -20.3174 -22.0535 -13.6124 25.1171 0.8639 4.2777
# 5 -9.7353 5.2896 5.0396 0.8639 26.7773 -8.3875
# 6 26.6963 6.1386 0.6207 4.2777 -8.3875 34.2591
#
#
#
# Elastic Compliance Matrix: (Units=1/GPa)
#
#
# Indices 1 2 3 4 5 6 
#
# 1 0.026044 0.000501 -0.013087 0.017876 0.004599 -0.021253
# 2 0.000501 0.038273 -0.012046 0.030098 -0.010247 -0.013297
# 3 -0.013087 -0.012046 0.035826 -0.003383 -0.005645 0.010747
# 4 0.017876 0.030098 -0.003383 0.084850 -0.011804 -0.032746
# 5 0.004599 -0.010247 -0.005645 -0.011804 0.045955 0.011080
# 6 -0.021253 -0.013297 0.010747 -0.032746 0.011080 0.054740
#
#
# Mechanical properties :
#
#
# Convention : Reuss Voigt Hill
#
# Bulk Modulus (GPa) = 19.65487 41.99777 30.82632
# Shear Modulus (GPa) = 14.20813 24.13613 19.17213
#
# Velocity S-wave (km/s) = 2.67272 3.48352 3.10470
# Velocity P-wave (km/s) = 4.40527 6.10697 5.32455
#
# Compressibility (1/GPa) = 0.05087798
#
# Stress axis : x y z
#
# Youngs Moduli (GPa) = 38.39650 26.12834 27.91299
#
# Poissons Ratio (x) = -0.01308 0.36529
# Poissons Ratio (y) = -0.01922 0.33624
# Poissons Ratio (z) = 0.50249 0.31474
#
# Static dielectric constant tensor:
#      x y z
#    x 3.671200 0.053600 -0.002100 
#    y 0.053600 3.405600 -0.141920 
#    z -0.002100 -0.141920 3.451470 
# 
# 
# High freq. dielectric constant tensor:
#      x y z
#    x 1.782790 0.003750 -0.000440 
#    y 0.003750 1.762720 -0.013090 
#    z -0.000440 -0.013090 1.756630 
# 
# From -- ./inp_files/447040.got.cif
#   From: 2010.06.25/outbox.cif.g09.slc.cpg/sg2_224_cif.got.tgz:447040.got - 2010.06.27 13:26:56.
