data_PCOD8039037
_publ_section_title
;
Structure prediction by ZEFSAII (Michael W. Deem and Ramdas Pophale) SiO2 
 PCOD8039037
Probable space group: P -1
;
_chemical_formula_sum "Si O2"
_cell_formula_units_Z 16
_cell_length_a 10.914427
_cell_length_b 11.283590
_cell_length_c 27.862142
_cell_angle_alpha 145.824682
_cell_angle_beta 31.853651
_cell_angle_gamma 126.616960
_cell_volume 949.628747
_symmetry_space_group_name_H-M "P -1"
_symmetry_group_IT_number 2
_symmetry_cell_setting 'triclinic'
loop_
_space_group_symop_operation_xyz
x,y,z
-x,-y,-z
loop_
_atom_site_type_symbol
_atom_site_label
_atom_site_fract_x
_atom_site_fract_y
_atom_site_fract_z
Si Si1 0.235714 0.436576 0.617455
Si Si2 0.506240 0.825173 0.169228
Si Si3 0.901851 0.376102 0.451555
Si Si4 0.423995 0.287454 0.402848
Si Si5 0.727120 0.099483 0.832582
Si Si6 0.716188 0.533280 0.859088
Si Si7 0.553917 0.750856 0.416578
Si Si8 0.945967 0.458018 0.861421
O O1 0.332994 0.291427 0.488807
O O2 0.329570 0.647670 0.659948
O O3 0.343564 0.268126 0.569615
O O4 0.934823 0.531331 0.749528
O O5 0.373578 0.907935 0.190184
O O6 0.380262 0.672131 0.188976
O O7 0.490844 0.037110 0.277367
O O8 0.800769 0.676874 0.015349
O O9 0.798025 0.534470 0.493585
O O10 0.690288 0.309683 0.526275
O O11 0.000000 0.500000 0.500000
O O12 0.124903 0.155071 0.284540
O O13 0.920188 0.231185 0.815148
O O14 0.506668 0.221533 0.984978
O O15 0.806736 0.499527 0.871610
O O16 0.764486 0.577208 0.253737
O O17 0.500000 0.000000 0.500000
#
# Coordination Sequence:
#
# PCOD8039037 Si02
#       8
#     2   2   2   2   2   2   2   2
#     4   9  20  35  48  72  97 132 168 188 239 293
#     4   9  16  29  51  73  97 124 159 204 238 279
#     4  11  20  30  47  76 104 126 156 198 246 285
#     4  10  20  34  49  69 103 135 157 194 239 291
#     4   9  15  29  48  73 101 122 155 202 245 282
#     4   8  16  30  50  70  94 126 163 202 234 280
#     4  10  18  32  54  73  94 127 161 204 239 282
#     4   8  15  29  49  74  95 121 161 201 243 280
#
# _framework density 16.848689
#
# number of rings (size 3 to 8) (size 9 to 14) (size 15 to 20)
#    0.000    2.750    2.500    1.500    0.000    0.500 
#    2.250    3.125    0.000    0.750    0.000    0.000 
#    0.000    0.000    0.000    0.000    0.000    0.000 
#
# Total GULP energy -198315.159946 kJ/mol
# GULP energy per Si atom -12394.697497 kJ/mol
# Density = 1.681034 g / cm^3
# Si number density = 16.848689 Si / 1000 Ang^3
#
#
#
# Elastic Constant Matrix: (Units=GPa)
#
#
# Indices 1 2 3 4 5 6 
#
# 1 53.7325 42.0985 49.7044 -0.3551 7.1833 7.0749
# 2 42.0985 90.2850 79.7295 -5.9497 4.9356 6.6795
# 3 49.7044 79.7295 157.7981 6.1613 3.1201 8.6725
# 4 -0.3551 -5.9497 6.1613 33.8200 4.7948 2.0172
# 5 7.1833 4.9356 3.1201 4.7948 25.4273 1.9901
# 6 7.0749 6.6795 8.6725 2.0172 1.9901 19.6806
#
#
#
# Elastic Compliance Matrix: (Units=1/GPa)
#
#
# Indices 1 2 3 4 5 6 
#
# 1 0.032543 -0.010263 -0.004657 0.000612 -0.006308 -0.005588
# 2 -0.010263 0.024800 -0.009451 0.006302 -0.001863 -0.001021
# 3 -0.004657 -0.009451 0.012730 -0.004346 0.002449 -0.000530
# 4 0.000612 0.006302 -0.004346 0.032620 -0.006771 -0.003102
# 5 -0.006308 -0.001863 0.002449 -0.006771 0.042588 -0.001792
# 6 -0.005588 -0.001021 -0.000530 -0.003102 -0.001792 0.053899
#
#
# Mechanical properties :
#
#
# Convention : Reuss Voigt Hill
#
# Bulk Modulus (GPa) = 46.88122 71.65335 59.26729
# Shear Modulus (GPa) = 19.60534 24.47115 22.03825
#
# Velocity S-wave (km/s) = 3.41488 3.81518 3.62057
# Velocity P-wave (km/s) = 6.59043 7.87574 7.26158
#
# Compressibility (1/GPa) = 0.02133050
#
# Stress axis : x y z
#
# Youngs Moduli (GPa) = 30.72902 40.32213 78.55562
#
# Poissons Ratio (x) = 0.41382 0.36584
# Poissons Ratio (y) = 0.31537 0.74244
# Poissons Ratio (z) = 0.14311 0.38109
#
# Static dielectric constant tensor:
#      x y z
#    x 2.950050 0.105080 -0.152440 
#    y 0.105080 3.285030 -0.270750 
#    z -0.152440 -0.270750 3.559290 
# 
# 
# High freq. dielectric constant tensor:
#      x y z
#    x 1.612120 0.009770 -0.009660 
#    y 0.009770 1.643750 -0.003940 
#    z -0.009660 -0.003940 1.660660 
# 
# From -- ./inp_files/252524.got.cif
#   From: 2010.06.25/outbox.cif.g09.slc.cpg/sg2_127_cif.got.tgz:252524.got - 2010.06.27 13:26:56.
