data_PCOD8039969
_publ_section_title
;
Structure prediction by ZEFSAII (Michael W. Deem and Ramdas Pophale) SiO2 
 PCOD8039969
Probable space group: P -1
;
_chemical_formula_sum "Si O2"
_cell_formula_units_Z 14
_cell_length_a 13.772566
_cell_length_b 20.793209
_cell_length_c 9.522875
_cell_angle_alpha 29.590865
_cell_angle_beta 37.120637
_cell_angle_gamma 27.826255
_cell_volume 623.840014
_symmetry_space_group_name_H-M "P -1"
_symmetry_group_IT_number 2
_symmetry_cell_setting 'triclinic'
loop_
_space_group_symop_operation_xyz
x,y,z
-x,-y,-z
loop_
_atom_site_type_symbol
_atom_site_label
_atom_site_fract_x
_atom_site_fract_y
_atom_site_fract_z
Si Si1 0.348208 0.796519 0.612899
Si Si2 0.422969 0.353178 0.097166
Si Si3 0.696508 0.307840 0.424114
Si Si4 0.984180 0.793140 0.133032
Si Si5 0.845857 0.839543 0.905848
Si Si6 0.970653 0.509969 0.350581
Si Si7 0.211033 0.922378 0.984998
O O1 0.547431 0.666344 0.729655
O O2 0.399893 0.729217 0.521250
O O3 0.310089 0.972196 0.333451
O O4 0.146492 0.824947 0.853116
O O5 0.196071 0.417833 0.192167
O O6 0.598778 0.172529 0.164247
O O7 0.450240 0.490620 0.759495
O O8 0.915867 0.246196 0.233547
O O9 0.725779 0.213149 0.711393
O O10 0.105160 0.594864 0.411435
O O11 0.830659 0.915787 0.203445
O O12 0.827922 0.845047 0.085091
O O13 0.809084 0.714286 0.115180
O O14 0.000000 0.500000 0.500000
O O15 0.000000 0.000000 0.000000
#
# Coordination Sequence:
#
# PCOD8039969 Si02
#       7
#     2   2   2   2   2   2   2
#     4  11  18  36  65  90 110 149 207 244 277 339
#     4  11  23  35  58  91 118 153 194 240 291 351
#     4  10  19  34  56  88 117 149 195 249 284 331
#     4  10  18  35  60  85 115 157 191 237 293 338
#     4   9  16  34  61  83 110 155 193 236 287 339
#     4   9  21  38  58  83 121 156 187 242 299 339
#     4  12  21  36  59  89 120 154 194 242 288 347
#
# _framework density 22.441649999999999
#
# number of rings (size 3 to 8) (size 9 to 14) (size 15 to 20)
#    0.000    1.714    4.286    2.571    0.000    0.571 
#    0.000    2.857    3.143    7.714    0.000    0.000 
#    0.000    0.000    0.000    0.000    0.000    0.000 
#
# Total GULP energy -173481.864033 kJ/mol
# GULP energy per Si atom -12391.561717 kJ/mol
# Density = 2.239057 g / cm^3
# Si number density = 22.441650 Si / 1000 Ang^3
#
#
#
# Elastic Constant Matrix: (Units=GPa)
#
#
# Indices 1 2 3 4 5 6 
#
# 1 48.4300 13.3320 30.4046 -9.1561 13.8710 13.4298
# 2 13.3320 81.9030 14.8314 -11.7261 -11.9256 19.6318
# 3 30.4046 14.8314 109.5377 -38.7364 -10.6277 15.3604
# 4 -9.1561 -11.7261 -38.7364 41.3503 13.8822 -1.3295
# 5 13.8710 -11.9256 -10.6277 13.8822 29.6370 -8.8501
# 6 13.4298 19.6318 15.3604 -1.3295 -8.8501 26.9656
#
#
#
# Elastic Compliance Matrix: (Units=1/GPa)
#
#
# Indices 1 2 3 4 5 6 
#
# 1 0.053224 -0.003288 -0.007429 0.018940 -0.048146 -0.034750
# 2 -0.003288 0.015796 0.001839 0.003850 0.003935 -0.009429
# 3 -0.007429 0.001839 0.016835 0.013771 0.002048 -0.005878
# 4 0.018940 0.003850 0.013771 0.053593 -0.036240 -0.029332
# 5 -0.048146 0.003935 0.002048 -0.036240 0.089792 0.047630
# 6 -0.034750 -0.009429 -0.005878 -0.029332 0.047630 0.078790
#
#
# Mechanical properties :
#
#
# Convention : Reuss Voigt Hill
#
# Bulk Modulus (GPa) = 14.68405 39.66742 27.17574
# Shear Modulus (GPa) = 14.34784 31.67742 23.01263
#
# Velocity S-wave (km/s) = 2.53126 3.76113 3.20573
# Velocity P-wave (km/s) = 3.88593 6.04778 5.08311
#
# Compressibility (1/GPa) = 0.06810110
#
# Stress axis : x y z
#
# Youngs Moduli (GPa) = 18.78843 63.30734 59.39970
#
# Poissons Ratio (x) = 0.20814 0.44126
# Poissons Ratio (y) = 0.06177 -0.10926
# Poissons Ratio (z) = 0.13957 -0.11645
#
# Static dielectric constant tensor:
#      x y z
#    x 3.926370 0.395490 -0.196480 
#    y 0.395490 4.211510 -0.394080 
#    z -0.196480 -0.394080 4.522960 
# 
# 
# High freq. dielectric constant tensor:
#      x y z
#    x 1.845990 0.014900 -0.006140 
#    y 0.014900 1.887770 -0.024550 
#    z -0.006140 -0.024550 1.881400 
# 
# From -- ./inp_files/184955.got.cif
#   From: 2010.06.25/outbox.cif.g09.slc.cpg/sg2_93_cif.got.tgz:184955.got - 2010.06.27 13:26:56.
