data_PCOD8039577
_publ_section_title
;
Structure prediction by ZEFSAII (Michael W. Deem and Ramdas Pophale) SiO2 
 PCOD8039577
Probable space group: P -1
;
_chemical_formula_sum "Si O2"
_cell_formula_units_Z 16
_cell_length_a 12.154042
_cell_length_b 23.601943
_cell_length_c 8.725405
_cell_angle_alpha 146.214885
_cell_angle_beta 69.865670
_cell_angle_gamma 134.104362
_cell_volume 809.459134
_symmetry_space_group_name_H-M "P -1"
_symmetry_group_IT_number 2
_symmetry_cell_setting 'triclinic'
loop_
_space_group_symop_operation_xyz
x,y,z
-x,-y,-z
loop_
_atom_site_type_symbol
_atom_site_label
_atom_site_fract_x
_atom_site_fract_y
_atom_site_fract_z
Si Si1 0.566067 0.814686 0.862761
Si Si2 0.116324 0.322224 0.762965
Si Si3 0.778210 0.108000 0.229112
Si Si4 0.199942 0.655377 0.331914
Si Si5 0.177840 0.030467 0.354842
Si Si6 0.094599 0.987828 0.641550
Si Si7 0.470201 0.656205 0.239909
Si Si8 0.154405 0.553738 0.445245
O O1 0.565695 0.742543 0.552536
O O2 0.352486 0.678868 0.725453
O O3 0.706765 0.865047 0.034994
O O4 0.640040 0.974961 0.130635
O O5 0.990161 0.250641 0.512386
O O6 0.331199 0.464450 0.908209
O O7 0.092212 0.401920 0.067312
O O8 0.057964 0.183168 0.574961
O O9 0.710824 0.176627 0.384005
O O10 0.771002 0.034810 0.913981
O O11 0.344077 0.662142 0.244327
O O12 0.178292 0.649052 0.510098
O O13 0.000000 0.500000 0.000000
O O14 0.138656 0.970802 0.414637
O O15 0.354171 0.233119 0.714403
O O16 0.991509 0.958161 0.213976
O O17 0.000000 0.500000 0.500000
#
# Coordination Sequence:
#
# PCOD8039577 Si02
#       8
#     2   2   2   2   2   2   2   2
#     4   8  19  36  56  75 112 141 182 221 264 333
#     4   9  19  37  57  80 114 141 184 224 266 334
#     4  10  18  36  58  82 106 147 186 218 271 324
#     4  10  18  34  57  80 116 141 174 228 264 321
#     4  10  23  36  58  81 107 142 189 232 276 318
#     4  10  21  41  54  79 113 142 181 238 276 316
#     4   9  19  36  56  85 107 145 185 218 268 331
#     4  10  21  35  54  85 113 145 177 217 277 329
#
# _framework density 19.766285
#
# number of rings (size 3 to 8) (size 9 to 14) (size 15 to 20)
#    0.000    2.750    2.500    0.000    1.750   10.500 
#    0.000    2.500    0.000    7.500    0.000    0.000 
#    0.000    0.000    0.000    0.000    0.000    0.000 
#
# Total GULP energy -198222.749355 kJ/mol
# GULP energy per Si atom -12388.921835 kJ/mol
# Density = 1.972130 g / cm^3
# Si number density = 19.766285 Si / 1000 Ang^3
#
#
#
# Elastic Constant Matrix: (Units=GPa)
#
#
# Indices 1 2 3 4 5 6 
#
# 1 84.5977 26.7280 24.6275 -1.3226 24.9306 -9.9164
# 2 26.7280 66.1873 7.5453 17.1988 11.0637 3.3877
# 3 24.6275 7.5453 70.2731 14.5338 20.5870 -2.2678
# 4 -1.3226 17.1988 14.5338 23.1575 4.6055 0.7323
# 5 24.9306 11.0637 20.5870 4.6055 31.4231 1.2089
# 6 -9.9164 3.3877 -2.2678 0.7323 1.2089 31.6565
#
#
#
# Elastic Compliance Matrix: (Units=1/GPa)
#
#
# Indices 1 2 3 4 5 6 
#
# 1 0.021274 -0.010043 -0.005558 0.014330 -0.012089 0.007471
# 2 -0.010043 0.024660 0.005545 -0.022030 -0.000933 -0.004842
# 3 -0.005558 0.005545 0.021670 -0.016171 -0.009367 -0.000050
# 4 0.014330 -0.022030 -0.016171 0.071095 -0.003599 0.004181
# 5 -0.012089 -0.000933 -0.009367 -0.003599 0.048643 -0.006132
# 6 0.007471 -0.004842 -0.000050 0.004181 -0.006132 0.034581
#
#
# Mechanical properties :
#
#
# Convention : Reuss Voigt Hill
#
# Bulk Modulus (GPa) = 21.05643 37.65109 29.35376
# Shear Modulus (GPa) = 19.38990 28.05789 23.72389
#
# Velocity S-wave (km/s) = 3.13542 3.77169 3.46818
# Velocity P-wave (km/s) = 4.87685 6.16904 5.56061
#
# Compressibility (1/GPa) = 0.04749143
#
# Stress axis : x y z
#
# Youngs Moduli (GPa) = 47.00615 40.55132 46.14700
#
# Poissons Ratio (x) = 0.40724 0.25650
# Poissons Ratio (y) = 0.47206 -0.25587
# Poissons Ratio (z) = 0.26128 -0.22484
#
# Static dielectric constant tensor:
#      x y z
#    x 3.622280 0.124850 0.247840 
#    y 0.124850 4.475330 0.444510 
#    z 0.247840 0.444510 3.720980 
# 
# 
# High freq. dielectric constant tensor:
#      x y z
#    x 1.770530 -0.006230 0.021170 
#    y -0.006230 1.758470 0.022660 
#    z 0.021170 0.022660 1.760810 
# 
# From -- ./inp_files/285098.got.cif
#   From: 2010.06.25/outbox.cif.g09.slc.cpg/sg2_143_cif.got.tgz:285098.got - 2010.06.27 13:26:56.
