data_PCOD8039108
_publ_section_title
;
Structure prediction by ZEFSAII (Michael W. Deem and Ramdas Pophale) SiO2 
 PCOD8039108
Probable space group: P -1
;
_chemical_formula_sum "Si O2"
_cell_formula_units_Z 16
_cell_length_a 14.297540
_cell_length_b 11.238712
_cell_length_c 11.363572
_cell_angle_alpha 59.032918
_cell_angle_beta 63.785592
_cell_angle_gamma 31.061740
_cell_volume 807.838142
_symmetry_space_group_name_H-M "P -1"
_symmetry_group_IT_number 2
_symmetry_cell_setting 'triclinic'
loop_
_space_group_symop_operation_xyz
x,y,z
-x,-y,-z
loop_
_atom_site_type_symbol
_atom_site_label
_atom_site_fract_x
_atom_site_fract_y
_atom_site_fract_z
Si Si1 0.858122 0.620578 0.682216
Si Si2 0.005373 0.381984 0.158053
Si Si3 0.272905 0.584155 0.414351
Si Si4 0.315467 0.465192 0.702791
Si Si5 0.307332 0.853080 0.292209
Si Si6 0.821129 0.867403 0.357735
Si Si7 0.449924 0.180221 0.352516
Si Si8 0.148860 0.936748 0.583125
O O1 0.843163 0.741516 0.520359
O O2 0.662124 0.755152 0.731506
O O3 0.910809 0.643923 0.757523
O O4 0.009253 0.338474 0.717529
O O5 0.800847 0.547433 0.203680
O O6 0.144339 0.108090 0.185256
O O7 0.000000 0.500000 0.000000
O O8 0.371742 0.414845 0.560201
O O9 0.339896 0.667651 0.307621
O O10 0.315184 0.437554 0.357721
O O11 0.062963 0.814405 0.450845
O O12 0.508974 0.255887 0.768655
O O13 0.195128 0.725630 0.680036
O O14 0.259352 0.882601 0.441294
O O15 0.642822 0.039273 0.287483
O O16 0.803847 0.040526 0.331443
O O17 0.500000 0.000000 0.500000
#
# Coordination Sequence:
#
# PCOD8039108 Si02
#       8
#     2   2   2   2   2   2   2   2
#     4  10  21  35  52  80 117 151 186 229 286 348
#     4  12  26  42  57  80 117 163 205 238 271 332
#     4  11  18  34  59  92 121 148 181 235 310 352
#     4  11  22  35  59  84 117 154 189 241 291 346
#     4  11  21  36  59  85 117 153 193 242 287 345
#     4  10  18  32  56  86 117 143 176 233 299 353
#     4  10  21  30  53  88 122 151 171 225 300 362
#     4  11  17  35  59  91 120 145 180 240 308 350
#
# _framework density 19.805947
#
# number of rings (size 3 to 8) (size 9 to 14) (size 15 to 20)
#    0.000    1.250    5.000    3.750    5.250    0.500 
#    0.000    0.000    0.000    3.000    0.000    3.500 
#    0.000    0.000    0.000    0.000    0.000    0.000 
#
# Total GULP energy -198314.360691 kJ/mol
# GULP energy per Si atom -12394.647543 kJ/mol
# Density = 1.976087 g / cm^3
# Si number density = 19.805947 Si / 1000 Ang^3
#
#
#
# Elastic Constant Matrix: (Units=GPa)
#
#
# Indices 1 2 3 4 5 6 
#
# 1 143.2855 36.6548 25.5728 0.8950 -7.1364 -23.5040
# 2 36.6548 75.4582 16.9440 -8.3121 0.5037 -13.7215
# 3 25.5728 16.9440 56.0902 -6.9067 -13.7432 -7.0743
# 4 0.8950 -8.3121 -6.9067 7.4246 0.7006 -0.5511
# 5 -7.1364 0.5037 -13.7432 0.7006 13.3571 -4.8252
# 6 -23.5040 -13.7215 -7.0743 -0.5511 -4.8252 44.1259
#
#
#
# Elastic Compliance Matrix: (Units=1/GPa)
#
#
# Indices 1 2 3 4 5 6 
#
# 1 0.009389 -0.004295 -0.002485 -0.008395 0.004376 0.003641
# 2 -0.004295 0.018568 -0.002091 0.020058 -0.005174 0.002836
# 3 -0.002485 -0.002091 0.031400 0.024636 0.032257 0.006895
# 4 -0.008395 0.020058 0.024636 0.180451 0.014077 0.009509
# 5 0.004376 -0.005174 0.032257 0.014077 0.116652 0.018826
# 6 0.003641 0.002836 0.006895 0.009509 0.018826 0.028766
#
#
# Mechanical properties :
#
#
# Convention : Reuss Voigt Hill
#
# Bulk Modulus (GPa) = 24.03007 48.13081 36.08044
# Shear Modulus (GPa) = 11.99499 26.02567 19.01033
#
# Velocity S-wave (km/s) = 2.46362 3.62889 3.10147
# Velocity P-wave (km/s) = 4.50018 6.47398 5.57513
#
# Compressibility (1/GPa) = 0.04161453
#
# Stress axis : x y z
#
# Youngs Moduli (GPa) = 106.50848 53.85661 31.84689
#
# Poissons Ratio (x) = 0.23129 0.07915
# Poissons Ratio (y) = 0.45740 0.06660
# Poissons Ratio (z) = 0.26472 0.11263
#
# Static dielectric constant tensor:
#      x y z
#    x 4.125080 -0.108470 0.013440 
#    y -0.108470 3.811570 -0.306760 
#    z 0.013440 -0.306760 2.901790 
# 
# 
# High freq. dielectric constant tensor:
#      x y z
#    x 1.802120 -0.008700 -0.007500 
#    y -0.008700 1.787440 -0.025150 
#    z -0.007500 -0.025150 1.676950 
# 
# From -- ./inp_files/432272.got.cif
#   From: 2010.06.25/outbox.cif.g09.slc.cpg/sg2_217_cif.got.tgz:432272.got - 2010.06.27 13:26:56.
