data_PCOD8039442
_publ_section_title
;
Structure prediction by ZEFSAII (Michael W. Deem and Ramdas Pophale) SiO2 
 PCOD8039442
Probable space group: P -1
;
_chemical_formula_sum "Si O2"
_cell_formula_units_Z 16
_cell_length_a 24.010634
_cell_length_b 12.937786
_cell_length_c 8.572061
_cell_angle_alpha 129.940516
_cell_angle_beta 51.153470
_cell_angle_gamma 156.810703
_cell_volume 797.842910
_symmetry_space_group_name_H-M "P -1"
_symmetry_group_IT_number 2
_symmetry_cell_setting 'triclinic'
loop_
_space_group_symop_operation_xyz
x,y,z
-x,-y,-z
loop_
_atom_site_type_symbol
_atom_site_label
_atom_site_fract_x
_atom_site_fract_y
_atom_site_fract_z
Si Si1 0.227990 0.718631 0.207928
Si Si2 0.641039 0.507134 0.532006
Si Si3 0.925875 0.182344 0.139015
Si Si4 0.269300 0.533425 0.167299
Si Si5 0.267145 0.260049 0.725809
Si Si6 0.651922 0.857965 0.376087
Si Si7 0.438226 0.911738 0.848433
Si Si8 0.882349 0.868272 0.694158
O O1 0.207453 0.559261 0.206912
O O2 0.069490 0.502730 0.221698
O O3 0.312233 0.975568 0.391525
O O4 0.312604 0.816823 0.995392
O O5 0.721740 0.721108 0.461593
O O6 0.484022 0.314429 0.651438
O O7 0.629446 0.332832 0.338093
O O8 0.736963 0.677868 0.681559
O O9 0.887697 0.042849 0.234427
O O10 0.793345 0.068080 0.221603
O O11 0.947455 0.106115 0.892700
O O12 0.159867 0.315574 0.285029
O O13 0.427817 0.825901 0.241451
O O14 0.297222 0.457955 0.925473
O O15 0.382920 0.342483 0.673565
O O16 0.500000 0.000000 0.000000
O O17 0.000000 0.000000 0.500000
#
# Coordination Sequence:
#
# PCOD8039442 Si02
#       8
#     2   2   2   2   2   2   2   2
#     4  11  18  37  69  87 122 148 200 254 293 339
#     4  12  20  38  60  89 124 158 193 248 294 355
#     4   9  23  38  57  89 118 156 198 242 295 351
#     4  10  20  39  60  91 117 154 200 246 292 351
#     4   9  20  35  59  90 117 149 208 241 290 344
#     4  10  21  36  62  91 115 156 201 243 298 348
#     4  10  18  33  61  91 113 145 202 243 292 330
#     4  11  26  39  58  89 126 157 197 241 303 354
#
# _framework density 20.054072000000001
#
# number of rings (size 3 to 8) (size 9 to 14) (size 15 to 20)
#    0.750    1.000    5.000    1.500    1.750    2.000 
#    0.000    0.000    0.000    1.500    0.000    0.000 
#    0.000    0.000    0.000    0.000    0.000    0.000 
#
# Total GULP energy -198221.927964 kJ/mol
# GULP energy per Si atom -12388.870498 kJ/mol
# Density = 2.000843 g / cm^3
# Si number density = 20.054072 Si / 1000 Ang^3
#
#
#
# Elastic Constant Matrix: (Units=GPa)
#
#
# Indices 1 2 3 4 5 6 
#
# 1 48.1366 5.1500 19.9314 -4.2402 -4.5957 8.7260
# 2 5.1500 78.6523 14.4600 -16.9274 5.3011 18.9440
# 3 19.9314 14.4600 58.3982 -19.1110 -12.9550 4.0274
# 4 -4.2402 -16.9274 -19.1110 32.7001 5.6536 -4.3740
# 5 -4.5957 5.3011 -12.9550 5.6536 24.6693 0.0032
# 6 8.7260 18.9440 4.0274 -4.3740 0.0032 30.2241
#
#
#
# Elastic Compliance Matrix: (Units=1/GPa)
#
#
# Indices 1 2 3 4 5 6 
#
# 1 0.025623 0.001246 -0.009325 -0.002489 0.000180 -0.007296
# 2 0.001246 0.017660 -0.003278 0.007259 -0.006946 -0.009941
# 3 -0.009325 -0.003278 0.027000 0.011428 0.010527 0.002802
# 4 -0.002489 0.007259 0.011428 0.041754 -0.005591 0.000689
# 5 0.000180 -0.006946 0.010527 -0.005591 0.048872 0.002085
# 6 -0.007296 -0.009941 0.002802 0.000689 0.002085 0.041150
#
#
# Mechanical properties :
#
#
# Convention : Reuss Voigt Hill
#
# Bulk Modulus (GPa) = 21.02222 29.36330 25.19276
# Shear Modulus (GPa) = 20.77897 27.22843 24.00370
#
# Velocity S-wave (km/s) = 3.22242 3.68876 3.46345
# Velocity P-wave (km/s) = 4.93465 5.72857 5.34637
#
# Compressibility (1/GPa) = 0.04756871
#
# Stress axis : x y z
#
# Youngs Moduli (GPa) = 39.02804 56.62515 37.03679
#
# Poissons Ratio (x) = -0.07056 0.34537
# Poissons Ratio (y) = -0.04864 0.12141
# Poissons Ratio (z) = 0.36394 0.18562
#
# Static dielectric constant tensor:
#      x y z
#    x 3.433590 0.024060 -0.230070 
#    y 0.024060 3.906360 -0.216570 
#    z -0.230070 -0.216570 3.586610 
# 
# 
# High freq. dielectric constant tensor:
#      x y z
#    x 1.745860 0.004850 -0.025520 
#    y 0.004850 1.793230 -0.007030 
#    z -0.025520 -0.007030 1.773770 
# 
# From -- ./inp_files/357290.got.cif
#   From: 2010.06.25/outbox.cif.g09.slc.cpg/sg2_179_cif.got.tgz:357290.got - 2010.06.27 13:26:56.
