data_PCOD8039901
_publ_section_title
;
Structure prediction by ZEFSAII (Michael W. Deem and Ramdas Pophale) SiO2 
 PCOD8039901
Probable space group: P -1
;
_chemical_formula_sum "Si O2"
_cell_formula_units_Z 12
_cell_length_a 5.394886
_cell_length_b 15.270120
_cell_length_c 14.290167
_cell_angle_alpha 25.456828
_cell_angle_beta 98.036778
_cell_angle_gamma 105.426319
_cell_volume 473.254865
_symmetry_space_group_name_H-M "P -1"
_symmetry_group_IT_number 2
_symmetry_cell_setting 'triclinic'
loop_
_space_group_symop_operation_xyz
x,y,z
-x,-y,-z
loop_
_atom_site_type_symbol
_atom_site_label
_atom_site_fract_x
_atom_site_fract_y
_atom_site_fract_z
Si Si1 0.092490 0.262352 0.252020
Si Si2 0.191694 0.320708 0.409086
Si Si3 0.287398 0.544383 0.379226
Si Si4 0.537350 0.198434 0.239439
Si Si5 0.601505 0.068256 0.686244
Si Si6 0.837298 0.139946 0.816553
O O1 0.847324 0.343690 0.128338
O O2 0.210870 0.376181 0.246914
O O3 0.338732 0.331168 0.126103
O O4 0.000000 0.000000 0.500000
O O5 0.327140 0.526690 0.286261
O O6 0.363431 0.165245 0.585274
O O7 0.879832 0.218182 0.513293
O O8 0.500000 0.500000 0.500000
O O9 0.007757 0.362447 0.561594
O O10 0.302841 0.788690 0.170719
O O11 0.500000 0.000000 0.500000
O O12 0.494728 0.137710 0.187041
O O13 0.641170 0.001833 0.859326
O O14 0.000000 0.000000 0.000000
#
# Coordination Sequence:
#
# PCOD8039901 Si02
#       6
#     2   2   2   2   2   2
#     4  10  15  24  41  71 108 138 174 230 278 331
#     4  11  18  29  50  77 112 144 185 234 285 338
#     4  10  21  38  59  83 115 152 195 244 291 344
#     4  10  15  24  42  71 109 134 179 229 276 333
#     4  11  18  30  50  77 110 148 183 235 285 337
#     4  10  23  40  58  84 118 154 196 242 291 347
#
# _framework density 25.356314000000001
#
# number of rings (size 3 to 8) (size 9 to 14) (size 15 to 20)
#    0.000    1.667    8.333    0.000    0.000    0.667 
#    0.000    0.000    0.000    0.000    0.000    2.333 
#    0.000    0.000    0.000    0.000    0.000    0.000 
#
# Total GULP energy -148683.894176 kJ/mol
# GULP energy per Si atom -12390.324515 kJ/mol
# Density = 2.529860 g / cm^3
# Si number density = 25.356314 Si / 1000 Ang^3
#
#
#
# Elastic Constant Matrix: (Units=GPa)
#
#
# Indices 1 2 3 4 5 6 
#
# 1 115.9637 62.9109 28.0423 -7.9417 43.7474 -2.4946
# 2 62.9109 319.1942 57.3620 20.1623 25.9785 -13.3534
# 3 28.0423 57.3620 67.3569 15.8312 32.9665 -5.6434
# 4 -7.9417 20.1623 15.8312 34.0540 6.9047 9.3160
# 5 43.7474 25.9785 32.9665 6.9047 46.1844 -2.3835
# 6 -2.4946 -13.3534 -5.6434 9.3160 -2.3835 46.2140
#
#
#
# Elastic Compliance Matrix: (Units=1/GPa)
#
#
# Indices 1 2 3 4 5 6 
#
# 1 0.016672 -0.002835 0.001263 0.009005 -0.016571 -0.002435
# 2 -0.002835 0.004242 -0.003169 -0.002694 0.003035 0.001385
# 3 0.001263 -0.003169 0.028025 -0.008097 -0.018039 0.003277
# 4 0.009005 -0.002694 -0.008097 0.041159 -0.007904 -0.009986
# 5 -0.016571 0.003035 -0.018039 -0.007904 0.049800 0.001941
# 6 -0.002435 0.001385 0.003277 -0.009986 0.001941 0.024421
#
#
# Mechanical properties :
#
#
# Convention : Reuss Voigt Hill
#
# Bulk Modulus (GPa) = 25.34324 88.79391 57.06857
# Shear Modulus (GPa) = 26.74495 48.90378 37.82437
#
# Velocity S-wave (km/s) = 3.25124 4.39642 3.86646
# Velocity P-wave (km/s) = 4.91025 7.80165 6.51830
#
# Compressibility (1/GPa) = 0.03945826
#
# Stress axis : x y z
#
# Youngs Moduli (GPa) = 59.98253 235.72845 35.68208
#
# Poissons Ratio (x) = 0.66826 -0.04507
# Poissons Ratio (y) = 0.17004 0.11306
# Poissons Ratio (z) = -0.07577 0.74695
#
# Static dielectric constant tensor:
#      x y z
#    x 5.688310 0.172540 0.429760 
#    y 0.172540 5.337940 0.010230 
#    z 0.429760 0.010230 4.022810 
# 
# 
# High freq. dielectric constant tensor:
#      x y z
#    x 2.030670 0.002300 0.017990 
#    y 0.002300 2.047790 -0.004990 
#    z 0.017990 -0.004990 1.984310 
# 
# From -- ./inp_files/29342.got.cif
#   From: 2010.06.25/outbox.cif.g09.slc.cpg/sg2_15_cif.got.tgz:29342.got - 2010.06.27 13:26:56.
