data_PCOD8039066
_publ_section_title
;
Structure prediction by ZEFSAII (Michael W. Deem and Ramdas Pophale) SiO2 
 PCOD8039066
Probable space group: P -1
;
_chemical_formula_sum "Si O2"
_cell_formula_units_Z 16
_cell_length_a 10.812466
_cell_length_b 11.667882
_cell_length_c 18.199511
_cell_angle_alpha 45.126811
_cell_angle_beta 146.700156
_cell_angle_gamma 121.888169
_cell_volume 882.118183
_symmetry_space_group_name_H-M "P -1"
_symmetry_group_IT_number 2
_symmetry_cell_setting 'triclinic'
loop_
_space_group_symop_operation_xyz
x,y,z
-x,-y,-z
loop_
_atom_site_type_symbol
_atom_site_label
_atom_site_fract_x
_atom_site_fract_y
_atom_site_fract_z
Si Si1 0.217552 0.585319 0.382557
Si Si2 0.261974 0.892408 0.351663
Si Si3 0.664014 0.509672 0.969461
Si Si4 0.710588 0.663997 0.080069
Si Si5 0.546361 0.798014 0.664457
Si Si6 0.366462 0.645116 0.272736
Si Si7 0.149059 0.002256 0.998528
Si Si8 0.119325 0.413333 0.166898
O O1 0.336336 0.730808 0.411814
O O2 0.217610 0.612960 0.283445
O O3 0.362819 0.409849 0.554606
O O4 0.954379 0.588373 0.272102
O O5 0.300731 0.836397 0.482383
O O6 0.410268 0.038764 0.344534
O O7 0.004694 0.964500 0.166557
O O8 0.484340 0.383649 0.942073
O O9 0.568549 0.644423 0.799511
O O10 0.679677 0.601879 0.011353
O O11 0.912964 0.401710 0.126714
O O12 0.691011 0.859588 0.977214
O O13 0.734313 0.759488 0.708252
O O14 0.318734 0.835409 0.143337
O O15 0.291381 0.533975 0.222095
O O16 0.000000 0.000000 0.000000
O O17 0.000000 0.500000 0.000000
#
# Coordination Sequence:
#
# PCOD8039066 Si02
#       8
#     2   2   2   2   2   2   2   2
#     4  10  20  33  54  84 111 136 186 229 274 319
#     4  10  19  33  54  85 105 139 185 230 274 319
#     4  10  20  35  56  79 114 147 184 218 282 331
#     4  10  20  35  57  83 109 147 183 225 275 339
#     4  10  20  33  56  81 113 144 183 229 271 324
#     4  11  19  32  57  83 109 139 180 237 274 307
#     4  11  18  32  55  81 107 139 183 234 271 310
#     4  10  18  32  55  82 106 142 180 223 270 324
#
# _framework density 18.138159000000002
#
# number of rings (size 3 to 8) (size 9 to 14) (size 15 to 20)
#    0.000    1.750    5.000    2.250    0.000    0.000 
#    0.000    2.500    5.500    7.500    0.000    0.000 
#    0.000    0.000    0.000    0.000    0.000    0.000 
#
# Total GULP energy -198212.922092 kJ/mol
# GULP energy per Si atom -12388.307631 kJ/mol
# Density = 1.809688 g / cm^3
# Si number density = 18.138159 Si / 1000 Ang^3
#
#
#
# Elastic Constant Matrix: (Units=GPa)
#
#
# Indices 1 2 3 4 5 6 
#
# 1 55.8713 33.7631 25.7520 -1.2233 1.1759 9.4740
# 2 33.7631 107.0780 43.4714 -1.7218 1.5033 6.6904
# 3 25.7520 43.4714 108.1825 -12.6446 1.8363 6.6277
# 4 -1.2233 -1.7218 -12.6446 30.8210 -6.4337 -1.8889
# 5 1.1759 1.5033 1.8363 -6.4337 26.6779 3.2496
# 6 9.4740 6.6904 6.6277 -1.8889 3.2496 26.7720
#
#
#
# Elastic Compliance Matrix: (Units=1/GPa)
#
#
# Indices 1 2 3 4 5 6 
#
# 1 0.023934 -0.005933 -0.003046 -0.001015 0.000012 -0.006306
# 2 -0.005933 0.012766 -0.003840 -0.001205 -0.000464 -0.000169
# 3 -0.003046 -0.003840 0.012097 0.004740 0.000748 -0.000713
# 4 -0.001015 -0.001205 0.004740 0.036091 0.008366 0.001018
# 5 0.000012 -0.000464 0.000748 0.008366 0.040004 -0.004339
# 6 -0.006306 -0.000169 -0.000713 0.001018 -0.004339 0.040401
#
#
# Mechanical properties :
#
#
# Convention : Reuss Voigt Hill
#
# Bulk Modulus (GPa) = 43.17856 53.01164 48.09510
# Shear Modulus (GPa) = 25.16960 28.06386 26.61673
#
# Velocity S-wave (km/s) = 3.72917 3.93775 3.83488
# Velocity P-wave (km/s) = 6.51148 7.06856 6.79573
#
# Compressibility (1/GPa) = 0.02315964
#
# Stress axis : x y z
#
# Youngs Moduli (GPa) = 41.78125 78.33035 82.66573
#
# Poissons Ratio (x) = 0.46471 0.25179
# Poissons Ratio (y) = 0.24787 0.31747
# Poissons Ratio (z) = 0.12726 0.30082
#
# Static dielectric constant tensor:
#      x y z
#    x 4.180780 -0.275350 0.845700 
#    y -0.275350 3.446490 -0.031500 
#    z 0.845700 -0.031500 4.357530 
# 
# 
# High freq. dielectric constant tensor:
#      x y z
#    x 1.657860 -0.030280 -0.009360 
#    y -0.030280 1.704910 0.004500 
#    z -0.009360 0.004500 1.720690 
# 
# From -- ./inp_files/418259.got.cif
#   From: 2010.06.25/outbox.cif.g09.slc.cpg/sg2_210_cif.got.tgz:418259.got - 2010.06.27 13:26:56.
