data_PCOD8039973
_publ_section_title
;
Structure prediction by ZEFSAII (Michael W. Deem and Ramdas Pophale) SiO2 
 PCOD8039973
Probable space group: P -1
;
_chemical_formula_sum "Si O2"
_cell_formula_units_Z 14
_cell_length_a 9.521578
_cell_length_b 12.009802
_cell_length_c 9.080485
_cell_angle_alpha 47.670841
_cell_angle_beta 62.259123
_cell_angle_gamma 77.395651
_cell_volume 672.190723
_symmetry_space_group_name_H-M "P -1"
_symmetry_group_IT_number 2
_symmetry_cell_setting 'triclinic'
loop_
_space_group_symop_operation_xyz
x,y,z
-x,-y,-z
loop_
_atom_site_type_symbol
_atom_site_label
_atom_site_fract_x
_atom_site_fract_y
_atom_site_fract_z
Si Si1 0.027999 0.799368 0.096069
Si Si2 0.355157 0.163791 0.961631
Si Si3 0.064534 0.102688 0.651108
Si Si4 0.099779 0.725131 0.664402
Si Si5 0.859433 0.595446 0.137901
Si Si6 0.308620 0.005524 0.414880
Si Si7 0.369483 0.923574 0.933102
O O1 0.917887 0.797456 0.297523
O O2 0.982367 0.640676 0.173992
O O3 0.215443 0.824659 0.024997
O O4 0.985161 0.931059 0.888124
O O5 0.545689 0.176991 0.899101
O O6 0.255401 0.074907 0.224029
O O7 0.302322 0.330200 0.822268
O O8 0.322248 0.071442 0.907146
O O9 0.946748 0.171664 0.537627
O O10 0.240121 0.096853 0.501039
O O11 0.184775 0.586831 0.681934
O O12 0.226123 0.828796 0.616075
O O13 0.940945 0.655371 0.891523
O O14 0.503157 0.022815 0.309491
#
# Coordination Sequence:
#
# PCOD8039973 Si02
#       7
#     2   2   2   2   2   2   2
#     4  11  22  36  58  92 119 145 185 254 293 327
#     4   9  18  37  60  86 113 155 189 238 284 348
#     4  11  21  35  63  86 116 147 198 242 281 334
#     4  11  21  36  60  85 113 155 202 232 273 352
#     4  11  22  37  59  85 118 153 195 235 286 341
#     4  10  18  35  60  86 107 149 195 238 271 342
#     4   9  20  34  62  87 119 142 193 242 300 323
#
# _framework density 20.827421999999999
#
# number of rings (size 3 to 8) (size 9 to 14) (size 15 to 20)
#    0.857    0.857    2.857    3.857    0.000    1.143 
#    0.000    0.714    3.143    2.571    0.000    0.000 
#    0.000    0.000    0.000    0.000    0.000    0.000 
#
# Total GULP energy -173496.816901 kJ/mol
# GULP energy per Si atom -12392.629779 kJ/mol
# Density = 2.078002 g / cm^3
# Si number density = 20.827422 Si / 1000 Ang^3
#
#
#
# Elastic Constant Matrix: (Units=GPa)
#
#
# Indices 1 2 3 4 5 6 
#
# 1 106.0385 57.0935 28.6674 -12.6758 5.2438 -12.2054
# 2 57.0935 124.7066 31.0260 4.9188 -1.8397 -19.8765
# 3 28.6674 31.0260 55.4965 19.3369 -5.2684 -4.9472
# 4 -12.6758 4.9188 19.3369 36.7307 -5.5551 -4.3828
# 5 5.2438 -1.8397 -5.2684 -5.5551 18.0470 5.4279
# 6 -12.2054 -19.8765 -4.9472 -4.3828 5.4279 32.0530
#
#
#
# Elastic Compliance Matrix: (Units=1/GPa)
#
#
# Indices 1 2 3 4 5 6 
#
# 1 0.017177 -0.005169 -0.010219 0.011578 -0.006261 0.004401
# 2 -0.005169 0.011999 -0.003218 -0.001123 -0.000011 0.004824
# 3 -0.010219 -0.003218 0.032161 -0.019472 0.007496 -0.004855
# 4 0.011578 -0.001123 -0.019472 0.042680 0.002114 0.006185
# 5 -0.006261 -0.000011 0.007496 0.002114 0.063591 -0.011713
# 6 0.004401 0.004824 -0.004855 0.006185 -0.011713 0.037946
#
#
# Mechanical properties :
#
#
# Convention : Reuss Voigt Hill
#
# Bulk Modulus (GPa) = 41.45232 57.75726 49.60479
# Shear Modulus (GPa) = 19.93568 28.66312 24.29940
#
# Velocity S-wave (km/s) = 3.09720 3.71377 3.41941
# Velocity P-wave (km/s) = 5.72155 6.79566 6.28160
#
# Compressibility (1/GPa) = 0.02412410
#
# Stress axis : x y z
#
# Youngs Moduli (GPa) = 58.21862 83.34130 31.09386
#
# Poissons Ratio (x) = 0.43078 0.31776
# Poissons Ratio (y) = 0.30093 0.10006
# Poissons Ratio (z) = 0.59495 0.26818
#
# Static dielectric constant tensor:
#      x y z
#    x 3.489150 -0.176630 0.086280 
#    y -0.176630 3.852210 0.245450 
#    z 0.086280 0.245450 3.568880 
# 
# 
# High freq. dielectric constant tensor:
#      x y z
#    x 1.803880 -0.013590 0.008640 
#    y -0.013590 1.813710 0.030670 
#    z 0.008640 0.030670 1.788370 
# 
# From -- ./inp_files/251598.got.cif
#   From: 2010.06.25/outbox.cif.g09.slc.cpg/sg2_126_cif.got.tgz:251598.got - 2010.06.27 13:26:56.
