data_PCOD8039656
_publ_section_title
;
Structure prediction by ZEFSAII (Michael W. Deem and Ramdas Pophale) SiO2 
 PCOD8039656
Probable space group: P -1
;
_chemical_formula_sum "Si O2"
_cell_formula_units_Z 12
_cell_length_a 9.414313
_cell_length_b 7.766599
_cell_length_c 7.838369
_cell_angle_alpha 57.587034
_cell_angle_beta 94.739231
_cell_angle_gamma 114.381170
_cell_volume 433.459444
_symmetry_space_group_name_H-M "P -1"
_symmetry_group_IT_number 2
_symmetry_cell_setting 'triclinic'
loop_
_space_group_symop_operation_xyz
x,y,z
-x,-y,-z
loop_
_atom_site_type_symbol
_atom_site_label
_atom_site_fract_x
_atom_site_fract_y
_atom_site_fract_z
Si Si1 0.532985 0.110637 0.259022
Si Si2 0.630496 0.324700 0.692889
Si Si3 0.067703 0.286905 0.806883
Si Si4 0.888324 0.229532 0.132967
Si Si5 0.585805 0.529589 0.225362
Si Si6 0.019585 0.321272 0.425886
O O1 0.702710 0.154044 0.171118
O O2 0.518420 0.346075 0.160169
O O3 0.500000 0.000000 0.500000
O O4 0.402646 0.936492 0.207265
O O5 0.584825 0.412803 0.468976
O O6 0.521142 0.335610 0.834405
O O7 0.806950 0.472546 0.699666
O O8 0.232142 0.296699 0.885591
O O9 0.018002 0.177346 0.670459
O O10 0.095002 0.549628 0.640717
O O11 0.930876 0.137089 0.009432
O O12 0.950487 0.146660 0.352308
O O13 0.000000 0.500000 0.000000
#
# Coordination Sequence:
#
# PCOD8039656 Si02
#       6
#     2   2   2   2   2   2
#     4  10  19  33  58  83 112 154 188 232 291 342
#     4   9  19  31  56  83 113 146 194 234 282 340
#     4   9  17  31  59  77 108 155 189 223 287 345
#     4  10  18  34  59  81 111 157 188 229 292 346
#     4   9  16  34  55  79 112 156 182 229 295 341
#     4   9  17  32  57  84 107 153 194 229 283 348
#
# _framework density 27.684252999999998
#
# number of rings (size 3 to 8) (size 9 to 14) (size 15 to 20)
#    0.000    2.667    3.333    0.000    2.333    0.000 
#    0.000    5.000    3.667    4.000    0.000    0.000 
#    0.000    0.000    0.000    0.000    0.000    0.000 
#
# Total GULP energy -148674.808210 kJ/mol
# GULP energy per Si atom -12389.567351 kJ/mol
# Density = 2.762124 g / cm^3
# Si number density = 27.684253 Si / 1000 Ang^3
#
#
#
# Elastic Constant Matrix: (Units=GPa)
#
#
# Indices 1 2 3 4 5 6 
#
# 1 119.6877 44.4404 22.0405 5.1417 -37.5780 9.6503
# 2 44.4404 114.2244 31.3092 28.6965 -7.5814 3.3218
# 3 22.0405 31.3092 96.0820 9.3556 -39.7105 -8.0950
# 4 5.1417 28.6965 9.3556 44.5370 -4.1746 -4.2759
# 5 -37.5780 -7.5814 -39.7105 -4.1746 47.7944 -0.5949
# 6 9.6503 3.3218 -8.0950 -4.2759 -0.5949 21.6240
#
#
#
# Elastic Compliance Matrix: (Units=1/GPa)
#
#
# Indices 1 2 3 4 5 6 
#
# 1 0.014475 -0.006360 0.003963 0.002595 0.013853 -0.003105
# 2 -0.006360 0.014671 -0.006456 -0.008552 -0.008831 -0.003766
# 3 0.003963 -0.006456 0.019828 0.002029 0.018837 0.007565
# 4 0.002595 -0.008552 0.002029 0.028338 0.004928 0.006655
# 5 0.013853 -0.008831 0.018837 0.004928 0.046551 0.004481
# 6 -0.003105 -0.003766 0.007565 0.006655 0.004481 0.052480
#
#
# Mechanical properties :
#
#
# Convention : Reuss Voigt Hill
#
# Bulk Modulus (GPa) = 31.98285 58.39714 45.18999
# Shear Modulus (GPa) = 24.45331 38.27136 31.36233
#
# Velocity S-wave (km/s) = 2.97525 3.72213 3.36945
# Velocity P-wave (km/s) = 4.83535 6.29382 5.61216
#
# Compressibility (1/GPa) = 0.03126676
#
# Stress axis : x y z
#
# Youngs Moduli (GPa) = 69.08470 68.16366 50.43462
#
# Poissons Ratio (x) = 0.43353 -0.19988
# Poissons Ratio (y) = 0.43938 0.32562
# Poissons Ratio (z) = -0.27379 0.44008
#
# Static dielectric constant tensor:
#      x y z
#    x 4.870310 -0.136590 -0.326890 
#    y -0.136590 5.318870 0.953300 
#    z -0.326890 0.953300 6.101070 
# 
# 
# High freq. dielectric constant tensor:
#      x y z
#    x 2.098670 0.000650 -0.010480 
#    y 0.000650 2.107460 0.026970 
#    z -0.010480 0.026970 2.143680 
# 
# From -- ./inp_files/153919.got.cif
#   From: 2010.06.25/outbox.cif.g09.slc.cpg/sg2_77_cif.got.tgz:153919.got - 2010.06.27 13:26:56.
