data_PCOD8039274
_publ_section_title
;
Structure prediction by ZEFSAII (Michael W. Deem and Ramdas Pophale) SiO2 
 PCOD8039274
Probable space group: P -1
;
_chemical_formula_sum "Si O2"
_cell_formula_units_Z 16
_cell_length_a 7.525677
_cell_length_b 20.002715
_cell_length_c 13.328120
_cell_angle_alpha 148.083665
_cell_angle_beta 131.284452
_cell_angle_gamma 43.495588
_cell_volume 724.718685
_symmetry_space_group_name_H-M "P -1"
_symmetry_group_IT_number 2
_symmetry_cell_setting 'triclinic'
loop_
_space_group_symop_operation_xyz
x,y,z
-x,-y,-z
loop_
_atom_site_type_symbol
_atom_site_label
_atom_site_fract_x
_atom_site_fract_y
_atom_site_fract_z
Si Si1 0.118415 0.526944 0.932515
Si Si2 0.068596 0.934271 0.698245
Si Si3 0.855131 0.744271 0.465822
Si Si4 0.119653 0.174099 0.816792
Si Si5 0.409856 0.532246 0.844826
Si Si6 0.689381 0.072678 0.558627
Si Si7 0.059584 0.210807 0.067505
Si Si8 0.387873 0.262277 0.422355
O O1 0.997420 0.415482 0.721775
O O2 0.281793 0.530475 0.900904
O O3 0.900824 0.684610 0.066035
O O4 0.298090 0.482366 0.042837
O O5 0.328620 0.864919 0.639799
O O6 0.046304 0.821087 0.621525
O O7 0.818606 0.994574 0.609347
O O8 0.071117 0.064743 0.928630
O O9 0.602392 0.813970 0.388933
O O10 0.768049 0.755540 0.563005
O O11 0.846807 0.158027 0.682033
O O12 0.333714 0.039883 0.671138
O O13 0.192453 0.177708 0.964751
O O14 0.421937 0.405128 0.619196
O O15 0.239596 0.676003 0.907181
O O16 0.224202 0.268198 0.269751
#
# Coordination Sequence:
#
# PCOD8039274 Si02
#       8
#     2   2   2   2   2   2   2   2
#     4   9  16  31  55  84 111 138 177 228 280 322
#     4  11  23  37  56  84 112 142 184 228 272 327
#     4  11  22  36  57  83 113 144 179 227 276 325
#     4   9  17  32  58  85 109 142 184 225 272 329
#     4   9  17  32  58  84 106 141 185 225 272 327
#     4  10  18  33  55  82 111 140 178 230 284 323
#     4  10  20  35  56  81 111 149 187 221 265 322
#     4  11  22  38  58  79 110 152 186 220 268 320
#
# _framework density 22.077534
#
# number of rings (size 3 to 8) (size 9 to 14) (size 15 to 20)
#    0.000    2.000    0.000    7.875    0.000    0.500 
#    0.000    3.750    0.000   10.500    0.000    0.000 
#    0.000    0.000    0.000    0.000    0.000    0.000 
#
# Total GULP energy -198350.955581 kJ/mol
# GULP energy per Si atom -12396.934724 kJ/mol
# Density = 2.202728 g / cm^3
# Si number density = 22.077534 Si / 1000 Ang^3
#
#
#
# Elastic Constant Matrix: (Units=GPa)
#
#
# Indices 1 2 3 4 5 6 
#
# 1 32.1510 12.3178 26.1287 8.7009 1.4977 10.9028
# 2 12.3178 76.1516 55.2754 15.5332 -3.2328 4.5506
# 3 26.1287 55.2754 160.5832 21.9912 -9.5712 9.7601
# 4 8.7009 15.5332 21.9912 51.8712 7.5770 0.1400
# 5 1.4977 -3.2328 -9.5712 7.5770 24.9079 4.2439
# 6 10.9028 4.5506 9.7601 0.1400 4.2439 13.5082
#
#
#
# Elastic Compliance Matrix: (Units=1/GPa)
#
#
# Indices 1 2 3 4 5 6 
#
# 1 0.049272 -0.001178 -0.004226 -0.006548 0.003623 -0.037388
# 2 -0.001178 0.018047 -0.005391 -0.003148 0.001589 -0.001700
# 3 -0.004226 -0.005391 0.009546 -0.002367 0.004462 -0.003047
# 4 -0.006548 -0.003148 -0.002367 0.023757 -0.010019 0.010958
# 5 0.003623 0.001589 0.004462 -0.010019 0.048622 -0.021855
# 6 -0.037388 -0.001700 -0.003047 0.010958 -0.021855 0.113733
#
#
# Mechanical properties :
#
#
# Convention : Reuss Voigt Hill
#
# Bulk Modulus (GPa) = 18.09208 50.70326 34.39767
# Shear Modulus (GPa) = 16.50204 29.73506 23.11855
#
# Velocity S-wave (km/s) = 2.73693 3.67392 3.23948
# Velocity P-wave (km/s) = 4.26618 6.40412 5.44119
#
# Compressibility (1/GPa) = 0.05527280
#
# Stress axis : x y z
#
# Youngs Moduli (GPa) = 20.29569 55.41178 104.75584
#
# Poissons Ratio (x) = 0.06530 0.44273
# Poissons Ratio (y) = 0.02392 0.56474
# Poissons Ratio (z) = 0.08578 0.29873
#
# Static dielectric constant tensor:
#      x y z
#    x 3.480920 0.004570 -0.131470 
#    y 0.004570 3.990100 0.426320 
#    z -0.131470 0.426320 4.269330 
# 
# 
# High freq. dielectric constant tensor:
#      x y z
#    x 1.821330 0.002410 -0.014260 
#    y 0.002410 1.859690 0.027790 
#    z -0.014260 0.027790 1.881590 
# 
# From -- ./inp_files/507974.got.cif
#   From: 2010.06.25/outbox.cif.g09.slc.cpg/sg2_254_cif.got.tgz:507974.got - 2010.06.27 13:26:56.
