data_PCOD8039433
_publ_section_title
;
Structure prediction by ZEFSAII (Michael W. Deem and Ramdas Pophale) SiO2 
 PCOD8039433
Probable space group: P -1
;
_chemical_formula_sum "Si O2"
_cell_formula_units_Z 16
_cell_length_a 12.631183
_cell_length_b 14.011059
_cell_length_c 9.172575
_cell_angle_alpha 100.592162
_cell_angle_beta 42.343585
_cell_angle_gamma 124.492546
_cell_volume 816.676974
_symmetry_space_group_name_H-M "P -1"
_symmetry_group_IT_number 2
_symmetry_cell_setting 'triclinic'
loop_
_space_group_symop_operation_xyz
x,y,z
-x,-y,-z
loop_
_atom_site_type_symbol
_atom_site_label
_atom_site_fract_x
_atom_site_fract_y
_atom_site_fract_z
Si Si1 0.928688 0.265364 0.811044
Si Si2 0.204705 0.110951 0.462475
Si Si3 0.007122 0.778828 0.831276
Si Si4 0.149333 0.950584 0.996002
Si Si5 0.427933 0.866374 0.481992
Si Si6 0.271847 0.448514 0.732603
Si Si7 0.633888 0.296687 0.229674
Si Si8 0.992679 0.840167 0.550418
O O1 0.951153 0.234699 0.615869
O O2 0.152709 0.377624 0.683855
O O3 0.816620 0.140995 0.991516
O O4 0.786236 0.303707 0.963675
O O5 0.413009 0.223757 0.360903
O O6 0.185718 0.171125 0.355723
O O7 0.194573 0.992584 0.398213
O O8 0.009585 0.049455 0.750582
O O9 0.060901 0.895554 0.907251
O O10 0.213066 0.796409 0.594462
O O11 0.914720 0.777888 0.771689
O O12 0.834603 0.644782 0.047001
O O13 0.375955 0.093832 0.801801
O O14 0.385787 0.772517 0.623880
O O15 0.500000 0.000000 0.500000
O O16 0.500000 0.500000 0.500000
O O17 0.266695 0.560938 0.793711
#
# Coordination Sequence:
#
# PCOD8039433 Si02
#       8
#     2   2   2   2   2   2   2   2
#     4  10  21  39  61  87 120 162 198 240 298 359
#     4  10  22  38  58  93 123 161 198 239 306 368
#     4  10  20  37  60  86 119 154 202 253 295 344
#     4   9  18  36  59  88 120 152 203 246 297 350
#     4  10  18  33  60  96 114 147 196 259 297 339
#     4  11  23  41  66  89 114 158 209 252 294 344
#     4  12  21  37  67  88 118 157 211 248 291 349
#     4  10  22  40  58  85 133 158 191 245 307 364
#
# _framework density 19.59159
#
# number of rings (size 3 to 8) (size 9 to 14) (size 15 to 20)
#    0.000    1.750    3.750    4.125    0.000    3.500 
#    4.500    3.125    0.000    0.000    0.000    0.000 
#    0.000    0.000    0.000    0.000    0.000    0.000 
#
# Total GULP energy -198352.832384 kJ/mol
# GULP energy per Si atom -12397.052024 kJ/mol
# Density = 1.954700 g / cm^3
# Si number density = 19.591590 Si / 1000 Ang^3
#
#
#
# Elastic Constant Matrix: (Units=GPa)
#
#
# Indices 1 2 3 4 5 6 
#
# 1 98.2395 31.8513 52.9854 3.4887 8.2183 3.0688
# 2 31.8513 100.2190 45.5818 5.3109 5.9131 -9.1556
# 3 52.9854 45.5818 112.5803 -1.8627 -11.4539 5.5994
# 4 3.4887 5.3109 -1.8627 31.8541 3.9239 1.4192
# 5 8.2183 5.9131 -11.4539 3.9239 32.7956 0.4625
# 6 3.0688 -9.1556 5.5994 1.4192 0.4625 26.8825
#
#
#
# Elastic Compliance Matrix: (Units=1/GPa)
#
#
# Indices 1 2 3 4 5 6 
#
# 1 0.014969 -0.001116 -0.007193 -0.001125 -0.005921 -0.000429
# 2 -0.001116 0.013955 -0.005894 -0.002324 -0.004106 0.006301
# 3 -0.007193 -0.005894 0.015755 0.001891 0.008208 -0.004709
# 4 -0.001125 -0.002324 0.001891 0.032442 -0.002482 -0.002727
# 5 -0.005921 -0.004106 0.008208 -0.002482 0.035921 -0.002919
# 6 -0.000429 0.006301 -0.004709 -0.002727 -0.002919 0.040569
#
#
# Mechanical properties :
#
#
# Convention : Reuss Voigt Hill
#
# Bulk Modulus (GPa) = 61.45485 63.54176 62.49830
# Shear Modulus (GPa) = 26.67494 30.34777 28.51136
#
# Velocity S-wave (km/s) = 3.69392 3.94003 3.81896
# Velocity P-wave (km/s) = 7.04482 7.29397 7.17048
#
# Compressibility (1/GPa) = 0.01627211
#
# Stress axis : x y z
#
# Youngs Moduli (GPa) = 66.80285 71.65986 63.47190
#
# Poissons Ratio (x) = 0.07999 0.45656
# Poissons Ratio (y) = 0.07456 0.37412
# Poissons Ratio (z) = 0.48052 0.42239
#
# Static dielectric constant tensor:
#      x y z
#    x 3.562670 -0.026670 -0.139980 
#    y -0.026670 3.619030 0.053070 
#    z -0.139980 0.053070 3.795260 
# 
# 
# High freq. dielectric constant tensor:
#      x y z
#    x 1.760310 -0.005120 -0.008030 
#    y -0.005120 1.752400 0.002460 
#    z -0.008030 0.002460 1.755900 
# 
# From -- ./inp_files/273308.got.cif
#   From: 2010.06.25/outbox.cif.g09.slc.cpg/sg2_137_cif.got.tgz:273308.got - 2010.06.27 13:26:56.
