data_PCOD8039261
_publ_section_title
;
Structure prediction by ZEFSAII (Michael W. Deem and Ramdas Pophale) SiO2 
 PCOD8039261
Probable space group: P -1
;
_chemical_formula_sum "Si O2"
_cell_formula_units_Z 16
_cell_length_a 18.119821
_cell_length_b 10.222029
_cell_length_c 11.519128
_cell_angle_alpha 40.749969
_cell_angle_beta 150.414094
_cell_angle_gamma 131.266363
_cell_volume 687.622698
_symmetry_space_group_name_H-M "P -1"
_symmetry_group_IT_number 2
_symmetry_cell_setting 'triclinic'
loop_
_space_group_symop_operation_xyz
x,y,z
-x,-y,-z
loop_
_atom_site_type_symbol
_atom_site_label
_atom_site_fract_x
_atom_site_fract_y
_atom_site_fract_z
Si Si1 0.078326 0.362438 0.533181
Si Si2 0.864965 0.684538 0.105147
Si Si3 0.904600 0.733779 0.759362
Si Si4 0.875785 0.318372 0.088809
Si Si5 0.733590 0.957685 0.553094
Si Si6 0.630527 0.338310 0.056848
Si Si7 0.317331 0.312175 0.711622
Si Si8 0.587189 0.138627 0.890041
O O1 0.103020 0.243999 0.767647
O O2 0.239974 0.379759 0.680560
O O3 0.015002 0.585124 0.325611
O O4 0.961682 0.236184 0.377400
O O5 0.735514 0.515298 0.039011
O O6 0.813169 0.880535 0.831127
O O7 0.842540 0.923923 0.614606
O O8 0.791649 0.634810 0.578311
O O9 0.058807 0.788699 0.865907
O O10 0.922446 0.553260 0.997070
O O11 0.698041 0.293861 0.872238
O O12 0.578537 0.835014 0.406333
O O13 0.707229 0.197774 0.355694
O O14 0.475875 0.427786 0.836653
O O15 0.585779 0.184295 0.995079
O O16 0.345130 0.075110 0.905202
#
# Coordination Sequence:
#
# PCOD8039261 Si02
#       8
#     2   2   2   2   2   2   2   2
#     4  10  22  41  58  82 118 162 201 233 280 349
#     4  11  24  41  63  81 117 167 199 231 285 344
#     4  10  18  33  54  88 118 144 187 242 297 346
#     4  10  21  33  59  86 118 153 187 244 294 346
#     4  11  21  38  60  91 119 147 193 247 289 353
#     4  11  21  38  61  90 119 153 191 244 295 347
#     4  10  21  36  61  85 124 145 188 252 291 348
#     4  11  20  36  58  95 116 149 187 240 314 344
#
# _framework density 23.268574999999998
#
# number of rings (size 3 to 8) (size 9 to 14) (size 15 to 20)
#    0.000    1.500    5.000    0.750    1.750    4.500 
#    0.000    5.000   11.000    0.000    0.000    0.000 
#    0.000    0.000    0.000    0.000    0.000    0.000 
#
# Total GULP energy -198339.434706 kJ/mol
# GULP energy per Si atom -12396.214669 kJ/mol
# Density = 2.321561 g / cm^3
# Si number density = 23.268575 Si / 1000 Ang^3
#
#
#
# Elastic Constant Matrix: (Units=GPa)
#
#
# Indices 1 2 3 4 5 6 
#
# 1 143.5827 9.4755 45.6851 7.8090 16.9888 6.0793
# 2 9.4755 24.0998 -7.1166 6.3580 0.3710 6.3075
# 3 45.6851 -7.1166 88.9533 -1.6339 -6.3623 3.3346
# 4 7.8090 6.3580 -1.6339 20.9897 4.5317 -1.4222
# 5 16.9888 0.3710 -6.3623 4.5317 49.1852 5.6612
# 6 6.0793 6.3075 3.3346 -1.4222 5.6612 17.7285
#
#
#
# Elastic Compliance Matrix: (Units=1/GPa)
#
#
# Indices 1 2 3 4 5 6 
#
# 1 0.009649 -0.005213 -0.005715 -0.001544 -0.003979 0.000768
# 2 -0.005213 0.056685 0.008254 -0.017643 0.006773 -0.023510
# 3 -0.005715 0.008254 0.015355 -0.000528 0.004564 -0.005365
# 4 -0.001544 -0.017643 -0.000528 0.055733 -0.006069 0.013315
# 5 -0.003979 0.006773 0.004564 -0.006069 0.023960 -0.010042
# 6 0.000768 -0.023510 -0.005365 0.013315 -0.010042 0.069792
#
#
# Mechanical properties :
#
#
# Convention : Reuss Voigt Hill
#
# Bulk Modulus (GPa) = 13.09902 39.19154 26.14528
# Shear Modulus (GPa) = 19.08629 31.48681 25.28655
#
# Velocity S-wave (km/s) = 2.86713 3.68256 3.30013
# Velocity P-wave (km/s) = 4.07459 5.91282 5.07758
#
# Compressibility (1/GPa) = 0.07634157
#
# Stress axis : x y z
#
# Youngs Moduli (GPa) = 103.63556 17.64137 65.12554
#
# Poissons Ratio (x) = 0.09197 0.37216
# Poissons Ratio (y) = 0.54030 -0.53756
# Poissons Ratio (z) = 0.59223 -0.14562
#
# Static dielectric constant tensor:
#      x y z
#    x 4.444770 0.147480 0.203230 
#    y 0.147480 3.571150 0.225840 
#    z 0.203230 0.225840 4.387050 
# 
# 
# High freq. dielectric constant tensor:
#      x y z
#    x 1.932200 0.015180 0.009520 
#    y 0.015180 1.873320 0.005840 
#    z 0.009520 0.005840 1.925440 
# 
# From -- ./inp_files/208406.got.cif
#   From: 2010.06.25/outbox.cif.g09.slc.cpg/sg2_105_cif.got.tgz:208406.got - 2010.06.27 13:26:56.
