data_PCOD8039603
_publ_section_title
;
Structure prediction by ZEFSAII (Michael W. Deem and Ramdas Pophale) SiO2 
 PCOD8039603
Probable space group: P -1
;
_chemical_formula_sum "Si O2"
_cell_formula_units_Z 14
_cell_length_a 20.761150
_cell_length_b 20.519474
_cell_length_c 9.173821
_cell_angle_alpha 29.311471
_cell_angle_beta 31.393785
_cell_angle_gamma 21.887124
_cell_volume 691.702975
_symmetry_space_group_name_H-M "P -1"
_symmetry_group_IT_number 2
_symmetry_cell_setting 'triclinic'
loop_
_space_group_symop_operation_xyz
x,y,z
-x,-y,-z
loop_
_atom_site_type_symbol
_atom_site_label
_atom_site_fract_x
_atom_site_fract_y
_atom_site_fract_z
Si Si1 0.045696 0.441176 0.859705
Si Si2 0.167213 0.611612 0.781645
Si Si3 0.009372 0.716271 0.197964
Si Si4 0.433291 0.041739 0.884901
Si Si5 0.394048 0.971046 0.676335
Si Si6 0.447084 0.758762 0.246249
Si Si7 0.943084 0.032204 0.380692
O O1 0.078633 0.556608 0.492292
O O2 0.222402 0.217709 0.939536
O O3 0.000000 0.500000 0.000000
O O4 0.887535 0.482701 0.007590
O O5 0.379374 0.469739 0.625590
O O6 0.133042 0.622146 0.999675
O O7 0.059850 0.818005 0.511890
O O8 0.812271 0.830055 0.306523
O O9 0.009322 0.862665 0.990184
O O10 0.531989 0.085803 0.520939
O O11 0.500000 0.000000 0.000000
O O12 0.483996 0.861008 0.071242
O O13 0.500000 0.000000 0.500000
O O14 0.423920 0.809651 0.019045
O O15 0.267464 0.825987 0.514711
O O16 0.000000 0.000000 0.500000
#
# Coordination Sequence:
#
# PCOD8039603 Si02
#       7
#     2   2   2   2   2   2   2
#     4  12  23  40  63  90 120 161 209 254 305 361
#     4  11  21  39  66  91 122 164 202 249 308 359
#     4  11  22  39  61  92 125 157 204 251 306 363
#     4  11  22  38  60  90 122 156 207 259 299 358
#     4  10  18  34  57  88 119 152 196 254 297 344
#     4  11  20  38  63  89 125 161 200 250 305 360
#     4  10  21  40  60  91 132 157 201 251 308 363
#
# _framework density 20.239901
#
# number of rings (size 3 to 8) (size 9 to 14) (size 15 to 20)
#    0.000    1.143    4.286    5.571    0.000    2.286 
#    2.571    0.714    0.000    1.714    0.000    0.000 
#    0.000    0.000    0.000    0.000    0.000    0.000 
#
# Total GULP energy -173566.214191 kJ/mol
# GULP energy per Si atom -12397.586728 kJ/mol
# Density = 2.019383 g / cm^3
# Si number density = 20.239901 Si / 1000 Ang^3
#
#
#
# Elastic Constant Matrix: (Units=GPa)
#
#
# Indices 1 2 3 4 5 6 
#
# 1 76.0790 28.4568 44.4933 -2.7549 7.2976 0.1159
# 2 28.4568 158.9099 35.9577 7.8077 -6.6786 -18.0799
# 3 44.4933 35.9577 87.2596 -15.2611 -5.8938 1.3561
# 4 -2.7549 7.8077 -15.2611 26.4606 -0.8956 -5.7989
# 5 7.2976 -6.6786 -5.8938 -0.8956 28.8132 4.5679
# 6 0.1159 -18.0799 1.3561 -5.7989 4.5679 34.3703
#
#
#
# Elastic Compliance Matrix: (Units=1/GPa)
#
#
# Indices 1 2 3 4 5 6 
#
# 1 0.020938 -0.001281 -0.011449 -0.004307 -0.008084 0.000055
# 2 -0.001281 0.007856 -0.003194 -0.003484 0.000818 0.003566
# 3 -0.011449 -0.003194 0.021197 0.011906 0.007089 -0.001411
# 4 -0.004307 -0.003484 0.011906 0.046472 0.003353 0.005107
# 5 -0.008084 0.000818 0.007089 0.003353 0.039206 -0.004467
# 6 0.000055 0.003566 -0.001411 0.005107 -0.004467 0.032482
#
#
# Mechanical properties :
#
#
# Convention : Reuss Voigt Hill
#
# Bulk Modulus (GPa) = 55.11219 60.00713 57.55966
# Shear Modulus (GPa) = 24.26649 32.15152 28.20900
#
# Velocity S-wave (km/s) = 3.46633 3.98995 3.73732
# Velocity P-wave (km/s) = 6.58097 7.13713 6.86468
#
# Compressibility (1/GPa) = 0.01814480
#
# Stress axis : x y z
#
# Youngs Moduli (GPa) = 47.75944 127.28667 47.17679
#
# Poissons Ratio (x) = 0.16304 0.54011
# Poissons Ratio (y) = 0.06117 0.15067
# Poissons Ratio (z) = 0.54678 0.40653
#
# Static dielectric constant tensor:
#      x y z
#    x 3.544570 -0.039350 -0.155910 
#    y -0.039350 3.733890 -0.259930 
#    z -0.155910 -0.259930 3.928450 
# 
# 
# High freq. dielectric constant tensor:
#      x y z
#    x 1.769230 -0.013270 -0.012640 
#    y -0.013270 1.804270 0.001760 
#    z -0.012640 0.001760 1.777510 
# 
# From -- ./inp_files/261051.got.cif
#   From: 2010.06.25/outbox.cif.g09.slc.cpg/sg2_131_cif.got.tgz:261051.got - 2010.06.27 13:26:56.
