data_PCOD8039205
_publ_section_title
;
Structure prediction by ZEFSAII (Michael W. Deem and Ramdas Pophale) SiO2 
 PCOD8039205
Probable space group: P -1
;
_chemical_formula_sum "Si O2"
_cell_formula_units_Z 16
_cell_length_a 26.973906
_cell_length_b 11.768966
_cell_length_c 9.967012
_cell_angle_alpha 142.409435
_cell_angle_beta 38.453646
_cell_angle_gamma 150.012154
_cell_volume 914.803531
_symmetry_space_group_name_H-M "P -1"
_symmetry_group_IT_number 2
_symmetry_cell_setting 'triclinic'
loop_
_space_group_symop_operation_xyz
x,y,z
-x,-y,-z
loop_
_atom_site_type_symbol
_atom_site_label
_atom_site_fract_x
_atom_site_fract_y
_atom_site_fract_z
Si Si1 0.631727 0.880377 0.568745
Si Si2 0.589252 0.424073 0.151424
Si Si3 0.899088 0.889372 0.892394
Si Si4 0.269807 0.630183 0.331509
Si Si5 0.754726 0.764242 0.311311
Si Si6 0.144018 0.545428 0.762572
Si Si7 0.090311 0.882188 0.190116
Si Si8 0.132299 0.203926 0.646657
O O1 0.595279 0.658432 0.335475
O O2 0.529468 0.818411 0.795612
O O3 0.706475 0.901199 0.544114
O O4 0.696335 0.130156 0.587288
O O5 0.665896 0.492727 0.180706
O O6 0.636141 0.380831 0.884898
O O7 0.834415 0.602964 0.737392
O O8 0.883236 0.007238 0.911796
O O9 0.857157 0.924095 0.148499
O O10 0.019174 0.016346 0.779739
O O11 0.242761 0.637325 0.548616
O O12 0.780842 0.738313 0.380985
O O13 0.155845 0.455102 0.794564
O O14 0.034800 0.317929 0.711073
O O15 0.144210 0.765639 0.993586
O O16 0.137802 0.096520 0.396822
#
# Coordination Sequence:
#
# PCOD8039205 Si02
#       8
#     2   2   2   2   2   2   2   2
#     4   9  18  34  53  77  99 127 172 219 252 298
#     4   8  19  35  52  78  96 128 169 223 256 288
#     4  10  18  33  51  77 106 138 168 207 236 301
#     4  11  17  30  56  79  94 130 178 206 248 296
#     4   9  19  33  54  75 103 136 165 208 261 298
#     4  10  20  31  53  74  99 143 176 202 236 302
#     4  10  19  34  51  71 106 141 179 200 234 291
#     4  11  19  35  48  75 115 137 160 205 257 292
#
# _framework density 17.490093000000002
#
# number of rings (size 3 to 8) (size 9 to 14) (size 15 to 20)
#    0.750    1.500    2.500    2.250    0.000    0.000 
#    4.500    0.625    0.000    1.500    0.000    0.000 
#    0.000    0.000    0.000    0.000    0.000    0.000 
#
# Total GULP energy -198278.322929 kJ/mol
# GULP energy per Si atom -12392.395183 kJ/mol
# Density = 1.745028 g / cm^3
# Si number density = 17.490093 Si / 1000 Ang^3
#
#
#
# Elastic Constant Matrix: (Units=GPa)
#
#
# Indices 1 2 3 4 5 6 
#
# 1 77.9081 36.1191 38.6599 -9.7629 -8.1820 -6.8046
# 2 36.1191 86.2629 19.7592 -6.6784 -11.0383 -11.8415
# 3 38.6599 19.7592 75.0083 -16.4567 -15.6591 -3.8331
# 4 -9.7629 -6.6784 -16.4567 26.8120 3.0406 -7.8874
# 5 -8.1820 -11.0383 -15.6591 3.0406 19.0630 -0.3216
# 6 -6.8046 -11.8415 -3.8331 -7.8874 -0.3216 21.0109
#
#
#
# Elastic Compliance Matrix: (Units=1/GPa)
#
#
# Indices 1 2 3 4 5 6 
#
# 1 0.020291 -0.006459 -0.008974 0.001045 -0.002541 0.001647
# 2 -0.006459 0.016524 0.002255 0.005084 0.008001 0.009663
# 3 -0.008974 0.002255 0.023564 0.012264 0.014981 0.007497
# 4 0.001045 0.005084 0.012264 0.053380 0.005383 0.025562
# 5 -0.002541 0.008001 0.014981 0.005383 0.067607 0.009475
# 6 0.001647 0.009663 0.007497 0.025562 0.009475 0.064683
#
#
# Mechanical properties :
#
#
# Convention : Reuss Voigt Hill
#
# Bulk Modulus (GPa) = 29.38993 47.58399 38.48696
# Shear Modulus (GPa) = 17.62146 23.01991 20.32068
#
# Velocity S-wave (km/s) = 3.17757 3.63184 3.41227
# Velocity P-wave (km/s) = 5.50481 6.69719 6.13006
#
# Compressibility (1/GPa) = 0.03402525
#
# Stress axis : x y z
#
# Youngs Moduli (GPa) = 49.28317 60.51789 42.43704
#
# Poissons Ratio (x) = 0.39086 0.38082
# Poissons Ratio (y) = 0.31830 -0.09572
# Poissons Ratio (z) = 0.44226 -0.13650
#
# Static dielectric constant tensor:
#      x y z
#    x 2.964170 -0.046650 -0.291300 
#    y -0.046650 3.238560 -0.101040 
#    z -0.291300 -0.101040 3.243160 
# 
# 
# High freq. dielectric constant tensor:
#      x y z
#    x 1.637630 -0.010490 -0.027880 
#    y -0.010490 1.674180 -0.010440 
#    z -0.027880 -0.010440 1.672370 
# 
# From -- ./inp_files/358601.got.cif
#   From: 2010.06.25/outbox.cif.g09.slc.cpg/sg2_180_cif.got.tgz:358601.got - 2010.06.27 13:26:56.
