data_PCOD8039312
_publ_section_title
;
Structure prediction by ZEFSAII (Michael W. Deem and Ramdas Pophale) SiO2 
 PCOD8039312
Probable space group: P -1
;
_chemical_formula_sum "Si O2"
_cell_formula_units_Z 16
_cell_length_a 8.937573
_cell_length_b 13.303193
_cell_length_c 12.410738
_cell_angle_alpha 83.283661
_cell_angle_beta 129.202904
_cell_angle_gamma 62.184159
_cell_volume 808.331327
_symmetry_space_group_name_H-M "P -1"
_symmetry_group_IT_number 2
_symmetry_cell_setting 'triclinic'
loop_
_space_group_symop_operation_xyz
x,y,z
-x,-y,-z
loop_
_atom_site_type_symbol
_atom_site_label
_atom_site_fract_x
_atom_site_fract_y
_atom_site_fract_z
Si Si1 0.902315 0.065580 0.064128
Si Si2 0.172195 0.331863 0.005261
Si Si3 0.821253 0.090293 0.582908
Si Si4 0.765217 0.885352 0.521872
Si Si5 0.040874 0.756958 0.452433
Si Si6 0.829937 0.834812 0.794166
Si Si7 0.612430 0.846558 0.087651
Si Si8 0.605872 0.617964 0.727773
O O1 0.920566 0.180177 0.070696
O O2 0.596069 0.143769 0.939633
O O3 0.107448 0.934769 0.255818
O O4 0.000000 0.000000 0.000000
O O5 0.339103 0.222214 0.997702
O O6 0.873832 0.475305 0.810638
O O7 0.130876 0.271345 0.093835
O O8 0.329892 0.371274 0.120617
O O9 0.506863 0.241544 0.406035
O O10 0.015768 0.101431 0.611289
O O11 0.869431 0.962711 0.570214
O O12 0.924584 0.769861 0.514287
O O13 0.821885 0.803514 0.668735
O O14 0.448404 0.000700 0.331998
O O15 0.895058 0.745295 0.294833
O O16 0.368042 0.619570 0.618387
O O17 0.500000 0.000000 0.000000
#
# Coordination Sequence:
#
# PCOD8039312 Si02
#       8
#     2   2   2   2   2   2   2   2
#     4  11  22  35  55  90 126 150 186 244 312 351
#     4  11  22  41  61  87 121 151 212 232 292 350
#     4   9  19  33  59  87 110 157 192 242 292 339
#     4  10  18  33  56  88 119 144 193 244 301 349
#     4  10  20  34  58  88 111 152 197 240 293 338
#     4  10  21  32  57  85 118 157 180 252 298 340
#     4  12  23  36  61  91 116 156 191 252 293 345
#     4   9  22  38  64  85 111 165 199 249 272 343
#
# _framework density 19.793863999999999
#
# number of rings (size 3 to 8) (size 9 to 14) (size 15 to 20)
#    0.750    1.000    2.500    2.625    3.500    0.500 
#    0.000    0.625    0.000    1.500    0.000    0.000 
#    0.000    0.000    0.000    0.000    0.000    0.000 
#
# Total GULP energy -198284.083962 kJ/mol
# GULP energy per Si atom -12392.755248 kJ/mol
# Density = 1.974881 g / cm^3
# Si number density = 19.793864 Si / 1000 Ang^3
#
#
#
# Elastic Constant Matrix: (Units=GPa)
#
#
# Indices 1 2 3 4 5 6 
#
# 1 86.9456 16.2770 33.4655 10.1853 4.5379 -10.1224
# 2 16.2770 58.0457 27.9729 5.2270 -1.8244 -18.6071
# 3 33.4655 27.9729 120.5306 3.9303 14.4377 -11.1506
# 4 10.1853 5.2270 3.9303 21.6300 2.2733 0.6966
# 5 4.5379 -1.8244 14.4377 2.2733 40.2492 6.9277
# 6 -10.1224 -18.6071 -11.1506 0.6966 6.9277 24.9078
#
#
#
# Elastic Compliance Matrix: (Units=1/GPa)
#
#
# Indices 1 2 3 4 5 6 
#
# 1 0.014036 -0.000563 -0.003061 -0.005960 -0.000920 0.004336
# 2 -0.000563 0.025257 -0.003947 -0.005671 0.000014 0.017027
# 3 -0.003061 -0.003947 0.010669 0.000823 -0.003995 0.001672
# 4 -0.005960 -0.005671 0.000823 0.050650 -0.001485 -0.007294
# 5 -0.000920 0.000014 -0.003995 -0.001485 0.028179 -0.009948
# 6 0.004336 0.017027 0.001672 -0.007294 -0.009948 0.058349
#
#
# Mechanical properties :
#
#
# Convention : Reuss Voigt Hill
#
# Bulk Modulus (GPa) = 28.71899 46.77253 37.74576
# Shear Modulus (GPa) = 23.37663 29.87784 26.62724
#
# Velocity S-wave (km/s) = 3.44030 3.88938 3.67171
# Velocity P-wave (km/s) = 5.50649 6.62199 6.08984
#
# Compressibility (1/GPa) = 0.03482017
#
# Stress axis : x y z
#
# Youngs Moduli (GPa) = 71.24563 39.59285 93.73068
#
# Poissons Ratio (x) = 0.02230 0.28689
# Poissons Ratio (y) = 0.04013 0.36994
# Poissons Ratio (z) = 0.21807 0.15627
#
# Static dielectric constant tensor:
#      x y z
#    x 3.655430 0.069120 0.134080 
#    y 0.069120 3.109770 0.168020 
#    z 0.134080 0.168020 3.851830 
# 
# 
# High freq. dielectric constant tensor:
#      x y z
#    x 1.770980 -0.002700 0.009810 
#    y -0.002700 1.721750 0.019130 
#    z 0.009810 0.019130 1.785240 
# 
# From -- ./inp_files/395959.got.cif
#   From: 2010.06.25/outbox.cif.g09.slc.cpg/sg2_198_cif.got.tgz:395959.got - 2010.06.27 13:26:56.
