data_PCOD8039193
_publ_section_title
;
Structure prediction by ZEFSAII (Michael W. Deem and Ramdas Pophale) SiO2 
 PCOD8039193
Probable space group: P -1
;
_chemical_formula_sum "Si O2"
_cell_formula_units_Z 16
_cell_length_a 13.640416
_cell_length_b 11.586400
_cell_length_c 10.802400
_cell_angle_alpha 140.612657
_cell_angle_beta 73.242452
_cell_angle_gamma 90.096964
_cell_volume 966.198836
_symmetry_space_group_name_H-M "P -1"
_symmetry_group_IT_number 2
_symmetry_cell_setting 'triclinic'
loop_
_space_group_symop_operation_xyz
x,y,z
-x,-y,-z
loop_
_atom_site_type_symbol
_atom_site_label
_atom_site_fract_x
_atom_site_fract_y
_atom_site_fract_z
Si Si1 0.881839 0.834806 0.617611
Si Si2 0.769293 0.044559 0.398512
Si Si3 0.959146 0.376926 0.818687
Si Si4 0.234026 0.330082 0.025688
Si Si5 0.628324 0.424834 0.870478
Si Si6 0.869617 0.561166 0.589188
Si Si7 0.193912 0.843448 0.263067
Si Si8 0.065892 0.865350 0.755103
O O1 0.825109 0.704585 0.605319
O O2 0.931933 0.736079 0.389614
O O3 0.977209 0.859001 0.683901
O O4 0.795070 0.044073 0.774063
O O5 0.665426 0.250731 0.609829
O O6 0.827386 0.016384 0.489765
O O7 0.856120 0.038221 0.255929
O O8 0.728342 0.870989 0.231810
O O9 0.869290 0.509172 0.866510
O O10 0.908043 0.230247 0.779947
O O11 0.000000 0.500000 0.000000
O O12 0.338177 0.397693 0.043439
O O13 0.196739 0.314068 0.166695
O O14 0.691902 0.340206 0.907215
O O15 0.500000 0.500000 0.000000
O O16 0.855420 0.352215 0.407662
O O17 0.000000 0.500000 0.500000
O O18 0.000000 0.000000 0.000000
#
# Coordination Sequence:
#
# PCOD8039193 Si02
#       8
#     2   2   2   2   2   2   2   2
#     4  11  19  31  46  70 113 147 178 215 250 326
#     4  10  19  34  55  78 109 134 183 221 269 323
#     4  11  20  29  50  73 114 150 170 210 269 315
#     4  11  19  35  52  82 108 139 182 218 261 330
#     4   9  20  39  59  76 103 135 181 242 277 307
#     4  10  18  33  46  72 110 147 177 208 249 316
#     4   9  20  35  47  77 108 135 184 220 269 317
#     4  11  20  31  50  77 111 151 181 205 258 320
#
# _framework density 16.559739
#
# number of rings (size 3 to 8) (size 9 to 14) (size 15 to 20)
#    0.750    1.000    5.000    2.625    1.750    0.500 
#    0.000    0.000    0.000    0.750    0.000    1.750 
#    0.000    0.000    0.000    0.000    0.000    0.000 
#
# Total GULP energy -198230.779652 kJ/mol
# GULP energy per Si atom -12389.423728 kJ/mol
# Density = 1.652205 g / cm^3
# Si number density = 16.559739 Si / 1000 Ang^3
#
#
#
# Elastic Constant Matrix: (Units=GPa)
#
#
# Indices 1 2 3 4 5 6 
#
# 1 58.6514 34.6507 34.8816 -2.3047 -1.6135 10.0403
# 2 34.6507 123.4436 26.5819 4.5050 0.4449 -3.1298
# 3 34.8816 26.5819 84.8811 3.2972 12.9093 6.2775
# 4 -2.3047 4.5050 3.2972 23.2658 7.3094 3.9216
# 5 -1.6135 0.4449 12.9093 7.3094 24.3156 1.7720
# 6 10.0403 -3.1298 6.2775 3.9216 1.7720 17.5257
#
#
#
# Elastic Compliance Matrix: (Units=1/GPa)
#
#
# Indices 1 2 3 4 5 6 
#
# 1 0.030975 -0.007138 -0.010534 0.006672 0.007045 -0.017452
# 2 -0.007138 0.010608 -0.000830 -0.003987 0.000452 0.007127
# 3 -0.010534 -0.000830 0.017879 -0.000336 -0.010117 0.000581
# 4 0.006672 -0.003987 -0.000336 0.051189 -0.013638 -0.014489
# 5 0.007045 0.000452 -0.010117 -0.013638 0.051235 -0.002460
# 6 -0.017452 0.007127 0.000581 -0.014489 -0.002460 0.071613
#
#
# Mechanical properties :
#
#
# Convention : Reuss Voigt Hill
#
# Bulk Modulus (GPa) = 44.52549 51.02274 47.77411
# Shear Modulus (GPa) = 17.98655 24.41224 21.19940
#
# Velocity S-wave (km/s) = 3.29927 3.84369 3.58184
# Velocity P-wave (km/s) = 6.43893 7.11174 6.78368
#
# Compressibility (1/GPa) = 0.02245904
#
# Stress axis : x y z
#
# Youngs Moduli (GPa) = 32.28418 94.27154 55.93303
#
# Poissons Ratio (x) = 0.67289 0.58918
# Poissons Ratio (y) = 0.23044 0.04641
# Poissons Ratio (z) = 0.34007 0.07821
#
# Static dielectric constant tensor:
#      x y z
#    x 2.548480 -0.007180 0.066970 
#    y -0.007180 3.556030 0.193410 
#    z 0.066970 0.193410 2.926220 
# 
# 
# High freq. dielectric constant tensor:
#      x y z
#    x 1.590250 0.007400 0.020800 
#    y 0.007400 1.648550 0.011550 
#    z 0.020800 0.011550 1.629610 
# 
# From -- ./inp_files/449470.got.cif
#   From: 2010.06.25/outbox.cif.g09.slc.cpg/sg2_225_cif.got.tgz:449470.got - 2010.06.27 13:26:56.
