data_PCOD8039599
_publ_section_title
;
Structure prediction by ZEFSAII (Michael W. Deem and Ramdas Pophale) SiO2 
 PCOD8039599
Probable space group: P -1
;
_chemical_formula_sum "Si O2"
_cell_formula_units_Z 14
_cell_length_a 9.858413
_cell_length_b 8.210067
_cell_length_c 11.584642
_cell_angle_alpha 76.466558
_cell_angle_beta 98.170415
_cell_angle_gamma 58.130945
_cell_volume 733.016219
_symmetry_space_group_name_H-M "P -1"
_symmetry_group_IT_number 2
_symmetry_cell_setting 'triclinic'
loop_
_space_group_symop_operation_xyz
x,y,z
-x,-y,-z
loop_
_atom_site_type_symbol
_atom_site_label
_atom_site_fract_x
_atom_site_fract_y
_atom_site_fract_z
Si Si1 0.912544 0.954441 0.401936
Si Si2 0.532529 0.060255 0.815927
Si Si3 0.352324 0.113639 0.555841
Si Si4 0.249317 0.548591 0.453895
Si Si5 0.406985 0.292316 0.994214
Si Si6 0.332333 0.686977 0.845700
Si Si7 0.474304 0.576794 0.303995
O O1 0.767779 0.960820 0.454179
O O2 0.053734 0.735880 0.399954
O O3 0.837033 0.121271 0.262607
O O4 0.000000 0.000000 0.500000
O O5 0.418023 0.064752 0.701912
O O6 0.615417 0.174718 0.760863
O O7 0.654452 0.817590 0.910649
O O8 0.416259 0.199760 0.885522
O O9 0.243489 0.353990 0.475835
O O10 0.500000 0.000000 0.500000
O O11 0.336043 0.558562 0.348229
O O12 0.354180 0.533563 0.581346
O O13 0.589752 0.231491 0.070662
O O14 0.286694 0.543120 0.930504
O O15 0.475677 0.540069 0.792308
#
# Coordination Sequence:
#
# PCOD8039599 Si02
#       7
#     2   2   2   2   2   2   2
#     4  12  23  36  57  91 125 152 188 244 306 348
#     4   9  18  33  57  86 111 144 201 247 282 328
#     4  11  23  38  60  89 120 154 197 238 295 358
#     4  10  21  35  54  84 124 154 185 235 302 348
#     4   9  18  33  58  86 108 152 203 248 268 343
#     4  10  18  34  57  86 112 150 203 239 287 345
#     4   9  18  34  56  84 116 153 191 237 285 357
#
# _framework density 19.099167999999999
#
# number of rings (size 3 to 8) (size 9 to 14) (size 15 to 20)
#    0.000    2.000    2.857    1.286    4.000    0.000 
#    0.000    0.000    0.000    8.571    0.000    0.000 
#    0.000    0.000    0.000    0.000    0.000    0.000 
#
# Total GULP energy -173459.847379 kJ/mol
# GULP energy per Si atom -12389.989099 kJ/mol
# Density = 1.905570 g / cm^3
# Si number density = 19.099168 Si / 1000 Ang^3
#
#
#
# Elastic Constant Matrix: (Units=GPa)
#
#
# Indices 1 2 3 4 5 6 
#
# 1 78.1660 32.1699 44.7558 -7.2209 -5.6667 7.1909
# 2 32.1699 93.6974 53.8890 -17.0654 2.3354 4.0614
# 3 44.7558 53.8890 121.6404 -19.7576 -7.8445 9.6241
# 4 -7.2209 -17.0654 -19.7576 45.3876 13.8619 -0.5648
# 5 -5.6667 2.3354 -7.8445 13.8619 29.1690 -4.9952
# 6 7.1909 4.0614 9.6241 -0.5648 -4.9952 29.1882
#
#
#
# Elastic Compliance Matrix: (Units=1/GPa)
#
#
# Indices 1 2 3 4 5 6 
#
# 1 0.017123 -0.003435 -0.004703 -0.001472 0.002737 -0.001750
# 2 -0.003435 0.015994 -0.005360 0.004901 -0.005806 -0.000511
# 3 -0.004703 -0.005360 0.012976 0.002398 0.001511 -0.002069
# 4 -0.001472 0.004901 0.002398 0.029028 -0.014343 -0.003003
# 5 0.002737 -0.005806 0.001511 -0.014343 0.043672 0.006832
# 6 -0.001750 -0.000511 -0.002069 -0.003003 0.006832 0.036556
#
#
# Mechanical properties :
#
#
# Convention : Reuss Voigt Hill
#
# Bulk Modulus (GPa) = 52.35902 61.68149 57.02025
# Shear Modulus (GPa) = 26.49573 31.59490 29.04531
#
# Velocity S-wave (km/s) = 3.72865 4.07167 3.90393
# Velocity P-wave (km/s) = 6.78313 7.38039 7.08805
#
# Compressibility (1/GPa) = 0.01909891
#
# Stress axis : x y z
#
# Youngs Moduli (GPa) = 58.40132 62.52325 77.06292
#
# Poissons Ratio (x) = 0.21475 0.36240
# Poissons Ratio (y) = 0.20059 0.41305
# Poissons Ratio (z) = 0.27464 0.33512
#
# Static dielectric constant tensor:
#      x y z
#    x 3.424060 0.270820 -0.273090 
#    y 0.270820 3.841950 -0.247230 
#    z -0.273090 -0.247230 3.850510 
# 
# 
# High freq. dielectric constant tensor:
#      x y z
#    x 1.706100 0.045890 -0.021100 
#    y 0.045890 1.740430 -0.003850 
#    z -0.021100 -0.003850 1.759290 
# 
# From -- ./inp_files/168901.got.cif
#   From: 2010.06.25/outbox.cif.g09.slc.cpg/sg2_85_cif.got.tgz:168901.got - 2010.06.27 13:26:56.
