data_PCOD8039477
_publ_section_title
;
Structure prediction by ZEFSAII (Michael W. Deem and Ramdas Pophale) SiO2 
 PCOD8039477
Probable space group: P -1
;
_chemical_formula_sum "Si O2"
_cell_formula_units_Z 14
_cell_length_a 11.523392
_cell_length_b 13.197050
_cell_length_c 9.343556
_cell_angle_alpha 43.962119
_cell_angle_beta 40.322973
_cell_angle_gamma 66.292100
_cell_volume 603.280014
_symmetry_space_group_name_H-M "P -1"
_symmetry_group_IT_number 2
_symmetry_cell_setting 'triclinic'
loop_
_space_group_symop_operation_xyz
x,y,z
-x,-y,-z
loop_
_atom_site_type_symbol
_atom_site_label
_atom_site_fract_x
_atom_site_fract_y
_atom_site_fract_z
Si Si1 0.935795 0.315257 0.734253
Si Si2 0.222196 0.220500 0.749025
Si Si3 0.914619 0.585513 0.785699
Si Si4 0.375923 0.697858 0.764391
Si Si5 0.807294 0.997097 0.763995
Si Si6 0.398431 0.781008 0.339461
Si Si7 0.204373 0.443109 0.775926
O O1 0.052234 0.232640 0.802798
O O2 0.958201 0.281871 0.577770
O O3 0.000000 0.500000 0.500000
O O4 0.723111 0.244216 0.068110
O O5 0.406482 0.263360 0.430676
O O6 0.285531 0.341215 0.699993
O O7 0.170851 0.052164 0.041768
O O8 0.019735 0.462083 0.853810
O O9 0.725139 0.485459 0.980419
O O10 0.860459 0.652631 0.916234
O O11 0.373293 0.788703 0.526642
O O12 0.768106 0.161455 0.632010
O O13 0.613118 0.881225 0.990994
O O14 0.000000 0.000000 0.500000
O O15 0.362430 0.607953 0.491072
#
# Coordination Sequence:
#
# PCOD8039477 Si02
#       7
#     2   2   2   2   2   2   2
#     4  10  18  34  50  80 116 152 176 220 275 334
#     4  11  21  34  59  87 109 141 191 230 272 323
#     4   9  19  31  53  77 117 151 169 217 287 329
#     4   9  18  32  54  78 112 142 183 224 264 326
#     4  10  21  34  55  82 109 146 185 224 270 334
#     4   9  20  37  52  81 115 143 177 229 281 321
#     4  10  19  36  56  85 116 140 177 234 285 321
#
# _framework density 23.206469999999999
#
# number of rings (size 3 to 8) (size 9 to 14) (size 15 to 20)
#    0.000    2.286    2.857    0.857    4.000    7.429 
#    0.000    0.000    0.000    0.857    0.000    6.000 
#    0.000    0.000    0.000    0.000    0.000    0.000 
#
# Total GULP energy -173469.457974 kJ/mol
# GULP energy per Si atom -12390.675570 kJ/mol
# Density = 2.315365 g / cm^3
# Si number density = 23.206470 Si / 1000 Ang^3
#
#
#
# Elastic Constant Matrix: (Units=GPa)
#
#
# Indices 1 2 3 4 5 6 
#
# 1 55.3513 24.0569 37.3140 23.3363 12.7860 -13.4414
# 2 24.0569 54.0412 43.4192 6.5547 11.1322 -14.1700
# 3 37.3140 43.4192 161.0274 47.7055 3.0205 -2.8686
# 4 23.3363 6.5547 47.7055 33.6342 -6.4187 -4.0812
# 5 12.7860 11.1322 3.0205 -6.4187 44.1976 3.6879
# 6 -13.4414 -14.1700 -2.8686 -4.0812 3.6879 29.2107
#
#
#
# Elastic Compliance Matrix: (Units=1/GPa)
#
#
# Indices 1 2 3 4 5 6 
#
# 1 0.040013 -0.011116 0.003825 -0.032518 -0.014652 0.010702
# 2 -0.011116 0.035411 -0.012465 0.019582 -0.003173 0.013975
# 3 0.003825 -0.012465 0.015525 -0.023314 -0.001932 -0.005776
# 4 -0.032518 0.019582 -0.023314 0.085262 0.018296 0.001849
# 5 -0.014652 -0.003173 -0.001932 0.018296 0.031276 -0.009864
# 6 0.010702 0.013975 -0.005776 0.001849 -0.009864 0.046874
#
#
# Mechanical properties :
#
#
# Convention : Reuss Voigt Hill
#
# Bulk Modulus (GPa) = 19.44193 53.33335 36.38764
# Shear Modulus (GPa) = 16.07620 32.45049 24.26334
#
# Velocity S-wave (km/s) = 2.63486 3.74349 3.23699
# Velocity P-wave (km/s) = 4.20151 6.45887 5.44838
#
# Compressibility (1/GPa) = 0.05143522
#
# Stress axis : x y z
#
# Youngs Moduli (GPa) = 24.99213 28.23995 64.41087
#
# Poissons Ratio (x) = 0.31393 -0.24635
# Poissons Ratio (y) = 0.27782 0.80288
# Poissons Ratio (z) = -0.09559 0.35201
#
# Static dielectric constant tensor:
#      x y z
#    x 4.120290 -0.164670 0.208430 
#    y -0.164670 3.847710 0.238630 
#    z 0.208430 0.238630 4.705470 
# 
# 
# High freq. dielectric constant tensor:
#      x y z
#    x 1.906660 -0.019700 -0.001120 
#    y -0.019700 1.874030 0.011790 
#    z -0.001120 0.011790 1.934880 
# 
# From -- ./inp_files/271730.got.cif
#   From: 2010.06.25/outbox.cif.g09.slc.cpg/sg2_136_cif.got.tgz:271730.got - 2010.06.27 13:26:56.
