data_PCOD8039298
_publ_section_title
;
Structure prediction by ZEFSAII (Michael W. Deem and Ramdas Pophale) SiO2 
 PCOD8039298
Probable space group: P -1
;
_chemical_formula_sum "Si O2"
_cell_formula_units_Z 16
_cell_length_a 10.279302
_cell_length_b 14.966170
_cell_length_c 11.283696
_cell_angle_alpha 52.777619
_cell_angle_beta 54.323469
_cell_angle_gamma 95.799701
_cell_volume 800.100558
_symmetry_space_group_name_H-M "P -1"
_symmetry_group_IT_number 2
_symmetry_cell_setting 'triclinic'
loop_
_space_group_symop_operation_xyz
x,y,z
-x,-y,-z
loop_
_atom_site_type_symbol
_atom_site_label
_atom_site_fract_x
_atom_site_fract_y
_atom_site_fract_z
Si Si1 0.111458 0.419705 0.072897
Si Si2 0.735799 0.786272 0.215299
Si Si3 0.731577 0.951674 0.622332
Si Si4 0.662206 0.078711 0.154498
Si Si5 0.994422 0.860461 0.238816
Si Si6 0.008762 0.779615 0.919371
Si Si7 0.351745 0.718092 0.580715
Si Si8 0.110511 0.204241 0.387327
O O1 0.203822 0.363533 0.148308
O O2 0.058001 0.357874 0.015258
O O3 0.874040 0.347061 0.310173
O O4 0.292325 0.608649 0.812928
O O5 0.486168 0.715079 0.410081
O O6 0.787124 0.757609 0.339762
O O7 0.774126 0.711722 0.153468
O O8 0.918236 0.969908 0.938020
O O9 0.482222 0.879968 0.821651
O O10 0.714738 0.809055 0.728217
O O11 0.869892 0.065953 0.346103
O O12 0.863920 0.049141 0.594106
O O13 0.821712 0.175846 0.104002
O O14 0.498291 0.892240 0.415640
O O15 0.809662 0.127416 0.919833
O O16 0.905398 0.778033 0.479485
#
# Coordination Sequence:
#
# PCOD8039298 Si02
#       8
#     2   2   2   2   2   2   2   2
#     4  10  22  36  51  79 108 144 168 214 259 316
#     4   9  18  32  53  78  99 138 174 218 257 299
#     4  10  19  30  50  81 107 133 168 218 262 306
#     4  10  19  33  57  85  97 135 177 223 258 295
#     4   9  18  31  52  78 108 129 171 222 262 304
#     4  10  18  33  56  81 103 128 181 218 259 296
#     4  10  20  36  53  76 110 134 181 210 256 315
#     4  10  19  33  48  75 114 139 165 213 268 312
#
# _framework density 19.997487
#
# number of rings (size 3 to 8) (size 9 to 14) (size 15 to 20)
#    0.000    2.250    3.750    1.125    0.000    1.000 
#    0.000    0.625    0.000    0.000    0.000    8.750 
#    0.000    0.000    0.000    0.000    0.000    0.000 
#
# Total GULP energy -198349.516818 kJ/mol
# GULP energy per Si atom -12396.844801 kJ/mol
# Density = 1.995197 g / cm^3
# Si number density = 19.997487 Si / 1000 Ang^3
#
#
#
# Elastic Constant Matrix: (Units=GPa)
#
#
# Indices 1 2 3 4 5 6 
#
# 1 95.1295 45.0831 18.1665 14.2012 1.4957 -26.3734
# 2 45.0831 65.1253 27.0068 22.0597 -2.6848 -11.8760
# 3 18.1665 27.0068 41.0330 8.3386 -3.9457 -16.4118
# 4 14.2012 22.0597 8.3386 25.9853 -10.2367 -0.4533
# 5 1.4957 -2.6848 -3.9457 -10.2367 34.5874 7.9307
# 6 -26.3734 -11.8760 -16.4118 -0.4533 7.9307 35.7485
#
#
#
# Elastic Compliance Matrix: (Units=1/GPa)
#
#
# Indices 1 2 3 4 5 6 
#
# 1 0.019983 -0.012168 0.005202 -0.004282 -0.005764 0.014313
# 2 -0.012168 0.036869 -0.016475 -0.020940 -0.003839 -0.003706
# 3 0.005202 -0.016475 0.039972 -0.001946 -0.001419 0.017005
# 4 -0.004282 -0.020940 -0.001946 0.067535 0.021761 -0.014979
# 5 -0.005764 -0.003839 -0.001419 0.021761 0.038452 -0.014434
# 6 0.014313 -0.003706 0.017005 -0.014979 -0.014434 0.048120
#
#
# Mechanical properties :
#
#
# Convention : Reuss Voigt Hill
#
# Bulk Modulus (GPa) = 20.02355 42.42229 31.22292
# Shear Modulus (GPa) = 15.90031 26.66633 21.28332
#
# Velocity S-wave (km/s) = 2.82284 3.65565 3.26590
# Velocity P-wave (km/s) = 4.54525 6.25126 5.46523
#
# Compressibility (1/GPa) = 0.04994119
#
# Stress axis : x y z
#
# Youngs Moduli (GPa) = 50.04311 27.12313 25.01774
#
# Poissons Ratio (x) = 0.33002 -0.13014
# Poissons Ratio (y) = 0.60890 0.41218
# Poissons Ratio (z) = -0.26031 0.44686
#
# Static dielectric constant tensor:
#      x y z
#    x 3.680230 -0.200110 -0.098900 
#    y -0.200110 3.605110 0.235840 
#    z -0.098900 0.235840 3.384620 
# 
# 
# High freq. dielectric constant tensor:
#      x y z
#    x 1.772950 -0.021200 -0.008280 
#    y -0.021200 1.773220 0.021800 
#    z -0.008280 0.021800 1.752170 
# 
# From -- ./inp_files/252521.got.cif
#   From: 2010.06.25/outbox.cif.g09.slc.cpg/sg2_127_cif.got.tgz:252521.got - 2010.06.27 13:26:56.
