data_PCOD8039441
_publ_section_title
;
Structure prediction by ZEFSAII (Michael W. Deem and Ramdas Pophale) SiO2 
 PCOD8039441
Probable space group: P -1
;
_chemical_formula_sum "Si O2"
_cell_formula_units_Z 16
_cell_length_a 18.990232
_cell_length_b 8.308383
_cell_length_c 9.259657
_cell_angle_alpha 116.341931
_cell_angle_beta 38.956941
_cell_angle_gamma 97.561622
_cell_volume 761.824580
_symmetry_space_group_name_H-M "P -1"
_symmetry_group_IT_number 2
_symmetry_cell_setting 'triclinic'
loop_
_space_group_symop_operation_xyz
x,y,z
-x,-y,-z
loop_
_atom_site_type_symbol
_atom_site_label
_atom_site_fract_x
_atom_site_fract_y
_atom_site_fract_z
Si Si1 0.161765 0.454323 0.935794
Si Si2 0.623027 0.877435 0.983658
Si Si3 0.375417 0.860290 0.386180
Si Si4 0.319387 0.218223 0.829646
Si Si5 0.790142 0.882993 0.477343
Si Si6 0.989957 0.132038 0.705829
Si Si7 0.737538 0.290214 0.272028
Si Si8 0.540176 0.277952 0.390184
O O1 0.208572 0.392725 0.000322
O O2 0.138759 0.284583 0.817781
O O3 0.265033 0.501696 0.698269
O O4 0.038678 0.646337 0.215828
O O5 0.519232 0.787152 0.097783
O O6 0.701095 0.809318 0.979869
O O7 0.558455 0.115276 0.171662
O O8 0.717168 0.801746 0.673255
O O9 0.330518 0.695350 0.458958
O O10 0.337156 0.028499 0.633618
O O11 0.304062 0.930189 0.378581
O O12 0.441169 0.262665 0.652954
O O13 0.886790 0.948413 0.432024
O O14 0.877925 0.136553 0.988639
O O15 0.000000 0.000000 0.500000
O O16 0.669424 0.209099 0.232230
O O17 0.500000 0.500000 0.500000
#
# Coordination Sequence:
#
# PCOD8039441 Si02
#       8
#     2   2   2   2   2   2   2   2
#     4   9  22  39  61  89 118 157 197 243 310 349
#     4  11  21  35  61  91 122 160 200 239 296 354
#     4  10  20  37  58  89 119 162 194 238 299 365
#     4  10  18  33  61  87 119 158 198 240 296 351
#     4  11  23  40  60  85 128 158 191 249 303 352
#     4  10  22  40  66  87 114 153 209 248 292 350
#     4  10  19  35  61  82 120 150 204 234 295 348
#     4  11  17  32  58  90 118 155 197 250 287 340
#
# _framework density 21.002209000000001
#
# number of rings (size 3 to 8) (size 9 to 14) (size 15 to 20)
#    0.750    1.000    3.750    2.250    0.000    0.500 
#    0.000    3.750    0.000    0.000    0.000    0.000 
#    0.000    0.000    0.000    0.000    0.000    0.000 
#
# Total GULP energy -198221.952610 kJ/mol
# GULP energy per Si atom -12388.872038 kJ/mol
# Density = 2.095441 g / cm^3
# Si number density = 21.002209 Si / 1000 Ang^3
#
#
#
# Elastic Constant Matrix: (Units=GPa)
#
#
# Indices 1 2 3 4 5 6 
#
# 1 140.8368 25.9417 33.0427 -8.6875 -10.1837 -15.0585
# 2 25.9417 76.0817 10.1073 -7.8744 5.3087 -17.0636
# 3 33.0427 10.1073 61.0077 -8.0432 -3.0968 -6.5450
# 4 -8.6875 -7.8744 -8.0432 28.0731 5.1953 1.3490
# 5 -10.1837 5.3087 -3.0968 5.1953 25.2547 -1.3612
# 6 -15.0585 -17.0636 -6.5450 1.3490 -1.3612 31.9319
#
#
#
# Elastic Compliance Matrix: (Units=1/GPa)
#
#
# Indices 1 2 3 4 5 6 
#
# 1 0.008990 -0.002235 -0.004031 0.000204 0.003686 0.002368
# 2 -0.002235 0.016370 -0.000403 0.004344 -0.004896 0.007219
# 3 -0.004031 -0.000403 0.019366 0.004092 0.000083 0.001684
# 4 0.000204 0.004344 0.004092 0.039571 -0.008403 0.001226
# 5 0.003686 -0.004896 0.000083 -0.008403 0.043925 0.001366
# 6 0.002368 0.007219 0.001684 0.001226 0.001366 0.036642
#
#
# Mechanical properties :
#
#
# Convention : Reuss Voigt Hill
#
# Bulk Modulus (GPa) = 31.85944 46.23438 39.04691
# Shear Modulus (GPa) = 26.50216 30.97424 28.73820
#
# Velocity S-wave (km/s) = 3.55614 3.84449 3.70312
# Velocity P-wave (km/s) = 5.66251 6.46287 6.07588
#
# Compressibility (1/GPa) = 0.03138787
#
# Stress axis : x y z
#
# Youngs Moduli (GPa) = 111.23353 61.08889 51.63796
#
# Poissons Ratio (x) = 0.13653 0.20814
# Poissons Ratio (y) = 0.24860 0.02081
# Poissons Ratio (z) = 0.44837 0.02461
#
# Static dielectric constant tensor:
#      x y z
#    x 3.786420 -0.164280 -0.119150 
#    y -0.164280 3.987150 -0.191040 
#    z -0.119150 -0.191040 3.398390 
# 
# 
# High freq. dielectric constant tensor:
#      x y z
#    x 1.825560 -0.003720 -0.008730 
#    y -0.003720 1.814300 -0.009510 
#    z -0.008730 -0.009510 1.785020 
# 
# From -- ./inp_files/327701.got.cif
#   From: 2010.06.25/outbox.cif.g09.slc.cpg/sg2_164_cif.got.tgz:327701.got - 2010.06.27 13:26:56.
