data_PCOD8039658
_publ_section_title
;
Structure prediction by ZEFSAII (Michael W. Deem and Ramdas Pophale) SiO2 
 PCOD8039658
Probable space group: P -1
;
_chemical_formula_sum "Si O2"
_cell_formula_units_Z 14
_cell_length_a 8.446446
_cell_length_b 9.358525
_cell_length_c 11.217184
_cell_angle_alpha 110.411308
_cell_angle_beta 67.093712
_cell_angle_gamma 74.520412
_cell_volume 677.121509
_symmetry_space_group_name_H-M "P -1"
_symmetry_group_IT_number 2
_symmetry_cell_setting 'triclinic'
loop_
_space_group_symop_operation_xyz
x,y,z
-x,-y,-z
loop_
_atom_site_type_symbol
_atom_site_label
_atom_site_fract_x
_atom_site_fract_y
_atom_site_fract_z
Si Si1 0.923791 0.734596 0.383072
Si Si2 0.707763 0.078671 0.651156
Si Si3 0.687692 0.930814 0.280131
Si Si4 0.968804 0.345467 0.018765
Si Si5 0.713689 0.341869 0.890274
Si Si6 0.649367 0.271718 0.490099
Si Si7 0.784767 0.474478 0.357114
O O1 0.770538 0.822988 0.345647
O O2 0.866605 0.599369 0.423225
O O3 0.142674 0.634020 0.239169
O O4 0.894592 0.889034 0.527687
O O5 0.517998 0.055528 0.685715
O O6 0.710173 0.163858 0.802657
O O7 0.713937 0.206816 0.585877
O O8 0.666165 0.120557 0.353433
O O9 0.833053 0.832682 0.101371
O O10 0.922140 0.368953 0.177713
O O11 0.798370 0.326348 0.993111
O O12 0.000000 0.500000 0.000000
O O13 0.500000 0.500000 0.000000
O O14 0.791945 0.345591 0.421646
O O15 0.430929 0.422799 0.601630
#
# Coordination Sequence:
#
# PCOD8039658 Si02
#       7
#     2   2   2   2   2   2   2
#     4  10  19  35  56  81 108 145 183 225 263 322
#     4  11  19  36  56  87 109 139 185 224 277 321
#     4  10  18  34  59  82 107 143 187 226 267 319
#     4  11  20  36  58  80 108 144 186 229 264 326
#     4  11  22  32  56  85 110 141 181 231 273 315
#     4  10  20  33  56  86 110 144 179 230 267 327
#     4  11  19  34  57  84 111 140 188 222 274 314
#
# _framework density 20.675756
#
# number of rings (size 3 to 8) (size 9 to 14) (size 15 to 20)
#    0.000    1.429    5.714    3.000    0.000    0.571 
#    0.000    0.714    0.000    0.857    0.000    0.000 
#    0.000    0.000    0.000    0.000    0.000    0.000 
#
# Total GULP energy -173589.785550 kJ/mol
# GULP energy per Si atom -12399.270396 kJ/mol
# Density = 2.062870 g / cm^3
# Si number density = 20.675756 Si / 1000 Ang^3
#
#
#
# Elastic Constant Matrix: (Units=GPa)
#
#
# Indices 1 2 3 4 5 6 
#
# 1 69.2168 26.1926 12.1543 6.1586 -3.9113 16.3110
# 2 26.1926 92.2160 27.9287 2.2730 -1.3136 26.6510
# 3 12.1543 27.9287 99.3295 21.1535 -5.1186 1.3336
# 4 6.1586 2.2730 21.1535 23.0853 8.6611 -2.3210
# 5 -3.9113 -1.3136 -5.1186 8.6611 39.0596 7.9008
# 6 16.3110 26.6510 1.3336 -2.3210 7.9008 28.6096
#
#
#
# Elastic Compliance Matrix: (Units=1/GPa)
#
#
# Indices 1 2 3 4 5 6 
#
# 1 0.018909 -0.001941 0.000592 -0.008864 0.006182 -0.011426
# 2 -0.001941 0.017218 -0.004251 0.000043 0.002963 -0.015549
# 3 0.000592 -0.004251 0.014656 -0.015057 0.005114 0.000306
# 4 -0.008864 0.000043 -0.015057 0.069381 -0.021754 0.017351
# 5 0.006182 0.002963 0.005114 -0.021754 0.035472 -0.018084
# 6 -0.011426 -0.015549 0.000306 0.017351 -0.018084 0.062340
#
#
# Mechanical properties :
#
#
# Convention : Reuss Voigt Hill
#
# Bulk Modulus (GPa) = 25.26455 43.70152 34.48303
# Shear Modulus (GPa) = 20.62945 31.11668 25.87307
#
# Velocity S-wave (km/s) = 3.16216 3.88362 3.54131
# Velocity P-wave (km/s) = 5.05750 6.42592 5.78233
#
# Compressibility (1/GPa) = 0.03958116
#
# Stress axis : x y z
#
# Youngs Moduli (GPa) = 52.88619 58.07854 68.22912
#
# Poissons Ratio (x) = 0.11274 -0.04037
# Poissons Ratio (y) = 0.10266 0.29007
# Poissons Ratio (z) = -0.03129 0.24692
#
# Static dielectric constant tensor:
#      x y z
#    x 3.750430 0.295360 -0.057760 
#    y 0.295360 3.587290 0.338290 
#    z -0.057760 0.338290 4.203690 
# 
# 
# High freq. dielectric constant tensor:
#      x y z
#    x 1.812150 0.027180 -0.012500 
#    y 0.027180 1.772280 0.030120 
#    z -0.012500 0.030120 1.818970 
# 
# From -- ./inp_files/182322.got.cif
#   From: 2010.06.25/outbox.cif.g09.slc.cpg/sg2_92_cif.got.tgz:182322.got - 2010.06.27 13:26:56.
