data_PCOD8039627
_publ_section_title
;
Structure prediction by ZEFSAII (Michael W. Deem and Ramdas Pophale) SiO2 
 PCOD8039627
Probable space group: P -1
;
_chemical_formula_sum "Si O2"
_cell_formula_units_Z 16
_cell_length_a 18.544194
_cell_length_b 10.791662
_cell_length_c 9.371026
_cell_angle_alpha 91.690443
_cell_angle_beta 40.549114
_cell_angle_gamma 61.835685
_cell_volume 790.798712
_symmetry_space_group_name_H-M "P -1"
_symmetry_group_IT_number 2
_symmetry_cell_setting 'triclinic'
loop_
_space_group_symop_operation_xyz
x,y,z
-x,-y,-z
loop_
_atom_site_type_symbol
_atom_site_label
_atom_site_fract_x
_atom_site_fract_y
_atom_site_fract_z
Si Si1 0.353838 0.718845 0.280047
Si Si2 0.986321 0.626905 0.624507
Si Si3 0.315372 0.257632 0.221503
Si Si4 0.866224 0.283402 0.761117
Si Si5 0.982750 0.048592 0.319337
Si Si6 0.525561 0.714434 0.258126
Si Si7 0.287750 0.982573 0.875887
Si Si8 0.391569 0.922265 0.034566
O O1 0.162218 0.822315 0.582977
O O2 0.401252 0.723155 0.367136
O O3 0.335167 0.853637 0.210195
O O4 0.500000 0.500000 0.000000
O O5 0.138356 0.485535 0.506644
O O6 0.998437 0.733209 0.502994
O O7 0.000000 0.500000 0.500000
O O8 0.805336 0.802174 0.982038
O O9 0.279513 0.141658 0.244877
O O10 0.419098 0.222900 0.928640
O O11 0.415082 0.200395 0.216739
O O12 0.861253 0.180239 0.644620
O O13 0.685413 0.500658 0.070364
O O14 0.937245 0.158095 0.793697
O O15 0.139833 0.008753 0.060660
O O16 0.432977 0.856168 0.535071
O O17 0.379901 0.888485 0.887046
#
# Coordination Sequence:
#
# PCOD8039627 Si02
#       8
#     2   2   2   2   2   2   2   2
#     4  11  21  38  62  84 112 157 194 235 279 345
#     4  10  18  34  58  85 110 153 194 233 280 344
#     4   9  20  38  62  83 111 153 199 230 274 358
#     4   9  18  35  55  82 114 148 197 231 272 347
#     4  10  20  35  58  83 112 152 199 231 273 347
#     4  10  22  38  57  88 120 148 187 238 298 333
#     4  11  23  36  58  89 120 148 185 246 291 332
#     4  10  20  37  59  87 110 151 194 236 279 341
#
# _framework density 20.232707999999999
#
# number of rings (size 3 to 8) (size 9 to 14) (size 15 to 20)
#    0.000    2.000    2.500    2.250    1.750    1.500 
#    0.000    1.250    0.000    6.750    0.000    0.000 
#    0.000    0.000    0.000    0.000    0.000    0.000 
#
# Total GULP energy -198231.226739 kJ/mol
# GULP energy per Si atom -12389.451671 kJ/mol
# Density = 2.018666 g / cm^3
# Si number density = 20.232708 Si / 1000 Ang^3
#
#
#
# Elastic Constant Matrix: (Units=GPa)
#
#
# Indices 1 2 3 4 5 6 
#
# 1 94.2962 22.3633 37.4065 6.6091 -2.6275 -3.3080
# 2 22.3633 93.8935 37.9605 24.7747 1.0806 8.5974
# 3 37.4065 37.9605 116.5883 28.0144 9.2705 -11.1853
# 4 6.6091 24.7747 28.0144 22.9425 1.6104 0.6163
# 5 -2.6275 1.0806 9.2705 1.6104 26.6678 3.2980
# 6 -3.3080 8.5974 -11.1853 0.6163 3.2980 29.1826
#
#
#
# Elastic Compliance Matrix: (Units=1/GPa)
#
#
# Indices 1 2 3 4 5 6 
#
# 1 0.012746 -0.002340 -0.004558 0.004234 0.002680 -0.000005
# 2 -0.002340 0.016270 -0.001596 -0.014886 0.001244 -0.005496
# 3 -0.004558 -0.001596 0.015400 -0.015556 -0.005642 0.006822
# 4 0.004234 -0.014886 -0.015556 0.077368 0.002123 -0.002971
# 5 0.002680 0.001244 -0.005642 0.002123 0.040391 -0.006835
# 6 -0.000005 -0.005496 0.006822 -0.002971 -0.006835 0.039336
#
#
# Mechanical properties :
#
#
# Convention : Reuss Voigt Hill
#
# Bulk Modulus (GPa) = 36.46038 55.58207 46.02122
# Shear Modulus (GPa) = 21.96442 29.56177 25.76309
#
# Velocity S-wave (km/s) = 3.29840 3.82656 3.57226
# Velocity P-wave (km/s) = 5.70663 6.85963 6.30952
#
# Compressibility (1/GPa) = 0.02742703
#
# Stress axis : x y z
#
# Youngs Moduli (GPa) = 78.45633 61.46412 64.93406
#
# Poissons Ratio (x) = 0.14385 0.29599
# Poissons Ratio (y) = 0.18361 0.10362
# Poissons Ratio (z) = 0.35763 0.09808
#
# Static dielectric constant tensor:
#      x y z
#    x 4.079390 0.028890 -0.220660 
#    y 0.028890 4.316480 0.924540 
#    z -0.220660 0.924540 3.904610 
# 
# 
# High freq. dielectric constant tensor:
#      x y z
#    x 1.798750 0.006690 -0.025190 
#    y 0.006690 1.791370 0.038380 
#    z -0.025190 0.038380 1.753640 
# 
# From -- ./inp_files/333348.got.cif
#   From: 2010.06.25/outbox.cif.g09.slc.cpg/sg2_167_cif.got.tgz:333348.got - 2010.06.27 13:26:56.
