data_PCOD8039329
_publ_section_title
;
Structure prediction by ZEFSAII (Michael W. Deem and Ramdas Pophale) SiO2 
 PCOD8039329
Probable space group: P -1
;
_chemical_formula_sum "Si O2"
_cell_formula_units_Z 14
_cell_length_a 28.929710
_cell_length_b 12.044448
_cell_length_c 8.905795
_cell_angle_alpha 139.464065
_cell_angle_beta 137.520205
_cell_angle_gamma 20.937473
_cell_volume 715.563914
_symmetry_space_group_name_H-M "P -1"
_symmetry_group_IT_number 2
_symmetry_cell_setting 'triclinic'
loop_
_space_group_symop_operation_xyz
x,y,z
-x,-y,-z
loop_
_atom_site_type_symbol
_atom_site_label
_atom_site_fract_x
_atom_site_fract_y
_atom_site_fract_z
Si Si1 0.262823 0.185306 0.076281
Si Si2 0.391522 0.294384 0.756108
Si Si3 0.350259 0.698854 0.224674
Si Si4 0.140096 0.146455 0.920778
Si Si5 0.464910 0.303842 0.639208
Si Si6 0.134756 0.766723 0.508309
Si Si7 0.376686 0.747556 0.657253
O O1 0.175725 0.543615 0.246511
O O2 0.395044 0.912875 0.210413
O O3 0.182815 0.189804 0.941361
O O4 0.306031 0.067213 0.883009
O O5 0.388135 0.420954 0.727318
O O6 0.250175 0.502642 0.638091
O O7 0.512146 0.910078 0.632870
O O8 0.406915 0.383543 0.029182
O O9 0.302762 0.842658 0.427605
O O10 0.469531 0.567776 0.332212
O O11 0.230910 0.968768 0.102939
O O12 0.129789 0.974090 0.653592
O O13 0.000000 0.500000 0.000000
O O14 0.368066 0.631416 0.653799
O O15 0.000000 0.000000 0.500000
#
# Coordination Sequence:
#
# PCOD8039329 Si02
#       7
#     2   2   2   2   2   2   2
#     4  11  20  35  58  85 109 147 187 232 286 323
#     4   9  19  33  55  82 111 141 191 233 271 341
#     4  10  21  35  52  85 115 148 182 223 290 339
#     4  11  21  38  63  82 106 150 199 234 270 338
#     4  10  18  33  57  84 109 144 186 232 282 331
#     4  10  20  34  55  84 108 139 190 240 273 317
#     4  11  20  33  56  81 121 147 173 231 289 341
#
# _framework density 19.564988
#
# number of rings (size 3 to 8) (size 9 to 14) (size 15 to 20)
#    0.000    1.714    4.286    2.143    0.000    0.571 
#    0.000    0.714    0.000    0.857    0.000    0.000 
#    0.000    0.000    0.000    0.000    0.000    0.000 
#
# Total GULP energy -173456.349026 kJ/mol
# GULP energy per Si atom -12389.739216 kJ/mol
# Density = 1.952046 g / cm^3
# Si number density = 19.564988 Si / 1000 Ang^3
#
#
#
# Elastic Constant Matrix: (Units=GPa)
#
#
# Indices 1 2 3 4 5 6 
#
# 1 60.8468 29.9280 40.3139 5.9726 5.5217 -13.0790
# 2 29.9280 75.8129 42.2954 15.7938 -6.4749 -15.2236
# 3 40.3139 42.2954 149.6690 30.8159 -15.6238 3.9870
# 4 5.9726 15.7938 30.8159 32.7345 -5.3472 4.1437
# 5 5.5217 -6.4749 -15.6238 -5.3472 35.3989 2.9426
# 6 -13.0790 -15.2236 3.9870 4.1437 2.9426 22.9629
#
#
#
# Elastic Compliance Matrix: (Units=1/GPa)
#
#
# Indices 1 2 3 4 5 6 
#
# 1 0.028023 -0.004634 -0.007876 0.000992 -0.009820 0.015336
# 2 -0.004634 0.021318 -0.003452 -0.007752 0.000815 0.013388
# 3 -0.007876 -0.003452 0.011835 -0.006053 0.005610 -0.008456
# 4 0.000992 -0.007752 -0.006053 0.041747 0.003013 -0.011443
# 5 -0.009820 0.000815 0.005610 0.003013 0.033767 -0.010898
# 6 0.015336 0.013388 -0.008456 -0.011443 -0.010898 0.066088
#
#
# Mechanical properties :
#
#
# Convention : Reuss Voigt Hill
#
# Bulk Modulus (GPa) = 34.18548 56.82257 45.50403
# Shear Modulus (GPa) = 20.45386 29.80538 25.12962
#
# Velocity S-wave (km/s) = 3.23682 3.90731 3.58777
# Velocity P-wave (km/s) = 5.61071 7.03294 6.36169
#
# Compressibility (1/GPa) = 0.02925218
#
# Stress axis : x y z
#
# Youngs Moduli (GPa) = 35.68550 46.90816 84.49263
#
# Poissons Ratio (x) = 0.21737 0.66550
# Poissons Ratio (y) = 0.16537 0.29163
# Poissons Ratio (z) = 0.28107 0.16191
#
# Static dielectric constant tensor:
#      x y z
#    x 3.427330 -0.232080 0.177810 
#    y -0.232080 3.495740 0.348540 
#    z 0.177810 0.348540 3.950430 
# 
# 
# High freq. dielectric constant tensor:
#      x y z
#    x 1.738390 -0.030730 0.018220 
#    y -0.030730 1.741240 0.034100 
#    z 0.018220 0.034100 1.770980 
# 
# From -- ./inp_files/163394.got.cif
#   From: 2010.06.25/outbox.cif.g09.slc.cpg/sg2_82_cif.got.tgz:163394.got - 2010.06.27 13:26:56.
