data_PCOD8039143
_publ_section_title
;
Structure prediction by ZEFSAII (Michael W. Deem and Ramdas Pophale) SiO2 
 PCOD8039143
Probable space group: P -1
;
_chemical_formula_sum "Si O2"
_cell_formula_units_Z 16
_cell_length_a 14.732629
_cell_length_b 11.971274
_cell_length_c 12.966391
_cell_angle_alpha 88.228723
_cell_angle_beta 59.290888
_cell_angle_gamma 140.131552
_cell_volume 808.320726
_symmetry_space_group_name_H-M "P -1"
_symmetry_group_IT_number 2
_symmetry_cell_setting 'triclinic'
loop_
_space_group_symop_operation_xyz
x,y,z
-x,-y,-z
loop_
_atom_site_type_symbol
_atom_site_label
_atom_site_fract_x
_atom_site_fract_y
_atom_site_fract_z
Si Si1 0.620802 0.161471 0.684949
Si Si2 0.143907 0.002336 0.521699
Si Si3 0.263932 0.789208 0.065679
Si Si4 0.538062 0.408233 0.454539
Si Si5 0.048885 0.941807 0.354890
Si Si6 0.123375 0.903191 0.109761
Si Si7 0.516833 0.294731 0.680411
Si Si8 0.979802 0.602755 0.642370
O O1 0.586230 0.231367 0.625893
O O2 0.773469 0.362442 0.686611
O O3 0.743129 0.171304 0.562617
O O4 0.352303 0.856952 0.894467
O O5 0.215559 0.074317 0.356290
O O6 0.970031 0.726263 0.655671
O O7 0.400819 0.243267 0.432773
O O8 0.980227 0.953624 0.645688
O O9 0.135320 0.787277 0.145452
O O10 0.061749 0.497699 0.220438
O O11 0.500000 0.000000 0.000000
O O12 0.500000 0.500000 0.500000
O O13 0.404774 0.218393 0.635400
O O14 0.833446 0.658807 0.257640
O O15 0.769713 0.614482 0.541995
O O16 0.202948 0.049225 0.161816
O O17 0.313704 0.114769 0.897633
#
# Coordination Sequence:
#
# PCOD8039143 Si02
#       8
#     2   2   2   2   2   2   2   2
#     4   9  18  33  57  86 110 151 191 242 294 347
#     4  11  22  38  59  90 123 157 192 251 298 348
#     4   9  19  33  58  90 115 143 200 245 286 352
#     4  11  22  41  60  83 125 163 200 236 290 364
#     4  10  21  40  59  87 124 147 199 257 295 343
#     4  10  21  39  66  87 115 161 200 243 299 352
#     4  10  19  39  64  84 115 156 204 242 290 361
#     4  10  18  32  58  83 116 149 191 241 301 338
#
# _framework density 19.794125000000001
#
# number of rings (size 3 to 8) (size 9 to 14) (size 15 to 20)
#    0.000    2.000    3.750    1.500    3.500    0.500 
#    0.000    8.750    0.000    3.000    0.000    0.000 
#    0.000    0.000    0.000    0.000    0.000    0.000 
#
# Total GULP energy -198222.812045 kJ/mol
# GULP energy per Si atom -12388.925753 kJ/mol
# Density = 1.974907 g / cm^3
# Si number density = 19.794125 Si / 1000 Ang^3
#
#
#
# Elastic Constant Matrix: (Units=GPa)
#
#
# Indices 1 2 3 4 5 6 
#
# 1 146.2193 40.5243 49.3222 2.4376 13.1581 -9.0926
# 2 40.5243 65.7632 30.6785 7.4565 10.9447 4.6417
# 3 49.3222 30.6785 101.6486 6.3051 12.3249 -1.0457
# 4 2.4376 7.4565 6.3051 13.7794 1.8374 10.9652
# 5 13.1581 10.9447 12.3249 1.8374 31.4918 -2.5176
# 6 -9.0926 4.6417 -1.0457 10.9652 -2.5176 41.5785
#
#
#
# Elastic Compliance Matrix: (Units=1/GPa)
#
#
# Indices 1 2 3 4 5 6 
#
# 1 0.009307 -0.004335 -0.003089 0.000449 -0.001019 0.002262
# 2 -0.004335 0.021022 -0.003339 -0.007193 -0.003906 -0.001719
# 3 -0.003089 -0.003339 0.012877 -0.003976 -0.002282 0.000932
# 4 0.000449 -0.007193 -0.003976 0.099077 -0.003957 -0.025567
# 5 -0.001019 -0.003906 -0.002282 -0.003957 0.034926 0.003314
# 6 0.002262 -0.001719 0.000932 -0.025567 0.003314 0.031704
#
#
# Mechanical properties :
#
#
# Convention : Reuss Voigt Hill
#
# Bulk Modulus (GPa) = 46.12486 61.63123 53.87805
# Shear Modulus (GPa) = 21.03783 30.24371 25.64077
#
# Velocity S-wave (km/s) = 3.26365 3.91309 3.60303
# Velocity P-wave (km/s) = 6.12819 7.18471 6.67738
#
# Compressibility (1/GPa) = 0.02168028
#
# Stress axis : x y z
#
# Youngs Moduli (GPa) = 107.44276 47.56909 77.65663
#
# Poissons Ratio (x) = 0.20623 0.23986
# Poissons Ratio (y) = 0.46581 0.25930
# Poissons Ratio (z) = 0.33186 0.15883
#
# Static dielectric constant tensor:
#      x y z
#    x 4.068530 0.054010 0.215590 
#    y 0.054010 3.367220 0.075510 
#    z 0.215590 0.075510 3.861660 
# 
# 
# High freq. dielectric constant tensor:
#      x y z
#    x 1.796880 -0.012020 0.012500 
#    y -0.012020 1.733230 0.011450 
#    z 0.012500 0.011450 1.766390 
# 
# From -- ./inp_files/452367.got.cif
#   From: 2010.06.25/outbox.cif.g09.slc.cpg/sg2_227_cif.got.tgz:452367.got - 2010.06.27 13:26:56.
