data_PCOD8039467
_publ_section_title
;
Structure prediction by ZEFSAII (Michael W. Deem and Ramdas Pophale) SiO2 
 PCOD8039467
Probable space group: P -1
;
_chemical_formula_sum "Si O2"
_cell_formula_units_Z 16
_cell_length_a 14.455916
_cell_length_b 18.071532
_cell_length_c 15.731713
_cell_angle_alpha 21.228869
_cell_angle_beta 143.904431
_cell_angle_gamma 140.940687
_cell_volume 871.461504
_symmetry_space_group_name_H-M "P -1"
_symmetry_group_IT_number 2
_symmetry_cell_setting 'triclinic'
loop_
_space_group_symop_operation_xyz
x,y,z
-x,-y,-z
loop_
_atom_site_type_symbol
_atom_site_label
_atom_site_fract_x
_atom_site_fract_y
_atom_site_fract_z
Si Si1 0.712210 0.710778 0.187358
Si Si2 0.067468 0.948134 0.736674
Si Si3 0.177039 0.974052 0.192225
Si Si4 0.131834 0.639246 0.398409
Si Si5 0.559154 0.456143 0.723668
Si Si6 0.607665 0.212895 0.853774
Si Si7 0.014854 0.004026 0.825609
Si Si8 0.108888 0.326598 0.239285
O O1 0.753230 0.484702 0.437864
O O2 0.540369 0.687731 0.127630
O O3 0.840999 0.824594 0.225735
O O4 0.705765 0.832975 0.961760
O O5 0.948667 0.792599 0.760977
O O6 0.984400 0.006325 0.700034
O O7 0.116919 0.162482 0.496338
O O8 0.218346 0.832020 0.995669
O O9 0.231823 0.772631 0.403017
O O10 0.152720 0.954459 0.297182
O O11 0.000000 0.000000 0.000000
O O12 0.000000 0.500000 0.500000
O O13 0.053832 0.779491 0.122370
O O14 0.612124 0.306735 0.850510
O O15 0.450684 0.624406 0.429042
O O16 0.715877 0.568207 0.763191
O O17 0.500000 0.000000 0.000000
O O18 0.000000 0.500000 0.000000
#
# Coordination Sequence:
#
# PCOD8039467 Si02
#       8
#     2   2   2   2   2   2   2   2
#     4  10  18  30  50  82 115 142 177 229 283 335
#     4  11  23  39  60  80 115 156 191 237 286 336
#     4   8  16  29  44  76 115 139 174 224 275 337
#     4  10  14  29  50  78 119 147 167 222 291 336
#     4  11  23  35  59  84 115 152 188 236 289 339
#     4  11  21  37  56  87 117 138 186 246 289 335
#     4  10  19  30  52  83 113 143 184 228 280 340
#     4  11  24  44  56  77 114 159 202 233 277 343
#
# _framework density 18.359960999999998
#
# number of rings (size 3 to 8) (size 9 to 14) (size 15 to 20)
#    0.000    2.000    6.250    1.500    1.750    2.000 
#    0.000    0.000    0.000    0.750    0.000    1.750 
#    0.000    0.000    0.000    0.000    0.000    0.000 
#
# Total GULP energy -198314.087751 kJ/mol
# GULP energy per Si atom -12394.630484 kJ/mol
# Density = 1.831817 g / cm^3
# Si number density = 18.359961 Si / 1000 Ang^3
#
#
#
# Elastic Constant Matrix: (Units=GPa)
#
#
# Indices 1 2 3 4 5 6 
#
# 1 117.7937 53.4748 29.6291 -3.4112 -21.6035 -6.3033
# 2 53.4748 92.7060 34.2490 -12.2506 -11.2665 -1.0885
# 3 29.6291 34.2490 61.8780 -15.6411 2.4037 -2.4103
# 4 -3.4112 -12.2506 -15.6411 26.9239 0.4848 0.0090
# 5 -21.6035 -11.2665 2.4037 0.4848 30.1283 -6.1803
# 6 -6.3033 -1.0885 -2.4103 0.0090 -6.1803 33.0994
#
#
#
# Elastic Compliance Matrix: (Units=1/GPa)
#
#
# Indices 1 2 3 4 5 6 
#
# 1 0.014037 -0.005685 -0.004720 -0.003717 0.009167 0.003855
# 2 -0.005685 0.017038 -0.005934 0.003538 0.002616 -0.000467
# 3 -0.004720 -0.005934 0.024832 0.011271 -0.007924 -0.000768
# 4 -0.003717 0.003538 0.011271 0.044883 -0.003035 -0.000350
# 5 0.009167 0.002616 -0.007924 -0.003035 0.043341 0.009348
# 6 0.003855 -0.000467 -0.000768 -0.000350 0.009348 0.032620
#
#
# Mechanical properties :
#
#
# Convention : Reuss Voigt Hill
#
# Bulk Modulus (GPa) = 43.04873 56.34258 49.69566
# Shear Modulus (GPa) = 23.02300 28.36532 25.69416
#
# Velocity S-wave (km/s) = 3.54500 3.93486 3.74500
# Velocity P-wave (km/s) = 6.34460 7.16927 6.76951
#
# Compressibility (1/GPa) = 0.02322949
#
# Stress axis : x y z
#
# Youngs Moduli (GPa) = 71.23784 58.69185 40.27027
#
# Poissons Ratio (x) = 0.33367 0.19009
# Poissons Ratio (y) = 0.40499 0.23895
# Poissons Ratio (z) = 0.33627 0.34826
#
# Static dielectric constant tensor:
#      x y z
#    x 3.808740 -0.238530 -0.002160 
#    y -0.238530 3.293740 -0.348400 
#    z -0.002160 -0.348400 3.483000 
# 
# 
# High freq. dielectric constant tensor:
#      x y z
#    x 1.723800 -0.013610 -0.003670 
#    y -0.013610 1.684130 -0.039790 
#    z -0.003670 -0.039790 1.702150 
# 
# From -- ./inp_files/535057.got.cif
#   From: 2010.06.25/outbox.cif.g09.slc.cpg/sg2_268_cif.got.tgz:535057.got - 2010.06.27 13:26:56.
