data_PCOD8039965
_publ_section_title
;
Structure prediction by ZEFSAII (Michael W. Deem and Ramdas Pophale) SiO2 
 PCOD8039965
Probable space group: P -1
;
_chemical_formula_sum "Si O2"
_cell_formula_units_Z 14
_cell_length_a 8.692834
_cell_length_b 11.375726
_cell_length_c 11.663631
_cell_angle_alpha 125.333320
_cell_angle_beta 102.573404
_cell_angle_gamma 53.011477
_cell_volume 736.404944
_symmetry_space_group_name_H-M "P -1"
_symmetry_group_IT_number 2
_symmetry_cell_setting 'triclinic'
loop_
_space_group_symop_operation_xyz
x,y,z
-x,-y,-z
loop_
_atom_site_type_symbol
_atom_site_label
_atom_site_fract_x
_atom_site_fract_y
_atom_site_fract_z
Si Si1 0.933632 0.149901 0.443803
Si Si2 0.088114 0.600889 0.614761
Si Si3 0.311723 0.432254 0.155023
Si Si4 0.767419 0.782427 0.838759
Si Si5 0.512581 0.436642 0.594059
Si Si6 0.958561 0.821571 0.285102
Si Si7 0.626903 0.891799 0.116234
O O1 0.933404 0.257211 0.398075
O O2 0.718987 0.239164 0.519255
O O3 0.068381 0.143964 0.562711
O O4 0.004616 0.951705 0.306590
O O5 0.317794 0.449538 0.596986
O O6 0.000000 0.500000 0.500000
O O7 0.970674 0.714973 0.773498
O O8 0.226179 0.392349 0.230054
O O9 0.481706 0.441387 0.238990
O O10 0.138096 0.616350 0.169395
O O11 0.398052 0.269587 0.985757
O O12 0.585437 0.916952 0.799509
O O13 0.733853 0.887560 0.012608
O O14 0.500000 0.500000 0.500000
O O15 0.757117 0.863530 0.229613
#
# Coordination Sequence:
#
# PCOD8039965 Si02
#       7
#     2   2   2   2   2   2   2
#     4   9  21  34  56  84 111 147 188 223 280 331
#     4  11  21  34  57  86 114 140 183 240 281 320
#     4   9  18  36  57  83 103 147 194 214 274 331
#     4   9  20  35  56  89 106 138 194 229 272 323
#     4   9  18  31  55  79 109 141 179 230 269 321
#     4  10  18  35  60  80 110 151 190 221 266 343
#     4   9  20  34  62  82 110 150 185 229 268 332
#
# _framework density 19.011278999999998
#
# number of rings (size 3 to 8) (size 9 to 14) (size 15 to 20)
#    0.857    1.714    0.000    3.000    6.000    0.000 
#    0.000    3.571    9.429    4.286    0.000    0.000 
#    0.000    0.000    0.000    0.000    0.000    0.000 
#
# Total GULP energy -173434.737831 kJ/mol
# GULP energy per Si atom -12388.195559 kJ/mol
# Density = 1.896801 g / cm^3
# Si number density = 19.011279 Si / 1000 Ang^3
#
#
#
# Elastic Constant Matrix: (Units=GPa)
#
#
# Indices 1 2 3 4 5 6 
#
# 1 107.5184 42.4128 36.7242 3.9425 -0.0702 -16.8807
# 2 42.4128 106.2000 25.5602 12.8512 10.4299 -7.2600
# 3 36.7242 25.5602 57.7790 5.1769 7.9763 -12.3139
# 4 3.9425 12.8512 5.1769 26.8563 -4.8427 12.2123
# 5 -0.0702 10.4299 7.9763 -4.8427 37.0053 -0.1210
# 6 -16.8807 -7.2600 -12.3139 12.2123 -0.1210 36.0500
#
#
#
# Elastic Compliance Matrix: (Units=1/GPa)
#
#
# Indices 1 2 3 4 5 6 
#
# 1 0.013599 -0.003882 -0.006580 0.000081 0.002560 0.003320
# 2 -0.003882 0.012785 -0.001358 -0.007308 -0.004265 0.002754
# 3 -0.006580 -0.001358 0.025358 -0.008014 -0.006118 0.008002
# 4 0.000081 -0.007308 -0.008014 0.054495 0.010845 -0.022596
# 5 0.002560 -0.004265 -0.006118 0.010845 0.030951 -0.005320
# 6 0.003320 0.002754 0.008002 -0.022596 -0.005320 0.040218
#
#
# Mechanical properties :
#
#
# Convention : Reuss Voigt Hill
#
# Bulk Modulus (GPa) = 35.58252 53.43243 44.50748
# Shear Modulus (GPa) = 23.76283 31.10234 27.43259
#
# Velocity S-wave (km/s) = 3.53928 4.04913 3.80276
# Velocity P-wave (km/s) = 5.95476 7.07300 6.53783
#
# Compressibility (1/GPa) = 0.02810369
#
# Stress axis : x y z
#
# Youngs Moduli (GPa) = 73.53373 78.21801 39.43535
#
# Poissons Ratio (x) = 0.30363 0.25947
# Poissons Ratio (y) = 0.28544 0.05355
# Poissons Ratio (z) = 0.48382 0.10620
#
# Static dielectric constant tensor:
#      x y z
#    x 3.395520 -0.255050 0.088710 
#    y -0.255050 3.708350 0.133460 
#    z 0.088710 0.133460 3.329460 
# 
# 
# High freq. dielectric constant tensor:
#      x y z
#    x 1.702580 -0.012960 0.024800 
#    y -0.012960 1.749200 0.008860 
#    z 0.024800 0.008860 1.724080 
# 
# From -- ./inp_files/330957.got.cif
#   From: 2010.06.25/outbox.cif.g09.slc.cpg/sg2_166_cif.got.tgz:330957.got - 2010.06.27 13:26:56.
