data_PCOD8039561
_publ_section_title
;
Structure prediction by ZEFSAII (Michael W. Deem and Ramdas Pophale) SiO2 
 PCOD8039561
Probable space group: P -1
;
_chemical_formula_sum "Si O2"
_cell_formula_units_Z 16
_cell_length_a 8.716467
_cell_length_b 15.109544
_cell_length_c 8.553093
_cell_angle_alpha 53.792145
_cell_angle_beta 122.083445
_cell_angle_gamma 123.394745
_cell_volume 722.494547
_symmetry_space_group_name_H-M "P -1"
_symmetry_group_IT_number 2
_symmetry_cell_setting 'triclinic'
loop_
_space_group_symop_operation_xyz
x,y,z
-x,-y,-z
loop_
_atom_site_type_symbol
_atom_site_label
_atom_site_fract_x
_atom_site_fract_y
_atom_site_fract_z
Si Si1 0.091135 0.264174 0.359714
Si Si2 0.119504 0.353294 0.927846
Si Si3 0.901088 0.430329 0.171367
Si Si4 0.225554 0.945975 0.706780
Si Si5 0.585077 0.952681 0.741845
Si Si6 0.212640 0.856799 0.124349
Si Si7 0.430544 0.203991 0.547896
Si Si8 0.475150 0.291042 0.145279
O O1 0.309123 0.269408 0.513864
O O2 0.019330 0.342380 0.362177
O O3 0.941165 0.131327 0.419720
O O4 0.086954 0.308313 0.134641
O O5 0.089612 0.479373 0.776010
O O6 0.966682 0.263283 0.823867
O O7 0.334496 0.366354 0.973081
O O8 0.675255 0.355638 0.095965
O O9 0.000000 0.500000 0.000000
O O10 0.417845 0.913330 0.822778
O O11 0.268281 0.080091 0.539773
O O12 0.173201 0.925376 0.882444
O O13 0.638384 0.838680 0.850058
O O14 0.500000 0.000000 0.500000
O O15 0.765116 0.059322 0.799833
O O16 0.401796 0.819422 0.238613
O O17 0.522532 0.277669 0.366695
#
# Coordination Sequence:
#
# PCOD8039561 Si02
#       8
#     2   2   2   2   2   2   2   2
#     4   9  18  32  58  85 109 152 198 231 274 343
#     4   9  21  37  56  83 114 152 191 241 284 330
#     4  10  20  38  60  83 110 146 200 245 280 333
#     4  10  18  34  56  86 122 151 184 236 286 334
#     4  11  19  33  59  87 119 150 188 233 284 349
#     4  10  21  37  57  86 124 153 184 232 292 334
#     4  10  19  33  56  86 118 150 187 228 288 348
#     4  11  20  35  61  86 111 150 197 235 282 342
#
# _framework density 22.145492999999998
#
# number of rings (size 3 to 8) (size 9 to 14) (size 15 to 20)
#    0.000    2.000    3.750    2.250    0.000    0.500 
#    0.000    1.250    8.250    0.000    0.000    0.000 
#    0.000    0.000    0.000    0.000    0.000    0.000 
#
# Total GULP energy -198258.581676 kJ/mol
# GULP energy per Si atom -12391.161355 kJ/mol
# Density = 2.209509 g / cm^3
# Si number density = 22.145493 Si / 1000 Ang^3
#
#
#
# Elastic Constant Matrix: (Units=GPa)
#
#
# Indices 1 2 3 4 5 6 
#
# 1 121.3484 52.5180 21.3894 -15.3274 24.6308 -8.5528
# 2 52.5180 118.2756 23.2507 -0.6994 4.0176 1.2553
# 3 21.3894 23.2507 43.5041 -1.0743 2.1983 1.2824
# 4 -15.3274 -0.6994 -1.0743 20.7132 -3.7217 0.0233
# 5 24.6308 4.0176 2.1983 -3.7217 26.7690 -4.7042
# 6 -8.5528 1.2553 1.2824 0.0233 -4.7042 33.8831
#
#
#
# Elastic Compliance Matrix: (Units=1/GPa)
#
#
# Indices 1 2 3 4 5 6 
#
# 1 0.014661 -0.005406 -0.003640 0.008544 -0.010746 0.002541
# 2 -0.005406 0.011471 -0.003663 -0.003285 0.002877 -0.001249
# 3 -0.003640 -0.003663 0.026688 -0.001206 0.001256 -0.001618
# 4 0.008544 -0.003285 -0.001206 0.054557 0.000735 0.002389
# 5 -0.010746 0.002877 0.001256 0.000735 0.047465 0.003723
# 6 0.002541 -0.001249 -0.001618 0.002389 0.003723 0.030777
#
#
# Mechanical properties :
#
#
# Convention : Reuss Voigt Hill
#
# Bulk Modulus (GPa) = 36.49201 53.04937 44.77069
# Shear Modulus (GPa) = 22.70948 28.67108 25.69028
#
# Velocity S-wave (km/s) = 3.20577 3.60205 3.40967
# Velocity P-wave (km/s) = 5.49697 6.42703 5.98011
#
# Compressibility (1/GPa) = 0.02740326
#
# Stress axis : x y z
#
# Youngs Moduli (GPa) = 68.20622 87.17379 37.46999
#
# Poissons Ratio (x) = 0.47126 0.13640
# Poissons Ratio (y) = 0.36872 0.13724
# Poissons Ratio (z) = 0.24829 0.31928
#
# Static dielectric constant tensor:
#      x y z
#    x 4.245850 -0.218110 0.159500 
#    y -0.218110 4.307960 -0.283370 
#    z 0.159500 -0.283370 3.430510 
# 
# 
# High freq. dielectric constant tensor:
#      x y z
#    x 1.877240 -0.001600 0.010810 
#    y -0.001600 1.866650 -0.023250 
#    z 0.010810 -0.023250 1.822710 
# 
# From -- ./inp_files/206077.got.cif
#   From: 2010.06.25/outbox.cif.g09.slc.cpg/sg2_104_cif.got.tgz:206077.got - 2010.06.27 13:26:56.
