data_PCOD8039007
_publ_section_title
;
Structure prediction by ZEFSAII (Michael W. Deem and Ramdas Pophale) SiO2 
 PCOD8039007
Probable space group: P -1
;
_chemical_formula_sum "Si O2"
_cell_formula_units_Z 12
_cell_length_a 7.635112
_cell_length_b 8.651464
_cell_length_c 13.226034
_cell_angle_alpha 58.229600
_cell_angle_beta 83.388537
_cell_angle_gamma 71.639304
_cell_volume 703.536566
_symmetry_space_group_name_H-M "P -1"
_symmetry_group_IT_number 2
_symmetry_cell_setting 'triclinic'
loop_
_space_group_symop_operation_xyz
x,y,z
-x,-y,-z
loop_
_atom_site_type_symbol
_atom_site_label
_atom_site_fract_x
_atom_site_fract_y
_atom_site_fract_z
Si Si1 0.827072 0.945728 0.323056
Si Si2 0.000242 0.137208 0.861097
Si Si3 0.356427 0.598976 0.296819
Si Si4 0.822838 0.295290 0.512365
Si Si5 0.579779 0.174192 0.417339
Si Si6 0.721439 0.681096 0.282890
O O1 0.700465 0.815559 0.337808
O O2 0.969422 0.832046 0.437789
O O3 0.942856 0.986832 0.204248
O O4 0.699418 0.136824 0.318037
O O5 0.151628 0.250425 0.831224
O O6 0.798417 0.289842 0.810459
O O7 0.000000 0.000000 0.000000
O O8 0.281638 0.617729 0.408613
O O9 0.422647 0.375014 0.342784
O O10 0.523900 0.691789 0.245293
O O11 0.833025 0.466633 0.380352
O O12 0.291848 0.824994 0.495121
O O13 0.500000 0.000000 0.500000
#
# Coordination Sequence:
#
# PCOD8039007 Si02
#       6
#     2   2   2   2   2   2
#     4   9  19  32  51  78 106 135 170 212 258 305
#     4   9  21  37  56  73  98 142 189 214 244 298
#     4  10  20  34  54  80 105 138 173 208 260 318
#     4  10  18  32  52  79 109 139 168 202 264 326
#     4  11  20  29  50  83 115 131 162 208 271 318
#     4   9  18  32  57  73 107 131 177 209 261 300
#
# _framework density 17.056683
#
# number of rings (size 3 to 8) (size 9 to 14) (size 15 to 20)
#    1.000    1.333    0.000    5.000    2.333    0.667 
#    0.000    0.833    0.000    4.000    0.000    0.000 
#    0.000    0.000    0.000    0.000    0.000    0.000 
#
# Total GULP energy -148707.582949 kJ/mol
# GULP energy per Si atom -12392.298579 kJ/mol
# Density = 1.701786 g / cm^3
# Si number density = 17.056683 Si / 1000 Ang^3
#
#
#
# Elastic Constant Matrix: (Units=GPa)
#
#
# Indices 1 2 3 4 5 6 
#
# 1 101.5376 40.2772 52.8108 -17.6082 -6.0382 -4.0724
# 2 40.2772 116.6743 42.2486 -12.3228 4.9433 -8.8241
# 3 52.8108 42.2486 103.4329 -9.4322 -11.3592 -7.3796
# 4 -17.6082 -12.3228 -9.4322 14.3177 -0.7097 -3.7779
# 5 -6.0382 4.9433 -11.3592 -0.7097 22.3045 -3.2059
# 6 -4.0724 -8.8241 -7.3796 -3.7779 -3.2059 26.5852
#
#
#
# Elastic Compliance Matrix: (Units=1/GPa)
#
#
# Indices 1 2 3 4 5 6 
#
# 1 0.016647 -0.001879 -0.005740 0.016002 0.002935 0.002961
# 2 -0.001879 0.011486 -0.003455 0.005852 -0.004212 0.002889
# 3 -0.005740 -0.003455 0.015167 0.001186 0.007441 0.003250
# 4 0.016002 0.005852 0.001186 0.101176 0.009773 0.020279
# 5 0.002935 -0.004212 0.007441 0.009773 0.051923 0.008767
# 6 0.002961 0.002889 0.003250 0.020279 0.008767 0.043869
#
#
# Mechanical properties :
#
#
# Convention : Reuss Voigt Hill
#
# Bulk Modulus (GPa) = 47.27405 65.81311 56.54358
# Shear Modulus (GPa) = 18.55528 25.06202 21.80865
#
# Velocity S-wave (km/s) = 3.30185 3.83735 3.57963
# Velocity P-wave (km/s) = 6.50479 7.63560 7.09277
#
# Compressibility (1/GPa) = 0.02115326
#
# Stress axis : x y z
#
# Youngs Moduli (GPa) = 60.06986 87.06578 65.93246
#
# Poissons Ratio (x) = 0.16358 0.37842
# Poissons Ratio (y) = 0.11286 0.22779
# Poissons Ratio (z) = 0.34477 0.30081
#
# Static dielectric constant tensor:
#      x y z
#    x 3.463960 -0.068100 0.073720 
#    y -0.068100 3.211840 -0.034430 
#    z 0.073720 -0.034430 2.801730 
# 
# 
# High freq. dielectric constant tensor:
#      x y z
#    x 1.670700 -0.004810 -0.000720 
#    y -0.004810 1.650850 -0.005770 
#    z -0.000720 -0.005770 1.620850 
# 
# From -- ./inp_files/311427.got.cif
#   From: 2010.06.25/outbox.cif.g09.slc.cpg/sg2_156_cif.got.tgz:311427.got - 2010.06.27 13:26:56.
