data_PCOD8039943
_publ_section_title
;
Structure prediction by ZEFSAII (Michael W. Deem and Ramdas Pophale) SiO2 
 PCOD8039943
Probable space group: P -1
;
_chemical_formula_sum "Si O2"
_cell_formula_units_Z 14
_cell_length_a 12.350569
_cell_length_b 9.151781
_cell_length_c 10.613641
_cell_angle_alpha 122.811482
_cell_angle_beta 46.508530
_cell_angle_gamma 125.783893
_cell_volume 685.928079
_symmetry_space_group_name_H-M "P -1"
_symmetry_group_IT_number 2
_symmetry_cell_setting 'triclinic'
loop_
_space_group_symop_operation_xyz
x,y,z
-x,-y,-z
loop_
_atom_site_type_symbol
_atom_site_label
_atom_site_fract_x
_atom_site_fract_y
_atom_site_fract_z
Si Si1 0.197974 0.510662 0.465742
Si Si2 0.065406 0.329481 0.235159
Si Si3 0.504796 0.194675 0.535726
Si Si4 0.222604 0.147781 0.373758
Si Si5 0.452095 0.655589 0.683957
Si Si6 0.992063 0.966286 0.277547
Si Si7 0.783002 0.665392 0.146975
O O1 0.169747 0.471378 0.321852
O O2 0.380138 0.641849 0.394388
O O3 0.164016 0.322451 0.483615
O O4 0.082545 0.611613 0.660995
O O5 0.997619 0.121648 0.244082
O O6 0.178520 0.341816 0.032599
O O7 0.572926 0.213341 0.345693
O O8 0.332090 0.214394 0.687640
O O9 0.500000 0.000000 0.500000
O O10 0.413154 0.220263 0.269151
O O11 0.162373 0.013765 0.236491
O O12 0.141154 0.039308 0.513773
O O13 0.500000 0.500000 0.500000
O O14 0.294380 0.546108 0.838898
O O15 0.941664 0.771441 0.151819
#
# Coordination Sequence:
#
# PCOD8039943 Si02
#       7
#     2   2   2   2   2   2   2
#     4  10  20  39  55  86 110 156 195 229 288 341
#     4  10  23  36  58  84 122 147 190 242 283 334
#     4  11  21  35  62  85 112 148 196 235 281 340
#     4  10  18  35  59  85 109 156 192 228 275 350
#     4  10  18  36  59  83 114 149 193 228 287 342
#     4  10  19  33  57  86 114 149 190 231 281 333
#     4  11  20  38  60  87 117 151 189 238 283 335
#
# _framework density 20.410304
#
# number of rings (size 3 to 8) (size 9 to 14) (size 15 to 20)
#    0.000    1.714    5.714    1.286    0.000    0.571 
#    0.000    4.286    0.000    0.857    0.000    0.000 
#    0.000    0.000    0.000    0.000    0.000    0.000 
#
# Total GULP energy -173562.305162 kJ/mol
# GULP energy per Si atom -12397.307512 kJ/mol
# Density = 2.036385 g / cm^3
# Si number density = 20.410304 Si / 1000 Ang^3
#
#
#
# Elastic Constant Matrix: (Units=GPa)
#
#
# Indices 1 2 3 4 5 6 
#
# 1 100.4773 55.9802 32.1221 -2.9676 25.5712 22.6776
# 2 55.9802 123.6303 52.1380 -31.4487 16.8104 11.2867
# 3 32.1221 52.1380 95.5245 -23.9415 18.1710 -3.8207
# 4 -2.9676 -31.4487 -23.9415 27.6450 -4.2121 13.7275
# 5 25.5712 16.8104 18.1710 -4.2121 18.0731 1.9439
# 6 22.6776 11.2867 -3.8207 13.7275 1.9439 48.8182
#
#
#
# Elastic Compliance Matrix: (Units=1/GPa)
#
#
# Indices 1 2 3 4 5 6 
#
# 1 0.021496 -0.007926 -0.000710 -0.008536 -0.023795 -0.004861
# 2 -0.007926 0.018787 -0.002833 0.022007 0.002489 -0.007171
# 3 -0.000710 -0.002833 0.016717 0.009475 -0.010967 0.000066
# 4 -0.008536 0.022007 0.009475 0.080501 0.003333 -0.023150
# 5 -0.023795 0.002489 -0.010967 0.003333 0.097971 0.004781
# 6 -0.004861 -0.007171 0.000066 -0.023150 0.004781 0.030725
#
#
# Mechanical properties :
#
#
# Convention : Reuss Voigt Hill
#
# Bulk Modulus (GPa) = 29.35868 66.67920 48.01894
# Shear Modulus (GPa) = 16.63957 30.86674 23.75315
#
# Velocity S-wave (km/s) = 2.85836 3.89306 3.41513
# Velocity P-wave (km/s) = 5.03082 7.27655 6.25529
#
# Compressibility (1/GPa) = 0.03406147
#
# Stress axis : x y z
#
# Youngs Moduli (GPa) = 46.51979 53.22886 59.81922
#
# Poissons Ratio (x) = 0.42191 0.04245
# Poissons Ratio (y) = 0.36873 0.16948
# Poissons Ratio (z) = 0.03302 0.15081
#
# Static dielectric constant tensor:
#      x y z
#    x 3.970510 0.200170 0.413310 
#    y 0.200170 4.025990 -0.183430 
#    z 0.413310 -0.183430 3.405160 
# 
# 
# High freq. dielectric constant tensor:
#      x y z
#    x 1.802830 0.016670 0.034130 
#    y 0.016670 1.809550 -0.021530 
#    z 0.034130 -0.021530 1.753750 
# 
# From -- ./inp_files/159848.got.cif
#   From: 2010.06.25/outbox.cif.g09.slc.cpg/sg2_80_cif.got.tgz:159848.got - 2010.06.27 13:26:56.
