data_PCOD8039571
_publ_section_title
;
Structure prediction by ZEFSAII (Michael W. Deem and Ramdas Pophale) SiO2 
 PCOD8039571
Probable space group: P -1
;
_chemical_formula_sum "Si O2"
_cell_formula_units_Z 14
_cell_length_a 9.309430
_cell_length_b 10.628005
_cell_length_c 8.610120
_cell_angle_alpha 119.367837
_cell_angle_beta 65.793088
_cell_angle_gamma 92.427555
_cell_volume 663.495052
_symmetry_space_group_name_H-M "P -1"
_symmetry_group_IT_number 2
_symmetry_cell_setting 'triclinic'
loop_
_space_group_symop_operation_xyz
x,y,z
-x,-y,-z
loop_
_atom_site_type_symbol
_atom_site_label
_atom_site_fract_x
_atom_site_fract_y
_atom_site_fract_z
Si Si1 0.467105 0.339693 0.439369
Si Si2 0.658472 0.042381 0.751784
Si Si3 0.898789 0.808512 0.997099
Si Si4 0.197097 0.847546 0.724963
Si Si5 0.656738 0.825432 0.880826
Si Si6 0.195492 0.237556 0.653965
Si Si7 0.912412 0.161668 0.580495
O O1 0.500000 0.500000 0.500000
O O2 0.619564 0.234367 0.385797
O O3 0.426575 0.278568 0.253124
O O4 0.310808 0.349623 0.625243
O O5 0.746516 0.180902 0.766336
O O6 0.718206 0.951102 0.827630
O O7 0.699742 0.928638 0.519271
O O8 0.469304 0.101522 0.887007
O O9 0.865426 0.732966 0.126191
O O10 0.816083 0.980377 0.139078
O O11 0.810030 0.736971 0.853651
O O12 0.088479 0.784219 0.863408
O O13 0.128009 0.818541 0.569823
O O14 0.032780 0.269398 0.639140
O O15 0.000000 0.000000 0.500000
#
# Coordination Sequence:
#
# PCOD8039571 Si02
#       7
#     2   2   2   2   2   2   2
#     4  11  26  46  60  80 119 175 217 242 284 357
#     4   9  17  32  57  91 121 157 182 243 317 357
#     4  11  21  34  62 104 124 144 193 254 331 358
#     4  11  22  35  65  93 128 157 191 248 312 368
#     4  10  21  35  58  84 129 155 199 250 303 354
#     4  10  21  36  62  91 130 154 196 250 304 369
#     4  10  18  34  56  93 128 151 184 241 314 369
#
# _framework density 21.100382
#
# number of rings (size 3 to 8) (size 9 to 14) (size 15 to 20)
#    0.000    1.714    2.857    5.143    6.000    1.143 
#    0.000    4.286    0.000    0.000    0.000    0.000 
#    0.000    0.000    0.000    0.000    0.000    0.000 
#
# Total GULP energy -173483.875631 kJ/mol
# GULP energy per Si atom -12391.705402 kJ/mol
# Density = 2.105236 g / cm^3
# Si number density = 21.100382 Si / 1000 Ang^3
#
#
#
# Elastic Constant Matrix: (Units=GPa)
#
#
# Indices 1 2 3 4 5 6 
#
# 1 123.6350 46.3568 39.9431 -16.9055 21.1579 19.7934
# 2 46.3568 86.3941 35.3381 -20.8247 -4.1350 32.2298
# 3 39.9431 35.3381 77.8761 -36.5230 5.3692 12.6016
# 4 -16.9055 -20.8247 -36.5230 33.3048 6.2488 -9.5701
# 5 21.1579 -4.1350 5.3692 6.2488 33.0583 -10.9579
# 6 19.7934 32.2298 12.6016 -9.5701 -10.9579 29.0370
#
#
#
# Elastic Compliance Matrix: (Units=1/GPa)
#
#
# Indices 1 2 3 4 5 6 
#
# 1 0.013848 -0.003313 -0.002328 0.002213 -0.012174 -0.008617
# 2 -0.003313 0.023984 -0.004088 0.002779 -0.002200 -0.022503
# 3 -0.002328 -0.004088 0.032764 0.033963 -0.011127 -0.001100
# 4 0.002213 0.002779 0.033963 0.073215 -0.021527 -0.003325
# 5 -0.012174 -0.002200 -0.011127 -0.021527 0.053093 0.028511
# 6 -0.008617 -0.022503 -0.001100 -0.003325 0.028511 0.075431
#
#
# Mechanical properties :
#
#
# Convention : Reuss Voigt Hill
#
# Bulk Modulus (GPa) = 19.55484 59.02013 39.28749
# Shear Modulus (GPa) = 16.18972 30.16451 23.17712
#
# Velocity S-wave (km/s) = 2.77297 3.78507 3.31784
# Velocity P-wave (km/s) = 4.42042 6.86543 5.77383
#
# Compressibility (1/GPa) = 0.05113823
#
# Stress axis : x y z
#
# Youngs Moduli (GPa) = 72.21234 41.69435 30.52173
#
# Poissons Ratio (x) = 0.13813 0.07105
# Poissons Ratio (y) = 0.23924 0.12477
# Poissons Ratio (z) = 0.16810 0.17044
#
# Static dielectric constant tensor:
#      x y z
#    x 4.285400 0.552650 -0.240460 
#    y 0.552650 3.559570 -0.552610 
#    z -0.240460 -0.552610 3.913800 
# 
# 
# High freq. dielectric constant tensor:
#      x y z
#    x 1.845450 0.030100 -0.000700 
#    y 0.030100 1.775850 -0.048520 
#    z -0.000700 -0.048520 1.812720 
# 
# From -- ./inp_files/172684.got.cif
#   From: 2010.06.25/outbox.cif.g09.slc.cpg/sg2_87_cif.got.tgz:172684.got - 2010.06.27 13:26:56.
