data_PCOD8039639
_publ_section_title
;
Structure prediction by ZEFSAII (Michael W. Deem and Ramdas Pophale) SiO2 
 PCOD8039639
Probable space group: P -1
;
_chemical_formula_sum "Si O2"
_cell_formula_units_Z 16
_cell_length_a 12.755516
_cell_length_b 8.727485
_cell_length_c 17.205667
_cell_angle_alpha 148.559039
_cell_angle_beta 124.142391
_cell_angle_gamma 60.183806
_cell_volume 826.158374
_symmetry_space_group_name_H-M "P -1"
_symmetry_group_IT_number 2
_symmetry_cell_setting 'triclinic'
loop_
_space_group_symop_operation_xyz
x,y,z
-x,-y,-z
loop_
_atom_site_type_symbol
_atom_site_label
_atom_site_fract_x
_atom_site_fract_y
_atom_site_fract_z
Si Si1 0.705411 0.445585 0.211469
Si Si2 0.168227 0.271528 0.192507
Si Si3 0.387206 0.322177 0.409160
Si Si4 0.476080 0.677415 0.144956
Si Si5 0.719674 0.752405 0.086138
Si Si6 0.388182 0.623213 0.695569
Si Si7 0.330308 0.205389 0.086451
Si Si8 0.117040 0.594426 0.869811
O O1 0.609552 0.708727 0.257352
O O2 0.710948 0.466075 0.316457
O O3 0.834749 0.477694 0.229832
O O4 0.643023 0.137420 0.029938
O O5 0.248724 0.412456 0.356474
O O6 0.241506 0.351365 0.178685
O O7 0.032691 0.443376 0.208837
O O8 0.151992 0.924304 0.049274
O O9 0.500000 0.500000 0.500000
O O10 0.383362 0.363134 0.517970
O O11 0.412191 0.996179 0.245823
O O12 0.500000 0.500000 0.000000
O O13 0.383618 0.487445 0.074102
O O14 0.826022 0.631243 0.138697
O O15 0.661549 0.066717 0.229145
O O16 0.756289 0.786376 0.024913
O O17 0.532362 0.648724 0.798155
#
# Coordination Sequence:
#
# PCOD8039639 Si02
#       8
#     2   2   2   2   2   2   2   2
#     4  10  19  34  58  85 113 152 193 236 279 340
#     4  10  21  39  55  83 118 151 196 239 279 339
#     4  12  24  36  58  88 121 149 184 245 301 328
#     4  12  19  33  60  87 112 146 198 232 277 348
#     4  11  19  34  62  87 110 153 196 235 278 344
#     4  11  21  35  56  90 121 145 182 247 300 324
#     4  10  18  34  58  88 119 145 187 245 291 326
#     4  10  21  36  62  82 108 159 203 230 271 342
#
# _framework density 19.366747
#
# number of rings (size 3 to 8) (size 9 to 14) (size 15 to 20)
#    0.000    1.250    6.250    2.250    0.000    1.000 
#    0.000    1.250    0.000    0.000    0.000    0.000 
#    0.000    0.000    0.000    0.000    0.000    0.000 
#
# Total GULP energy -198226.107031 kJ/mol
# GULP energy per Si atom -12389.131689 kJ/mol
# Density = 1.932267 g / cm^3
# Si number density = 19.366747 Si / 1000 Ang^3
#
#
#
# Elastic Constant Matrix: (Units=GPa)
#
#
# Indices 1 2 3 4 5 6 
#
# 1 115.6575 58.9400 33.1272 -17.8305 -14.9930 -10.5449
# 2 58.9400 118.6773 34.7951 -9.8949 -7.4541 -8.5819
# 3 33.1272 34.7951 74.6710 -15.0158 -17.5589 -0.9559
# 4 -17.8305 -9.8949 -15.0158 27.2740 4.2925 -2.0416
# 5 -14.9930 -7.4541 -17.5589 4.2925 27.0523 -7.2850
# 6 -10.5449 -8.5819 -0.9559 -2.0416 -7.2850 29.7896
#
#
#
# Elastic Compliance Matrix: (Units=1/GPa)
#
#
# Indices 1 2 3 4 5 6 
#
# 1 0.013817 -0.005325 -0.000957 0.006017 0.006018 0.005210
# 2 -0.005325 0.012087 -0.003831 -0.000862 -0.001701 0.000999
# 3 -0.000957 -0.003831 0.019581 0.007270 0.010582 0.002272
# 4 0.006017 -0.000862 0.007270 0.044352 0.002319 0.005721
# 5 0.006018 -0.001701 0.010582 0.002319 0.050215 0.014418
# 6 0.005210 0.000999 0.002272 0.005721 0.014418 0.039692
#
#
# Mechanical properties :
#
#
# Convention : Reuss Voigt Hill
#
# Bulk Modulus (GPa) = 39.58790 62.52561 51.05675
# Shear Modulus (GPa) = 23.99366 28.96607 26.47986
#
# Velocity S-wave (km/s) = 3.52363 3.87157 3.70169
# Velocity P-wave (km/s) = 6.08607 7.23468 6.68509
#
# Compressibility (1/GPa) = 0.02526024
#
# Stress axis : x y z
#
# Youngs Moduli (GPa) = 72.37680 82.73019 51.07012
#
# Poissons Ratio (x) = 0.44054 0.04885
# Poissons Ratio (y) = 0.38541 0.19564
# Poissons Ratio (z) = 0.06923 0.31692
#
# Static dielectric constant tensor:
#      x y z
#    x 3.559830 0.107820 -0.340600 
#    y 0.107820 3.556090 -0.034850 
#    z -0.340600 -0.034850 2.836830 
# 
# 
# High freq. dielectric constant tensor:
#      x y z
#    x 1.749020 0.011480 -0.016730 
#    y 0.011480 1.755720 -0.001760 
#    z -0.016730 -0.001760 1.721130 
# 
# From -- ./inp_files/180092.got.cif
#   From: 2010.06.25/outbox.cif.g09.slc.cpg/sg2_91_cif.got.tgz:180092.got - 2010.06.27 13:26:56.
