data_PCOD8039508
_publ_section_title
;
Structure prediction by ZEFSAII (Michael W. Deem and Ramdas Pophale) SiO2 
 PCOD8039508
Probable space group: P -1
;
_chemical_formula_sum "Si O2"
_cell_formula_units_Z 16
_cell_length_a 26.609217
_cell_length_b 23.754947
_cell_length_c 11.433410
_cell_angle_alpha 44.937294
_cell_angle_beta 134.063574
_cell_angle_gamma 170.621573
_cell_volume 831.559935
_symmetry_space_group_name_H-M "P -1"
_symmetry_group_IT_number 2
_symmetry_cell_setting 'triclinic'
loop_
_space_group_symop_operation_xyz
x,y,z
-x,-y,-z
loop_
_atom_site_type_symbol
_atom_site_label
_atom_site_fract_x
_atom_site_fract_y
_atom_site_fract_z
Si Si1 0.406348 0.128155 0.202422
Si Si2 0.591143 0.866518 0.397071
Si Si3 0.146548 0.088811 0.042730
Si Si4 0.840953 0.609319 0.398185
Si Si5 0.982794 0.805879 0.993461
Si Si6 0.107686 0.737110 0.083476
Si Si7 0.224991 0.750041 0.886845
Si Si8 0.306125 0.573512 0.129257
O O1 0.562574 0.266209 0.369614
O O2 0.154268 0.793306 0.218959
O O3 0.672602 0.426327 0.100274
O O4 0.267366 0.061492 0.103944
O O5 0.337965 0.553299 0.540565
O O6 0.451388 0.689230 0.305074
O O7 0.640497 0.015086 0.273359
O O8 0.927850 0.202539 0.464031
O O9 0.500000 0.500000 0.000000
O O10 0.050086 0.905643 0.232967
O O11 0.044650 0.959154 0.933083
O O12 0.000000 0.000000 0.000000
O O13 0.908403 0.727828 0.848537
O O14 0.937690 0.466163 0.174681
O O15 0.909773 0.593683 0.931726
O O16 0.424258 0.088799 0.007316
O O17 0.000000 0.500000 0.000000
O O18 0.500000 0.000000 0.000000
#
# Coordination Sequence:
#
# PCOD8039508 Si02
#       8
#     2   2   2   2   2   2   2   2
#     4   9  18  34  55  75 112 146 185 235 270 321
#     4  12  22  35  56  81 120 153 181 229 285 331
#     4  11  21  38  64  86 108 139 183 233 277 331
#     4  11  23  38  54  85 115 146 183 223 287 351
#     4   9  18  33  57  86 106 136 188 233 266 322
#     4  10  18  34  54  80 105 146 201 243 262 303
#     4  12  21  35  54  82 115 148 199 238 269 312
#     4  10  19  33  56  81 110 147 190 231 269 317
#
# _framework density 19.240946999999998
#
# number of rings (size 3 to 8) (size 9 to 14) (size 15 to 20)
#    0.000    1.500    2.500    5.250    0.000    0.000 
#    0.000    1.250    0.000    4.500    0.000    0.000 
#    0.000    0.000    0.000    0.000    0.000    0.000 
#
# Total GULP energy -198215.556122 kJ/mol
# GULP energy per Si atom -12388.472258 kJ/mol
# Density = 1.919715 g / cm^3
# Si number density = 19.240947 Si / 1000 Ang^3
#
#
#
# Elastic Constant Matrix: (Units=GPa)
#
#
# Indices 1 2 3 4 5 6 
#
# 1 138.2222 59.6841 29.8479 16.0299 -4.4004 -25.1630
# 2 59.6841 108.7167 33.6634 21.2034 -4.5812 -8.6803
# 3 29.8479 33.6634 62.7868 23.1129 -14.6209 -14.3920
# 4 16.0299 21.2034 23.1129 44.0144 -2.6768 -4.4257
# 5 -4.4004 -4.5812 -14.6209 -2.6768 31.3409 5.7048
# 6 -25.1630 -8.6803 -14.3920 -4.4257 5.7048 53.8262
#
#
#
# Elastic Compliance Matrix: (Units=1/GPa)
#
#
# Indices 1 2 3 4 5 6 
#
# 1 0.010360 -0.004899 -0.001494 -0.000296 -0.000657 0.003699
# 2 -0.004899 0.013655 -0.004544 -0.002599 -0.000773 -0.001435
# 3 -0.001494 -0.004544 0.025779 -0.009852 0.009650 0.003629
# 4 -0.000296 -0.002599 -0.009852 0.029050 -0.002437 -0.000545
# 5 -0.000657 -0.000773 0.009650 -0.002437 0.036342 -0.001904
# 6 0.003699 -0.001435 0.003629 -0.000545 -0.001904 0.021203
#
#
# Mechanical properties :
#
#
# Convention : Reuss Voigt Hill
#
# Bulk Modulus (GPa) = 35.81884 61.79071 48.80477
# Shear Modulus (GPa) = 29.83813 38.27166 34.05490
#
# Velocity S-wave (km/s) = 3.94224 4.46474 4.21160
# Velocity P-wave (km/s) = 6.27519 7.66567 7.00502
#
# Compressibility (1/GPa) = 0.02791827
#
# Stress axis : x y z
#
# Youngs Moduli (GPa) = 96.52838 73.23531 38.79060
#
# Poissons Ratio (x) = 0.35880 0.05796
# Poissons Ratio (y) = 0.47292 0.17627
# Poissons Ratio (z) = 0.14424 0.33280
#
# Static dielectric constant tensor:
#      x y z
#    x 3.817120 -0.106290 -0.275260 
#    y -0.106290 3.800210 0.264910 
#    z -0.275260 0.264910 3.128970 
# 
# 
# High freq. dielectric constant tensor:
#      x y z
#    x 1.772340 0.007120 -0.017430 
#    y 0.007120 1.771600 0.023960 
#    z -0.017430 0.023960 1.691540 
# 
# From -- ./inp_files/477120.got.cif
#   From: 2010.06.25/outbox.cif.g09.slc.cpg/sg2_239_cif.got.tgz:477120.got - 2010.06.27 13:26:56.
