data_PCOD8039997
_publ_section_title
;
Structure prediction by ZEFSAII (Michael W. Deem and Ramdas Pophale) SiO2 
 PCOD8039997
Probable space group: P -1
;
_chemical_formula_sum "Si O2"
_cell_formula_units_Z 16
_cell_length_a 11.624218
_cell_length_b 14.372370
_cell_length_c 12.337686
_cell_angle_alpha 31.781004
_cell_angle_beta 89.058896
_cell_angle_gamma 110.647762
_cell_volume 779.260896
_symmetry_space_group_name_H-M "P -1"
_symmetry_group_IT_number 2
_symmetry_cell_setting 'triclinic'
loop_
_space_group_symop_operation_xyz
x,y,z
-x,-y,-z
loop_
_atom_site_type_symbol
_atom_site_label
_atom_site_fract_x
_atom_site_fract_y
_atom_site_fract_z
Si Si1 0.929390 0.729272 0.266819
Si Si2 0.941889 0.719847 0.508178
Si Si3 0.934786 0.447204 0.172207
Si Si4 0.431313 0.611129 0.152016
Si Si5 0.924953 0.751679 0.011655
Si Si6 0.441592 0.952514 0.425851
Si Si7 0.542988 0.352714 0.419406
Si Si8 0.447246 0.741532 0.253563
O O1 0.998112 0.713753 0.391848
O O2 0.982054 0.718768 0.157322
O O3 0.739611 0.502797 0.500397
O O4 0.000000 0.000000 0.000000
O O5 0.751663 0.526232 0.706920
O O6 0.007586 0.657384 0.656858
O O7 0.004596 0.981204 0.275514
O O8 0.995944 0.697375 0.973580
O O9 0.746835 0.257895 0.362223
O O10 0.000000 0.500000 0.000000
O O11 0.457922 0.436420 0.291252
O O12 0.515443 0.733426 0.147836
O O13 0.513486 0.812013 0.858226
O O14 0.734062 0.570147 0.194346
O O15 0.515685 0.874661 0.427946
O O16 0.500000 0.000000 0.500000
O O17 0.479876 0.265242 0.631237
O O18 0.500000 0.000000 0.000000
#
# Coordination Sequence:
#
# PCOD8039997 Si02
#       8
#     2   2   2   2   2   2   2   2
#     4   8  17  35  59  87 124 158 195 242 298 368
#     4  10  21  38  60  90 122 154 196 241 298 364
#     4  11  24  41  62  84 114 160 203 250 302 352
#     4  11  22  37  63  93 124 159 196 249 307 365
#     4   9  20  40  61  85 119 156 200 240 296 359
#     4  11  24  42  62  87 120 156 208 261 300 359
#     4  10  21  39  63  89 122 161 200 246 305 365
#     4  10  18  35  60  94 128 160 200 250 306 368
#
# _framework density 20.532276
#
# number of rings (size 3 to 8) (size 9 to 14) (size 15 to 20)
#    0.000    2.000    1.250    1.875    0.000    3.500 
#    0.000    1.250    0.000    0.000    0.000    0.000 
#    0.000    0.000    0.000    0.000    0.000    0.000 
#
# Total GULP energy -198223.017783 kJ/mol
# GULP energy per Si atom -12388.938611 kJ/mol
# Density = 2.048554 g / cm^3
# Si number density = 20.532276 Si / 1000 Ang^3
#
#
#
# Elastic Constant Matrix: (Units=GPa)
#
#
# Indices 1 2 3 4 5 6 
#
# 1 232.2826 -114.6161 -229.3377 -89.4903 30.1625 209.9316
# 2 -114.6161 336.2474 321.7988 144.5547 8.3840 -242.7087
# 3 -229.3377 321.7988 508.6151 178.9530 4.5874 -359.3211
# 4 -89.4903 144.5547 178.9530 113.3891 -0.4056 -147.4751
# 5 30.1625 8.3840 4.5874 -0.4056 31.5174 14.8481
# 6 209.9316 -242.7087 -359.3211 -147.4751 14.8481 331.8910
#
#
#
# Elastic Compliance Matrix: (Units=1/GPa)
#
#
# Indices 1 2 3 4 5 6 
#
# 1 0.013527 -0.003869 0.003487 0.001703 -0.009370 -0.006435
# 2 -0.003869 0.010105 -0.004163 -0.005799 0.000254 0.002742
# 3 0.003487 -0.004163 0.011929 -0.000914 -0.007557 0.007597
# 4 0.001703 -0.005799 -0.000914 0.025848 -0.002106 0.005273
# 5 -0.009370 0.000254 -0.007557 -0.002106 0.044044 -0.004974
# 6 -0.006435 0.002742 0.007597 0.005273 -0.004974 0.019880
#
#
# Mechanical properties :
#
#
# Convention : Reuss Voigt Hill
#
# Bulk Modulus (GPa) = 37.77889 114.75945 76.26917
# Shear Modulus (GPa) = 34.90447 168.64617 101.77532
#
# Velocity S-wave (km/s) = 4.12756 9.07278 7.04812
# Velocity P-wave (km/s) = 6.41524 12.87507 10.17160
#
# Compressibility (1/GPa) = 0.02646981
#
# Stress axis : x y z
#
# Youngs Moduli (GPa) = 73.92539 98.96035 83.82976
#
# Poissons Ratio (x) = 0.38292 -0.29228
# Poissons Ratio (y) = 0.28605 0.34897
# Poissons Ratio (z) = -0.25775 0.41195
#
# Static dielectric constant tensor:
#      x y z
#    x 3.486830 -0.198680 0.024630 
#    y -0.198680 4.396980 0.041020 
#    z 0.024630 0.041020 3.901790 
# 
# 
# High freq. dielectric constant tensor:
#      x y z
#    x 1.773520 -0.003340 0.004590 
#    y -0.003340 1.818360 -0.000110 
#    z 0.004590 -0.000110 1.819440 
# 
# From -- ./inp_files/418620.got.cif
#   From: 2010.06.25/outbox.cif.g09.slc.cpg/sg2_210_cif.got.tgz:418620.got - 2010.06.27 13:26:56.
