data_PCOD8039853
_publ_section_title
;
Structure prediction by ZEFSAII (Michael W. Deem and Ramdas Pophale) SiO2 
 PCOD8039853
Probable space group: P -1
;
_chemical_formula_sum "Si O2"
_cell_formula_units_Z 14
_cell_length_a 5.245907
_cell_length_b 9.098701
_cell_length_c 19.175111
_cell_angle_alpha 50.780387
_cell_angle_beta 76.266054
_cell_angle_gamma 99.808080
_cell_volume 623.225371
_symmetry_space_group_name_H-M "P -1"
_symmetry_group_IT_number 2
_symmetry_cell_setting 'triclinic'
loop_
_space_group_symop_operation_xyz
x,y,z
-x,-y,-z
loop_
_atom_site_type_symbol
_atom_site_label
_atom_site_fract_x
_atom_site_fract_y
_atom_site_fract_z
Si Si1 0.456343 0.547874 0.107948
Si Si2 0.313110 0.222871 0.844382
Si Si3 0.724889 0.200108 0.386511
Si Si4 0.276880 0.150099 0.314366
Si Si5 0.914824 0.239492 0.976676
Si Si6 0.634605 0.532772 0.368569
Si Si7 0.089460 0.312293 0.554847
O O1 0.434653 0.635438 0.160756
O O2 0.253853 0.612100 0.052063
O O3 0.790747 0.652840 0.028138
O O4 0.345641 0.296493 0.196918
O O5 0.396507 0.321133 0.733341
O O6 0.008196 0.213130 0.898461
O O7 0.292689 0.988197 0.911368
O O8 0.814180 0.407233 0.366312
O O9 0.500000 0.000000 0.500000
O O10 0.013524 0.169559 0.365467
O O11 0.571316 0.231828 0.316476
O O12 0.184824 0.909279 0.371820
O O13 0.327065 0.350718 0.467917
O O14 0.785792 0.687560 0.376298
O O15 0.000000 0.500000 0.500000
#
# Coordination Sequence:
#
# PCOD8039853 Si02
#       7
#     2   2   2   2   2   2   2
#     4  10  18  35  56  92 119 152 197 254 313 361
#     4   9  19  33  60  89 122 159 200 255 317 366
#     4  12  23  39  64  92 121 160 216 268 307 358
#     4  12  24  40  66  92 125 166 209 263 318 367
#     4   9  19  34  58  94 126 147 195 270 314 364
#     4  11  23  43  60  92 128 169 214 256 311 382
#     4  11  27  43  59  88 134 177 209 254 312 384
#
# _framework density 22.463787
#
# number of rings (size 3 to 8) (size 9 to 14) (size 15 to 20)
#    0.857    0.571    2.857    3.429    4.000    1.143 
#    0.000    0.000    0.000    1.714    0.000    0.000 
#    0.000    0.000    0.000    0.000    0.000    0.000 
#
# Total GULP energy -173531.646576 kJ/mol
# GULP energy per Si atom -12395.117613 kJ/mol
# Density = 2.241266 g / cm^3
# Si number density = 22.463787 Si / 1000 Ang^3
#
#
#
# Elastic Constant Matrix: (Units=GPa)
#
#
# Indices 1 2 3 4 5 6 
#
# 1 97.6888 19.0790 1.1844 -4.0052 14.9043 -6.0289
# 2 19.0790 76.0924 41.0788 -20.2025 -2.2408 -9.9949
# 3 1.1844 41.0788 74.7970 -20.4852 15.0923 3.0909
# 4 -4.0052 -20.2025 -20.4852 35.3688 -1.9505 8.5154
# 5 14.9043 -2.2408 15.0923 -1.9505 24.5278 -11.4925
# 6 -6.0289 -9.9949 3.0909 8.5154 -11.4925 22.3846
#
#
#
# Elastic Compliance Matrix: (Units=1/GPa)
#
#
# Indices 1 2 3 4 5 6 
#
# 1 0.018577 -0.019918 0.022866 0.009355 -0.041350 -0.031836
# 2 -0.019918 0.057834 -0.057405 -0.016958 0.089121 0.080592
# 3 0.022866 -0.057405 0.081842 0.035770 -0.115147 -0.103499
# 4 0.009355 -0.016958 0.035770 0.050948 -0.051294 -0.055707
# 5 -0.041350 0.089121 -0.115147 -0.051294 0.224941 0.179555
# 6 -0.031836 0.080592 -0.103499 -0.055707 0.179555 0.199752
#
#
# Mechanical properties :
#
#
# Convention : Reuss Voigt Hill
#
# Bulk Modulus (GPa) = 20.26745 41.25142 30.75943
# Shear Modulus (GPa) = 6.58541 28.93865 17.76203
#
# Velocity S-wave (km/s) = 1.71404 3.59309 2.81498
# Velocity P-wave (km/s) = 3.59988 5.96801 4.92830
#
# Compressibility (1/GPa) = 0.04934019
#
# Stress axis : x y z
#
# Youngs Moduli (GPa) = 53.82999 17.29079 12.21869
#
# Poissons Ratio (x) = 0.34440 -0.27939
# Poissons Ratio (y) = 1.07218 0.70141
# Poissons Ratio (z) = -1.23088 0.99257
#
# Static dielectric constant tensor:
#      x y z
#    x 4.050290 0.096100 0.045590 
#    y 0.096100 3.931610 -0.231380 
#    z 0.045590 -0.231380 3.955640 
# 
# 
# High freq. dielectric constant tensor:
#      x y z
#    x 1.879620 -0.000540 0.007920 
#    y -0.000540 1.858050 -0.030010 
#    z 0.007920 -0.030010 1.880770 
# 
# From -- ./inp_files/546982.got.cif
#   From: 2010.06.25/outbox.cif.g09.slc.cpg/sg2_274_cif.got.tgz:546982.got - 2010.06.27 13:26:56.
