data_PCOD8039903
_publ_section_title
;
Structure prediction by ZEFSAII (Michael W. Deem and Ramdas Pophale) SiO2 
 PCOD8039903
Probable space group: P -1
;
_chemical_formula_sum "Si O2"
_cell_formula_units_Z 16
_cell_length_a 19.637321
_cell_length_b 12.147464
_cell_length_c 8.004836
_cell_angle_alpha 132.365536
_cell_angle_beta 30.426730
_cell_angle_gamma 129.953010
_cell_volume 704.916944
_symmetry_space_group_name_H-M "P -1"
_symmetry_group_IT_number 2
_symmetry_cell_setting 'triclinic'
loop_
_space_group_symop_operation_xyz
x,y,z
-x,-y,-z
loop_
_atom_site_type_symbol
_atom_site_label
_atom_site_fract_x
_atom_site_fract_y
_atom_site_fract_z
Si Si1 0.847934 0.604016 0.795234
Si Si2 0.476323 0.174552 0.909711
Si Si3 0.355397 0.401666 0.241246
Si Si4 0.685436 0.813824 0.198696
Si Si5 0.152221 0.568805 0.708530
Si Si6 0.844431 0.325801 0.725663
Si Si7 0.596732 0.160383 0.272116
Si Si8 0.243174 0.836963 0.587131
O O1 0.798032 0.496573 0.635427
O O2 0.825672 0.498381 0.898640
O O3 0.006983 0.674887 0.510435
O O4 0.755174 0.737109 0.127531
O O5 0.550349 0.191230 0.588383
O O6 0.600917 0.194908 0.797681
O O7 0.381818 0.013265 0.967930
O O8 0.380227 0.304953 0.257329
O O9 0.246584 0.517454 0.606328
O O10 0.500000 0.500000 0.000000
O O11 0.295270 0.276704 0.103458
O O12 0.523943 0.808779 0.568102
O O13 0.759652 0.986548 0.196596
O O14 0.173108 0.748994 0.811034
O O15 0.000000 0.500000 0.000000
O O16 0.834638 0.218276 0.474481
O O17 0.737173 0.264193 0.032423
#
# Coordination Sequence:
#
# PCOD8039903 Si02
#       8
#     2   2   2   2   2   2   2   2
#     4   9  21  40  55  81 117 150 192 234 279 337
#     4   9  18  34  58  86 115 140 186 236 281 329
#     4  10  18  35  58  83 114 149 182 231 284 336
#     4   9  20  36  57  84 115 145 187 237 283 331
#     4  10  21  36  58  85 113 150 192 233 281 336
#     4  10  21  37  61  79 111 159 189 230 281 336
#     4   9  19  35  60  85 111 149 186 229 284 336
#     4  10  20  37  59  81 119 150 183 236 288 326
#
# _framework density 22.697709
#
# number of rings (size 3 to 8) (size 9 to 14) (size 15 to 20)
#    0.000    2.500    1.250    0.750    1.750    3.000 
#    2.250    1.250   13.750    0.000    0.000    0.000 
#    0.000    0.000    0.000    0.000    0.000    0.000 
#
# Total GULP energy -198240.400477 kJ/mol
# GULP energy per Si atom -12390.025030 kJ/mol
# Density = 2.264605 g / cm^3
# Si number density = 22.697709 Si / 1000 Ang^3
#
#
#
# Elastic Constant Matrix: (Units=GPa)
#
#
# Indices 1 2 3 4 5 6 
#
# 1 66.2489 35.0726 16.3952 10.7873 -24.7863 -6.4361
# 2 35.0726 158.1980 47.7882 -1.8988 -15.8329 -5.3947
# 3 16.3952 47.7882 50.5785 -9.8675 -25.1446 -15.1421
# 4 10.7873 -1.8988 -9.8675 40.2320 -2.8220 -3.8967
# 5 -24.7863 -15.8329 -25.1446 -2.8220 37.5987 3.8918
# 6 -6.4361 -5.3947 -15.1421 -3.8967 3.8918 34.1496
#
#
#
# Elastic Compliance Matrix: (Units=1/GPa)
#
#
# Indices 1 2 3 4 5 6 
#
# 1 0.023651 -0.005381 0.006386 -0.003444 0.016912 0.004119
# 2 -0.005381 0.010995 -0.015118 -0.002871 -0.008692 -0.005317
# 3 0.006386 -0.015118 0.061194 0.017514 0.037634 0.023659
# 4 -0.003444 -0.002871 0.017514 0.031503 0.009650 0.009158
# 5 0.016912 -0.008692 0.037634 0.009650 0.058640 0.012919
# 6 0.004119 -0.005317 0.023659 0.009158 0.012919 0.039282
#
#
# Mechanical properties :
#
#
# Convention : Reuss Voigt Hill
#
# Bulk Modulus (GPa) = 14.78963 52.61528 33.70245
# Shear Modulus (GPa) = 18.11408 34.11404 26.11406
#
# Velocity S-wave (km/s) = 2.82806 3.88102 3.39560
# Velocity P-wave (km/s) = 4.14656 6.58136 5.50038
#
# Compressibility (1/GPa) = 0.06761496
#
# Stress axis : x y z
#
# Youngs Moduli (GPa) = 42.28141 90.94958 16.34155
#
# Poissons Ratio (x) = 0.48939 -0.10436
# Poissons Ratio (y) = 0.22751 0.24705
# Poissons Ratio (z) = -0.27001 1.37494
#
# Static dielectric constant tensor:
#      x y z
#    x 4.513860 -0.259060 -0.466190 
#    y -0.259060 4.564590 0.316740 
#    z -0.466190 0.316740 3.681710 
# 
# 
# High freq. dielectric constant tensor:
#      x y z
#    x 1.901030 0.002830 -0.026510 
#    y 0.002830 1.916790 0.009760 
#    z -0.026510 0.009760 1.841460 
# 
# From -- ./inp_files/346321.got.cif
#   From: 2010.06.25/outbox.cif.g09.slc.cpg/sg2_174_cif.got.tgz:346321.got - 2010.06.27 13:26:56.
