data_PCOD8039334
_publ_section_title
;
Structure prediction by ZEFSAII (Michael W. Deem and Ramdas Pophale) SiO2 
 PCOD8039334
Probable space group: P -1
;
_chemical_formula_sum "Si O2"
_cell_formula_units_Z 14
_cell_length_a 9.038433
_cell_length_b 14.618297
_cell_length_c 22.109362
_cell_angle_alpha 20.433151
_cell_angle_beta 41.931497
_cell_angle_gamma 41.631621
_cell_volume 665.475668
_symmetry_space_group_name_H-M "P -1"
_symmetry_group_IT_number 2
_symmetry_cell_setting 'triclinic'
loop_
_space_group_symop_operation_xyz
x,y,z
-x,-y,-z
loop_
_atom_site_type_symbol
_atom_site_label
_atom_site_fract_x
_atom_site_fract_y
_atom_site_fract_z
Si Si1 0.293323 0.576320 0.150057
Si Si2 0.297655 0.213450 0.063742
Si Si3 0.019126 0.733324 0.766254
Si Si4 0.916386 0.114628 0.750834
Si Si5 0.413528 0.992705 0.464002
Si Si6 0.180876 0.458567 0.388279
Si Si7 0.768822 0.386698 0.982117
O O1 0.154532 0.511483 0.291029
O O2 0.154692 0.710645 0.050097
O O3 0.418245 0.293485 0.253841
O O4 0.449361 0.777242 0.999298
O O5 0.167767 0.128055 0.214110
O O6 0.196105 0.510728 0.886808
O O7 0.288180 0.001574 0.144421
O O8 0.157154 0.946037 0.566632
O O9 0.896540 0.619599 0.818641
O O10 0.973883 0.330702 0.552091
O O11 0.826023 0.259272 0.751230
O O12 0.137844 0.874240 0.842625
O O13 0.587652 0.744749 0.533748
O O14 0.500000 0.000000 0.500000
O O15 0.500000 0.500000 0.000000
#
# Coordination Sequence:
#
# PCOD8039334 Si02
#       7
#     2   2   2   2   2   2   2
#     4  11  21  35  62  88 119 147 190 244 294 325
#     4  10  18  33  57  87 109 151 195 238 277 346
#     4  10  19  32  57  86 117 148 190 232 296 335
#     4  10  23  39  61  80 117 157 201 228 294 345
#     4  10  18  34  57  89 112 142 193 245 275 337
#     4  10  21  39  60  84 113 158 194 244 278 341
#     4  11  22  38  57  91 120 151 186 244 293 346
#
# _framework density 21.037583999999999
#
# number of rings (size 3 to 8) (size 9 to 14) (size 15 to 20)
#    0.000    1.714    4.286    2.571    2.000    1.714 
#    0.000    0.000    0.000    1.714    0.000    0.000 
#    0.000    0.000    0.000    0.000    0.000    0.000 
#
# Total GULP energy -173449.249233 kJ/mol
# GULP energy per Si atom -12389.232088 kJ/mol
# Density = 2.098970 g / cm^3
# Si number density = 21.037584 Si / 1000 Ang^3
#
#
#
# Elastic Constant Matrix: (Units=GPa)
#
#
# Indices 1 2 3 4 5 6 
#
# 1 120.5450 19.6932 37.2697 0.8448 -24.2042 21.8816
# 2 19.6932 64.6588 21.2815 -9.3146 -9.4277 17.5683
# 3 37.2697 21.2815 81.2283 -4.7283 -26.2358 8.3628
# 4 0.8448 -9.3146 -4.7283 29.0631 7.8986 -1.0802
# 5 -24.2042 -9.4277 -26.2358 7.8986 32.6644 5.7116
# 6 21.8816 17.5683 8.3628 -1.0802 5.7116 31.3620
#
#
#
# Elastic Compliance Matrix: (Units=1/GPa)
#
#
# Indices 1 2 3 4 5 6 
#
# 1 0.013073 0.000729 -0.001480 -0.003980 0.011663 -0.011396
# 2 0.000729 0.020879 -0.002403 0.004242 0.005791 -0.012473
# 3 -0.001480 -0.002403 0.018819 -0.001865 0.014717 -0.005383
# 4 -0.003980 0.004242 -0.001865 0.039449 -0.013590 0.004732
# 5 0.011663 0.005791 0.014717 -0.013590 0.060727 -0.026834
# 6 -0.011396 -0.012473 -0.005383 0.004732 -0.026834 0.053309
#
#
# Mechanical properties :
#
#
# Convention : Reuss Voigt Hill
#
# Bulk Modulus (GPa) = 21.52315 46.99118 34.25716
# Shear Modulus (GPa) = 21.92487 31.16377 26.54432
#
# Velocity S-wave (km/s) = 3.23178 3.85299 3.55598
# Velocity P-wave (km/s) = 4.91720 6.49456 5.76013
#
# Compressibility (1/GPa) = 0.04646161
#
# Stress axis : x y z
#
# Youngs Moduli (GPa) = 76.49589 47.89485 53.13792
#
# Poissons Ratio (x) = -0.03493 0.07867
# Poissons Ratio (y) = -0.05578 0.12770
# Poissons Ratio (z) = 0.11325 0.11510
#
# Static dielectric constant tensor:
#      x y z
#    x 4.164600 -0.060540 0.508650 
#    y -0.060540 3.945580 -0.494670 
#    z 0.508650 -0.494670 4.194880 
# 
# 
# High freq. dielectric constant tensor:
#      x y z
#    x 1.814570 0.026840 -0.013720 
#    y 0.026840 1.794790 0.008390 
#    z -0.013720 0.008390 1.826720 
# 
# From -- ./inp_files/174803.got.cif
#   From: 2010.06.25/outbox.cif.g09.slc.cpg/sg2_88_cif.got.tgz:174803.got - 2010.06.27 13:26:56.
