data_PCOD8039525
_publ_section_title
;
Structure prediction by ZEFSAII (Michael W. Deem and Ramdas Pophale) SiO2 
 PCOD8039525
Probable space group: P -1
;
_chemical_formula_sum "Si O2"
_cell_formula_units_Z 16
_cell_length_a 9.619672
_cell_length_b 11.970422
_cell_length_c 14.735461
_cell_angle_alpha 110.370587
_cell_angle_beta 109.039021
_cell_angle_gamma 130.207766
_cell_volume 775.835005
_symmetry_space_group_name_H-M "P -1"
_symmetry_group_IT_number 2
_symmetry_cell_setting 'triclinic'
loop_
_space_group_symop_operation_xyz
x,y,z
-x,-y,-z
loop_
_atom_site_type_symbol
_atom_site_label
_atom_site_fract_x
_atom_site_fract_y
_atom_site_fract_z
Si Si1 0.928032 0.222621 0.513995
Si Si2 0.147686 0.211973 0.422063
Si Si3 0.796845 0.625906 0.696631
Si Si4 0.879264 0.149399 0.791497
Si Si5 0.310204 0.734010 0.261871
Si Si6 0.280182 0.681587 0.448184
Si Si7 0.807199 0.751479 0.267357
Si Si8 0.185814 0.379991 0.097777
O O1 0.941931 0.374436 0.576390
O O2 0.128047 0.325969 0.501055
O O3 0.016642 0.208984 0.616468
O O4 0.609315 0.967464 0.343434
O O5 0.457160 0.374263 0.551409
O O6 0.093840 0.195435 0.297952
O O7 0.923869 0.967627 0.351425
O O8 0.895880 0.564719 0.663724
O O9 0.893152 0.723341 0.847325
O O10 0.903442 0.307477 0.821569
O O11 0.138901 0.266274 0.825740
O O12 0.572501 0.879439 0.625251
O O13 0.937887 0.167770 0.916121
O O14 0.372260 0.782651 0.395734
O O15 0.186658 0.523567 0.142609
O O16 0.481247 0.530166 0.166834
#
# Coordination Sequence:
#
# PCOD8039525 Si02
#       8
#     2   2   2   2   2   2   2   2
#     4  11  18  32  60  85 108 137 184 234 277 307
#     4  11  21  35  59  80 112 146 189 225 268 326
#     4  10  22  38  56  81 109 151 187 222 271 326
#     4  11  20  33  54  87 115 140 177 230 279 326
#     4  10  18  34  55  84 109 142 179 229 275 317
#     4  10  19  35  59  81 112 141 183 232 271 318
#     4  12  19  35  55  88 114 139 177 233 277 322
#     4  11  22  34  56  84 114 145 180 224 278 329
#
# _framework density 20.622942999999999
#
# number of rings (size 3 to 8) (size 9 to 14) (size 15 to 20)
#    0.000    1.250    6.250    2.625    0.000    0.500 
#    0.000    0.625    0.000    3.000    0.000    0.000 
#    0.000    0.000    0.000    0.000    0.000    0.000 
#
# Total GULP energy -198338.309966 kJ/mol
# GULP energy per Si atom -12396.144373 kJ/mol
# Density = 2.057600 g / cm^3
# Si number density = 20.622943 Si / 1000 Ang^3
#
#
#
# Elastic Constant Matrix: (Units=GPa)
#
#
# Indices 1 2 3 4 5 6 
#
# 1 116.2280 2.9709 26.1530 -13.1027 -2.1516 4.3441
# 2 2.9709 48.2079 33.4618 -27.1261 -0.5001 0.2230
# 3 26.1530 33.4618 88.1260 -33.7707 -10.3051 3.2051
# 4 -13.1027 -27.1261 -33.7707 31.4033 8.3413 -3.6306
# 5 -2.1516 -0.5001 -10.3051 8.3413 19.3981 -9.3512
# 6 4.3441 0.2230 3.2051 -3.6306 -9.3512 13.6208
#
#
#
# Elastic Compliance Matrix: (Units=1/GPa)
#
#
# Indices 1 2 3 4 5 6 
#
# 1 0.009861 0.004639 -0.002866 0.005843 -0.004930 -0.004374
# 2 0.004639 0.048294 -0.005704 0.042800 -0.021856 -0.004524
# 3 -0.002866 -0.005704 0.020660 0.014956 0.006193 0.004384
# 4 0.005843 0.042800 0.014956 0.095736 -0.033034 -0.003244
# 5 -0.004930 -0.021856 0.006193 -0.033034 0.095538 0.057258
# 6 -0.004374 -0.004524 0.004384 -0.003244 0.057258 0.112300
#
#
# Mechanical properties :
#
#
# Convention : Reuss Voigt Hill
#
# Bulk Modulus (GPa) = 14.09397 41.97036 28.03216
# Shear Modulus (GPa) = 12.08015 25.54953 18.81484
#
# Velocity S-wave (km/s) = 2.42288 3.52360 3.02375
# Velocity P-wave (km/s) = 3.83094 6.07864 5.08065
#
# Compressibility (1/GPa) = 0.07095232
#
# Stress axis : x y z
#
# Youngs Moduli (GPa) = 101.40931 20.70638 48.40297
#
# Poissons Ratio (x) = -0.09605 0.13873
# Poissons Ratio (y) = -0.47039 0.27608
# Poissons Ratio (z) = 0.29065 0.11811
#
# Static dielectric constant tensor:
#      x y z
#    x 4.157900 0.027020 -0.032780 
#    y 0.027020 3.456960 -0.370880 
#    z -0.032780 -0.370880 3.354880 
# 
# 
# High freq. dielectric constant tensor:
#      x y z
#    x 1.834960 0.000190 -0.002470 
#    y 0.000190 1.779660 -0.032010 
#    z -0.002470 -0.032010 1.769970 
# 
# From -- ./inp_files/216650.got.cif
#   From: 2010.06.25/outbox.cif.g09.slc.cpg/sg2_109_cif.got.tgz:216650.got - 2010.06.27 13:26:56.
