data_PCOD8039917
_publ_section_title
;
Structure prediction by ZEFSAII (Michael W. Deem and Ramdas Pophale) SiO2 
 PCOD8039917
Probable space group: P -1
;
_chemical_formula_sum "Si O2"
_cell_formula_units_Z 16
_cell_length_a 8.819566
_cell_length_b 26.231697
_cell_length_c 8.844056
_cell_angle_alpha 149.456462
_cell_angle_beta 115.776511
_cell_angle_gamma 52.939309
_cell_volume 811.694000
_symmetry_space_group_name_H-M "P -1"
_symmetry_group_IT_number 2
_symmetry_cell_setting 'triclinic'
loop_
_space_group_symop_operation_xyz
x,y,z
-x,-y,-z
loop_
_atom_site_type_symbol
_atom_site_label
_atom_site_fract_x
_atom_site_fract_y
_atom_site_fract_z
Si Si1 0.724594 0.173527 0.790309
Si Si2 0.920650 0.806652 0.861825
Si Si3 0.421657 0.582338 0.319697
Si Si4 0.015268 0.917599 0.597842
Si Si5 0.674985 0.979312 0.417498
Si Si6 0.405074 0.427567 0.330781
Si Si7 0.104268 0.828646 0.725837
Si Si8 0.895183 0.449681 0.722397
O O1 0.797939 0.112678 0.502906
O O2 0.658507 0.100220 0.676501
O O3 0.537189 0.296814 0.998129
O O4 0.895609 0.181547 0.970994
O O5 0.929198 0.823954 0.728167
O O6 0.948242 0.681347 0.591262
O O7 0.711750 0.902597 0.084650
O O8 0.595669 0.564361 0.464522
O O9 0.312024 0.717237 0.569426
O O10 0.275592 0.550336 0.256672
O O11 0.500000 0.500000 0.000000
O O12 0.072738 0.828181 0.531945
O O13 0.867853 0.895302 0.379710
O O14 0.898969 0.051757 0.937421
O O15 0.500000 0.000000 0.500000
O O16 0.500000 0.500000 0.500000
O O17 0.193675 0.477381 0.286325
O O18 0.000000 0.500000 0.000000
#
# Coordination Sequence:
#
# PCOD8039917 Si02
#       8
#     2   2   2   2   2   2   2   2
#     4  11  18  38  66  86 113 158 205 253 297 368
#     4  10  18  40  63  79 118 159 201 246 296 368
#     4  10  21  36  61  89 120 151 209 257 287 360
#     4  10  20  33  63  85 114 149 200 241 302 359
#     4  11  22  38  57  90 120 154 196 252 310 364
#     4  10  19  37  65  90 116 158 211 246 301 365
#     4  10  18  35  58  87 112 147 201 245 292 346
#     4  10  22  41  59  87 124 164 198 248 310 361
#
# _framework density 19.711860999999999
#
# number of rings (size 3 to 8) (size 9 to 14) (size 15 to 20)
#    0.000    1.750    6.250    0.750    3.500    0.000 
#    9.000    1.250    0.000    0.000    0.000    0.000 
#    0.000    0.000    0.000    0.000    0.000    0.000 
#
# Total GULP energy -198257.770544 kJ/mol
# GULP energy per Si atom -12391.110659 kJ/mol
# Density = 1.966700 g / cm^3
# Si number density = 19.711861 Si / 1000 Ang^3
#
#
#
# Elastic Constant Matrix: (Units=GPa)
#
#
# Indices 1 2 3 4 5 6 
#
# 1 86.6918 40.8125 40.7088 2.7522 -11.3359 14.0317
# 2 40.8125 142.5058 52.7457 -1.7353 0.7138 20.7228
# 3 40.7088 52.7457 122.2932 10.6048 -9.3472 4.3204
# 4 2.7522 -1.7353 10.6048 29.8619 3.4058 -0.3203
# 5 -11.3359 0.7138 -9.3472 3.4058 29.4144 -6.4332
# 6 14.0317 20.7228 4.3204 -0.3203 -6.4332 24.0543
#
#
#
# Elastic Compliance Matrix: (Units=1/GPa)
#
#
# Indices 1 2 3 4 5 6 
#
# 1 0.015805 -0.002405 -0.003665 -0.000796 0.003882 -0.005462
# 2 -0.002405 0.010397 -0.003976 0.002666 -0.004503 -0.008009
# 3 -0.003665 -0.003976 0.011634 -0.004418 0.003865 0.004449
# 4 -0.000796 0.002666 -0.004418 0.035995 -0.006442 -0.002282
# 5 0.003882 -0.004503 0.003865 -0.006442 0.040105 0.011560
# 6 -0.005462 -0.008009 0.004449 -0.002282 0.011560 0.053921
#
#
# Mechanical properties :
#
#
# Convention : Reuss Voigt Hill
#
# Bulk Modulus (GPa) = 56.35871 68.89164 62.62518
# Shear Modulus (GPa) = 25.79116 31.14769 28.46942
#
# Velocity S-wave (km/s) = 3.62112 3.97942 3.80449
# Velocity P-wave (km/s) = 6.79240 7.49264 7.15109
#
# Compressibility (1/GPa) = 0.01774349
#
# Stress axis : x y z
#
# Youngs Moduli (GPa) = 63.26950 96.17781 85.95819
#
# Poissons Ratio (x) = 0.23128 0.31507
# Poissons Ratio (y) = 0.15215 0.34180
# Poissons Ratio (z) = 0.23191 0.38244
#
# Static dielectric constant tensor:
#      x y z
#    x 3.327560 0.236950 -0.323500 
#    y 0.236950 3.930140 -0.035080 
#    z -0.323500 -0.035080 3.879160 
# 
# 
# High freq. dielectric constant tensor:
#      x y z
#    x 1.724990 0.026250 -0.018560 
#    y 0.026250 1.772710 0.008120 
#    z -0.018560 0.008120 1.778070 
# 
# From -- ./inp_files/179457.got.cif
#   From: 2010.06.25/outbox.cif.g09.slc.cpg/sg2_90_cif.got.tgz:179457.got - 2010.06.27 13:26:56.
