data_PCOD8039027
_publ_section_title
;
Structure prediction by ZEFSAII (Michael W. Deem and Ramdas Pophale) SiO2 
 PCOD8039027
Probable space group: P -1
;
_chemical_formula_sum "Si O2"
_cell_formula_units_Z 16
_cell_length_a 13.505648
_cell_length_b 15.133578
_cell_length_c 16.126845
_cell_angle_alpha 161.478482
_cell_angle_beta 48.924948
_cell_angle_gamma 133.204381
_cell_volume 762.771691
_symmetry_space_group_name_H-M "P -1"
_symmetry_group_IT_number 2
_symmetry_cell_setting 'triclinic'
loop_
_space_group_symop_operation_xyz
x,y,z
-x,-y,-z
loop_
_atom_site_type_symbol
_atom_site_label
_atom_site_fract_x
_atom_site_fract_y
_atom_site_fract_z
Si Si1 0.060855 0.737544 0.953537
Si Si2 0.394056 0.727251 0.060453
Si Si3 0.631213 0.724833 0.599663
Si Si4 0.575795 0.322641 0.536996
Si Si5 0.265693 0.649981 0.902421
Si Si6 0.814795 0.624164 0.549737
Si Si7 0.646409 0.075969 0.445777
Si Si8 0.248292 0.475526 0.080071
O O1 0.135924 0.674745 0.941753
O O2 0.096608 0.590277 0.718785
O O3 0.903222 0.620496 0.957822
O O4 0.090479 0.068109 0.200856
O O5 0.499010 0.549560 0.815359
O O6 0.256796 0.645866 0.004789
O O7 0.348575 0.648391 0.108710
O O8 0.472446 0.067238 0.315247
O O9 0.500000 0.500000 0.500000
O O10 0.674432 0.619887 0.393295
O O11 0.752943 0.698091 0.565353
O O12 0.615282 0.048233 0.903288
O O13 0.700196 0.484218 0.554446
O O14 0.642346 0.188989 0.456072
O O15 0.748445 0.315566 0.657901
O O16 0.500000 0.000000 0.500000
O O17 0.701415 0.795472 0.159283
#
# Coordination Sequence:
#
# PCOD8039027 Si02
#       8
#     2   2   2   2   2   2   2   2
#     4  10  23  42  60  86 127 167 202 230 291 364
#     4  12  22  37  62  95 122 153 203 252 305 347
#     4  10  18  32  53  80 118 159 199 237 291 344
#     4  12  24  39  64  94 122 149 202 262 305 351
#     4  10  21  34  55  85 120 160 195 238 286 353
#     4  10  21  39  59  85 123 164 197 245 293 352
#     4  12  23  44  65  93 119 151 200 252 320 353
#     4  12  24  42  66  89 120 162 199 250 299 363
#
# _framework density 20.976132
#
# number of rings (size 3 to 8) (size 9 to 14) (size 15 to 20)
#    0.000    1.000    2.500    5.250    0.000    2.500 
#    0.000    3.750    0.000    7.500    0.000    0.000 
#    0.000    0.000    0.000    0.000    0.000    0.000 
#
# Total GULP energy -198253.917022 kJ/mol
# GULP energy per Si atom -12390.869814 kJ/mol
# Density = 2.092839 g / cm^3
# Si number density = 20.976132 Si / 1000 Ang^3
#
#
#
# Elastic Constant Matrix: (Units=GPa)
#
#
# Indices 1 2 3 4 5 6 
#
# 1 74.1902 22.5407 16.1182 2.9410 12.6512 -1.5268
# 2 22.5407 66.7819 29.6006 1.6051 3.0110 1.5868
# 3 16.1182 29.6006 99.0612 17.5855 2.2646 0.4846
# 4 2.9410 1.6051 17.5855 31.2709 -2.7645 4.6136
# 5 12.6512 3.0110 2.2646 -2.7645 27.0500 -0.5798
# 6 -1.5268 1.5868 0.4846 4.6136 -0.5798 29.7797
#
#
#
# Elastic Compliance Matrix: (Units=1/GPa)
#
#
# Indices 1 2 3 4 5 6 
#
# 1 0.016452 -0.004879 -0.000759 -0.001692 -0.007234 0.001237
# 2 -0.004879 0.018935 -0.005378 0.002824 0.000879 -0.001592
# 3 -0.000759 -0.005378 0.013132 -0.007283 -0.000866 0.001145
# 4 -0.001692 0.002824 -0.007283 0.037369 0.004781 -0.005815
# 5 -0.007234 0.000879 -0.000866 0.004781 0.040808 -0.000350
# 6 0.001237 -0.001592 0.001145 -0.005815 -0.000350 0.034604
#
#
# Mechanical properties :
#
#
# Convention : Reuss Voigt Hill
#
# Bulk Modulus (GPa) = 37.75380 41.83914 39.79647
# Shear Modulus (GPa) = 26.01975 29.07170 27.54572
#
# Velocity S-wave (km/s) = 3.52582 3.72686 3.62773
# Velocity P-wave (km/s) = 5.88326 6.20554 6.04655
#
# Compressibility (1/GPa) = 0.02648740
#
# Stress axis : x y z
#
# Youngs Moduli (GPa) = 60.78143 52.81254 76.14793
#
# Poissons Ratio (x) = 0.25768 0.05782
# Poissons Ratio (y) = 0.29656 0.40950
# Poissons Ratio (z) = 0.04615 0.28401
#
# Static dielectric constant tensor:
#      x y z
#    x 3.962610 -0.179610 0.079230 
#    y -0.179610 3.781100 0.442070 
#    z 0.079230 0.442070 4.577100 
# 
# 
# High freq. dielectric constant tensor:
#      x y z
#    x 1.823720 -0.011530 0.008960 
#    y -0.011530 1.798620 0.012540 
#    z 0.008960 0.012540 1.848600 
# 
# From -- ./inp_files/367636.got.cif
#   From: 2010.06.25/outbox.cif.g09.slc.cpg/sg2_184_cif.got.tgz:367636.got - 2010.06.27 13:26:56.
