data_PCOD8039816
_publ_section_title
;
Structure prediction by ZEFSAII (Michael W. Deem and Ramdas Pophale) SiO2 
 PCOD8039816
Probable space group: P -1
;
_chemical_formula_sum "Si O2"
_cell_formula_units_Z 16
_cell_length_a 7.826103
_cell_length_b 16.409266
_cell_length_c 12.002062
_cell_angle_alpha 36.696738
_cell_angle_beta 64.785782
_cell_angle_gamma 83.318290
_cell_volume 757.552318
_symmetry_space_group_name_H-M "P -1"
_symmetry_group_IT_number 2
_symmetry_cell_setting 'triclinic'
loop_
_space_group_symop_operation_xyz
x,y,z
-x,-y,-z
loop_
_atom_site_type_symbol
_atom_site_label
_atom_site_fract_x
_atom_site_fract_y
_atom_site_fract_z
Si Si1 0.699389 0.359754 0.901792
Si Si2 0.630976 0.065720 0.678818
Si Si3 0.928350 0.925552 0.765975
Si Si4 0.589117 0.312657 0.535447
Si Si5 0.128558 0.382709 0.794113
Si Si6 0.719721 0.201247 0.844106
Si Si7 0.307844 0.100576 0.347924
Si Si8 0.805717 0.648645 0.434089
O O1 0.674831 0.280008 0.877438
O O2 0.714782 0.525798 0.692339
O O3 0.903082 0.373677 0.896412
O O4 0.503406 0.258392 0.144935
O O5 0.676994 0.240255 0.492088
O O6 0.618859 0.019508 0.601763
O O7 0.810038 0.025871 0.732487
O O8 0.413930 0.975501 0.903666
O O9 0.178726 0.027062 0.577063
O O10 0.846541 0.863552 0.732113
O O11 0.873006 0.781437 0.016887
O O12 0.707073 0.494529 0.304298
O O13 0.630403 0.252384 0.706823
O O14 0.345638 0.267737 0.630376
O O15 0.183212 0.433816 0.594402
O O16 0.961506 0.233970 0.726800
#
# Coordination Sequence:
#
# PCOD8039816 Si02
#       8
#     2   2   2   2   2   2   2   2
#     4  10  18  35  55  79 113 139 185 235 252 312
#     4   9  20  35  54  79 111 142 176 227 276 320
#     4   9  18  37  59  80  99 139 193 227 264 323
#     4  12  21  32  54  82 115 148 174 215 281 327
#     4  11  20  32  57  84 106 147 186 219 268 321
#     4  10  19  35  51  79 114 147 178 221 262 323
#     4   8  18  36  60  75 103 140 187 229 270 310
#     4  11  21  33  54  83 115 145 183 219 261 323
#
# _framework density 21.120653999999998
#
# number of rings (size 3 to 8) (size 9 to 14) (size 15 to 20)
#    0.750    1.250    2.500    3.000    0.000    1.000 
#    0.000    3.125    0.000    0.750    0.000    0.000 
#    0.000    0.000    0.000    0.000    0.000    0.000 
#
# Total GULP energy -198256.335631 kJ/mol
# GULP energy per Si atom -12391.020977 kJ/mol
# Density = 2.107258 g / cm^3
# Si number density = 21.120654 Si / 1000 Ang^3
#
#
#
# Elastic Constant Matrix: (Units=GPa)
#
#
# Indices 1 2 3 4 5 6 
#
# 1 106.1107 24.8423 30.5311 -4.4173 -15.9905 -30.6468
# 2 24.8423 52.6362 36.0584 -10.4543 -11.7307 -18.7535
# 3 30.5311 36.0584 109.8722 -4.0471 -25.4856 -23.4123
# 4 -4.4173 -10.4543 -4.0471 11.8097 -6.4277 3.7931
# 5 -15.9905 -11.7307 -25.4856 -6.4277 28.5893 4.2727
# 6 -30.6468 -18.7535 -23.4123 3.7931 4.2727 20.8667
#
#
#
# Elastic Compliance Matrix: (Units=1/GPa)
#
#
# Indices 1 2 3 4 5 6 
#
# 1 0.018584 0.004644 0.003094 0.009054 0.012500 0.030733
# 2 0.004644 0.042250 -0.001771 0.041259 0.023060 0.030583
# 3 0.003094 -0.001771 0.015995 0.007660 0.014513 0.016534
# 4 0.009054 0.041259 0.007660 0.154350 0.060763 0.018473
# 5 0.012500 0.023060 0.014513 0.060763 0.073661 0.029239
# 6 0.030733 0.030583 0.016534 0.018473 0.029239 0.129752
#
#
# Mechanical properties :
#
#
# Convention : Reuss Voigt Hill
#
# Bulk Modulus (GPa) = 11.26614 50.16474 30.71544
# Shear Modulus (GPa) = 11.05598 24.06564 17.56081
#
# Velocity S-wave (km/s) = 2.29042 3.37922 2.88662
# Velocity P-wave (km/s) = 3.51290 6.24728 5.06799
#
# Compressibility (1/GPa) = 0.08876158
#
# Stress axis : x y z
#
# Youngs Moduli (GPa) = 53.81072 23.66877 62.52084
#
# Poissons Ratio (x) = -0.10991 -0.19342
# Poissons Ratio (y) = -0.24988 0.11070
# Poissons Ratio (z) = -0.16648 0.04191
#
# Static dielectric constant tensor:
#      x y z
#    x 3.748500 -0.103150 -0.302470 
#    y -0.103150 3.256770 -0.069750 
#    z -0.302470 -0.069750 3.948490 
# 
# 
# High freq. dielectric constant tensor:
#      x y z
#    x 1.825520 -0.015170 -0.016650 
#    y -0.015170 1.767970 -0.007400 
#    z -0.016650 -0.007400 1.825750 
# 
# From -- ./inp_files/507651.got.cif
#   From: 2010.06.25/outbox.cif.g09.slc.cpg/sg2_254_cif.got.tgz:507651.got - 2010.06.27 13:26:56.
