data_PCOD8039729
_publ_section_title
;
Structure prediction by ZEFSAII (Michael W. Deem and Ramdas Pophale) SiO2 
 PCOD8039729
Probable space group: P -1
;
_chemical_formula_sum "Si O2"
_cell_formula_units_Z 16
_cell_length_a 11.173191
_cell_length_b 16.491380
_cell_length_c 19.519689
_cell_angle_alpha 157.992246
_cell_angle_beta 44.489517
_cell_angle_gamma 125.327413
_cell_volume 895.918255
_symmetry_space_group_name_H-M "P -1"
_symmetry_group_IT_number 2
_symmetry_cell_setting 'triclinic'
loop_
_space_group_symop_operation_xyz
x,y,z
-x,-y,-z
loop_
_atom_site_type_symbol
_atom_site_label
_atom_site_fract_x
_atom_site_fract_y
_atom_site_fract_z
Si Si1 0.274398 0.417328 0.636354
Si Si2 0.700858 0.829583 0.705562
Si Si3 0.872826 0.455767 0.844150
Si Si4 0.040951 0.918399 0.591416
Si Si5 0.338656 0.045239 0.654132
Si Si6 0.528844 0.660447 0.374782
Si Si7 0.518156 0.681937 0.780226
Si Si8 0.134135 0.635766 0.072215
O O1 0.341654 0.262308 0.421549
O O2 0.355361 0.271251 0.557947
O O3 0.348143 0.634840 0.774017
O O4 0.059732 0.508655 0.799934
O O5 0.678044 0.665389 0.647969
O O6 0.903231 0.840955 0.634957
O O7 0.548588 0.071560 0.965078
O O8 0.844115 0.293125 0.668020
O O9 0.868723 0.327626 0.816699
O O10 0.714530 0.696436 0.094685
O O11 0.171036 0.004446 0.652730
O O12 0.921255 0.119415 0.749293
O O13 0.500000 0.000000 0.500000
O O14 0.393765 0.883853 0.571103
O O15 0.413247 0.509222 0.337620
O O16 0.664092 0.509234 0.144747
O O17 0.000000 0.500000 0.000000
#
# Coordination Sequence:
#
# PCOD8039729 Si02
#       8
#     2   2   2   2   2   2   2   2
#     4   9  19  35  57  85 107 139 185 229 272 322
#     4  10  18  34  61  85 107 136 184 240 275 316
#     4  11  22  36  59  82 110 149 187 228 273 325
#     4  11  23  37  57  85 108 146 189 232 270 329
#     4  12  23  40  53  75 122 154 182 220 277 335
#     4  10  20  35  55  81 112 148 180 225 273 332
#     4   9  18  34  56  88 109 138 179 232 285 316
#     4  12  17  37  58  80 111 143 185 231 280 319
#
# _framework density 17.858771000000001
#
# number of rings (size 3 to 8) (size 9 to 14) (size 15 to 20)
#    0.750    0.750    5.000    1.500    0.000    0.500 
#    2.250    0.625    0.000    3.000    0.000    0.000 
#    0.000    0.000    0.000    0.000    0.000    0.000 
#
# Total GULP energy -198341.391773 kJ/mol
# GULP energy per Si atom -12396.336986 kJ/mol
# Density = 1.781812 g / cm^3
# Si number density = 17.858771 Si / 1000 Ang^3
#
#
#
# Elastic Constant Matrix: (Units=GPa)
#
#
# Indices 1 2 3 4 5 6 
#
# 1 36.1108 13.7932 27.9328 -0.9113 -1.8913 -10.3432
# 2 13.7932 101.7709 23.7130 -6.3729 -1.6457 -11.0400
# 3 27.9328 23.7130 99.9465 -1.6300 3.2050 -12.6012
# 4 -0.9113 -6.3729 -1.6300 28.9846 -8.0015 1.3249
# 5 -1.8913 -1.6457 3.2050 -8.0015 28.3282 4.2876
# 6 -10.3432 -11.0400 -12.6012 1.3249 4.2876 22.4096
#
#
#
# Elastic Compliance Matrix: (Units=1/GPa)
#
#
# Indices 1 2 3 4 5 6 
#
# 1 0.038771 -0.001859 -0.008992 0.000281 0.001828 0.011557
# 2 -0.001859 0.010985 -0.001658 0.002350 0.000863 0.003317
# 3 -0.008992 -0.001658 0.013392 -0.000849 -0.002932 0.003175
# 4 0.000281 0.002350 -0.000849 0.038362 0.011645 -0.003686
# 5 0.001828 0.000863 -0.002932 0.011645 0.040426 -0.008803
# 6 0.011557 0.003317 0.003175 -0.003686 -0.008803 0.055279
#
#
# Mechanical properties :
#
#
# Convention : Reuss Voigt Hill
#
# Bulk Modulus (GPa) = 26.22497 40.96737 33.59617
# Shear Modulus (GPa) = 21.28177 27.43707 24.35942
#
# Velocity S-wave (km/s) = 3.45580 3.92386 3.69725
# Velocity P-wave (km/s) = 5.53534 6.59685 6.08927
#
# Compressibility (1/GPa) = 0.03813160
#
# Stress axis : x y z
#
# Youngs Moduli (GPa) = 25.79261 91.03120 74.67083
#
# Poissons Ratio (x) = 0.16921 0.67141
# Poissons Ratio (y) = 0.04794 0.12380
# Poissons Ratio (z) = 0.23192 0.15092
#
# Static dielectric constant tensor:
#      x y z
#    x 3.090320 -0.076110 0.146200 
#    y -0.076110 3.577710 -0.063480 
#    z 0.146200 -0.063480 3.310630 
# 
# 
# High freq. dielectric constant tensor:
#      x y z
#    x 1.663180 -0.002190 0.019380 
#    y -0.002190 1.701920 -0.005290 
#    z 0.019380 -0.005290 1.689720 
# 
# From -- ./inp_files/460361.got.cif
#   From: 2010.06.25/outbox.cif.g09.slc.cpg/sg2_231_cif.got.tgz:460361.got - 2010.06.27 13:26:56.
