data_PCOD8039966
_publ_section_title
;
Structure prediction by ZEFSAII (Michael W. Deem and Ramdas Pophale) SiO2 
 PCOD8039966
Probable space group: P -1
;
_chemical_formula_sum "Si O2"
_cell_formula_units_Z 16
_cell_length_a 11.311337
_cell_length_b 14.228197
_cell_length_c 13.733199
_cell_angle_alpha 40.274913
_cell_angle_beta 30.581450
_cell_angle_gamma 39.738007
_cell_volume 683.360998
_symmetry_space_group_name_H-M "P -1"
_symmetry_group_IT_number 2
_symmetry_cell_setting 'triclinic'
loop_
_space_group_symop_operation_xyz
x,y,z
-x,-y,-z
loop_
_atom_site_type_symbol
_atom_site_label
_atom_site_fract_x
_atom_site_fract_y
_atom_site_fract_z
Si Si1 0.852235 0.089338 0.386636
Si Si2 0.445991 0.882302 0.945266
Si Si3 0.287787 0.602673 0.856492
Si Si4 0.608285 0.348445 0.697950
Si Si5 0.375039 0.266675 0.369288
Si Si6 0.118903 0.368031 0.274598
Si Si7 0.644167 0.105921 0.728602
Si Si8 0.399108 0.022748 0.679486
O O1 0.887439 0.231330 0.189118
O O2 0.719429 0.150409 0.534862
O O3 0.681768 0.016696 0.502807
O O4 0.118017 0.962524 0.315408
O O5 0.707451 0.781140 0.789537
O O6 0.499062 0.984056 0.915609
O O7 0.280714 0.996474 0.887981
O O8 0.312000 0.768281 0.172289
O O9 0.403380 0.504709 0.755388
O O10 0.510262 0.615985 0.754899
O O11 0.130846 0.524451 0.094214
O O12 0.486217 0.265643 0.769073
O O13 0.837141 0.378232 0.461091
O O14 0.186518 0.362604 0.345509
O O15 0.249612 0.188663 0.603811
O O16 0.590026 0.119977 0.285326
#
# Coordination Sequence:
#
# PCOD8039966 Si02
#       8
#     2   2   2   2   2   2   2   2
#     4   9  18  35  59  83 108 142 182 223 270 322
#     4   9  19  36  57  81 109 141 181 228 273 318
#     4  10  22  37  54  81 115 145 178 222 269 322
#     4  11  22  36  55  82 111 144 183 223 269 322
#     4   9  16  32  57  80 107 145 180 219 272 319
#     4  10  20  36  55  78 111 148 182 218 267 326
#     4  10  18  35  60  81 105 142 183 225 273 320
#     4   8  15  30  56  83 106 138 182 226 267 316
#
# _framework density 23.413685999999998
#
# number of rings (size 3 to 8) (size 9 to 14) (size 15 to 20)
#    0.000    2.500    0.000    3.750    0.000    1.000 
#    0.000   11.250    0.000    1.500    0.000    0.000 
#    0.000    0.000    0.000    0.000    0.000    0.000 
#
# Total GULP energy -198290.976521 kJ/mol
# GULP energy per Si atom -12393.186033 kJ/mol
# Density = 2.336040 g / cm^3
# Si number density = 23.413686 Si / 1000 Ang^3
#
#
#
# Elastic Constant Matrix: (Units=GPa)
#
#
# Indices 1 2 3 4 5 6 
#
# 1 66.2711 22.9031 -10.9442 -5.2742 10.4441 13.2432
# 2 22.9031 44.6029 27.1570 -19.7577 7.9524 14.6650
# 3 -10.9442 27.1570 98.7345 -24.6784 17.2643 -3.7434
# 4 -5.2742 -19.7577 -24.6784 34.4917 -1.5314 5.2898
# 5 10.4441 7.9524 17.2643 -1.5314 21.6418 -9.9285
# 6 13.2432 14.6650 -3.7434 5.2898 -9.9285 33.6884
#
#
#
# Elastic Compliance Matrix: (Units=1/GPa)
#
#
# Indices 1 2 3 4 5 6 
#
# 1 0.027384 -0.006758 0.011319 0.009675 -0.026347 -0.015849
# 2 -0.006758 0.065754 -0.005058 0.038024 -0.033631 -0.042411
# 3 0.011319 -0.005058 0.019664 0.013249 -0.022359 -0.008733
# 4 0.009675 0.038024 0.013249 0.066260 -0.043893 -0.042224
# 5 -0.026347 -0.033631 -0.022359 -0.043893 0.115056 0.063314
# 6 -0.015849 -0.042411 -0.008733 -0.042224 0.063314 0.078696
#
#
# Mechanical properties :
#
#
# Convention : Reuss Voigt Hill
#
# Bulk Modulus (GPa) = 8.94402 31.98227 20.46314
# Shear Modulus (GPa) = 12.16313 29.33055 20.74684
#
# Velocity S-wave (km/s) = 2.28170 3.54320 2.97997
# Velocity P-wave (km/s) = 3.28174 5.51619 4.53862
#
# Compressibility (1/GPa) = 0.11180654
#
# Stress axis : x y z
#
# Youngs Moduli (GPa) = 36.51777 15.20815 50.85379
#
# Poissons Ratio (x) = 0.10278 -0.57560
# Poissons Ratio (y) = 0.24680 0.25723
# Poissons Ratio (z) = -0.41333 0.07693
#
# Static dielectric constant tensor:
#      x y z
#    x 4.392840 0.184450 0.483510 
#    y 0.184450 3.877550 -0.438930 
#    z 0.483510 -0.438930 4.195170 
# 
# 
# High freq. dielectric constant tensor:
#      x y z
#    x 1.929440 0.023870 0.031680 
#    y 0.023870 1.898330 -0.037060 
#    z 0.031680 -0.037060 1.921590 
# 
# From -- ./inp_files/521430.got.cif
#   From: 2010.06.25/outbox.cif.g09.slc.cpg/sg2_261_cif.got.tgz:521430.got - 2010.06.27 13:26:56.
