data_PCOD8039358
_publ_section_title
;
Structure prediction by ZEFSAII (Michael W. Deem and Ramdas Pophale) SiO2 
 PCOD8039358
Probable space group: P -1
;
_chemical_formula_sum "Si O2"
_cell_formula_units_Z 16
_cell_length_a 27.009421
_cell_length_b 8.631471
_cell_length_c 9.560329
_cell_angle_alpha 96.932410
_cell_angle_beta 125.337365
_cell_angle_gamma 129.752547
_cell_volume 870.911691
_symmetry_space_group_name_H-M "P -1"
_symmetry_group_IT_number 2
_symmetry_cell_setting 'triclinic'
loop_
_space_group_symop_operation_xyz
x,y,z
-x,-y,-z
loop_
_atom_site_type_symbol
_atom_site_label
_atom_site_fract_x
_atom_site_fract_y
_atom_site_fract_z
Si Si1 0.959438 0.812939 0.278659
Si Si2 0.564606 0.294639 0.074023
Si Si3 0.179760 0.112545 0.557513
Si Si4 0.442012 0.101690 0.584685
Si Si5 0.232903 0.132398 0.362187
Si Si6 0.286428 0.249669 0.018180
Si Si7 0.756088 0.101996 0.867011
Si Si8 0.768494 0.618535 0.840957
O O1 0.872168 0.470931 0.142512
O O2 0.881895 0.750502 0.042580
O O3 0.000000 0.000000 0.500000
O O4 0.079479 0.020781 0.413950
O O5 0.473154 0.186663 0.810597
O O6 0.684770 0.498985 0.204147
O O7 0.619394 0.534915 0.309978
O O8 0.500000 0.000000 0.000000
O O9 0.145236 0.939106 0.338778
O O10 0.201208 0.042418 0.715900
O O11 0.568823 0.381288 0.732248
O O12 0.362951 0.071070 0.401202
O O13 0.365363 0.768929 0.404778
O O14 0.215511 0.254751 0.263924
O O15 0.199244 0.908982 0.188144
O O16 0.220866 0.239318 0.997159
O O17 0.282898 0.080712 0.079087
#
# Coordination Sequence:
#
# PCOD8039358 Si02
#       8
#     2   2   2   2   2   2   2   2
#     4  11  22  40  59  81 114 146 193 240 280 331
#     4   9  17  35  59  82 117 144 182 224 283 333
#     4   9  20  36  60  80 113 149 194 219 286 333
#     4  10  18  33  58  84 116 148 188 227 277 336
#     4   9  20  38  56  87 112 146 189 223 289 332
#     4  10  19  36  54  85 112 151 189 228 279 340
#     4  10  23  36  57  83 114 149 188 236 282 324
#     4  10  19  34  60  83 112 150 187 235 277 325
#
# _framework density 18.371552000000001
#
# number of rings (size 3 to 8) (size 9 to 14) (size 15 to 20)
#    0.750    1.500    2.500    0.750    0.000    2.000 
#    0.000    1.250    5.500    0.000    0.000    0.000 
#    0.000    0.000    0.000    0.000    0.000    0.000 
#
# Total GULP energy -198258.366837 kJ/mol
# GULP energy per Si atom -12391.147927 kJ/mol
# Density = 1.832974 g / cm^3
# Si number density = 18.371552 Si / 1000 Ang^3
#
#
#
# Elastic Constant Matrix: (Units=GPa)
#
#
# Indices 1 2 3 4 5 6 
#
# 1 86.7272 46.2644 43.1993 -8.7991 1.0823 3.1126
# 2 46.2644 101.0281 59.1649 -23.2589 -1.4398 -4.6226
# 3 43.1993 59.1649 98.1771 -8.6932 -5.3471 -1.1046
# 4 -8.7991 -23.2589 -8.6932 31.4820 1.0499 -4.4514
# 5 1.0823 -1.4398 -5.3471 1.0499 36.7755 -0.5677
# 6 3.1126 -4.6226 -1.1046 -4.4514 -0.5677 26.3558
#
#
#
# Elastic Compliance Matrix: (Units=1/GPa)
#
#
# Indices 1 2 3 4 5 6 
#
# 1 0.016605 -0.005596 -0.004138 -0.001062 -0.001330 -0.003324
# 2 -0.005596 0.020760 -0.008935 0.012170 -0.000577 0.005971
# 3 -0.004138 -0.008935 0.017226 -0.003199 0.002355 -0.000846
# 4 -0.001062 0.012170 -0.003199 0.040882 -0.000985 0.009009
# 5 -0.001330 -0.000577 0.002355 -0.000985 0.027588 0.000582
# 6 -0.003324 0.005971 -0.000846 0.009009 0.000582 0.040881
#
#
# Mechanical properties :
#
#
# Convention : Reuss Voigt Hill
#
# Bulk Modulus (GPa) = 57.95958 64.79883 61.37921
# Shear Modulus (GPa) = 24.15087 28.07627 26.11357
#
# Velocity S-wave (km/s) = 3.62965 3.91352 3.77425
# Velocity P-wave (km/s) = 7.01305 7.46785 7.24402
#
# Compressibility (1/GPa) = 0.01725340
#
# Stress axis : x y z
#
# Youngs Moduli (GPa) = 60.22299 48.16870 58.05036
#
# Poissons Ratio (x) = 0.26957 0.24020
# Poissons Ratio (y) = 0.33703 0.51869
# Poissons Ratio (z) = 0.24919 0.43039
#
# Static dielectric constant tensor:
#      x y z
#    x 3.167530 0.049130 -0.006210 
#    y 0.049130 3.361380 -0.176310 
#    z -0.006210 -0.176310 3.536570 
# 
# 
# High freq. dielectric constant tensor:
#      x y z
#    x 1.690060 0.003800 0.001710 
#    y 0.003800 1.711400 -0.014600 
#    z 0.001710 -0.014600 1.723240 
# 
# From -- ./inp_files/264664.got.cif
#   From: 2010.06.25/outbox.cif.g09.slc.cpg/sg2_133_cif.got.tgz:264664.got - 2010.06.27 13:26:56.
