data_PCOD8039022
_publ_section_title
;
Structure prediction by ZEFSAII (Michael W. Deem and Ramdas Pophale) SiO2 
 PCOD8039022
Probable space group: P -1
;
_chemical_formula_sum "Si O2"
_cell_formula_units_Z 14
_cell_length_a 11.179775
_cell_length_b 9.112353
_cell_length_c 14.328145
_cell_angle_alpha 84.170890
_cell_angle_beta 38.850946
_cell_angle_gamma 63.161693
_cell_volume 730.963885
_symmetry_space_group_name_H-M "P -1"
_symmetry_group_IT_number 2
_symmetry_cell_setting 'triclinic'
loop_
_space_group_symop_operation_xyz
x,y,z
-x,-y,-z
loop_
_atom_site_type_symbol
_atom_site_label
_atom_site_fract_x
_atom_site_fract_y
_atom_site_fract_z
Si Si1 0.514760 0.119551 0.853256
Si Si2 0.808908 0.972447 0.010605
Si Si3 0.796102 0.297323 0.074190
Si Si4 0.271463 0.469994 0.066304
Si Si5 0.663723 0.329571 0.631401
Si Si6 0.186323 0.683545 0.269684
Si Si7 0.960523 0.942615 0.714830
O O1 0.605093 0.194132 0.716133
O O2 0.724221 0.984995 0.807306
O O3 0.431804 0.008877 0.860190
O O4 0.280777 0.294275 0.039811
O O5 0.955203 0.924798 0.829664
O O6 0.974681 0.808914 0.992766
O O7 0.727607 0.165874 0.089378
O O8 0.574750 0.467160 0.255443
O O9 0.858319 0.369403 0.942435
O O10 0.143266 0.558500 0.238690
O O11 0.549467 0.381228 0.909535
O O12 0.825492 0.342045 0.610422
O O13 0.809335 0.248709 0.452667
O O14 0.007948 0.897573 0.336588
#
# Coordination Sequence:
#
# PCOD8039022 Si02
#       7
#     2   2   2   2   2   2   2
#     4   9  19  31  54  80  98 125 170 222 241 284
#     4  11  20  33  53  74 106 128 173 206 249 289
#     4   9  20  34  51  73  99 145 164 198 247 313
#     4   8  14  28  49  73  92 126 169 202 236 281
#     4   9  19  33  54  74 101 134 171 194 258 300
#     4   8  13  26  50  71  95 122 166 200 233 297
#     4  10  18  32  53  79 101 134 158 209 257 305
#
# _framework density 19.152791000000001
#
# number of rings (size 3 to 8) (size 9 to 14) (size 15 to 20)
#    0.000    3.429    1.429    2.143    2.000    2.857 
#    0.000    0.714    3.143    3.429    0.000    0.000 
#    0.000    0.000    0.000    0.000    0.000    0.000 
#
# Total GULP energy -173457.787279 kJ/mol
# GULP energy per Si atom -12389.841949 kJ/mol
# Density = 1.910920 g / cm^3
# Si number density = 19.152791 Si / 1000 Ang^3
#
#
#
# Elastic Constant Matrix: (Units=GPa)
#
#
# Indices 1 2 3 4 5 6 
#
# 1 57.0057 10.1276 11.9589 6.2959 2.8906 7.8950
# 2 10.1276 38.6520 7.8779 11.2680 1.0187 -6.4463
# 3 11.9589 7.8779 59.0228 15.5623 19.0320 1.5784
# 4 6.2959 11.2680 15.5623 15.7605 4.8812 -0.6332
# 5 2.8906 1.0187 19.0320 4.8812 16.4563 0.7000
# 6 7.8950 -6.4463 1.5784 -0.6332 0.7000 23.9568
#
#
#
# Elastic Compliance Matrix: (Units=1/GPa)
#
#
# Indices 1 2 3 4 5 6 
#
# 1 0.020447 -0.005581 -0.003091 -0.001829 0.001216 -0.008120
# 2 -0.005581 0.036311 0.001500 -0.026111 0.004287 0.010695
# 3 -0.003091 0.001500 0.033742 -0.023383 -0.031616 -0.000495
# 4 -0.001829 -0.026111 -0.023383 0.106653 -0.002569 -0.001988
# 5 0.001216 0.004287 -0.031616 -0.002569 0.097618 -0.000084
# 6 -0.008120 0.010695 -0.000495 -0.001988 -0.000084 0.047278
#
#
# Mechanical properties :
#
#
# Convention : Reuss Voigt Hill
#
# Bulk Modulus (GPa) = 13.13071 23.84548 18.48810
# Shear Modulus (GPa) = 13.09663 19.54914 16.32289
#
# Velocity S-wave (km/s) = 2.61779 3.19830 2.92249
# Velocity P-wave (km/s) = 4.00097 5.11038 4.58932
#
# Compressibility (1/GPa) = 0.07615734
#
# Stress axis : x y z
#
# Youngs Moduli (GPa) = 48.90716 27.53984 29.63679
#
# Poissons Ratio (x) = 0.15369 0.09160
# Poissons Ratio (y) = 0.27293 -0.04446
# Poissons Ratio (z) = 0.15116 -0.04132
#
# Static dielectric constant tensor:
#      x y z
#    x 3.664650 0.226470 0.497830 
#    y 0.226470 3.593600 0.391620 
#    z 0.497830 0.391620 3.205860 
# 
# 
# High freq. dielectric constant tensor:
#      x y z
#    x 1.731150 0.000120 0.033470 
#    y 0.000120 1.743120 0.026910 
#    z 0.033470 0.026910 1.701960 
# 
# From -- ./inp_files/311840.got.cif
#   From: 2010.06.25/outbox.cif.g09.slc.cpg/sg2_156_cif.got.tgz:311840.got - 2010.06.27 13:26:56.
