data_PCOD8039953
_publ_section_title
;
Structure prediction by ZEFSAII (Michael W. Deem and Ramdas Pophale) SiO2 
 PCOD8039953
Probable space group: P -1
;
_chemical_formula_sum "Si O2"
_cell_formula_units_Z 14
_cell_length_a 14.315855
_cell_length_b 11.636755
_cell_length_c 11.115258
_cell_angle_alpha 93.059546
_cell_angle_beta 33.384118
_cell_angle_gamma 70.085466
_cell_volume 725.580081
_symmetry_space_group_name_H-M "P -1"
_symmetry_group_IT_number 2
_symmetry_cell_setting 'triclinic'
loop_
_space_group_symop_operation_xyz
x,y,z
-x,-y,-z
loop_
_atom_site_type_symbol
_atom_site_label
_atom_site_fract_x
_atom_site_fract_y
_atom_site_fract_z
Si Si1 0.497720 0.441793 0.225866
Si Si2 0.550373 0.014186 0.313178
Si Si3 0.806976 0.952745 0.433782
Si Si4 0.355749 0.745025 0.456175
Si Si5 0.310280 0.793640 0.789319
Si Si6 0.979343 0.251327 0.309211
Si Si7 0.045763 0.846205 0.415176
O O1 0.546487 0.556988 0.197602
O O2 0.518937 0.372765 0.329232
O O3 0.226478 0.553051 0.474010
O O4 0.680239 0.301490 0.926429
O O5 0.628130 0.109130 0.222595
O O6 0.500000 0.000000 0.500000
O O7 0.309989 0.106141 0.500159
O O8 0.763630 0.832500 0.021008
O O9 0.611155 0.148724 0.641637
O O10 0.869989 0.892316 0.499526
O O11 0.037985 0.884507 0.107106
O O12 0.371462 0.755241 0.581985
O O13 0.096193 0.822372 0.696487
O O14 0.008732 0.205018 0.414475
O O15 0.000000 0.000000 0.500000
#
# Coordination Sequence:
#
# PCOD8039953 Si02
#       7
#     2   2   2   2   2   2   2
#     4   9  21  35  63  89 118 157 195 240 302 351
#     4  12  23  38  62  91 119 158 199 245 290 349
#     4  11  22  36  63  91 117 155 204 240 291 349
#     4  10  18  35  59  88 118 154 188 239 297 343
#     4  11  19  39  61  87 123 155 195 244 294 352
#     4  10  21  36  58  88 120 156 195 239 293 343
#     4  11  19  38  64  87 114 157 202 242 292 353
#
# _framework density 19.294906000000001
#
# number of rings (size 3 to 8) (size 9 to 14) (size 15 to 20)
#    0.857    0.571    4.286    3.000    0.000    0.571 
#    0.000    3.571    0.000    2.571    0.000    0.000 
#    0.000    0.000    0.000    0.000    0.000    0.000 
#
# Total GULP energy -173473.077736 kJ/mol
# GULP energy per Si atom -12390.934124 kJ/mol
# Density = 1.925099 g / cm^3
# Si number density = 19.294906 Si / 1000 Ang^3
#
#
#
# Elastic Constant Matrix: (Units=GPa)
#
#
# Indices 1 2 3 4 5 6 
#
# 1 121.9862 36.8753 58.7820 1.2500 -7.0936 -16.5234
# 2 36.8753 89.1265 48.2203 18.3806 -2.2540 -16.9272
# 3 58.7820 48.2203 110.4253 9.4972 0.9423 -6.1657
# 4 1.2500 18.3806 9.4972 26.6315 4.9133 1.4756
# 5 -7.0936 -2.2540 0.9423 4.9133 27.0751 -7.4659
# 6 -16.5234 -16.9272 -6.1657 1.4756 -7.4659 44.1692
#
#
#
# Elastic Compliance Matrix: (Units=1/GPa)
#
#
# Indices 1 2 3 4 5 6 
#
# 1 0.012158 -0.001342 -0.005832 0.001470 0.004074 0.003859
# 2 -0.001342 0.019303 -0.006275 -0.012500 0.005787 0.007415
# 3 -0.005832 -0.006275 0.014742 0.000157 -0.003451 -0.003117
# 4 0.001470 -0.012500 0.000157 0.048632 -0.011640 -0.007811
# 5 0.004074 0.005787 -0.003451 -0.011640 0.043762 0.011046
# 6 0.003859 0.007415 -0.003117 -0.007811 0.011046 0.028619
#
#
# Mechanical properties :
#
#
# Convention : Reuss Voigt Hill
#
# Bulk Modulus (GPa) = 51.79832 67.69925 59.74879
# Shear Modulus (GPa) = 24.93158 31.41919 28.17538
#
# Velocity S-wave (km/s) = 3.59852 4.03968 3.82547
# Velocity P-wave (km/s) = 6.64603 7.54463 7.10954
#
# Compressibility (1/GPa) = 0.01930565
#
# Stress axis : x y z
#
# Youngs Moduli (GPa) = 82.24956 51.80572 67.83259
#
# Poissons Ratio (x) = 0.06954 0.39557
# Poissons Ratio (y) = 0.11041 0.42564
# Poissons Ratio (z) = 0.47964 0.32507
#
# Static dielectric constant tensor:
#      x y z
#    x 3.708830 -0.185720 -0.005650 
#    y -0.185720 3.613880 0.169590 
#    z -0.005650 0.169590 3.339020 
# 
# 
# High freq. dielectric constant tensor:
#      x y z
#    x 1.757270 -0.017140 0.006030 
#    y -0.017140 1.745270 0.015640 
#    z 0.006030 0.015640 1.729300 
# 
# From -- ./inp_files/411677.got.cif
#   From: 2010.06.25/outbox.cif.g09.slc.cpg/sg2_206_cif.got.tgz:411677.got - 2010.06.27 13:26:56.
