data_PCOD8039685
_publ_section_title
;
Structure prediction by ZEFSAII (Michael W. Deem and Ramdas Pophale) SiO2 
 PCOD8039685
Probable space group: P -1
;
_chemical_formula_sum "Si O2"
_cell_formula_units_Z 16
_cell_length_a 17.960735
_cell_length_b 12.833481
_cell_length_c 11.685841
_cell_angle_alpha 115.997719
_cell_angle_beta 150.848311
_cell_angle_gamma 44.243970
_cell_volume 763.916140
_symmetry_space_group_name_H-M "P -1"
_symmetry_group_IT_number 2
_symmetry_cell_setting 'triclinic'
loop_
_space_group_symop_operation_xyz
x,y,z
-x,-y,-z
loop_
_atom_site_type_symbol
_atom_site_label
_atom_site_fract_x
_atom_site_fract_y
_atom_site_fract_z
Si Si1 0.392954 0.449502 0.889469
Si Si2 0.723374 0.182215 0.398041
Si Si3 0.465098 0.339311 0.349628
Si Si4 0.483142 0.741212 0.246788
Si Si5 0.900233 0.871015 0.054184
Si Si6 0.878767 0.250118 0.938124
Si Si7 0.894829 0.219468 0.202750
Si Si8 0.755916 0.696854 0.792996
O O1 0.338575 0.392619 0.683278
O O2 0.159520 0.625467 0.731443
O O3 0.500000 0.500000 0.000000
O O4 0.592260 0.266164 0.141568
O O5 0.517502 0.278692 0.259784
O O6 0.837549 0.243947 0.606106
O O7 0.913557 0.966688 0.558651
O O8 0.707173 0.238507 0.688587
O O9 0.263605 0.552361 0.190308
O O10 0.368078 0.279597 0.248994
O O11 0.601409 0.756196 0.504452
O O12 0.362111 0.694309 0.112567
O O13 0.263640 0.944850 0.008813
O O14 0.904736 0.882628 0.926348
O O15 0.806129 0.801734 0.931806
O O16 0.985702 0.190914 0.181648
O O17 0.000000 0.500000 0.000000
#
# Coordination Sequence:
#
# PCOD8039685 Si02
#       8
#     2   2   2   2   2   2   2   2
#     4  10  22  38  63  90 127 155 201 252 300 352
#     4  10  22  39  63  99 114 158 202 253 302 355
#     4  10  20  34  61  85 128 151 203 249 303 358
#     4  10  23  39  56  88 126 160 194 250 298 366
#     4  10  23  36  61  90 126 153 199 247 308 362
#     4  10  18  34  59  92 119 158 192 258 302 353
#     4  10  20  36  64  92 123 153 202 252 305 353
#     4  12  23  37  57  91 120 164 196 244 307 361
#
# _framework density 20.944707000000001
#
# number of rings (size 3 to 8) (size 9 to 14) (size 15 to 20)
#    0.000    1.750    3.750    0.375    5.250    6.000 
#    0.000    0.000    0.000    3.750    0.000    0.000 
#    0.000    0.000    0.000    0.000    0.000    0.000 
#
# Total GULP energy -198245.062795 kJ/mol
# GULP energy per Si atom -12390.316425 kJ/mol
# Density = 2.089704 g / cm^3
# Si number density = 20.944707 Si / 1000 Ang^3
#
#
#
# Elastic Constant Matrix: (Units=GPa)
#
#
# Indices 1 2 3 4 5 6 
#
# 1 110.5828 48.0443 20.7194 7.0218 2.6308 7.5330
# 2 48.0443 99.7913 15.2270 -1.3165 7.2028 -8.0089
# 3 20.7194 15.2270 36.1036 -6.1233 -1.3377 10.4517
# 4 7.0218 -1.3165 -6.1233 25.4591 6.5487 2.8737
# 5 2.6308 7.2028 -1.3377 6.5487 29.3281 1.0225
# 6 7.5330 -8.0089 10.4517 2.8737 1.0225 35.8113
#
#
#
# Elastic Compliance Matrix: (Units=1/GPa)
#
#
# Indices 1 2 3 4 5 6 
#
# 1 0.012981 -0.005779 -0.005241 -0.005225 0.001256 -0.002110
# 2 -0.005779 0.014169 -0.004125 0.001662 -0.003715 0.005561
# 3 -0.005241 -0.004125 0.037835 0.011388 0.001078 -0.011807
# 4 -0.005225 0.001662 0.011388 0.046626 -0.009646 -0.005319
# 5 0.001256 -0.003715 0.001078 -0.009646 0.037159 -0.001696
# 6 -0.002110 0.005561 -0.011807 -0.005319 -0.001696 0.033533
#
#
# Mechanical properties :
#
#
# Convention : Reuss Voigt Hill
#
# Bulk Modulus (GPa) = 28.82265 46.05099 37.43682
# Shear Modulus (GPa) = 22.30561 28.95215 25.62888
#
# Velocity S-wave (km/s) = 3.26694 3.72198 3.50186
# Velocity P-wave (km/s) = 5.29355 6.36440 5.85351
#
# Compressibility (1/GPa) = 0.03469494
#
# Stress axis : x y z
#
# Youngs Moduli (GPa) = 77.03298 70.57668 26.43055
#
# Poissons Ratio (x) = 0.40787 0.13853
# Poissons Ratio (y) = 0.44518 0.10902
# Poissons Ratio (z) = 0.40375 0.29112
#
# Static dielectric constant tensor:
#      x y z
#    x 3.803110 -0.444010 -0.063500 
#    y -0.444010 3.709380 -0.138250 
#    z -0.063500 -0.138250 3.345790 
# 
# 
# High freq. dielectric constant tensor:
#      x y z
#    x 1.819760 -0.013740 -0.006320 
#    y -0.013740 1.821340 -0.022940 
#    z -0.006320 -0.022940 1.781440 
# 
# From -- ./inp_files/279351.got.cif
#   From: 2010.06.25/outbox.cif.g09.slc.cpg/sg2_140_cif.got.tgz:279351.got - 2010.06.27 13:26:56.
