data_PCOD8039927
_publ_section_title
;
Structure prediction by ZEFSAII (Michael W. Deem and Ramdas Pophale) SiO2 
 PCOD8039927
Probable space group: P -1
;
_chemical_formula_sum "Si O2"
_cell_formula_units_Z 16
_cell_length_a 24.419164
_cell_length_b 18.756354
_cell_length_c 8.679237
_cell_angle_alpha 143.033641
_cell_angle_beta 132.477367
_cell_angle_gamma 21.590321
_cell_volume 837.525542
_symmetry_space_group_name_H-M "P -1"
_symmetry_group_IT_number 2
_symmetry_cell_setting 'triclinic'
loop_
_space_group_symop_operation_xyz
x,y,z
-x,-y,-z
loop_
_atom_site_type_symbol
_atom_site_label
_atom_site_fract_x
_atom_site_fract_y
_atom_site_fract_z
Si Si1 0.130062 0.013468 0.476081
Si Si2 0.887566 0.254366 0.652642
Si Si3 0.235200 0.778189 0.789852
Si Si4 0.349605 0.785132 0.754518
Si Si5 0.545863 0.123439 0.747636
Si Si6 0.052540 0.744196 0.743196
Si Si7 0.266575 0.361893 0.738509
Si Si8 0.696419 0.418205 0.116020
O O1 0.972737 0.194851 0.570516
O O2 0.061853 0.159462 0.434122
O O3 0.224255 0.968014 0.691535
O O4 0.252048 0.735526 0.195841
O O5 0.743740 0.375543 0.528771
O O6 0.837893 0.431487 0.972924
O O7 0.000000 0.000000 0.500000
O O8 0.282394 0.821872 0.847734
O O9 0.339548 0.613421 0.857705
O O10 0.056033 0.045972 0.968129
O O11 0.500000 0.500000 0.500000
O O12 0.387592 0.867539 0.002167
O O13 0.419651 0.227853 0.785319
O O14 0.464758 0.290099 0.728287
O O15 0.685888 0.838624 0.470836
O O16 0.170693 0.488837 0.613982
O O17 0.158089 0.696628 0.777665
#
# Coordination Sequence:
#
# PCOD8039927 Si02
#       8
#     2   2   2   2   2   2   2   2
#     4  11  19  32  58  86 114 135 186 243 278 314
#     4  12  17  32  58  92 104 138 196 241 275 312
#     4  11  20  31  59  89 114 140 187 239 283 324
#     4  12  23  36  54  85 120 151 182 229 283 345
#     4  10  22  40  55  80 116 157 188 218 286 349
#     4  10  18  35  58  90 108 142 189 243 279 313
#     4  10  21  38  64  76 110 153 194 234 275 332
#     4  10  18  36  59  86 115 143 185 242 276 327
#
# _framework density 19.103895999999999
#
# number of rings (size 3 to 8) (size 9 to 14) (size 15 to 20)
#    0.000    1.250    6.250    2.250    0.000    0.500 
#    0.000    3.750    2.750    0.000    0.000    0.000 
#    0.000    0.000    0.000    0.000    0.000    0.000 
#
# Total GULP energy -198223.978366 kJ/mol
# GULP energy per Si atom -12388.998648 kJ/mol
# Density = 1.906041 g / cm^3
# Si number density = 19.103896 Si / 1000 Ang^3
#
#
#
# Elastic Constant Matrix: (Units=GPa)
#
#
# Indices 1 2 3 4 5 6 
#
# 1 63.3882 46.3936 45.4106 -3.9766 -5.2317 12.0695
# 2 46.3936 114.6851 62.2895 -9.4617 9.4528 20.3627
# 3 45.4106 62.2895 120.9352 1.1967 7.3614 16.6166
# 4 -3.9766 -9.4617 1.1967 33.7028 0.1896 4.9325
# 5 -5.2317 9.4528 7.3614 0.1896 26.5722 -2.0395
# 6 12.0695 20.3627 16.6166 4.9325 -2.0395 20.8196
#
#
#
# Elastic Compliance Matrix: (Units=1/GPa)
#
#
# Indices 1 2 3 4 5 6 
#
# 1 0.027630 -0.007815 -0.006621 0.001613 0.009850 -0.002507
# 2 -0.007815 0.017068 -0.003938 0.005674 -0.007411 -0.011090
# 3 -0.006621 -0.003938 0.013443 -0.001909 -0.003841 -0.002964
# 4 0.001613 0.005674 -0.001909 0.033457 -0.002418 -0.013125
# 5 0.009850 -0.007411 -0.003841 -0.002418 0.044019 0.009489
# 6 -0.002507 -0.011090 -0.002964 -0.013125 0.009489 0.066736
#
#
# Mechanical properties :
#
#
# Convention : Reuss Voigt Hill
#
# Bulk Modulus (GPa) = 46.74230 67.46621 57.10426
# Shear Modulus (GPa) = 20.30614 25.87990 23.09302
#
# Velocity S-wave (km/s) = 3.26380 3.68461 3.48057
# Velocity P-wave (km/s) = 6.22284 7.31395 6.79035
#
# Compressibility (1/GPa) = 0.02139390
#
# Stress axis : x y z
#
# Youngs Moduli (GPa) = 36.19228 58.59019 74.38756
#
# Poissons Ratio (x) = 0.45788 0.49251
# Poissons Ratio (y) = 0.28284 0.29292
# Poissons Ratio (z) = 0.23963 0.23071
#
# Static dielectric constant tensor:
#      x y z
#    x 3.398520 0.131940 -0.182420 
#    y 0.131940 3.612380 -0.052110 
#    z -0.182420 -0.052110 3.483240 
# 
# 
# High freq. dielectric constant tensor:
#      x y z
#    x 1.721850 0.008370 -0.018520 
#    y 0.008370 1.749390 -0.011690 
#    z -0.018520 -0.011690 1.721470 
# 
# From -- ./inp_files/205574.got.cif
#   From: 2010.06.25/outbox.cif.g09.slc.cpg/sg2_103_cif.got.tgz:205574.got - 2010.06.27 13:26:56.
