data_PCOD8039905
_publ_section_title
;
Structure prediction by ZEFSAII (Michael W. Deem and Ramdas Pophale) SiO2 
 PCOD8039905
Probable space group: P -1
;
_chemical_formula_sum "Si O2"
_cell_formula_units_Z 16
_cell_length_a 14.267004
_cell_length_b 9.952628
_cell_length_c 8.981470
_cell_angle_alpha 120.154271
_cell_angle_beta 106.884372
_cell_angle_gamma 41.835643
_cell_volume 727.709893
_symmetry_space_group_name_H-M "P -1"
_symmetry_group_IT_number 2
_symmetry_cell_setting 'triclinic'
loop_
_space_group_symop_operation_xyz
x,y,z
-x,-y,-z
loop_
_atom_site_type_symbol
_atom_site_label
_atom_site_fract_x
_atom_site_fract_y
_atom_site_fract_z
Si Si1 0.627240 0.748830 0.678801
Si Si2 0.226307 0.907034 0.957239
Si Si3 0.446540 0.214791 0.744233
Si Si4 0.914469 0.760673 0.525625
Si Si5 0.807345 0.392553 0.328824
Si Si6 0.346451 0.771903 0.265735
Si Si7 0.507801 0.703977 0.867818
Si Si8 0.882050 0.663853 0.762325
O O1 0.715548 0.512895 0.504758
O O2 0.532733 0.785289 0.784411
O O3 0.741232 0.738910 0.798785
O O4 0.523555 0.956527 0.626865
O O5 0.163446 0.820519 0.817133
O O6 0.345457 0.834791 0.861194
O O7 0.293308 0.798075 0.089019
O O8 0.104767 0.182162 0.067967
O O9 0.280667 0.410449 0.728988
O O10 0.525017 0.253004 0.698821
O O11 0.456484 0.242907 0.938211
O O12 0.036636 0.719630 0.640464
O O13 0.973109 0.606973 0.315982
O O14 0.857428 0.705148 0.593779
O O15 0.780119 0.022211 0.570030
O O16 0.394696 0.559580 0.247274
#
# Coordination Sequence:
#
# PCOD8039905 Si02
#       8
#     2   2   2   2   2   2   2   2
#     4  11  22  35  58  91 118 150 189 245 293 341
#     4  10  18  35  58  83 117 148 194 236 285 338
#     4  11  19  38  59  88 113 152 198 245 273 347
#     4   9  19  35  59  86 113 153 198 238 281 337
#     4  11  22  35  57  91 121 143 194 250 291 324
#     4  10  18  36  62  84 111 156 203 228 273 357
#     4  11  20  35  62  87 117 155 193 231 295 351
#     4   9  18  35  56  81 111 153 200 223 278 347
#
# _framework density 21.986782999999999
#
# number of rings (size 3 to 8) (size 9 to 14) (size 15 to 20)
#    0.000    1.750    6.250    1.500    0.000    2.500 
#    0.000    2.500    0.000    2.250    0.000    0.000 
#    0.000    0.000    0.000    0.000    0.000    0.000 
#
# Total GULP energy -198298.999575 kJ/mol
# GULP energy per Si atom -12393.687473 kJ/mol
# Density = 2.193674 g / cm^3
# Si number density = 21.986783 Si / 1000 Ang^3
#
#
#
# Elastic Constant Matrix: (Units=GPa)
#
#
# Indices 1 2 3 4 5 6 
#
# 1 65.7835 37.5433 23.9471 5.4173 -8.9111 14.6625
# 2 37.5433 73.8950 34.0199 31.1734 -7.7034 4.5142
# 3 23.9471 34.0199 59.0652 32.5925 4.1371 4.6166
# 4 5.4173 31.1734 32.5925 41.9739 4.8267 1.8395
# 5 -8.9111 -7.7034 4.1371 4.8267 34.7191 5.9314
# 6 14.6625 4.5142 4.6166 1.8395 5.9314 27.6563
#
#
#
# Elastic Compliance Matrix: (Units=1/GPa)
#
#
# Indices 1 2 3 4 5 6 
#
# 1 0.031589 -0.016219 -0.012459 0.017585 0.006023 -0.014482
# 2 -0.016219 0.031348 -0.000051 -0.021914 0.005190 0.003835
# 3 -0.012459 -0.000051 0.036672 -0.026459 -0.004448 0.003206
# 4 0.017585 -0.021914 -0.026459 0.059100 -0.004685 -0.004256
# 5 0.006023 0.005190 -0.004448 -0.004685 0.034454 -0.010375
# 6 -0.014482 0.003835 0.003206 -0.004256 -0.010375 0.045183
#
#
# Mechanical properties :
#
#
# Convention : Reuss Voigt Hill
#
# Bulk Modulus (GPa) = 23.72436 43.30716 33.51576
# Shear Modulus (GPa) = 16.13663 27.75208 21.94436
#
# Velocity S-wave (km/s) = 2.71204 3.55662 3.16265
# Velocity P-wave (km/s) = 4.54099 6.05027 5.34913
#
# Compressibility (1/GPa) = 0.04215077
#
# Stress axis : x y z
#
# Youngs Moduli (GPa) = 31.65678 31.90032 27.26856
#
# Poissons Ratio (x) = 0.51740 0.33974
# Poissons Ratio (y) = 0.51345 0.00139
# Poissons Ratio (z) = 0.39441 0.00162
#
# Static dielectric constant tensor:
#      x y z
#    x 3.829420 -0.016910 0.008770 
#    y -0.016910 3.863460 0.664650 
#    z 0.008770 0.664650 4.018150 
# 
# 
# High freq. dielectric constant tensor:
#      x y z
#    x 1.857430 0.001740 0.001470 
#    y 0.001740 1.838000 0.050480 
#    z 0.001470 0.050480 1.858420 
# 
# From -- ./inp_files/296105.got.cif
#   From: 2010.06.25/outbox.cif.g09.slc.cpg/sg2_149_cif.got.tgz:296105.got - 2010.06.27 13:26:56.
