data_PCOD8039756
_publ_section_title
;
Structure prediction by ZEFSAII (Michael W. Deem and Ramdas Pophale) SiO2 
 PCOD8039756
Probable space group: P -1
;
_chemical_formula_sum "Si O2"
_cell_formula_units_Z 16
_cell_length_a 9.640895
_cell_length_b 11.373499
_cell_length_c 9.745583
_cell_angle_alpha 123.341149
_cell_angle_beta 73.596057
_cell_angle_gamma 115.283884
_cell_volume 805.601043
_symmetry_space_group_name_H-M "P -1"
_symmetry_group_IT_number 2
_symmetry_cell_setting 'triclinic'
loop_
_space_group_symop_operation_xyz
x,y,z
-x,-y,-z
loop_
_atom_site_type_symbol
_atom_site_label
_atom_site_fract_x
_atom_site_fract_y
_atom_site_fract_z
Si Si1 0.861607 0.658050 0.922682
Si Si2 0.872511 0.591303 0.188613
Si Si3 0.328514 0.728615 0.011179
Si Si4 0.110071 0.101238 0.642250
Si Si5 0.807565 0.344674 0.709623
Si Si6 0.127450 0.901882 0.056477
Si Si7 0.335152 0.953536 0.583202
Si Si8 0.672546 0.861461 0.039228
O O1 0.802286 0.503889 0.753087
O O2 0.907269 0.600703 0.021225
O O3 0.729909 0.736248 0.016961
O O4 0.024775 0.773916 0.895902
O O5 0.810290 0.727857 0.323333
O O6 0.023519 0.631225 0.264876
O O7 0.750852 0.427587 0.148681
O O8 0.314030 0.712328 0.169077
O O9 0.258129 0.853682 0.063119
O O10 0.509136 0.781596 0.961305
O O11 0.007948 0.088508 0.799175
O O12 0.249847 0.043573 0.579827
O O13 0.000000 0.000000 0.500000
O O14 0.756810 0.224519 0.522939
O O15 0.204837 0.059889 0.062527
O O16 0.500000 0.000000 0.500000
O O17 0.341074 0.006797 0.773296
#
# Coordination Sequence:
#
# PCOD8039756 Si02
#       8
#     2   2   2   2   2   2   2   2
#     4  10  20  36  61  87 114 157 201 244 287 345
#     4  10  18  34  63  88 109 151 209 246 279 341
#     4  11  20  37  61  87 117 152 200 249 290 339
#     4  11  21  37  64  88 113 157 201 245 289 344
#     4  11  19  37  63  86 118 150 203 249 288 344
#     4  11  21  40  62  85 117 162 207 230 283 370
#     4  12  24  37  56  94 126 149 187 252 308 338
#     4  12  25  37  58  92 126 157 191 241 302 354
#
# _framework density 19.860945999999998
#
# number of rings (size 3 to 8) (size 9 to 14) (size 15 to 20)
#    0.000    1.000    8.750    1.500    0.000    3.000 
#    0.000    0.625    2.750    0.750    0.000    0.000 
#    0.000    0.000    0.000    0.000    0.000    0.000 
#
# Total GULP energy -198240.281770 kJ/mol
# GULP energy per Si atom -12390.017611 kJ/mol
# Density = 1.981574 g / cm^3
# Si number density = 19.860946 Si / 1000 Ang^3
#
#
#
# Elastic Constant Matrix: (Units=GPa)
#
#
# Indices 1 2 3 4 5 6 
#
# 1 122.4561 42.6186 32.8004 9.8844 -8.6768 19.0274
# 2 42.6186 89.5684 40.5241 23.1992 -4.4244 9.5276
# 3 32.8004 40.5241 89.0153 34.7517 -2.0441 5.1100
# 4 9.8844 23.1992 34.7517 33.2335 4.1557 3.8182
# 5 -8.6768 -4.4244 -2.0441 4.1557 25.5175 4.8581
# 6 19.0274 9.5276 5.1100 3.8182 4.8581 24.3524
#
#
#
# Elastic Compliance Matrix: (Units=1/GPa)
#
#
# Indices 1 2 3 4 5 6 
#
# 1 0.011672 -0.003801 -0.003124 0.002877 0.004163 -0.008259
# 2 -0.003801 0.016690 -0.003119 -0.007364 0.002998 -0.002348
# 3 -0.003124 -0.003119 0.021618 -0.020075 0.003083 0.001657
# 4 0.002877 -0.007364 -0.020075 0.056940 -0.010813 -0.001925
# 5 0.004163 0.002998 0.003083 -0.010813 0.045503 -0.012455
# 6 -0.008259 -0.002348 0.001657 -0.001925 -0.012455 0.050874
#
#
# Mechanical properties :
#
#
# Convention : Reuss Voigt Hill
#
# Bulk Modulus (GPa) = 33.45415 59.21399 46.33407
# Shear Modulus (GPa) = 21.42716 28.96046 25.19381
#
# Velocity S-wave (km/s) = 3.28816 3.82273 3.56548
# Velocity P-wave (km/s) = 5.59435 7.02591 6.35060
#
# Compressibility (1/GPa) = 0.02989166
#
# Stress axis : x y z
#
# Youngs Moduli (GPa) = 85.67576 59.91734 46.25809
#
# Poissons Ratio (x) = 0.22777 0.14449
# Poissons Ratio (y) = 0.32569 0.14427
# Poissons Ratio (z) = 0.26762 0.18687
#
# Static dielectric constant tensor:
#      x y z
#    x 3.497730 -0.040180 -0.141640 
#    y -0.040180 3.633190 0.527610 
#    z -0.141640 0.527610 3.612400 
# 
# 
# High freq. dielectric constant tensor:
#      x y z
#    x 1.784470 0.002420 -0.002170 
#    y 0.002420 1.756070 0.046140 
#    z -0.002170 0.046140 1.753650 
# 
# From -- ./inp_files/389378.got.cif
#   From: 2010.06.25/outbox.cif.g09.slc.cpg/sg2_195_cif.got.tgz:389378.got - 2010.06.27 13:26:56.
