data_PCOD8039368
_publ_section_title
;
Structure prediction by ZEFSAII (Michael W. Deem and Ramdas Pophale) SiO2 
 PCOD8039368
Probable space group: P -1
;
_chemical_formula_sum "Si O2"
_cell_formula_units_Z 16
_cell_length_a 13.873634
_cell_length_b 15.019848
_cell_length_c 13.970944
_cell_angle_alpha 150.378569
_cell_angle_beta 141.306892
_cell_angle_gamma 28.428679
_cell_volume 683.438459
_symmetry_space_group_name_H-M "P -1"
_symmetry_group_IT_number 2
_symmetry_cell_setting 'triclinic'
loop_
_space_group_symop_operation_xyz
x,y,z
-x,-y,-z
loop_
_atom_site_type_symbol
_atom_site_label
_atom_site_fract_x
_atom_site_fract_y
_atom_site_fract_z
Si Si1 0.117402 0.370073 0.625476
Si Si2 0.896236 0.941065 0.534167
Si Si3 0.648958 0.431650 0.466393
Si Si4 0.141542 0.724537 0.050930
Si Si5 0.771344 0.236511 0.043185
Si Si6 0.730502 0.663070 0.479243
Si Si7 0.664526 0.139403 0.046054
Si Si8 0.509584 0.103943 0.314423
O O1 0.275633 0.230403 0.528574
O O2 0.910052 0.599827 0.629119
O O3 0.091155 0.199041 0.494818
O O4 0.180029 0.478710 0.853010
O O5 0.807725 0.204476 0.745989
O O6 0.747985 0.974710 0.368188
O O7 0.122879 0.781536 0.518376
O O8 0.500000 0.500000 0.500000
O O9 0.629323 0.655898 0.630575
O O10 0.589121 0.356838 0.258904
O O11 0.285284 0.696898 0.050787
O O12 0.904080 0.938755 0.052564
O O13 0.765496 0.427051 0.272826
O O14 0.623812 0.216485 0.972891
O O15 0.000000 0.000000 0.000000
O O16 0.525590 0.856932 0.560869
O O17 0.539647 0.060280 0.910737
#
# Coordination Sequence:
#
# PCOD8039368 Si02
#       8
#     2   2   2   2   2   2   2   2
#     4  10  18  34  57  87 127 169 206 241 289 358
#     4  11  24  40  62  94 127 161 204 254 308 360
#     4  11  25  48  69  87 118 159 207 265 321 369
#     4   9  18  33  57  86 126 170 205 237 287 362
#     4   9  16  29  56  89 122 168 211 239 287 357
#     4  10  18  33  58  88 128 169 205 245 292 356
#     4  10  19  37  63  90 120 162 202 251 311 361
#     4  12  24  40  64  95 126 157 208 256 309 374
#
# _framework density 23.411031999999999
#
# number of rings (size 3 to 8) (size 9 to 14) (size 15 to 20)
#    0.000    1.750    3.750    1.500    3.500    2.500 
#    0.000    1.875    0.000    0.000    0.000    0.000 
#    0.000    0.000    0.000    0.000    0.000    0.000 
#
# Total GULP energy -198286.679810 kJ/mol
# GULP energy per Si atom -12392.917488 kJ/mol
# Density = 2.335775 g / cm^3
# Si number density = 23.411032 Si / 1000 Ang^3
#
#
#
# Elastic Constant Matrix: (Units=GPa)
#
#
# Indices 1 2 3 4 5 6 
#
# 1 102.7250 3.1594 29.8003 0.8737 -2.6943 -14.7889
# 2 3.1594 27.2244 9.9291 -10.1839 -1.7609 -13.0095
# 3 29.8003 9.9291 95.4512 -0.1973 22.0240 -6.8830
# 4 0.8737 -10.1839 -0.1973 18.4478 -4.3279 5.1798
# 5 -2.6943 -1.7609 22.0240 -4.3279 26.2591 1.3654
# 6 -14.7889 -13.0095 -6.8830 5.1798 1.3654 22.8279
#
#
#
# Elastic Compliance Matrix: (Units=1/GPa)
#
#
# Indices 1 2 3 4 5 6 
#
# 1 0.012508 0.005617 -0.005144 0.001226 0.005701 0.009134
# 2 0.005617 0.068066 -0.010684 0.032776 0.017908 0.030699
# 3 -0.005144 -0.010684 0.016995 -0.009104 -0.016935 -0.001218
# 4 0.001226 0.032776 -0.009104 0.078206 0.022973 -0.002392
# 5 0.005701 0.017908 -0.016935 0.022973 0.057852 0.000120
# 6 0.009134 0.030699 -0.001218 -0.002392 0.000120 0.067387
#
#
# Mechanical properties :
#
#
# Convention : Reuss Voigt Hill
#
# Bulk Modulus (GPa) = 12.96249 34.57534 23.76892
# Shear Modulus (GPa) = 14.40293 25.67442 20.03868
#
# Velocity S-wave (km/s) = 2.48305 3.31521 2.92884
# Velocity P-wave (km/s) = 3.71075 5.42725 4.64891
#
# Compressibility (1/GPa) = 0.07714568
#
# Stress axis : x y z
#
# Youngs Moduli (GPa) = 79.94700 14.69173 58.84186
#
# Poissons Ratio (x) = -0.08252 0.30266
# Poissons Ratio (y) = -0.44904 0.62869
# Poissons Ratio (z) = 0.41122 0.15697
#
# Static dielectric constant tensor:
#      x y z
#    x 4.173790 -0.191590 0.116390 
#    y -0.191590 3.829290 0.080180 
#    z 0.116390 0.080180 4.321430 
# 
# 
# High freq. dielectric constant tensor:
#      x y z
#    x 1.899900 -0.019680 0.017200 
#    y -0.019680 1.901350 0.012310 
#    z 0.017200 0.012310 1.929570 
# 
# From -- ./inp_files/533927.got.cif
#   From: 2010.06.25/outbox.cif.g09.slc.cpg/sg2_267_cif.got.tgz:533927.got - 2010.06.27 13:26:56.
