data_PCOD8039199
_publ_section_title
;
Structure prediction by ZEFSAII (Michael W. Deem and Ramdas Pophale) SiO2 
 PCOD8039199
Probable space group: P -1
;
_chemical_formula_sum "Si O2"
_cell_formula_units_Z 14
_cell_length_a 5.122258
_cell_length_b 14.743805
_cell_length_c 14.408544
_cell_angle_alpha 123.567150
_cell_angle_beta 66.228876
_cell_angle_gamma 83.476553
_cell_volume 744.621194
_symmetry_space_group_name_H-M "P -1"
_symmetry_group_IT_number 2
_symmetry_cell_setting 'triclinic'
loop_
_space_group_symop_operation_xyz
x,y,z
-x,-y,-z
loop_
_atom_site_type_symbol
_atom_site_label
_atom_site_fract_x
_atom_site_fract_y
_atom_site_fract_z
Si Si1 0.330354 0.398946 0.647774
Si Si2 0.314142 0.868124 0.479221
Si Si3 0.044549 0.573159 0.951520
Si Si4 0.589650 0.004679 0.636559
Si Si5 0.388045 0.705838 0.912760
Si Si6 0.154255 0.509694 0.388318
Si Si7 0.688840 0.810977 0.061393
O O1 0.477958 0.271390 0.606751
O O2 0.091397 0.498035 0.808168
O O3 0.609031 0.431190 0.592188
O O4 0.121454 0.400899 0.590173
O O5 0.427279 0.895258 0.379189
O O6 0.362574 0.947384 0.599484
O O7 0.944271 0.899691 0.541392
O O8 0.339158 0.611002 0.938683
O O9 0.000000 0.500000 0.000000
O O10 0.722518 0.698285 0.058974
O O11 0.466825 0.065355 0.788483
O O12 0.657465 0.627110 0.756051
O O13 0.473178 0.807196 0.004783
O O14 0.042204 0.784340 0.958545
O O15 0.000000 0.500000 0.500000
#
# Coordination Sequence:
#
# PCOD8039199 Si02
#       7
#     2   2   2   2   2   2   2
#     4  11  21  37  54  85 115 140 183 229 275 334
#     4  10  21  35  52  77 113 146 193 223 251 319
#     4   9  19  31  49  77 112 143 164 213 275 329
#     4  10  20  35  53  77 107 159 188 212 260 313
#     4   9  19  33  48  79 105 130 185 208 271 328
#     4  11  21  38  58  81 111 143 180 234 289 335
#     4  10  18  33  50  74 107 137 181 214 258 319
#
# _framework density 18.801507000000001
#
# number of rings (size 3 to 8) (size 9 to 14) (size 15 to 20)
#    0.857    1.143    1.429    3.000    0.000    0.571 
#    2.571    0.000    0.000    0.000    0.000   20.000 
#    0.000    0.000    0.000    0.000    0.000    0.000 
#
# Total GULP energy -173474.616499 kJ/mol
# GULP energy per Si atom -12391.044036 kJ/mol
# Density = 1.875871 g / cm^3
# Si number density = 18.801507 Si / 1000 Ang^3
#
#
#
# Elastic Constant Matrix: (Units=GPa)
#
#
# Indices 1 2 3 4 5 6 
#
# 1 101.4599 7.0537 20.4988 -8.6721 5.7975 -2.3000
# 2 7.0537 27.3567 5.5756 -7.4839 -3.1999 -1.9011
# 3 20.4988 5.5756 74.4396 -5.0197 7.5009 6.1818
# 4 -8.6721 -7.4839 -5.0197 26.9147 0.0746 -5.9832
# 5 5.7975 -3.1999 7.5009 0.0746 24.9948 1.5315
# 6 -2.3000 -1.9011 6.1818 -5.9832 1.5315 21.1828
#
#
#
# Elastic Compliance Matrix: (Units=1/GPa)
#
#
# Indices 1 2 3 4 5 6 
#
# 1 0.010973 -0.001413 -0.002727 0.003294 -0.002098 0.002943
# 2 -0.001413 0.042203 -0.003194 0.012358 0.006186 0.007610
# 3 -0.002727 -0.003194 0.015227 0.000035 -0.004057 -0.004723
# 4 0.003294 0.012358 0.000035 0.044799 -0.000191 0.014124
# 5 -0.002098 0.006186 -0.004057 -0.000191 0.042604 -0.001623
# 6 0.002943 0.007610 -0.004723 0.014124 -0.001623 0.053696
#
#
# Mechanical properties :
#
#
# Convention : Reuss Voigt Hill
#
# Bulk Modulus (GPa) = 18.60965 29.94581 24.27773
# Shear Modulus (GPa) = 20.65416 25.96035 23.30725
#
# Velocity S-wave (km/s) = 3.31801 3.71989 3.52468
# Velocity P-wave (km/s) = 4.95968 5.86617 5.43187
#
# Compressibility (1/GPa) = 0.05373557
#
# Stress axis : x y z
#
# Youngs Moduli (GPa) = 91.12923 23.69511 65.67217
#
# Poissons Ratio (x) = 0.03349 0.17907
# Poissons Ratio (y) = 0.12880 0.20974
# Poissons Ratio (z) = 0.24849 0.07568
#
# Static dielectric constant tensor:
#      x y z
#    x 3.839350 0.548180 -0.360100 
#    y 0.548180 4.225610 -0.896740 
#    z -0.360100 -0.896740 4.068710 
# 
# 
# High freq. dielectric constant tensor:
#      x y z
#    x 1.746910 0.000470 0.000280 
#    y 0.000470 1.677210 0.008720 
#    z 0.000280 0.008720 1.729760 
# 
# From -- ./inp_files/481130.got.cif
#   From: 2010.06.25/outbox.cif.g09.slc.cpg/sg2_241_cif.got.tgz:481130.got - 2010.06.27 13:26:56.
