data_PCOD8039277
_publ_section_title
;
Structure prediction by ZEFSAII (Michael W. Deem and Ramdas Pophale) SiO2 
 PCOD8039277
Probable space group: P -1
;
_chemical_formula_sum "Si O2"
_cell_formula_units_Z 16
_cell_length_a 17.736839
_cell_length_b 16.610393
_cell_length_c 18.217352
_cell_angle_alpha 41.646052
_cell_angle_beta 16.082035
_cell_angle_gamma 41.097626
_cell_volume 969.375425
_symmetry_space_group_name_H-M "P -1"
_symmetry_group_IT_number 2
_symmetry_cell_setting 'triclinic'
loop_
_space_group_symop_operation_xyz
x,y,z
-x,-y,-z
loop_
_atom_site_type_symbol
_atom_site_label
_atom_site_fract_x
_atom_site_fract_y
_atom_site_fract_z
Si Si1 0.027843 0.597497 0.970044
Si Si2 0.759692 0.764445 0.710496
Si Si3 0.415971 0.453959 0.032738
Si Si4 0.726024 0.226534 0.601944
Si Si5 0.782017 0.107742 0.786456
Si Si6 0.861729 0.476638 0.476211
Si Si7 0.835167 0.829626 0.896816
Si Si8 0.638885 0.517998 0.505394
O O1 0.837198 0.579614 0.227985
O O2 0.333276 0.581815 0.726252
O O3 0.000000 0.500000 0.000000
O O4 0.945288 0.734710 0.922888
O O5 0.624684 0.690299 0.823278
O O6 0.948503 0.862357 0.440765
O O7 0.990714 0.656383 0.606692
O O8 0.515793 0.822433 0.953901
O O9 0.116386 0.535585 0.231416
O O10 0.500000 0.500000 0.000000
O O11 0.649154 0.462086 0.749339
O O12 0.819289 0.148696 0.640542
O O13 0.681784 0.372347 0.554026
O O14 0.956981 0.180133 0.358001
O O15 0.447335 0.193965 0.855125
O O16 0.792017 0.963460 0.882924
O O17 0.698182 0.553102 0.510297
#
# Coordination Sequence:
#
# PCOD8039277 Si02
#       8
#     2   2   2   2   2   2   2   2
#     4  12  23  37  51  71  98 142 186 241 266 290
#     4  10  19  33  52  74 107 138 160 193 258 309
#     4  10  18  33  55  83 118 136 155 195 256 337
#     4  12  20  35  52  70  96 135 177 233 272 300
#     4  12  22  35  50  73 104 138 175 216 261 320
#     4  10  20  33  52  83 106 142 165 201 262 314
#     4  12  25  35  48  71 100 135 189 227 263 302
#     4  12  21  35  58  69 105 136 186 220 268 314
#
# _framework density 16.505474
#
# number of rings (size 3 to 8) (size 9 to 14) (size 15 to 20)
#    0.750    0.000    5.000    4.500    1.750    0.000 
#    0.000    0.000    0.000    0.000    0.000    0.000 
#    0.000   20.000    0.000    0.000    0.000    0.000 
#
# Total GULP energy -198254.556950 kJ/mol
# GULP energy per Si atom -12390.909809 kJ/mol
# Density = 1.646791 g / cm^3
# Si number density = 16.505474 Si / 1000 Ang^3
#
#
#
# Elastic Constant Matrix: (Units=GPa)
#
#
# Indices 1 2 3 4 5 6 
#
# 1 118.6553 51.8899 65.1337 -0.2479 -12.9582 -0.6628
# 2 51.8899 91.3898 44.3939 -10.6289 0.4720 -3.6305
# 3 65.1337 44.3939 160.5504 5.7601 -10.2549 -0.2996
# 4 -0.2479 -10.6289 5.7601 32.3642 -0.4583 -4.5116
# 5 -12.9582 0.4720 -10.2549 -0.4583 28.9960 0.0907
# 6 -0.6628 -3.6305 -0.2996 -4.5116 0.0907 14.6826
#
#
#
# Elastic Compliance Matrix: (Units=1/GPa)
#
#
# Indices 1 2 3 4 5 6 
#
# 1 0.013588 -0.006327 -0.003395 -0.001511 0.004956 -0.001515
# 2 -0.006327 0.016812 -0.002561 0.006696 -0.003920 0.005901
# 3 -0.003395 -0.002561 0.008499 -0.002555 0.001494 -0.001407
# 4 -0.001511 0.006696 -0.002555 0.035249 -0.001169 0.012374
# 5 0.004956 -0.003920 0.001494 -0.001169 0.037280 -0.001305
# 6 -0.001515 0.005901 -0.001407 0.012374 -0.001305 0.073280
#
#
# Mechanical properties :
#
#
# Convention : Reuss Voigt Hill
#
# Bulk Modulus (GPa) = 69.77713 77.04784 73.41249
# Shear Modulus (GPa) = 23.35872 29.15377 26.25625
#
# Velocity S-wave (km/s) = 3.76601 4.20731 3.99276
# Velocity P-wave (km/s) = 7.82799 8.38948 8.11359
#
# Compressibility (1/GPa) = 0.01433134
#
# Stress axis : x y z
#
# Youngs Moduli (GPa) = 73.59388 59.47967 117.66587
#
# Poissons Ratio (x) = 0.37635 0.39948
# Poissons Ratio (y) = 0.46566 0.30139
# Poissons Ratio (z) = 0.24985 0.15235
#
# Static dielectric constant tensor:
#      x y z
#    x 3.036490 -0.009990 -0.209550 
#    y -0.009990 3.029240 0.001650 
#    z -0.209550 0.001650 3.421090 
# 
# 
# High freq. dielectric constant tensor:
#      x y z
#    x 1.613330 0.000300 -0.016780 
#    y 0.000300 1.608290 0.009080 
#    z -0.016780 0.009080 1.667080 
# 
# From -- ./inp_files/467781.got.cif
#   From: 2010.06.25/outbox.cif.g09.slc.cpg/sg2_234_cif.got.tgz:467781.got - 2010.06.27 13:26:56.
