data_PCOD8039624
_publ_section_title
;
Structure prediction by ZEFSAII (Michael W. Deem and Ramdas Pophale) SiO2 
 PCOD8039624
Probable space group: P -1
;
_chemical_formula_sum "Si O2"
_cell_formula_units_Z 14
_cell_length_a 9.897617
_cell_length_b 15.946612
_cell_length_c 10.916130
_cell_angle_alpha 37.434402
_cell_angle_beta 138.673907
_cell_angle_gamma 143.519019
_cell_volume 591.731926
_symmetry_space_group_name_H-M "P -1"
_symmetry_group_IT_number 2
_symmetry_cell_setting 'triclinic'
loop_
_space_group_symop_operation_xyz
x,y,z
-x,-y,-z
loop_
_atom_site_type_symbol
_atom_site_label
_atom_site_fract_x
_atom_site_fract_y
_atom_site_fract_z
Si Si1 0.182884 0.922941 0.417290
Si Si2 0.249140 0.645552 0.155965
Si Si3 0.884938 0.238757 0.702364
Si Si4 0.685386 0.433767 0.442944
Si Si5 0.490643 0.794996 0.828014
Si Si6 0.751933 0.540429 0.864742
Si Si7 0.270245 0.078963 0.910170
O O1 0.177991 0.850376 0.365301
O O2 0.297349 0.849191 0.671728
O O3 0.365425 0.115906 0.300815
O O4 0.926038 0.889181 0.325189
O O5 0.206669 0.559467 0.357052
O O6 0.272734 0.531129 0.205449
O O7 0.485645 0.825456 0.112838
O O8 0.025909 0.665773 0.943048
O O9 0.707875 0.306323 0.522784
O O10 0.160169 0.387153 0.718890
O O11 0.835955 0.112779 0.926123
O O12 0.406374 0.377049 0.328783
O O13 0.680021 0.842369 0.012171
O O14 0.345059 0.603700 0.933885
#
# Coordination Sequence:
#
# PCOD8039624 Si02
#       7
#     2   2   2   2   2   2   2
#     4  10  18  34  58  84 110 141 180 230 273 313
#     4  10  22  36  58  82 107 143 187 222 269 326
#     4  10  21  37  57  81 112 144 185 221 265 333
#     4  11  22  38  56  80 113 149 177 221 276 320
#     4   9  18  31  55  84 107 136 183 225 269 318
#     4  10  20  37  57  82 111 140 181 231 268 320
#     4  10  20  37  58  83 110 141 181 231 270 313
#
# _framework density 23.659362000000002
#
# number of rings (size 3 to 8) (size 9 to 14) (size 15 to 20)
#    0.000    2.000    0.000    5.571    0.000    4.000 
#    0.000   12.857    0.000    0.000    0.000    0.000 
#    0.000    0.000    0.000    0.000    0.000    0.000 
#
# Total GULP energy -173535.267897 kJ/mol
# GULP energy per Si atom -12395.376278 kJ/mol
# Density = 2.360551 g / cm^3
# Si number density = 23.659362 Si / 1000 Ang^3
#
#
#
# Elastic Constant Matrix: (Units=GPa)
#
#
# Indices 1 2 3 4 5 6 
#
# 1 66.5168 31.8290 23.7799 1.6542 17.7618 17.9819
# 2 31.8290 94.5766 35.3595 3.4445 9.5498 31.7912
# 3 23.7799 35.3595 79.8017 19.7604 16.7576 16.3720
# 4 1.6542 3.4445 19.7604 39.1634 13.9974 9.3543
# 5 17.7618 9.5498 16.7576 13.9974 32.6322 5.1569
# 6 17.9819 31.7912 16.3720 9.3543 5.1569 26.0210
#
#
#
# Elastic Compliance Matrix: (Units=1/GPa)
#
#
# Indices 1 2 3 4 5 6 
#
# 1 0.023386 -0.001387 -0.003158 0.008179 -0.012154 -0.013011
# 2 -0.001387 0.020829 -0.005411 0.007228 -0.001982 -0.023291
# 3 -0.003158 -0.005411 0.018250 -0.007736 -0.002855 0.000658
# 4 0.008179 0.007228 -0.007736 0.039115 -0.016137 -0.020480
# 5 -0.012154 -0.001982 -0.002855 -0.016137 0.044718 0.009555
# 6 -0.013011 -0.023291 0.000658 -0.020480 0.009555 0.080932
#
#
# Mechanical properties :
#
#
# Convention : Reuss Voigt Hill
#
# Bulk Modulus (GPa) = 23.50027 46.98131 35.24079
# Shear Modulus (GPa) = 19.13316 29.55843 24.34579
#
# Velocity S-wave (km/s) = 2.84684 3.53843 3.21130
# Velocity P-wave (km/s) = 4.55635 6.04933 5.35513
#
# Compressibility (1/GPa) = 0.04255270
#
# Stress axis : x y z
#
# Youngs Moduli (GPa) = 42.76115 48.00961 54.79478
#
# Poissons Ratio (x) = 0.06657 0.17304
# Poissons Ratio (y) = 0.05929 0.29652
# Poissons Ratio (z) = 0.13504 0.25980
#
# Static dielectric constant tensor:
#      x y z
#    x 3.885100 0.453230 0.016190 
#    y 0.453230 4.335920 -0.088440 
#    z 0.016190 -0.088440 4.359530 
# 
# 
# High freq. dielectric constant tensor:
#      x y z
#    x 1.892950 0.035690 0.005190 
#    y 0.035690 1.930690 0.003420 
#    z 0.005190 0.003420 1.941250 
# 
# From -- ./inp_files/451174.got.cif
#   From: 2010.06.25/outbox.cif.g09.slc.cpg/sg2_226_cif.got.tgz:451174.got - 2010.06.27 13:26:56.
