data_PCOD8039670
_publ_section_title
;
Structure prediction by ZEFSAII (Michael W. Deem and Ramdas Pophale) SiO2 
 PCOD8039670
Probable space group: P -1
;
_chemical_formula_sum "Si O2"
_cell_formula_units_Z 16
_cell_length_a 8.706651
_cell_length_b 15.357187
_cell_length_c 12.554718
_cell_angle_alpha 40.243543
_cell_angle_beta 122.713757
_cell_angle_gamma 101.878177
_cell_volume 843.931894
_symmetry_space_group_name_H-M "P -1"
_symmetry_group_IT_number 2
_symmetry_cell_setting 'triclinic'
loop_
_space_group_symop_operation_xyz
x,y,z
-x,-y,-z
loop_
_atom_site_type_symbol
_atom_site_label
_atom_site_fract_x
_atom_site_fract_y
_atom_site_fract_z
Si Si1 0.531303 0.099679 0.561692
Si Si2 0.938517 0.905537 0.983440
Si Si3 0.076321 0.847959 0.864892
Si Si4 0.035793 0.422042 0.921119
Si Si5 0.318321 0.421819 0.210111
Si Si6 0.438461 0.686653 0.018336
Si Si7 0.106580 0.385315 0.738184
Si Si8 0.284138 0.930833 0.568714
O O1 0.466611 0.258211 0.442780
O O2 0.592194 0.111812 0.452814
O O3 0.708871 0.985272 0.799579
O O4 0.354815 0.041210 0.558840
O O5 0.075091 0.895691 0.941482
O O6 0.971825 0.744350 0.187547
O O7 0.000000 0.000000 0.000000
O O8 0.303105 0.770972 0.988117
O O9 0.951895 0.989873 0.614338
O O10 0.956458 0.741180 0.910512
O O11 0.053131 0.455484 0.771290
O O12 0.834713 0.536566 0.788059
O O13 0.216772 0.431994 0.046968
O O14 0.441299 0.525149 0.157337
O O15 0.658085 0.676369 0.130742
O O16 0.333699 0.778967 0.789363
O O17 0.000000 0.500000 0.500000
#
# Coordination Sequence:
#
# PCOD8039670 Si02
#       8
#     2   2   2   2   2   2   2   2
#     4  10  19  34  60  84 110 151 188 227 281 348
#     4  10  22  42  60  78 107 155 201 231 267 339
#     4   9  19  38  61  84 114 148 186 230 289 341
#     4   9  19  39  59  83 119 151 183 231 281 348
#     4  10  20  35  61  91 113 143 189 233 287 338
#     4  11  22  36  58  90 116 146 183 239 288 334
#     4  11  24  42  58  79 118 156 192 234 285 329
#     4  10  18  34  59  86 117 146 178 229 300 339
#
# _framework density 18.958874000000002
#
# number of rings (size 3 to 8) (size 9 to 14) (size 15 to 20)
#    0.000    2.000    2.500    1.125    1.750    2.000 
#    4.500    2.500    0.000    0.000    0.000    0.000 
#    0.000    0.000    0.000    0.000    0.000    0.000 
#
# Total GULP energy -198398.237904 kJ/mol
# GULP energy per Si atom -12399.889869 kJ/mol
# Density = 1.891572 g / cm^3
# Si number density = 18.958874 Si / 1000 Ang^3
#
#
#
# Elastic Constant Matrix: (Units=GPa)
#
#
# Indices 1 2 3 4 5 6 
#
# 1 75.5974 42.8776 38.4794 7.4583 1.8943 -7.1941
# 2 42.8776 109.8415 34.2026 -0.7522 -2.3639 -12.9347
# 3 38.4794 34.2026 115.7963 -4.3514 -8.3246 -15.5214
# 4 7.4583 -0.7522 -4.3514 31.7075 -3.5253 -0.4644
# 5 1.8943 -2.3639 -8.3246 -3.5253 20.4991 -4.2115
# 6 -7.1941 -12.9347 -15.5214 -0.4644 -4.2115 21.6597
#
#
#
# Elastic Compliance Matrix: (Units=1/GPa)
#
#
# Indices 1 2 3 4 5 6 
#
# 1 0.020655 -0.006731 -0.006016 -0.006652 -0.006878 -0.002950
# 2 -0.006731 0.012619 -0.000381 0.002304 0.003502 0.005758
# 3 -0.006016 -0.000381 0.012623 0.004163 0.008097 0.008484
# 4 -0.006652 0.002304 0.004163 0.034859 0.009542 0.004752
# 5 -0.006878 0.003502 0.008097 0.009542 0.058273 0.017145
# 6 -0.002950 0.005758 0.008484 0.004752 0.017145 0.058143
#
#
# Mechanical properties :
#
#
# Convention : Reuss Voigt Hill
#
# Bulk Modulus (GPa) = 50.90672 59.15048 55.02860
# Shear Modulus (GPa) = 21.74157 27.15165 24.44661
#
# Velocity S-wave (km/s) = 3.39008 3.78846 3.59479
# Velocity P-wave (km/s) = 6.49869 7.09955 6.80576
#
# Compressibility (1/GPa) = 0.01964377
#
# Stress axis : x y z
#
# Youngs Moduli (GPa) = 48.41360 79.24499 79.22077
#
# Poissons Ratio (x) = 0.53338 0.47655
# Poissons Ratio (y) = 0.32586 0.03015
# Poissons Ratio (z) = 0.29123 0.03015
#
# Static dielectric constant tensor:
#      x y z
#    x 3.516140 -0.279950 -0.048690 
#    y -0.279950 4.681470 0.698980 
#    z -0.048690 0.698980 4.017480 
# 
# 
# High freq. dielectric constant tensor:
#      x y z
#    x 1.735610 -0.008300 0.004210 
#    y -0.008300 1.727720 -0.015240 
#    z 0.004210 -0.015240 1.732910 
# 
# From -- ./inp_files/202077.got.cif
#   From: 2010.06.25/outbox.cif.g09.slc.cpg/sg2_102_cif.got.tgz:202077.got - 2010.06.27 13:26:56.
