data_PCOD8039526
_publ_section_title
;
Structure prediction by ZEFSAII (Michael W. Deem and Ramdas Pophale) SiO2 
 PCOD8039526
Probable space group: P -1
;
_chemical_formula_sum "Si O2"
_cell_formula_units_Z 14
_cell_length_a 9.457765
_cell_length_b 10.832597
_cell_length_c 8.062426
_cell_angle_alpha 51.680550
_cell_angle_beta 100.239568
_cell_angle_gamma 73.798203
_cell_volume 550.760584
_symmetry_space_group_name_H-M "P -1"
_symmetry_group_IT_number 2
_symmetry_cell_setting 'triclinic'
loop_
_space_group_symop_operation_xyz
x,y,z
-x,-y,-z
loop_
_atom_site_type_symbol
_atom_site_label
_atom_site_fract_x
_atom_site_fract_y
_atom_site_fract_z
Si Si1 0.919470 0.287656 0.185636
Si Si2 0.629900 0.490885 0.164217
Si Si3 0.831059 0.212549 0.709103
Si Si4 0.242588 0.238631 0.682881
Si Si5 0.477081 0.690446 0.271603
Si Si6 0.867634 0.006037 0.259732
Si Si7 0.993900 0.611748 0.209520
O O1 0.790659 0.469166 0.112700
O O2 0.054794 0.128155 0.457631
O O3 0.805992 0.211590 0.136932
O O4 0.016997 0.333832 0.029657
O O5 0.705299 0.311458 0.446514
O O6 0.533103 0.671488 0.106852
O O7 0.500000 0.500000 0.000000
O O8 0.722234 0.165681 0.858473
O O9 0.879896 0.350292 0.687405
O O10 0.992779 0.031688 0.823738
O O11 0.409706 0.242398 0.667794
O O12 0.272350 0.039996 0.801067
O O13 0.081405 0.391675 0.418578
O O14 0.188497 0.284634 0.828602
O O15 0.500000 0.500000 0.500000
#
# Coordination Sequence:
#
# PCOD8039526 Si02
#       7
#     2   2   2   2   2   2   2
#     4  10  21  37  59  85 117 159 183 227 296 350
#     4  10  19  31  54  85 111 143 191 234 275 344
#     4   9  18  34  57  81 108 153 186 234 274 340
#     4  10  20  34  57  87 115 144 195 248 271 327
#     4  10  18  34  55  84 109 151 187 237 284 326
#     4   9  21  40  58  85 119 149 193 232 283 348
#     4  10  19  34  57  86 112 148 194 237 283 324
#
# _framework density 25.419394
#
# number of rings (size 3 to 8) (size 9 to 14) (size 15 to 20)
#    0.000    2.286    2.857    0.857    4.000    2.857 
#    0.000    0.000    0.000   21.429    0.000    0.000 
#    0.000    0.000    0.000    0.000    0.000    0.000 
#
# Total GULP energy -173485.029564 kJ/mol
# GULP energy per Si atom -12391.787826 kJ/mol
# Density = 2.536154 g / cm^3
# Si number density = 25.419394 Si / 1000 Ang^3
#
#
#
# Elastic Constant Matrix: (Units=GPa)
#
#
# Indices 1 2 3 4 5 6 
#
# 1 157.3386 21.6562 23.6701 3.1978 -16.9377 -15.7466
# 2 21.6562 80.2504 15.5608 2.7200 -14.7243 -12.5274
# 3 23.6701 15.5608 86.5857 19.2190 -24.5847 -9.1132
# 4 3.1978 2.7200 19.2190 30.8780 -7.5209 -9.6351
# 5 -16.9377 -14.7243 -24.5847 -7.5209 43.4294 3.5797
# 6 -15.7466 -12.5274 -9.1132 -9.6351 3.5797 44.2669
#
#
#
# Elastic Compliance Matrix: (Units=1/GPa)
#
#
# Indices 1 2 3 4 5 6 
#
# 1 0.007064 -0.001058 -0.001317 0.001242 0.001695 0.002076
# 2 -0.001058 0.014137 -0.001191 0.001574 0.003697 0.003423
# 3 -0.001317 -0.001191 0.015781 -0.007908 0.006631 0.000186
# 4 0.001242 0.001574 -0.007908 0.040160 0.002856 0.007769
# 5 0.001695 0.003697 0.006631 0.002856 0.029083 0.001284
# 6 0.002076 0.003423 0.000186 0.007769 0.001284 0.025923
#
#
# Mechanical properties :
#
#
# Convention : Reuss Voigt Hill
#
# Bulk Modulus (GPa) = 33.50071 49.54986 41.52528
# Shear Modulus (GPa) = 33.50537 41.26736 37.38636
#
# Velocity S-wave (km/s) = 3.63451 4.03359 3.83924
# Velocity P-wave (km/s) = 5.55164 6.42093 6.00204
#
# Compressibility (1/GPa) = 0.02985012
#
# Stress axis : x y z
#
# Youngs Moduli (GPa) = 141.55407 70.73818 63.36741
#
# Poissons Ratio (x) = 0.07485 0.08346
# Poissons Ratio (y) = 0.14978 0.07546
# Poissons Ratio (z) = 0.18643 0.08424
#
# Static dielectric constant tensor:
#      x y z
#    x 4.979690 -0.392510 -0.200310 
#    y -0.392510 5.063640 0.358540 
#    z -0.200310 0.358540 4.592970 
# 
# 
# High freq. dielectric constant tensor:
#      x y z
#    x 2.011500 -0.003060 -0.002900 
#    y -0.003060 2.012180 0.013480 
#    z -0.002900 0.013480 2.023690 
# 
# From -- ./inp_files/184175.got.cif
#   From: 2010.06.25/outbox.cif.g09.slc.cpg/sg2_93_cif.got.tgz:184175.got - 2010.06.27 13:26:56.
