data_PCOD8039098
_publ_section_title
;
Structure prediction by ZEFSAII (Michael W. Deem and Ramdas Pophale) SiO2 
 PCOD8039098
Probable space group: P -1
;
_chemical_formula_sum "Si O2"
_cell_formula_units_Z 14
_cell_length_a 12.726152
_cell_length_b 11.408632
_cell_length_c 12.623748
_cell_angle_alpha 92.944704
_cell_angle_beta 45.319720
_cell_angle_gamma 130.136552
_cell_volume 670.887793
_symmetry_space_group_name_H-M "P -1"
_symmetry_group_IT_number 2
_symmetry_cell_setting 'triclinic'
loop_
_space_group_symop_operation_xyz
x,y,z
-x,-y,-z
loop_
_atom_site_type_symbol
_atom_site_label
_atom_site_fract_x
_atom_site_fract_y
_atom_site_fract_z
Si Si1 0.095797 0.252228 0.426979
Si Si2 0.299637 0.436622 0.976856
Si Si3 0.280687 0.583725 0.192130
Si Si4 0.143886 0.016256 0.624352
Si Si5 0.104959 0.916792 0.214354
Si Si6 0.717168 0.351708 0.137755
Si Si7 0.744324 0.222309 0.910843
O O1 0.084098 0.383942 0.409608
O O2 0.003328 0.103695 0.391096
O O3 0.879624 0.081107 0.668300
O O4 0.418393 0.445009 0.247533
O O5 0.363730 0.538945 0.048610
O O6 0.021882 0.163361 0.172468
O O7 0.227893 0.481550 0.939286
O O8 0.110251 0.573975 0.253140
O O9 0.581293 0.832435 0.039219
O O10 0.468225 0.189646 0.395448
O O11 0.127979 0.146429 0.663204
O O12 0.037410 0.736930 0.213415
O O13 0.625543 0.198230 0.102838
O O14 0.000000 0.500000 0.000000
O O15 0.500000 0.000000 0.000000
#
# Coordination Sequence:
#
# PCOD8039098 Si02
#       7
#     2   2   2   2   2   2   2
#     4  11  17  28  56  88 112 140 188 232 276 326
#     4  10  18  32  56  83 110 138 194 236 266 321
#     4   9  17  30  47  82 120 142 172 232 279 324
#     4  11  19  32  59  83 107 150 190 229 273 329
#     4  11  18  29  52  82 113 144 176 226 283 326
#     4  11  24  41  58  79 112 154 192 225 271 336
#     4   9  20  36  55  84 119 143 176 234 286 323
#
# _framework density 20.867871999999998
#
# number of rings (size 3 to 8) (size 9 to 14) (size 15 to 20)
#    0.000    1.714    4.286    3.857    0.000    1.143 
#    0.000    5.000    0.000    0.857    0.000    0.000 
#    0.000    0.000    0.000    0.000    0.000    0.000 
#
# Total GULP energy -173480.454361 kJ/mol
# GULP energy per Si atom -12391.461026 kJ/mol
# Density = 2.082038 g / cm^3
# Si number density = 20.867872 Si / 1000 Ang^3
#
#
#
# Elastic Constant Matrix: (Units=GPa)
#
#
# Indices 1 2 3 4 5 6 
#
# 1 77.8093 33.6281 20.5318 -6.9614 -16.1089 -28.6018
# 2 33.6281 53.5576 14.6260 4.3187 -7.8448 -29.5473
# 3 20.5318 14.6260 68.0824 -8.5040 -13.7041 -10.4118
# 4 -6.9614 4.3187 -8.5040 20.6476 -5.6129 -4.7864
# 5 -16.1089 -7.8448 -13.7041 -5.6129 34.4690 1.0013
# 6 -28.6018 -29.5473 -10.4118 -4.7864 1.0013 40.7036
#
#
#
# Elastic Compliance Matrix: (Units=1/GPa)
#
#
# Indices 1 2 3 4 5 6 
#
# 1 0.025444 -0.008010 0.000960 0.017405 0.012877 0.014041
# 2 -0.008010 0.035510 -0.002868 -0.006565 0.001589 0.018604
# 3 0.000960 -0.002868 0.019165 0.012443 0.009304 0.004730
# 4 0.017405 -0.006565 0.012443 0.071236 0.022651 0.018467
# 5 0.012877 0.001589 0.009304 0.022651 0.042366 0.014203
# 6 0.014041 0.018604 0.004730 0.018467 0.014203 0.050971
#
#
# Mechanical properties :
#
#
# Convention : Reuss Voigt Hill
#
# Bulk Modulus (GPa) = 16.58811 37.44677 27.01744
# Shear Modulus (GPa) = 17.56722 27.87495 22.72109
#
# Velocity S-wave (km/s) = 2.90458 3.65880 3.30329
# Velocity P-wave (km/s) = 4.38351 5.98605 5.24633
#
# Compressibility (1/GPa) = 0.06028413
#
# Stress axis : x y z
#
# Youngs Moduli (GPa) = 39.30140 28.16139 52.17867
#
# Poissons Ratio (x) = 0.22557 -0.05012
# Poissons Ratio (y) = 0.31480 0.14965
# Poissons Ratio (z) = -0.03775 0.08077
#
# Static dielectric constant tensor:
#      x y z
#    x 3.945230 -0.797130 0.082190 
#    y -0.797130 3.692790 0.113080 
#    z 0.082190 0.113080 3.857050 
# 
# 
# High freq. dielectric constant tensor:
#      x y z
#    x 1.808090 -0.056880 0.005940 
#    y -0.056880 1.773830 0.005490 
#    z 0.005940 0.005490 1.808360 
# 
# From -- ./inp_files/260424.got.cif
#   From: 2010.06.25/outbox.cif.g09.slc.cpg/sg2_131_cif.got.tgz:260424.got - 2010.06.27 13:26:56.
