data_PCOD8039095
_publ_section_title
;
Structure prediction by ZEFSAII (Michael W. Deem and Ramdas Pophale) SiO2 
 PCOD8039095
Probable space group: P -1
;
_chemical_formula_sum "Si O2"
_cell_formula_units_Z 16
_cell_length_a 14.353237
_cell_length_b 23.969514
_cell_length_c 13.601786
_cell_angle_alpha 148.808866
_cell_angle_beta 31.776646
_cell_angle_gamma 159.903475
_cell_volume 803.481395
_symmetry_space_group_name_H-M "P -1"
_symmetry_group_IT_number 2
_symmetry_cell_setting 'triclinic'
loop_
_space_group_symop_operation_xyz
x,y,z
-x,-y,-z
loop_
_atom_site_type_symbol
_atom_site_label
_atom_site_fract_x
_atom_site_fract_y
_atom_site_fract_z
Si Si1 0.065662 0.040914 0.168946
Si Si2 0.979694 0.143170 0.226019
Si Si3 0.837878 0.616143 0.974125
Si Si4 0.641343 0.420921 0.036969
Si Si5 0.017468 0.611208 0.383538
Si Si6 0.792001 0.381776 0.420054
Si Si7 0.654526 0.741341 0.237096
Si Si8 0.397180 0.572947 0.701993
O O1 0.904440 0.048770 0.253569
O O2 0.341597 0.223690 0.244428
O O3 0.853677 0.909517 0.246898
O O4 0.165133 0.984405 0.929370
O O5 0.312377 0.288907 0.130816
O O6 0.875474 0.216628 0.435295
O O7 0.584292 0.427869 0.869017
O O8 0.141305 0.706703 0.813207
O O9 0.792712 0.586859 0.088239
O O10 0.843500 0.740519 0.119729
O O11 0.750408 0.474493 0.131905
O O12 0.714870 0.340081 0.799308
O O13 0.840270 0.493013 0.459666
O O14 0.823712 0.511214 0.311531
O O15 0.477600 0.245694 0.539304
O O16 0.000000 0.500000 0.500000
O O17 0.500000 0.500000 0.500000
#
# Coordination Sequence:
#
# PCOD8039095 Si02
#       8
#     2   2   2   2   2   2   2   2
#     4  10  21  36  59  86 123 150 195 245 291 344
#     4  10  20  38  58  88 118 150 191 255 289 337
#     4   9  18  32  56  84 112 149 190 237 287 340
#     4  10  19  36  63  87 114 149 203 242 283 354
#     4  11  21  38  66  84 116 157 199 234 298 347
#     4   9  20  33  56  90 112 146 197 242 273 352
#     4  10  18  32  56  81 115 154 184 236 298 326
#     4  11  22  40  62  82 120 162 193 236 296 354
#
# _framework density 19.913342
#
# number of rings (size 3 to 8) (size 9 to 14) (size 15 to 20)
#    0.000    2.000    3.750    1.125    3.500    0.000 
#    0.000    8.750    0.000    1.500    0.000    0.000 
#    0.000    0.000    0.000    0.000    0.000    0.000 
#
# Total GULP energy -198339.411311 kJ/mol
# GULP energy per Si atom -12396.213207 kJ/mol
# Density = 1.986802 g / cm^3
# Si number density = 19.913342 Si / 1000 Ang^3
#
#
#
# Elastic Constant Matrix: (Units=GPa)
#
#
# Indices 1 2 3 4 5 6 
#
# 1 91.7131 34.3243 39.6185 -5.1894 -3.7403 -34.0356
# 2 34.3243 78.4537 49.7672 -4.2640 1.7722 -34.7763
# 3 39.6185 49.7672 117.1729 -3.6693 -13.8444 -25.9258
# 4 -5.1894 -4.2640 -3.6693 24.1956 -1.1461 12.6839
# 5 -3.7403 1.7722 -13.8444 -1.1461 30.0238 1.7810
# 6 -34.0356 -34.7763 -25.9258 12.6839 1.7810 41.7384
#
#
#
# Elastic Compliance Matrix: (Units=1/GPa)
#
#
# Indices 1 2 3 4 5 6 
#
# 1 0.016773 0.000162 -0.002984 -0.003700 -0.000214 0.013092
# 2 0.000162 0.025948 -0.007790 -0.007012 -0.006518 0.019322
# 3 -0.002984 -0.007790 0.013374 0.000931 0.006360 -0.001172
# 4 -0.003700 -0.007012 0.000931 0.052397 0.003828 -0.024368
# 5 -0.000214 -0.006518 0.006360 0.003828 0.037004 -0.004397
# 6 0.013092 0.019322 -0.001172 -0.024368 -0.004397 0.057599
#
#
# Mechanical properties :
#
#
# Convention : Reuss Voigt Hill
#
# Bulk Modulus (GPa) = 28.67849 59.41775 44.04812
# Shear Modulus (GPa) = 21.19151 30.10020 25.64586
#
# Velocity S-wave (km/s) = 3.26573 3.89210 3.59259
# Velocity P-wave (km/s) = 5.35284 7.07819 6.27510
#
# Compressibility (1/GPa) = 0.03486934
#
# Stress axis : x y z
#
# Youngs Moduli (GPa) = 59.62095 38.53799 74.77406
#
# Poissons Ratio (x) = -0.00624 0.22315
# Poissons Ratio (y) = -0.00966 0.58251
# Poissons Ratio (z) = 0.17793 0.30022
#
# Static dielectric constant tensor:
#      x y z
#    x 3.862560 -0.256610 0.047050 
#    y -0.256610 3.404080 -0.235300 
#    z 0.047050 -0.235300 4.017150 
# 
# 
# High freq. dielectric constant tensor:
#      x y z
#    x 1.781490 -0.028480 -0.003180 
#    y -0.028480 1.741680 -0.016700 
#    z -0.003180 -0.016700 1.780040 
# 
# From -- ./inp_files/455519.got.cif
#   From: 2010.06.25/outbox.cif.g09.slc.cpg/sg2_228_cif.got.tgz:455519.got - 2010.06.27 13:26:56.
