data_PCOD8039246
_publ_section_title
;
Structure prediction by ZEFSAII (Michael W. Deem and Ramdas Pophale) SiO2 
 PCOD8039246
Probable space group: P -1
;
_chemical_formula_sum "Si O2"
_cell_formula_units_Z 16
_cell_length_a 21.498532
_cell_length_b 12.602988
_cell_length_c 11.450678
_cell_angle_alpha 69.252849
_cell_angle_beta 146.760916
_cell_angle_gamma 136.559360
_cell_volume 866.590714
_symmetry_space_group_name_H-M "P -1"
_symmetry_group_IT_number 2
_symmetry_cell_setting 'triclinic'
loop_
_space_group_symop_operation_xyz
x,y,z
-x,-y,-z
loop_
_atom_site_type_symbol
_atom_site_label
_atom_site_fract_x
_atom_site_fract_y
_atom_site_fract_z
Si Si1 0.614933 0.006346 0.758479
Si Si2 0.432189 0.572355 0.263791
Si Si3 0.042997 0.549000 0.912685
Si Si4 0.632063 0.372892 0.611128
Si Si5 0.597503 0.141576 0.272275
Si Si6 0.815794 0.748881 0.724605
Si Si7 0.006835 0.887354 0.209915
Si Si8 0.582590 0.895103 0.218348
O O1 0.561847 0.838333 0.686401
O O2 0.540217 0.950103 0.795337
O O3 0.500000 0.000000 0.500000
O O4 0.858661 0.243891 0.041041
O O5 0.448573 0.643290 0.388355
O O6 0.616726 0.636623 0.521204
O O7 0.455134 0.685097 0.155524
O O8 0.211315 0.324886 0.988911
O O9 0.837644 0.367822 0.584820
O O10 0.201423 0.583365 0.110172
O O11 0.000000 0.500000 0.000000
O O12 0.741068 0.564103 0.629200
O O13 0.571187 0.989726 0.252909
O O14 0.523555 0.164337 0.047116
O O15 0.912085 0.914755 0.713062
O O16 0.990029 0.868062 0.049939
O O17 0.178710 0.939747 0.497587
#
# Coordination Sequence:
#
# PCOD8039246 Si02
#       8
#     2   2   2   2   2   2   2   2
#     4  10  20  35  52  76 106 136 178 221 259 311
#     4  10  19  34  53  81 111 138 174 223 272 315
#     4  11  21  35  53  79 109 142 175 220 261 315
#     4  10  18  33  54  80 109 138 172 224 273 306
#     4  11  21  37  51  80 109 144 184 208 265 318
#     4   9  18  32  52  83 109 134 175 227 270 315
#     4   9  17  33  50  78 108 137 174 216 270 309
#     4  10  22  33  55  76 112 148 171 217 260 327
#
# _framework density 18.463156000000001
#
# number of rings (size 3 to 8) (size 9 to 14) (size 15 to 20)
#    0.000    2.000    2.500    4.500    0.000    1.000 
#    2.250    3.125    0.000    3.000    0.000    7.875 
#    0.000    0.000    0.000    0.000    0.000    0.000 
#
# Total GULP energy -198323.016923 kJ/mol
# GULP energy per Si atom -12395.188558 kJ/mol
# Density = 1.842113 g / cm^3
# Si number density = 18.463156 Si / 1000 Ang^3
#
#
#
# Elastic Constant Matrix: (Units=GPa)
#
#
# Indices 1 2 3 4 5 6 
#
# 1 57.6952 46.6656 38.7071 13.1907 -12.1331 2.5616
# 2 46.6656 138.3014 48.6892 22.8805 -6.0409 -6.5375
# 3 38.7071 48.6892 106.7767 7.1737 -1.7604 0.5155
# 4 13.1907 22.8805 7.1737 33.8857 4.4720 3.8583
# 5 -12.1331 -6.0409 -1.7604 4.4720 20.7188 2.4804
# 6 2.5616 -6.5375 0.5155 3.8583 2.4804 24.5012
#
#
#
# Elastic Compliance Matrix: (Units=1/GPa)
#
#
# Indices 1 2 3 4 5 6 
#
# 1 0.035435 -0.006654 -0.008800 -0.009514 0.020823 -0.005905
# 2 -0.006654 0.011391 -0.002468 -0.005072 -0.000242 0.004610
# 3 -0.008800 -0.002468 0.013393 0.002960 -0.005381 0.000058
# 4 -0.009514 -0.005072 0.002960 0.038498 -0.014508 -0.005015
# 5 0.020823 -0.000242 -0.005381 -0.014508 0.063818 -0.006305
# 6 -0.005905 0.004610 0.000058 -0.005015 -0.006305 0.044088
#
#
# Mechanical properties :
#
#
# Convention : Reuss Voigt Hill
#
# Bulk Modulus (GPa) = 41.02558 63.43300 52.22929
# Shear Modulus (GPa) = 19.95286 27.06857 23.51071
#
# Velocity S-wave (km/s) = 3.29094 3.83310 3.57232
# Velocity P-wave (km/s) = 6.05879 7.34992 6.73536
#
# Compressibility (1/GPa) = 0.02437503
#
# Stress axis : x y z
#
# Youngs Moduli (GPa) = 28.22105 87.78967 74.66732
#
# Poissons Ratio (x) = 0.58414 0.65708
# Poissons Ratio (y) = 0.18778 0.18425
# Poissons Ratio (z) = 0.24835 0.21663
#
# Static dielectric constant tensor:
#      x y z
#    x 3.106610 -0.205140 0.057670 
#    y -0.205140 4.027830 0.108280 
#    z 0.057670 0.108280 3.336410 
# 
# 
# High freq. dielectric constant tensor:
#      x y z
#    x 1.681020 -0.003180 0.013990 
#    y -0.003180 1.740810 0.014930 
#    z 0.013990 0.014930 1.704240 
# 
# From -- ./inp_files/470744.got.cif
#   From: 2010.06.25/outbox.cif.g09.slc.cpg/sg2_236_cif.got.tgz:470744.got - 2010.06.27 13:26:56.
