data_PCOD8039866
_publ_section_title
;
Structure prediction by ZEFSAII (Michael W. Deem and Ramdas Pophale) SiO2 
 PCOD8039866
Probable space group: P -1
;
_chemical_formula_sum "Si O2"
_cell_formula_units_Z 16
_cell_length_a 12.989358
_cell_length_b 8.789119
_cell_length_c 11.775648
_cell_angle_alpha 112.890320
_cell_angle_beta 130.332211
_cell_angle_gamma 95.407232
_cell_volume 821.589275
_symmetry_space_group_name_H-M "P -1"
_symmetry_group_IT_number 2
_symmetry_cell_setting 'triclinic'
loop_
_space_group_symop_operation_xyz
x,y,z
-x,-y,-z
loop_
_atom_site_type_symbol
_atom_site_label
_atom_site_fract_x
_atom_site_fract_y
_atom_site_fract_z
Si Si1 0.895457 0.762921 0.591023
Si Si2 0.728137 0.942081 0.655967
Si Si3 0.212079 0.526942 0.396868
Si Si4 0.184921 0.158000 0.915828
Si Si5 0.450600 0.206868 0.288693
Si Si6 0.334189 0.940569 0.586957
Si Si7 0.019444 0.322389 0.993408
Si Si8 0.819341 0.856406 0.339993
O O1 0.811515 0.827522 0.641693
O O2 0.875131 0.568101 0.573464
O O3 0.807370 0.714984 0.392173
O O4 0.073725 0.930410 0.758802
O O5 0.609328 0.821294 0.633842
O O6 0.640247 0.971229 0.494920
O O7 0.853472 0.145474 0.856129
O O8 0.394913 0.585860 0.548542
O O9 0.199248 0.717007 0.420819
O O10 0.131380 0.373360 0.195728
O O11 0.093210 0.261955 0.925657
O O12 0.245068 0.243566 0.856867
O O13 0.328443 0.196537 0.107484
O O14 0.504212 0.048550 0.254939
O O15 0.279866 0.042935 0.667711
O O16 0.000000 0.500000 0.000000
O O17 0.000000 0.000000 0.500000
#
# Coordination Sequence:
#
# PCOD8039866 Si02
#       8
#     2   2   2   2   2   2   2   2
#     4   9  19  36  58  82 108 142 190 229 264 321
#     4  10  18  35  57  82 109 151 183 216 275 330
#     4  10  21  34  55  84 117 140 172 233 283 307
#     4  10  21  36  58  82 106 152 185 220 276 331
#     4  10  21  34  55  84 117 141 183 217 281 335
#     4   9  20  35  56  82 114 143 179 229 268 322
#     4  11  20  34  57  83 114 138 182 237 268 319
#     4   9  19  38  62  77 104 150 192 222 265 328
#
# _framework density 19.474450000000001
#
# number of rings (size 3 to 8) (size 9 to 14) (size 15 to 20)
#    0.750    1.500    1.250    2.625    0.000    4.500 
#    0.000    4.375    2.750    0.000    0.000    0.000 
#    0.000    0.000    0.000    0.000    0.000    0.000 
#
# Total GULP energy -198259.429817 kJ/mol
# GULP energy per Si atom -12391.214364 kJ/mol
# Density = 1.943013 g / cm^3
# Si number density = 19.474450 Si / 1000 Ang^3
#
#
#
# Elastic Constant Matrix: (Units=GPa)
#
#
# Indices 1 2 3 4 5 6 
#
# 1 77.8227 17.9629 36.9959 -18.1915 -8.3731 9.5000
# 2 17.9629 69.2580 37.9825 -19.3013 -11.3171 18.4728
# 3 36.9959 37.9825 75.1252 -17.9893 -0.8062 8.6088
# 4 -18.1915 -19.3013 -17.9893 24.7927 3.6650 1.7738
# 5 -8.3731 -11.3171 -0.8062 3.6650 31.9516 -8.7319
# 6 9.5000 18.4728 8.6088 1.7738 -8.7319 30.4197
#
#
#
# Elastic Compliance Matrix: (Units=1/GPa)
#
#
# Indices 1 2 3 4 5 6 
#
# 1 0.019887 0.005544 -0.008798 0.012465 0.003676 -0.006759
# 2 0.005544 0.029749 -0.011161 0.019560 0.004998 -0.016344
# 3 -0.008798 -0.011161 0.023810 0.002909 -0.005725 0.000974
# 4 0.012465 0.019560 0.002909 0.068891 -0.003545 -0.021629
# 5 0.003676 0.004998 -0.005725 -0.003545 0.036514 0.008125
# 6 -0.006759 -0.016344 0.000974 -0.021629 0.008125 0.048228
#
#
# Mechanical properties :
#
#
# Convention : Reuss Voigt Hill
#
# Bulk Modulus (GPa) = 22.41280 45.34315 33.87798
# Shear Modulus (GPa) = 18.46538 26.05043 22.25790
#
# Velocity S-wave (km/s) = 3.08260 3.66139 3.38439
# Velocity P-wave (km/s) = 4.91973 6.41937 5.71892
#
# Compressibility (1/GPa) = 0.04461735
#
# Stress axis : x y z
#
# Youngs Moduli (GPa) = 50.28504 33.61488 41.99953
#
# Poissons Ratio (x) = -0.18637 0.36950
# Poissons Ratio (y) = -0.27879 0.46874
# Poissons Ratio (z) = 0.44239 0.37516
#
# Static dielectric constant tensor:
#      x y z
#    x 3.583650 0.203960 -0.104440 
#    y 0.203960 3.671640 -0.193090 
#    z -0.104440 -0.193090 3.546180 
# 
# 
# High freq. dielectric constant tensor:
#      x y z
#    x 1.748970 0.006270 0.000280 
#    y 0.006270 1.759740 -0.021560 
#    z 0.000280 -0.021560 1.739980 
# 
# From -- ./inp_files/446220.got.cif
#   From: 2010.06.25/outbox.cif.g09.slc.cpg/sg2_224_cif.got.tgz:446220.got - 2010.06.27 13:26:56.
