data_PCOD8039271
_publ_section_title
;
Structure prediction by ZEFSAII (Michael W. Deem and Ramdas Pophale) SiO2 
 PCOD8039271
Probable space group: P -1
;
_chemical_formula_sum "Si O2"
_cell_formula_units_Z 16
_cell_length_a 11.786288
_cell_length_b 14.966326
_cell_length_c 9.673152
_cell_angle_alpha 124.015657
_cell_angle_beta 74.486620
_cell_angle_gamma 142.336160
_cell_volume 810.736450
_symmetry_space_group_name_H-M "P -1"
_symmetry_group_IT_number 2
_symmetry_cell_setting 'triclinic'
loop_
_space_group_symop_operation_xyz
x,y,z
-x,-y,-z
loop_
_atom_site_type_symbol
_atom_site_label
_atom_site_fract_x
_atom_site_fract_y
_atom_site_fract_z
Si Si1 0.682143 0.334555 0.323141
Si Si2 0.256950 0.823206 0.659396
Si Si3 0.472034 0.178172 0.993157
Si Si4 0.852273 0.537746 0.038611
Si Si5 0.076493 0.616331 0.272310
Si Si6 0.132526 0.342316 0.313185
Si Si7 0.730915 0.652341 0.017596
Si Si8 0.101490 0.021083 0.859033
O O1 0.675664 0.244057 0.369976
O O2 0.699161 0.467005 0.496508
O O3 0.870623 0.444006 0.265233
O O4 0.484533 0.180389 0.159056
O O5 0.223142 0.789624 0.475891
O O6 0.056723 0.718992 0.712215
O O7 0.441610 0.037552 0.815352
O O8 0.669585 0.382455 0.062179
O O9 0.302469 0.128742 0.952127
O O10 0.841339 0.442880 0.836459
O O11 0.839559 0.649907 0.083322
O O12 0.048128 0.663429 0.179076
O O13 0.236772 0.368692 0.166808
O O14 0.043257 0.185255 0.313157
O O15 0.845636 0.852454 0.167896
O O16 0.500000 0.500000 0.000000
O O17 0.000000 0.000000 0.000000
#
# Coordination Sequence:
#
# PCOD8039271 Si02
#       8
#     2   2   2   2   2   2   2   2
#     4  10  18  33  56  81 109 141 191 225 272 328
#     4  10  18  33  55  81 110 144 187 223 276 326
#     4  10  20  32  52  80 111 142 182 237 271 325
#     4  10  19  33  53  82 112 147 183 215 284 327
#     4   9  19  33  54  79 113 146 176 225 272 340
#     4   9  19  34  57  81 108 144 184 226 274 326
#     4  11  19  33  59  81 110 146 189 225 271 329
#     4   9  19  36  54  78 103 146 186 225 273 314
#
# _framework density 19.735142
#
# number of rings (size 3 to 8) (size 9 to 14) (size 15 to 20)
#    0.000    2.250    1.250    3.375    0.000    0.500 
#    0.000    3.750    2.750   13.500    0.000    0.000 
#    0.000    0.000    0.000    0.000    0.000    0.000 
#
# Total GULP energy -198216.366948 kJ/mol
# GULP energy per Si atom -12388.522934 kJ/mol
# Density = 1.969022 g / cm^3
# Si number density = 19.735142 Si / 1000 Ang^3
#
#
#
# Elastic Constant Matrix: (Units=GPa)
#
#
# Indices 1 2 3 4 5 6 
#
# 1 108.7000 41.9808 48.7204 5.6885 -6.8664 -34.6386
# 2 41.9808 77.0567 35.3014 6.7148 -3.3643 -27.6541
# 3 48.7204 35.3014 125.3000 14.5788 4.0386 -24.1802
# 4 5.6885 6.7148 14.5788 29.1167 1.2046 -12.3932
# 5 -6.8664 -3.3643 4.0386 1.2046 23.6293 -4.9652
# 6 -34.6386 -27.6541 -24.1802 -12.3932 -4.9652 33.5063
#
#
#
# Elastic Compliance Matrix: (Units=1/GPa)
#
#
# Indices 1 2 3 4 5 6 
#
# 1 0.017317 -0.001567 -0.003933 0.005934 0.008808 0.017271
# 2 -0.001567 0.020664 -0.002794 0.003303 0.006061 0.015539
# 3 -0.003933 -0.002794 0.010763 -0.004099 -0.003300 -0.000610
# 4 0.005934 0.003303 -0.004099 0.044041 0.005484 0.023005
# 5 0.008808 0.006061 -0.003300 0.005484 0.050490 0.021237
# 6 0.017271 0.015539 -0.000610 0.023005 0.021237 0.071740
#
#
# Mechanical properties :
#
#
# Convention : Reuss Voigt Hill
#
# Bulk Modulus (GPa) = 31.09776 62.56242 46.83009
# Shear Modulus (GPa) = 20.63370 29.58741 25.11056
#
# Velocity S-wave (km/s) = 3.23698 3.87618 3.57091
# Velocity P-wave (km/s) = 5.45550 7.19742 6.38613
#
# Compressibility (1/GPa) = 0.03215665
#
# Stress axis : x y z
#
# Youngs Moduli (GPa) = 57.74618 48.39245 92.91153
#
# Poissons Ratio (x) = 0.07583 0.36546
# Poissons Ratio (y) = 0.09048 0.25955
# Poissons Ratio (z) = 0.22714 0.13519
#
# Static dielectric constant tensor:
#      x y z
#    x 7.371800 -2.865580 -1.165890 
#    y -2.865580 5.638680 0.976860 
#    z -1.165890 0.976860 4.082720 
# 
# 
# High freq. dielectric constant tensor:
#      x y z
#    x 1.771650 -0.009550 -0.011180 
#    y -0.009550 1.755870 0.003310 
#    z -0.011180 0.003310 1.754280 
# 
# From -- ./inp_files/186533.got.cif
#   From: 2010.06.25/outbox.cif.g09.slc.cpg/sg2_94_cif.got.tgz:186533.got - 2010.06.27 13:26:56.
