data_PCOD8039612
_publ_section_title
;
Structure prediction by ZEFSAII (Michael W. Deem and Ramdas Pophale) SiO2 
 PCOD8039612
Probable space group: P -1
;
_chemical_formula_sum "Si O2"
_cell_formula_units_Z 16
_cell_length_a 9.563174
_cell_length_b 8.908553
_cell_length_c 19.538091
_cell_angle_alpha 93.783355
_cell_angle_beta 137.223793
_cell_angle_gamma 62.115799
_cell_volume 886.188112
_symmetry_space_group_name_H-M "P -1"
_symmetry_group_IT_number 2
_symmetry_cell_setting 'triclinic'
loop_
_space_group_symop_operation_xyz
x,y,z
-x,-y,-z
loop_
_atom_site_type_symbol
_atom_site_label
_atom_site_fract_x
_atom_site_fract_y
_atom_site_fract_z
Si Si1 0.848468 0.097067 0.770661
Si Si2 0.667658 0.772122 0.340550
Si Si3 0.329012 0.037164 0.782167
Si Si4 0.738323 0.882506 0.030933
Si Si5 0.065208 0.353812 0.428812
Si Si6 0.548188 0.655351 0.527305
Si Si7 0.927215 0.364243 0.748941
Si Si8 0.040091 0.060524 0.333803
O O1 0.625031 0.139910 0.741240
O O2 0.762624 0.281205 0.698246
O O3 0.924508 0.938493 0.735810
O O4 0.099022 0.032971 0.905433
O O5 0.651678 0.918381 0.287455
O O6 0.841930 0.746329 0.466616
O O7 0.798968 0.568720 0.345541
O O8 0.144999 0.233801 0.764646
O O9 0.626382 0.898313 0.916038
O O10 0.218228 0.918305 0.740595
O O11 0.930619 0.665836 0.127261
O O12 0.500000 0.000000 0.000000
O O13 0.301145 0.349128 0.484678
O O14 0.002602 0.243504 0.354179
O O15 0.500000 0.500000 0.500000
O O16 0.738193 0.582947 0.661173
O O17 0.289663 0.869145 0.454501
#
# Coordination Sequence:
#
# PCOD8039612 Si02
#       8
#     2   2   2   2   2   2   2   2
#     4   9  18  33  58  84 103 141 185 228 267 313
#     4  11  21  36  52  79 116 150 174 220 281 338
#     4  10  18  34  58  78 110 144 187 218 275 325
#     4   8  15  32  57  88  98 137 192 236 247 318
#     4  11  24  34  51  82 123 143 174 226 282 321
#     4  12  16  33  57  80 105 141 187 217 263 329
#     4   8  16  30  52  82  98 141 182 216 258 317
#     4  11  21  35  56  84 109 147 183 229 264 321
#
# _framework density 18.054857999999999
#
# number of rings (size 3 to 8) (size 9 to 14) (size 15 to 20)
#    0.750    1.250    6.250    0.375    0.000    2.000 
#    0.000    0.000    0.000    3.750    0.000    0.000 
#    0.000    0.000    0.000    0.000    0.000    0.000 
#
# Total GULP energy -198216.340289 kJ/mol
# GULP energy per Si atom -12388.521268 kJ/mol
# Density = 1.801376 g / cm^3
# Si number density = 18.054858 Si / 1000 Ang^3
#
#
#
# Elastic Constant Matrix: (Units=GPa)
#
#
# Indices 1 2 3 4 5 6 
#
# 1 109.8020 32.5997 37.6695 12.7673 0.1335 6.9770
# 2 32.5997 62.8109 34.8947 16.6634 4.5507 0.6053
# 3 37.6695 34.8947 111.0846 0.5246 -0.8206 5.8997
# 4 12.7673 16.6634 0.5246 18.5324 5.7494 -0.8588
# 5 0.1335 4.5507 -0.8206 5.7494 29.9048 -4.1231
# 6 6.9770 0.6053 5.8997 -0.8588 -4.1231 13.9876
#
#
#
# Elastic Compliance Matrix: (Units=1/GPa)
#
#
# Indices 1 2 3 4 5 6 
#
# 1 0.011974 -0.003132 -0.002789 -0.005826 0.000808 -0.004780
# 2 -0.003132 0.027747 -0.007667 -0.022539 0.000229 0.002279
# 3 -0.002789 -0.007667 0.012481 0.008485 -0.000548 -0.003182
# 4 -0.005826 -0.022539 0.008485 0.081736 -0.011770 0.001852
# 5 0.000808 0.000229 -0.000548 -0.011770 0.037029 0.010011
# 6 -0.004780 0.002279 -0.003182 0.001852 0.010011 0.078184
#
#
# Mechanical properties :
#
#
# Convention : Reuss Voigt Hill
#
# Bulk Modulus (GPa) = 39.95845 54.89171 47.42508
# Shear Modulus (GPa) = 17.56418 24.38721 20.97569
#
# Velocity S-wave (km/s) = 3.12239 3.67921 3.41218
# Velocity P-wave (km/s) = 5.93118 6.96545 6.46902
#
# Compressibility (1/GPa) = 0.02502600
#
# Stress axis : x y z
#
# Youngs Moduli (GPa) = 83.51180 36.04048 80.12008
#
# Poissons Ratio (x) = 0.11288 0.22349
# Poissons Ratio (y) = 0.26155 0.61426
# Poissons Ratio (z) = 0.23295 0.27631
#
# Static dielectric constant tensor:
#      x y z
#    x 3.279390 0.029210 0.066760 
#    y 0.029210 2.879430 -0.232950 
#    z 0.066760 -0.232950 4.237130 
# 
# 
# High freq. dielectric constant tensor:
#      x y z
#    x 1.698980 0.008220 0.005480 
#    y 0.008220 1.643850 -0.009160 
#    z 0.005480 -0.009160 1.707540 
# 
# From -- ./inp_files/493079.got.cif
#   From: 2010.06.25/outbox.cif.g09.slc.cpg/sg2_247_cif.got.tgz:493079.got - 2010.06.27 13:26:56.
