data_PCOD8039704
_publ_section_title
;
Structure prediction by ZEFSAII (Michael W. Deem and Ramdas Pophale) SiO2 
 PCOD8039704
Probable space group: P -1
;
_chemical_formula_sum "Si O2"
_cell_formula_units_Z 16
_cell_length_a 10.644603
_cell_length_b 10.081097
_cell_length_c 13.264525
_cell_angle_alpha 65.363315
_cell_angle_beta 104.118130
_cell_angle_gamma 51.167394
_cell_volume 706.016029
_symmetry_space_group_name_H-M "P -1"
_symmetry_group_IT_number 2
_symmetry_cell_setting 'triclinic'
loop_
_space_group_symop_operation_xyz
x,y,z
-x,-y,-z
loop_
_atom_site_type_symbol
_atom_site_label
_atom_site_fract_x
_atom_site_fract_y
_atom_site_fract_z
Si Si1 0.888038 0.947746 0.627518
Si Si2 0.380993 0.819864 0.308491
Si Si3 0.133766 0.259452 0.488114
Si Si4 0.618361 0.772002 0.214761
Si Si5 0.555120 0.504557 0.706254
Si Si6 0.295683 0.997134 0.810009
Si Si7 0.405284 0.471633 0.864551
Si Si8 0.792744 0.483696 0.627675
O O1 0.866914 0.835380 0.581761
O O2 0.147454 0.768874 0.741595
O O3 0.821082 0.953742 0.724217
O O4 0.712061 0.236943 0.465059
O O5 0.423597 0.918851 0.212945
O O6 0.315504 0.742062 0.252895
O O7 0.618691 0.560861 0.495180
O O8 0.282854 0.043954 0.673494
O O9 0.241996 0.311393 0.456930
O O10 0.873762 0.523223 0.395914
O O11 0.594823 0.964959 0.119895
O O12 0.604467 0.670888 0.153942
O O13 0.544547 0.467591 0.833272
O O14 0.704740 0.513123 0.713553
O O15 0.049968 0.190049 0.750416
O O16 0.455868 0.704016 0.951013
#
# Coordination Sequence:
#
# PCOD8039704 Si02
#       8
#     2   2   2   2   2   2   2   2
#     4  10  21  37  59  84 110 146 194 230 271 331
#     4  10  18  36  63  84 104 143 199 234 265 319
#     4  10  19  34  61  88 112 143 181 237 281 325
#     4   9  17  36  60  85 106 150 197 225 264 333
#     4  10  22  38  61  81 107 151 198 231 262 330
#     4  11  19  35  59  85 120 143 179 234 284 335
#     4  10  22  36  57  85 114 151 184 226 285 327
#     4  10  18  34  60  86 108 143 192 228 277 321
#
# _framework density 22.662375999999998
#
# number of rings (size 3 to 8) (size 9 to 14) (size 15 to 20)
#    0.000    2.000    2.500    3.000    0.000    2.500 
#    2.250    1.250   11.000    0.000    0.000    0.000 
#    0.000    0.000    0.000    0.000    0.000    0.000 
#
# Total GULP energy -198312.241873 kJ/mol
# GULP energy per Si atom -12394.515117 kJ/mol
# Density = 2.261080 g / cm^3
# Si number density = 22.662376 Si / 1000 Ang^3
#
#
#
# Elastic Constant Matrix: (Units=GPa)
#
#
# Indices 1 2 3 4 5 6 
#
# 1 131.1331 37.2174 42.4191 4.0574 -24.1727 -39.9296
# 2 37.2174 79.0760 18.6014 -3.2126 -7.7023 -32.8698
# 3 42.4191 18.6014 86.4774 -7.8935 -23.7618 -20.2164
# 4 4.0574 -3.2126 -7.8935 19.3355 2.6933 -0.6139
# 5 -24.1727 -7.7023 -23.7618 2.6933 25.6832 5.4300
# 6 -39.9296 -32.8698 -20.2164 -0.6139 5.4300 31.2427
#
#
#
# Elastic Compliance Matrix: (Units=1/GPa)
#
#
# Indices 1 2 3 4 5 6 
#
# 1 0.015192 0.001681 -0.000974 -0.004161 0.010391 0.018667
# 2 0.001681 0.023388 0.002191 0.004700 0.004313 0.027515
# 3 -0.000974 0.002191 0.018495 0.006524 0.013897 0.010741
# 4 -0.004161 0.004700 0.006524 0.056715 -0.003599 0.005589
# 5 0.010391 0.004313 0.013897 -0.003599 0.059787 0.016349
# 6 0.018667 0.027515 0.010741 0.005589 0.016349 0.089031
#
#
# Mechanical properties :
#
#
# Convention : Reuss Voigt Hill
#
# Bulk Modulus (GPa) = 15.90556 54.79582 35.35069
# Shear Modulus (GPa) = 18.00058 28.48219 23.24139
#
# Velocity S-wave (km/s) = 2.82138 3.54899 3.20589
# Velocity P-wave (km/s) = 4.20087 6.40511 5.41631
#
# Compressibility (1/GPa) = 0.06287111
#
# Stress axis : x y z
#
# Youngs Moduli (GPa) = 65.82391 42.75762 54.06796
#
# Poissons Ratio (x) = -0.07189 0.05269
# Poissons Ratio (y) = -0.11068 -0.11847
# Poissons Ratio (z) = 0.06414 -0.09369
#
# Static dielectric constant tensor:
#      x y z
#    x 4.251470 -0.204210 -0.086070 
#    y -0.204210 3.945670 0.001300 
#    z -0.086070 0.001300 3.870360 
# 
# 
# High freq. dielectric constant tensor:
#      x y z
#    x 1.902860 -0.007910 -0.011900 
#    y -0.007910 1.879360 0.006510 
#    z -0.011900 0.006510 1.865030 
# 
# From -- ./inp_files/518850.got.cif
#   From: 2010.06.25/outbox.cif.g09.slc.cpg/sg2_260_cif.got.tgz:518850.got - 2010.06.27 13:26:56.
