data_PCOD8039784
_publ_section_title
;
Structure prediction by ZEFSAII (Michael W. Deem and Ramdas Pophale) SiO2 
 PCOD8039784
Probable space group: P -1
;
_chemical_formula_sum "Si O2"
_cell_formula_units_Z 16
_cell_length_a 13.756490
_cell_length_b 6.584012
_cell_length_c 12.558598
_cell_angle_alpha 47.365623
_cell_angle_beta 97.973337
_cell_angle_gamma 97.817791
_cell_volume 827.352589
_symmetry_space_group_name_H-M "P -1"
_symmetry_group_IT_number 2
_symmetry_cell_setting 'triclinic'
loop_
_space_group_symop_operation_xyz
x,y,z
-x,-y,-z
loop_
_atom_site_type_symbol
_atom_site_label
_atom_site_fract_x
_atom_site_fract_y
_atom_site_fract_z
Si Si1 0.723961 0.988502 0.828641
Si Si2 0.111104 0.754465 0.358382
Si Si3 0.330011 0.001743 0.945784
Si Si4 0.943285 0.855077 0.448480
Si Si5 0.572167 0.530808 0.901318
Si Si6 0.310724 0.624947 0.490129
Si Si7 0.397225 0.634791 0.719127
Si Si8 0.736423 0.994490 0.294637
O O1 0.674948 0.690017 0.893841
O O2 0.838980 0.026089 0.796912
O O3 0.662052 0.213962 0.673543
O O4 0.725985 0.044675 0.934465
O O5 0.080502 0.459147 0.405143
O O6 0.196904 0.686588 0.481788
O O7 0.015529 0.877247 0.350087
O O8 0.257083 0.960279 0.848180
O O9 0.380960 0.305527 0.843925
O O10 0.410191 0.772919 0.031918
O O11 0.846455 0.013204 0.350070
O O12 0.000000 0.000000 0.500000
O O13 0.512131 0.699746 0.743331
O O14 0.500000 0.500000 0.000000
O O15 0.378571 0.732161 0.560899
O O16 0.320112 0.300794 0.584832
O O17 0.325185 0.773653 0.741887
#
# Coordination Sequence:
#
# PCOD8039784 Si02
#       8
#     2   2   2   2   2   2   2   2
#     4  10  22  39  59  87 125 155 191 245 292 346
#     4   8  19  38  54  91 119 148 189 235 295 349
#     4  11  22  39  60  80 121 159 196 244 288 345
#     4  10  18  34  66  87 115 151 193 235 294 357
#     4  12  23  38  61  88 111 163 209 234 287 350
#     4   8  20  37  57  84 122 150 183 246 295 336
#     4  11  21  37  60  85 120 152 204 244 282 344
#     4  10  20  36  60  91 112 154 196 237 294 353
#
# _framework density 19.338792000000002
#
# number of rings (size 3 to 8) (size 9 to 14) (size 15 to 20)
#    0.750    1.250    2.500    1.125    0.000    3.500 
#    0.000    1.875    0.000    3.750    0.000    0.000 
#    0.000    0.000    0.000    0.000    0.000    0.000 
#
# Total GULP energy -198238.584415 kJ/mol
# GULP energy per Si atom -12389.911526 kJ/mol
# Density = 1.929478 g / cm^3
# Si number density = 19.338792 Si / 1000 Ang^3
#
#
#
# Elastic Constant Matrix: (Units=GPa)
#
#
# Indices 1 2 3 4 5 6 
#
# 1 62.1577 35.3507 5.4775 -7.5051 1.6042 0.1615
# 2 35.3507 104.2951 32.9222 2.0622 5.2273 -2.1398
# 3 5.4775 32.9222 87.6345 9.9987 -1.2042 5.0034
# 4 -7.5051 2.0622 9.9987 28.7575 6.4752 10.1506
# 5 1.6042 5.2273 -1.2042 6.4752 37.4944 -0.7059
# 6 0.1615 -2.1398 5.0034 10.1506 -0.7059 29.3859
#
#
#
# Elastic Compliance Matrix: (Units=1/GPa)
#
#
# Indices 1 2 3 4 5 6 
#
# 1 0.021268 -0.007646 0.000895 0.007223 -0.001126 -0.003348
# 2 -0.007646 0.013804 -0.004647 -0.001935 -0.001366 0.002474
# 3 0.000895 -0.004647 0.013667 -0.004157 0.001744 -0.001193
# 4 0.007223 -0.001935 -0.004157 0.045558 -0.008330 -0.015410
# 5 -0.001126 -0.001366 0.001744 -0.008330 0.028464 0.003171
# 6 -0.003348 0.002474 -0.001193 -0.015410 0.003171 0.039830
#
#
# Mechanical properties :
#
#
# Convention : Reuss Voigt Hill
#
# Bulk Modulus (GPa) = 38.54756 44.62090 41.58423
# Shear Modulus (GPa) = 25.76847 31.15002 28.45925
#
# Velocity S-wave (km/s) = 3.65427 4.01777 3.84032
# Velocity P-wave (km/s) = 6.14662 6.68182 6.41980
#
# Compressibility (1/GPa) = 0.02594198
#
# Stress axis : x y z
#
# Youngs Moduli (GPa) = 47.01967 72.44120 73.16728
#
# Poissons Ratio (x) = 0.55390 -0.06547
# Poissons Ratio (y) = 0.35952 0.34003
# Poissons Ratio (z) = -0.04207 0.33665
#
# Static dielectric constant tensor:
#      x y z
#    x 3.874510 -0.131080 0.265370 
#    y -0.131080 3.920490 -0.002160 
#    z 0.265370 -0.002160 3.557660 
# 
# 
# High freq. dielectric constant tensor:
#      x y z
#    x 1.735380 0.007090 0.010410 
#    y 0.007090 1.759060 0.001370 
#    z 0.010410 0.001370 1.742420 
# 
# From -- ./inp_files/440242.got.cif
#   From: 2010.06.25/outbox.cif.g09.slc.cpg/sg2_221_cif.got.tgz:440242.got - 2010.06.27 13:26:56.
