data_PCOD8039044
_publ_section_title
;
Structure prediction by ZEFSAII (Michael W. Deem and Ramdas Pophale) SiO2 
 PCOD8039044
Probable space group: P -1
;
_chemical_formula_sum "Si O2"
_cell_formula_units_Z 16
_cell_length_a 16.058567
_cell_length_b 9.634180
_cell_length_c 24.658945
_cell_angle_alpha 138.690678
_cell_angle_beta 19.260363
_cell_angle_gamma 139.053461
_cell_volume 811.797453
_symmetry_space_group_name_H-M "P -1"
_symmetry_group_IT_number 2
_symmetry_cell_setting 'triclinic'
loop_
_space_group_symop_operation_xyz
x,y,z
-x,-y,-z
loop_
_atom_site_type_symbol
_atom_site_label
_atom_site_fract_x
_atom_site_fract_y
_atom_site_fract_z
Si Si1 0.073359 0.412721 0.230081
Si Si2 0.981685 0.990055 0.918848
Si Si3 0.864020 0.752345 0.516977
Si Si4 0.957883 0.276464 0.488684
Si Si5 0.483139 0.283825 0.125695
Si Si6 0.623852 0.147358 0.108007
Si Si7 0.394316 0.205473 0.811141
Si Si8 0.516710 0.719831 0.995187
O O1 0.294053 0.512454 0.080754
O O2 0.922382 0.198704 0.228976
O O3 0.892971 0.585796 0.402005
O O4 0.205582 0.344588 0.183939
O O5 0.229806 0.127642 0.836128
O O6 0.753563 0.896663 0.074210
O O7 0.882772 0.152084 0.985035
O O8 0.559617 0.729734 0.708880
O O9 0.008159 0.667554 0.452834
O O10 0.000000 0.000000 0.500000
O O11 0.669706 0.130030 0.613915
O O12 0.000000 0.500000 0.500000
O O13 0.194252 0.171368 0.291958
O O14 0.682521 0.247843 0.040302
O O15 0.533633 0.537123 0.155574
O O16 0.507932 0.180722 0.020779
O O17 0.482491 0.897767 0.113030
#
# Coordination Sequence:
#
# PCOD8039044 Si02
#       8
#     2   2   2   2   2   2   2   2
#     4  10  19  31  54  80 111 140 179 226 261 317
#     4  10  21  36  56  79 106 151 184 216 257 323
#     4  11  19  31  54  83 109 137 172 228 279 310
#     4   9  19  32  53  80 107 137 173 222 270 313
#     4  10  19  33  55  83 112 137 173 230 276 313
#     4  10  21  33  53  83 113 140 172 222 279 323
#     4  10  19  35  57  77 108 145 190 216 256 326
#     4  10  18  32  54  81 111 139 177 222 270 319
#
# _framework density 19.709351999999999
#
# number of rings (size 3 to 8) (size 9 to 14) (size 15 to 20)
#    0.000    2.000    2.500    2.625    1.750    0.500 
#    0.000    0.000    0.000   30.000    0.000    0.000 
#    0.000    0.000    0.000    0.000    0.000    0.000 
#
# Total GULP energy -198220.167118 kJ/mol
# GULP energy per Si atom -12388.760445 kJ/mol
# Density = 1.966449 g / cm^3
# Si number density = 19.709352 Si / 1000 Ang^3
#
#
#
# Elastic Constant Matrix: (Units=GPa)
#
#
# Indices 1 2 3 4 5 6 
#
# 1 110.2242 15.7142 43.1067 5.0536 -1.6061 -3.3764
# 2 15.7142 28.5211 23.2502 4.8450 -1.1529 -4.9518
# 3 43.1067 23.2502 85.0325 9.4387 -1.1926 17.7942
# 4 5.0536 4.8450 9.4387 28.6688 3.3419 -0.4885
# 5 -1.6061 -1.1529 -1.1926 3.3419 25.3199 1.7360
# 6 -3.3764 -4.9518 17.7942 -0.4885 1.7360 34.9699
#
#
#
# Elastic Compliance Matrix: (Units=1/GPa)
#
#
# Indices 1 2 3 4 5 6 
#
# 1 0.011986 -0.000044 -0.007094 0.000304 0.000058 0.004762
# 2 -0.000044 0.052654 -0.017430 -0.002975 0.000853 0.016237
# 3 -0.007094 -0.017430 0.023819 -0.004080 0.001473 -0.015403
# 4 0.000304 -0.002975 -0.004080 0.037346 -0.005407 0.002474
# 5 0.000058 0.000853 0.001473 -0.005407 0.040506 -0.002709
# 6 0.004762 0.016237 -0.015403 0.002474 -0.002709 0.039362
#
#
# Mechanical properties :
#
#
# Convention : Reuss Voigt Hill
#
# Bulk Modulus (GPa) = 25.43035 43.10222 34.26629
# Shear Modulus (GPa) = 18.66262 27.23884 22.95073
#
# Velocity S-wave (km/s) = 3.08050 3.72159 3.41612
# Velocity P-wave (km/s) = 5.05800 6.35479 5.74311
#
# Compressibility (1/GPa) = 0.03932308
#
# Stress axis : x y z
#
# Youngs Moduli (GPa) = 83.43382 18.99195 41.98319
#
# Poissons Ratio (x) = 0.00083 0.29781
# Poissons Ratio (y) = 0.00365 0.73179
# Poissons Ratio (z) = 0.59184 0.33104
#
# Static dielectric constant tensor:
#      x y z
#    x 3.662020 -0.223050 -0.044710 
#    y -0.223050 3.428710 0.143400 
#    z -0.044710 0.143400 3.889480 
# 
# 
# High freq. dielectric constant tensor:
#      x y z
#    x 1.773410 -0.020430 0.007120 
#    y -0.020430 1.752890 0.018420 
#    z 0.007120 0.018420 1.745840 
# 
# From -- ./inp_files/399130.got.cif
#   From: 2010.06.25/outbox.cif.g09.slc.cpg/sg2_200_cif.got.tgz:399130.got - 2010.06.27 13:26:56.
