data_PCOD8039691
_publ_section_title
;
Structure prediction by ZEFSAII (Michael W. Deem and Ramdas Pophale) SiO2 
 PCOD8039691
Probable space group: P -1
;
_chemical_formula_sum "Si O2"
_cell_formula_units_Z 16
_cell_length_a 8.665223
_cell_length_b 9.517483
_cell_length_c 15.895205
_cell_angle_alpha 125.041031
_cell_angle_beta 123.407388
_cell_angle_gamma 63.552527
_cell_volume 879.785971
_symmetry_space_group_name_H-M "P -1"
_symmetry_group_IT_number 2
_symmetry_cell_setting 'triclinic'
loop_
_space_group_symop_operation_xyz
x,y,z
-x,-y,-z
loop_
_atom_site_type_symbol
_atom_site_label
_atom_site_fract_x
_atom_site_fract_y
_atom_site_fract_z
Si Si1 0.721777 0.312406 0.476088
Si Si2 0.835301 0.143913 0.963615
Si Si3 0.699168 0.690541 0.629048
Si Si4 0.823829 0.018298 0.730599
Si Si5 0.564644 0.968085 0.913878
Si Si6 0.127149 0.346010 0.156318
Si Si7 0.829701 0.029312 0.282382
Si Si8 0.862084 0.264344 0.689243
O O1 0.752940 0.508506 0.531298
O O2 0.507082 0.296567 0.389204
O O3 0.852928 0.179327 0.408297
O O4 0.766452 0.269489 0.571976
O O5 0.914274 0.324120 0.059211
O O6 0.790668 0.110771 0.842254
O O7 0.651433 0.131293 0.959845
O O8 0.000000 0.000000 0.000000
O O9 0.845151 0.694839 0.750485
O O10 0.712286 0.857766 0.632904
O O11 0.747176 0.161469 0.684379
O O12 0.047504 0.944962 0.755243
O O13 0.714561 0.786267 0.893408
O O14 0.386383 0.958082 0.799379
O O15 0.500000 0.000000 0.000000
O O16 0.143878 0.543565 0.208790
O O17 0.920937 0.841151 0.286754
#
# Coordination Sequence:
#
# PCOD8039691 Si02
#       8
#     2   2   2   2   2   2   2   2
#     4  10  19  37  58  81 111 149 193 230 274 322
#     4  10  18  34  60  82 108 147 186 228 275 332
#     4  10  19  34  61  82 106 151 193 229 269 336
#     4  10  20  35  55  84 113 148 183 227 282 335
#     4  11  21  35  62  85 109 143 190 235 275 327
#     4  10  19  38  59  82 110 152 188 224 273 341
#     4  10  20  36  57  84 113 145 184 232 279 325
#     4   9  23  35  58  81 117 151 182 226 286 330
#
# _framework density 18.186240999999999
#
# number of rings (size 3 to 8) (size 9 to 14) (size 15 to 20)
#    0.750    1.250    3.750    1.875    0.000    1.500 
#    0.000    0.625    2.750    0.000    0.000    0.000 
#    0.000    0.000    0.000    0.000    0.000    0.000 
#
# Total GULP energy -198271.050585 kJ/mol
# GULP energy per Si atom -12391.940662 kJ/mol
# Density = 1.814485 g / cm^3
# Si number density = 18.186241 Si / 1000 Ang^3
#
#
#
# Elastic Constant Matrix: (Units=GPa)
#
#
# Indices 1 2 3 4 5 6 
#
# 1 89.1720 26.0055 50.6024 12.4898 -2.9620 10.0297
# 2 26.0055 90.3942 48.7861 23.0062 -1.9136 14.5272
# 3 50.6024 48.7861 109.1204 14.4317 4.0655 8.4994
# 4 12.4898 23.0062 14.4317 31.4828 1.9173 -0.4943
# 5 -2.9620 -1.9136 4.0655 1.9173 28.4515 4.9088
# 6 10.0297 14.5272 8.4994 -0.4943 4.9088 31.5761
#
#
#
# Elastic Compliance Matrix: (Units=1/GPa)
#
#
# Indices 1 2 3 4 5 6 
#
# 1 0.016223 0.001112 -0.007264 -0.004221 0.003840 -0.004372
# 2 0.001112 0.018768 -0.006948 -0.011371 0.004517 -0.007998
# 3 -0.007264 -0.006948 0.015481 0.001127 -0.003849 0.001953
# 4 -0.004221 -0.011371 0.001127 0.041689 -0.005517 0.007779
# 5 0.003840 0.004517 -0.003849 -0.005517 0.038203 -0.008287
# 6 -0.004372 -0.007998 0.001953 0.007779 -0.008287 0.037622
#
#
# Mechanical properties :
#
#
# Convention : Reuss Voigt Hill
#
# Bulk Modulus (GPa) = 41.20141 59.94162 50.57151
# Shear Modulus (GPa) = 24.71863 29.18825 26.95344
#
# Velocity S-wave (km/s) = 3.69072 4.01055 3.85395
# Velocity P-wave (km/s) = 6.39268 7.38088 6.90448
#
# Compressibility (1/GPa) = 0.02427102
#
# Stress axis : x y z
#
# Youngs Moduli (GPa) = 61.64124 53.28343 64.59419
#
# Poissons Ratio (x) = -0.05923 0.46923
# Poissons Ratio (y) = -0.06852 0.44878
# Poissons Ratio (z) = 0.44778 0.37019
#
# Static dielectric constant tensor:
#      x y z
#    x 3.278200 0.068660 0.184060 
#    y 0.068660 3.279710 0.204000 
#    z 0.184060 0.204000 3.684960 
# 
# 
# High freq. dielectric constant tensor:
#      x y z
#    x 1.686920 0.005950 0.001630 
#    y 0.005950 1.687160 0.005480 
#    z 0.001630 0.005480 1.717450 
# 
# From -- ./inp_files/555626.got.cif
#   From: 2010.06.25/outbox.cif.g09.slc.cpg/sg2_278_cif.got.tgz:555626.got - 2010.06.27 13:26:56.
