data_PCOD8039324
_publ_section_title
;
Structure prediction by ZEFSAII (Michael W. Deem and Ramdas Pophale) SiO2 
 PCOD8039324
Probable space group: P -1
;
_chemical_formula_sum "Si O2"
_cell_formula_units_Z 16
_cell_length_a 16.187683
_cell_length_b 9.526880
_cell_length_c 14.697797
_cell_angle_alpha 56.348367
_cell_angle_beta 141.701535
_cell_angle_gamma 143.630164
_cell_volume 814.161509
_symmetry_space_group_name_H-M "P -1"
_symmetry_group_IT_number 2
_symmetry_cell_setting 'triclinic'
loop_
_space_group_symop_operation_xyz
x,y,z
-x,-y,-z
loop_
_atom_site_type_symbol
_atom_site_label
_atom_site_fract_x
_atom_site_fract_y
_atom_site_fract_z
Si Si1 0.086710 0.852435 0.039745
Si Si2 0.974931 0.143073 0.221773
Si Si3 0.249353 0.670859 0.336641
Si Si4 0.990482 0.193098 0.690630
Si Si5 0.630832 0.383148 0.214776
Si Si6 0.345976 0.880735 0.532465
Si Si7 0.579080 0.719734 0.099988
Si Si8 0.784390 0.675292 0.978158
O O1 0.159008 0.740410 0.177486
O O2 0.225680 0.129181 0.095832
O O3 0.088349 0.839738 0.936639
O O4 0.872958 0.693738 0.952422
O O5 0.144174 0.402100 0.319403
O O6 0.051082 0.025132 0.312021
O O7 0.798658 0.983031 0.201005
O O8 0.227075 0.684394 0.419582
O O9 0.473294 0.850081 0.444291
O O10 0.793367 0.114349 0.541213
O O11 0.143581 0.430208 0.675998
O O12 0.073388 0.251287 0.843490
O O13 0.571529 0.187161 0.305133
O O14 0.576567 0.519623 0.150851
O O15 0.510991 0.246569 0.068839
O O16 0.430688 0.600845 0.099953
#
# Coordination Sequence:
#
# PCOD8039324 Si02
#       8
#     2   2   2   2   2   2   2   2
#     4  10  18  33  57  82 110 139 178 228 267 308
#     4  10  21  36  56  79 112 143 174 226 274 312
#     4  11  23  35  52  79 112 143 180 220 266 320
#     4   9  18  35  56  79 107 140 178 221 264 316
#     4   9  17  32  59  82 102 136 183 221 262 317
#     4  11  21  35  55  78 105 146 184 217 259 322
#     4   9  17  34  57  84 107 135 177 226 270 316
#     4   9  17  31  58  86 107 135 182 223 266 314
#
# _framework density 19.652121000000001
#
# number of rings (size 3 to 8) (size 9 to 14) (size 15 to 20)
#    0.000    2.250    1.250    4.500    0.000    0.500 
#    0.000    3.125    5.500    0.000    0.000    0.000 
#    0.000    0.000    0.000    0.000    0.000    0.000 
#
# Total GULP energy -198292.514237 kJ/mol
# GULP energy per Si atom -12393.282140 kJ/mol
# Density = 1.960739 g / cm^3
# Si number density = 19.652121 Si / 1000 Ang^3
#
#
#
# Elastic Constant Matrix: (Units=GPa)
#
#
# Indices 1 2 3 4 5 6 
#
# 1 75.6122 44.8228 21.9158 14.4707 13.4591 20.2138
# 2 44.8228 99.3332 30.8563 10.1735 2.6899 9.2630
# 3 21.9158 30.8563 53.5832 -6.0345 16.6078 -3.4407
# 4 14.4707 10.1735 -6.0345 26.6771 4.3461 0.3100
# 5 13.4591 2.6899 16.6078 4.3461 20.6251 0.4070
# 6 20.2138 9.2630 -3.4407 0.3100 0.4070 30.5575
#
#
#
# Elastic Compliance Matrix: (Units=1/GPa)
#
#
# Indices 1 2 3 4 5 6 
#
# 1 0.028091 -0.007450 -0.006927 -0.012325 -0.008852 -0.016861
# 2 -0.007450 0.018108 -0.013009 -0.008184 0.014742 -0.002139
# 3 -0.006927 -0.013009 0.042966 0.023763 -0.033655 0.013570
# 4 -0.012325 -0.008184 0.023763 0.056117 -0.022106 0.013035
# 5 -0.008852 0.014742 -0.033655 -0.022106 0.084162 -0.003299
# 6 -0.016861 -0.002139 0.013570 0.013035 -0.003299 0.045967
#
#
# Mechanical properties :
#
#
# Convention : Reuss Voigt Hill
#
# Bulk Modulus (GPa) = 29.07419 47.07981 38.07700
# Shear Modulus (GPa) = 14.63497 24.30085 19.46791
#
# Velocity S-wave (km/s) = 2.73188 3.52028 3.15084
# Velocity P-wave (km/s) = 4.97770 6.36646 5.71442
#
# Compressibility (1/GPa) = 0.03439476
#
# Stress axis : x y z
#
# Youngs Moduli (GPa) = 35.59808 55.22330 23.27439
#
# Poissons Ratio (x) = 0.41141 0.16121
# Poissons Ratio (y) = 0.26520 0.30277
# Poissons Ratio (z) = 0.24657 0.71840
#
# Static dielectric constant tensor:
#      x y z
#    x 3.621500 0.398400 0.128540 
#    y 0.398400 3.577210 -0.065660 
#    z 0.128540 -0.065660 3.309480 
# 
# 
# High freq. dielectric constant tensor:
#      x y z
#    x 1.758490 0.032090 0.021430 
#    y 0.032090 1.757770 -0.013410 
#    z 0.021430 -0.013410 1.745180 
# 
# From -- ./inp_files/178981.got.cif
#   From: 2010.06.25/outbox.cif.g09.slc.cpg/sg2_90_cif.got.tgz:178981.got - 2010.06.27 13:26:56.
