data_PCOD8039357
_publ_section_title
;
Structure prediction by ZEFSAII (Michael W. Deem and Ramdas Pophale) SiO2 
 PCOD8039357
Probable space group: P -1
;
_chemical_formula_sum "Si O2"
_cell_formula_units_Z 16
_cell_length_a 11.226922
_cell_length_b 11.226848
_cell_length_c 12.930793
_cell_angle_alpha 65.325283
_cell_angle_beta 131.412333
_cell_angle_gamma 135.968815
_cell_volume 844.281880
_symmetry_space_group_name_H-M "P -1"
_symmetry_group_IT_number 2
_symmetry_cell_setting 'triclinic'
loop_
_space_group_symop_operation_xyz
x,y,z
-x,-y,-z
loop_
_atom_site_type_symbol
_atom_site_label
_atom_site_fract_x
_atom_site_fract_y
_atom_site_fract_z
Si Si1 0.608443 0.099867 0.339690
Si Si2 0.326787 0.383100 0.086811
Si Si3 0.760174 0.268744 0.660312
Si Si4 0.443891 0.864649 0.931742
Si Si5 0.703708 0.760024 0.086809
Si Si6 0.999309 0.743416 0.372854
Si Si7 0.629445 0.373544 0.372856
Si Si8 0.067091 0.487847 0.931744
O O1 0.610705 0.088256 0.221861
O O2 0.633073 0.264427 0.325868
O O3 0.801854 0.120338 0.489912
O O4 0.395155 0.930365 0.325512
O O5 0.508772 0.567277 0.076050
O O6 0.419585 0.347214 0.247806
O O7 0.238472 0.238474 0.999998
O O8 0.142536 0.377417 0.024353
O O9 0.630434 0.311941 0.510089
O O10 0.938553 0.307185 0.674139
O O11 0.866387 0.388830 0.778143
O O12 0.246646 0.675379 0.922029
O O13 0.646928 0.881816 0.024344
O O14 0.500000 0.000000 0.000000
O O15 0.900589 0.828229 0.247806
O O16 0.834229 0.571543 0.405770
O O17 0.000000 0.500000 0.000000
#
# Coordination Sequence:
#
# PCOD8039357 Si02
#       8
#     2   2   2   2   2   2   2   2
#     4  11  21  34  52  82 117 148 182 226 277 328
#     4   9  17  33  58  85 109 140 185 233 274 322
#     4  11  21  34  52  82 117 148 182 226 277 328
#     4  11  22  39  59  82 113 148 186 226 278 335
#     4   9  17  33  58  85 109 140 185 233 274 322
#     4  10  18  33  58  84 109 144 186 231 279 323
#     4  10  18  33  58  84 109 144 186 231 279 323
#     4  11  22  39  59  82 113 148 186 226 278 335
#
# _framework density 18.951017
#
# number of rings (size 3 to 8) (size 9 to 14) (size 15 to 20)
#    0.000    1.750    2.500    5.250    0.000    0.000 
#    0.000    7.500    0.000    0.000    0.000    0.000 
#    0.000    0.000    0.000    0.000    0.000    0.000 
#
# Total GULP energy -198417.521867 kJ/mol
# GULP energy per Si atom -12401.095117 kJ/mol
# Density = 1.890788 g / cm^3
# Si number density = 18.951017 Si / 1000 Ang^3
#
#
#
# Elastic Constant Matrix: (Units=GPa)
#
#
# Indices 1 2 3 4 5 6 
#
# 1 100.7924 19.9826 72.4320 -1.0454 0.7362 -17.5703
# 2 19.9826 58.1646 36.0260 6.5545 5.6804 -1.7511
# 3 72.4320 36.0260 161.0858 7.9420 -1.0260 -13.5382
# 4 -1.0454 6.5545 7.9420 24.7738 -1.9655 -8.2999
# 5 0.7362 5.6804 -1.0260 -1.9655 29.8436 -0.7749
# 6 -17.5703 -1.7511 -13.5382 -8.2999 -0.7749 25.6246
#
#
#
# Elastic Compliance Matrix: (Units=1/GPa)
#
#
# Indices 1 2 3 4 5 6 
#
# 1 0.016965 -0.002260 -0.006599 0.006901 0.000505 0.010242
# 2 -0.002260 0.021394 -0.003849 -0.006339 -0.004678 -0.004315
# 3 -0.006599 -0.003849 0.010149 -0.002496 0.001075 -0.000202
# 4 0.006901 -0.006339 -0.002496 0.049980 0.004743 0.019312
# 5 0.000505 -0.004678 0.001075 0.004743 0.034818 0.003184
# 6 0.010242 -0.004315 -0.000202 0.019312 0.003184 0.051998
#
#
# Mechanical properties :
#
#
# Convention : Reuss Voigt Hill
#
# Bulk Modulus (GPa) = 43.30307 64.10266 53.70286
# Shear Modulus (GPa) = 22.89216 28.82188 25.85702
#
# Velocity S-wave (km/s) = 3.47935 3.90405 3.69780
# Velocity P-wave (km/s) = 6.24826 7.36349 6.82868
#
# Compressibility (1/GPa) = 0.02309305
#
# Stress axis : x y z
#
# Youngs Moduli (GPa) = 58.94493 46.74239 98.53353
#
# Poissons Ratio (x) = 0.10562 0.65024
# Poissons Ratio (y) = 0.13319 0.37921
# Poissons Ratio (z) = 0.38899 0.17989
#
# Static dielectric constant tensor:
#      x y z
#    x 3.246430 0.032720 0.238040 
#    y 0.032720 3.261410 -0.037500 
#    z 0.238040 -0.037500 3.808850 
# 
# 
# High freq. dielectric constant tensor:
#      x y z
#    x 1.705870 0.008340 0.009810 
#    y 0.008340 1.723340 -0.000880 
#    z 0.009810 -0.000880 1.755710 
# 
# From -- ./inp_files/257702.got.cif
#   From: 2010.06.25/outbox.cif.g09.slc.cpg/sg2_129_cif.got.tgz:257702.got - 2010.06.27 13:26:56.
