data_PCOD8039948
_publ_section_title
;
Structure prediction by ZEFSAII (Michael W. Deem and Ramdas Pophale) SiO2 
 PCOD8039948
Probable space group: P -1
;
_chemical_formula_sum "Si O2"
_cell_formula_units_Z 16
_cell_length_a 11.783566
_cell_length_b 13.819777
_cell_length_c 9.552729
_cell_angle_alpha 80.861730
_cell_angle_beta 55.311889
_cell_angle_gamma 41.728586
_cell_volume 744.149014
_symmetry_space_group_name_H-M "P -1"
_symmetry_group_IT_number 2
_symmetry_cell_setting 'triclinic'
loop_
_space_group_symop_operation_xyz
x,y,z
-x,-y,-z
loop_
_atom_site_type_symbol
_atom_site_label
_atom_site_fract_x
_atom_site_fract_y
_atom_site_fract_z
Si Si1 0.021388 0.001932 0.319945
Si Si2 0.470810 0.684053 0.183242
Si Si3 0.155022 0.463930 0.234108
Si Si4 0.860632 0.750343 0.795762
Si Si5 0.414201 0.848535 0.456443
Si Si6 0.520424 0.984225 0.215518
Si Si7 0.651031 0.731873 0.592402
Si Si8 0.722332 0.354575 0.474864
O O1 0.865555 0.006129 0.355580
O O2 0.910022 0.170476 0.315851
O O3 0.000000 0.000000 0.500000
O O4 0.301817 0.828740 0.145421
O O5 0.496088 0.736012 0.292935
O O6 0.376499 0.631572 0.310844
O O7 0.720383 0.534422 0.964329
O O8 0.149537 0.359045 0.195886
O O9 0.290775 0.383882 0.305738
O O10 0.891084 0.651910 0.401329
O O11 0.694444 0.902107 0.768339
O O12 0.129146 0.631415 0.612708
O O13 0.767766 0.826934 0.999487
O O14 0.542749 0.739172 0.532673
O O15 0.481622 0.922419 0.371508
O O16 0.528604 0.084169 0.263937
O O17 0.500000 0.500000 0.500000
#
# Coordination Sequence:
#
# PCOD8039948 Si02
#       8
#     2   2   2   2   2   2   2   2
#     4   8  18  33  58  81 116 153 195 237 288 348
#     4  10  20  39  65  86 115 157 211 235 289 358
#     4  10  22  40  60  86 116 163 191 243 292 365
#     4  10  20  34  64  86 115 151 208 234 290 349
#     4  10  18  35  59  87 115 153 195 249 290 347
#     4  10  19  35  59  89 114 155 197 248 284 356
#     4  10  23  35  56  87 129 148 189 246 314 335
#     4  10  21  33  54  95 122 143 187 267 291 328
#
# _framework density 21.501069999999999
#
# number of rings (size 3 to 8) (size 9 to 14) (size 15 to 20)
#    0.000    2.500    1.250    2.625    7.000    1.500 
#    0.000    0.625    0.000   12.000    0.000    0.000 
#    0.000    0.000    0.000    0.000    0.000    0.000 
#
# Total GULP energy -198271.698104 kJ/mol
# GULP energy per Si atom -12391.981132 kJ/mol
# Density = 2.145213 g / cm^3
# Si number density = 21.501070 Si / 1000 Ang^3
#
#
#
# Elastic Constant Matrix: (Units=GPa)
#
#
# Indices 1 2 3 4 5 6 
#
# 1 79.6609 23.9020 37.1383 -13.9948 -6.1428 -29.2605
# 2 23.9020 69.0905 14.2306 -3.3559 3.6789 -17.3008
# 3 37.1383 14.2306 96.9985 0.8563 -8.3483 -7.4586
# 4 -13.9948 -3.3559 0.8563 17.1833 2.5144 2.6516
# 5 -6.1428 3.6789 -8.3483 2.5144 29.8768 -3.3493
# 6 -29.2605 -17.3008 -7.4586 2.6516 -3.3493 31.2048
#
#
#
# Elastic Compliance Matrix: (Units=1/GPa)
#
#
# Indices 1 2 3 4 5 6 
#
# 1 0.030002 -0.001826 -0.009159 0.020170 0.004797 0.023732
# 2 -0.001826 0.017403 -0.001500 0.001196 -0.002227 0.007238
# 3 -0.009159 -0.001500 0.013905 -0.007981 0.002279 -0.005174
# 4 0.020170 0.001196 -0.007981 0.074024 -0.003223 0.011033
# 5 0.004797 -0.002227 0.002279 -0.003223 0.036536 0.008003
# 6 0.023732 0.007238 -0.005174 0.011033 0.008003 0.056997
#
#
# Mechanical properties :
#
#
# Convention : Reuss Voigt Hill
#
# Bulk Modulus (GPa) = 27.51778 44.03241 35.77510
# Shear Modulus (GPa) = 18.80048 27.01824 22.90936
#
# Velocity S-wave (km/s) = 2.96023 3.54870 3.26774
# Velocity P-wave (km/s) = 4.95076 6.10857 5.55989
#
# Compressibility (1/GPa) = 0.03634014
#
# Stress axis : x y z
#
# Youngs Moduli (GPa) = 33.33163 57.46015 71.91603
#
# Poissons Ratio (x) = 0.10490 0.65871
# Poissons Ratio (y) = 0.06085 0.10787
# Poissons Ratio (z) = 0.30530 0.08618
#
# Static dielectric constant tensor:
#      x y z
#    x 3.828880 -0.393790 -0.319540 
#    y -0.393790 4.212960 0.353850 
#    z -0.319540 0.353850 4.107220 
# 
# 
# High freq. dielectric constant tensor:
#      x y z
#    x 1.825020 -0.014190 -0.014890 
#    y -0.014190 1.833550 -0.000080 
#    z -0.014890 -0.000080 1.828080 
# 
# From -- ./inp_files/270137.got.cif
#   From: 2010.06.25/outbox.cif.g09.slc.cpg/sg2_136_cif.got.tgz:270137.got - 2010.06.27 13:26:56.
