data_PCOD8039371
_publ_section_title
;
Structure prediction by ZEFSAII (Michael W. Deem and Ramdas Pophale) SiO2 
 PCOD8039371
Probable space group: P -1
;
_chemical_formula_sum "Si O2"
_cell_formula_units_Z 16
_cell_length_a 13.893854
_cell_length_b 10.808273
_cell_length_c 10.189387
_cell_angle_alpha 45.401570
_cell_angle_beta 111.426168
_cell_angle_gamma 77.431493
_cell_volume 708.800006
_symmetry_space_group_name_H-M "P -1"
_symmetry_group_IT_number 2
_symmetry_cell_setting 'triclinic'
loop_
_space_group_symop_operation_xyz
x,y,z
-x,-y,-z
loop_
_atom_site_type_symbol
_atom_site_label
_atom_site_fract_x
_atom_site_fract_y
_atom_site_fract_z
Si Si1 0.832622 0.177030 0.883184
Si Si2 0.482510 0.078451 0.746035
Si Si3 0.947567 0.795257 0.024677
Si Si4 0.276179 0.113545 0.332788
Si Si5 0.409208 0.302612 0.257075
Si Si6 0.182845 0.246382 0.472308
Si Si7 0.677312 0.259764 0.996487
Si Si8 0.590632 0.634794 0.263246
O O1 0.708681 0.293928 0.842037
O O2 0.753919 0.367987 0.577771
O O3 0.958054 0.154857 0.022853
O O4 0.902427 0.911013 0.063386
O O5 0.485051 0.153417 0.545903
O O6 0.322453 0.193878 0.618862
O O7 0.503537 0.200786 0.775200
O O8 0.602730 0.779874 0.055766
O O9 0.041092 0.504457 0.278605
O O10 0.796572 0.934532 0.768213
O O11 0.298877 0.284719 0.162869
O O12 0.171028 0.248887 0.306820
O O13 0.445051 0.846820 0.651723
O O14 0.312801 0.592151 0.006229
O O15 0.198239 0.031629 0.691803
O O16 0.509352 0.396477 0.825720
#
# Coordination Sequence:
#
# PCOD8039371 Si02
#       8
#     2   2   2   2   2   2   2   2
#     4  11  22  38  59  88 120 150 194 237 281 355
#     4   9  18  33  59  85 118 147 184 234 291 343
#     4  11  23  40  59  80 116 162 194 229 290 346
#     4  10  22  40  64  80 112 158 193 239 289 340
#     4  10  20  39  61  91 112 143 198 244 286 342
#     4  10  21  40  57  84 120 155 194 236 283 340
#     4  11  22  35  62  90 118 147 191 247 288 336
#     4  10  18  33  58  89 117 149 179 235 298 337
#
# _framework density 22.573364999999999
#
# number of rings (size 3 to 8) (size 9 to 14) (size 15 to 20)
#    0.000    1.750    2.500    2.250    1.750    1.000 
#    0.000    7.500    0.000    0.000    0.000    0.000 
#    0.000    0.000    0.000    0.000    0.000    0.000 
#
# Total GULP energy -198252.957290 kJ/mol
# GULP energy per Si atom -12390.809831 kJ/mol
# Density = 2.252199 g / cm^3
# Si number density = 22.573365 Si / 1000 Ang^3
#
#
#
# Elastic Constant Matrix: (Units=GPa)
#
#
# Indices 1 2 3 4 5 6 
#
# 1 53.2796 28.8030 25.5424 -3.0104 9.3609 19.4237
# 2 28.8030 117.1908 21.7091 -24.1086 8.3596 27.2703
# 3 25.5424 21.7091 60.8671 -18.1592 8.1786 11.5581
# 4 -3.0104 -24.1086 -18.1592 40.6019 3.0531 8.0692
# 5 9.3609 8.3596 8.1786 3.0531 19.7236 -1.5108
# 6 19.4237 27.2703 11.5581 8.0692 -1.5108 34.1042
#
#
#
# Elastic Compliance Matrix: (Units=1/GPa)
#
#
# Indices 1 2 3 4 5 6 
#
# 1 0.030795 -0.001401 -0.007258 0.002129 -0.012492 -0.015016
# 2 -0.001401 0.016563 0.004754 0.016457 -0.012291 -0.018496
# 3 -0.007258 0.004754 0.027937 0.018659 -0.014128 -0.014176
# 4 0.002129 0.016457 0.018659 0.051658 -0.026330 -0.034084
# 5 -0.012492 -0.012291 -0.014128 -0.026330 0.074166 0.031246
# 6 -0.015016 -0.018496 -0.014176 -0.034084 0.031246 0.066916
#
#
# Mechanical properties :
#
#
# Convention : Reuss Voigt Hill
#
# Bulk Modulus (GPa) = 14.81831 42.60518 28.71174
# Shear Modulus (GPa) = 16.75935 29.23815 22.99875
#
# Velocity S-wave (km/s) = 2.72773 3.60286 3.19540
# Velocity P-wave (km/s) = 4.06195 6.01852 5.13430
#
# Compressibility (1/GPa) = 0.06748409
#
# Stress axis : x y z
#
# Youngs Moduli (GPa) = 32.47261 60.37558 35.79524
#
# Poissons Ratio (x) = 0.08459 0.25981
# Poissons Ratio (y) = 0.04549 -0.17017
# Poissons Ratio (z) = 0.23570 -0.28702
#
# Static dielectric constant tensor:
#      x y z
#    x 3.802870 0.171790 -0.029700 
#    y 0.171790 4.244580 -0.148630 
#    z -0.029700 -0.148630 3.845620 
# 
# 
# High freq. dielectric constant tensor:
#      x y z
#    x 1.866260 0.014390 0.006480 
#    y 0.014390 1.907820 -0.018450 
#    z 0.006480 -0.018450 1.855140 
# 
# From -- ./inp_files/422817.got.cif
#   From: 2010.06.25/outbox.cif.g09.slc.cpg/sg2_212_cif.got.tgz:422817.got - 2010.06.27 13:26:56.
