data_PCOD8039731
_publ_section_title
;
Structure prediction by ZEFSAII (Michael W. Deem and Ramdas Pophale) SiO2 
 PCOD8039731
Probable space group: P -1
;
_chemical_formula_sum "Si O2"
_cell_formula_units_Z 14
_cell_length_a 11.949113
_cell_length_b 9.557510
_cell_length_c 13.433602
_cell_angle_alpha 32.408059
_cell_angle_beta 122.051334
_cell_angle_gamma 121.074958
_cell_volume 689.016978
_symmetry_space_group_name_H-M "P -1"
_symmetry_group_IT_number 2
_symmetry_cell_setting 'triclinic'
loop_
_space_group_symop_operation_xyz
x,y,z
-x,-y,-z
loop_
_atom_site_type_symbol
_atom_site_label
_atom_site_fract_x
_atom_site_fract_y
_atom_site_fract_z
Si Si1 0.398492 0.264561 0.919602
Si Si2 0.644944 0.466640 0.460816
Si Si3 0.613027 0.772909 0.447179
Si Si4 0.298731 0.699183 0.918807
Si Si5 0.731410 0.283734 0.880459
Si Si6 0.824829 0.694258 0.056300
Si Si7 0.102900 0.719571 0.224045
O O1 0.353858 0.445946 0.703425
O O2 0.310011 0.331412 0.929541
O O3 0.551659 0.359966 0.959979
O O4 0.380802 0.956675 0.064734
O O5 0.590937 0.681676 0.376896
O O6 0.533161 0.205037 0.585377
O O7 0.796283 0.445987 0.574394
O O8 0.684768 0.568559 0.668810
O O9 0.701439 0.061503 0.305134
O O10 0.207491 0.447807 0.979047
O O11 0.236795 0.750375 0.967259
O O12 0.861191 0.256178 0.891802
O O13 0.947911 0.580341 0.239422
O O14 0.881364 0.000852 0.879616
#
# Coordination Sequence:
#
# PCOD8039731 Si02
#       7
#     2   2   2   2   2   2   2
#     4  11  20  36  61  87 115 153 185 232 288 341
#     4  10  18  34  61  85 113 148 195 230 275 345
#     4  10  19  33  58  93 115 141 184 245 286 327
#     4  12  21  36  60  91 117 143 186 244 289 328
#     4  10  20  37  63  87 114 148 193 232 283 339
#     4  10  23  40  56  80 119 156 189 232 281 340
#     4   9  21  42  60  77 111 162 194 226 280 340
#
# _framework density 20.318802000000002
#
# number of rings (size 3 to 8) (size 9 to 14) (size 15 to 20)
#    0.000    1.714    2.857    4.286    0.000    1.143 
#    2.571    4.286    0.000    0.000    0.000    0.000 
#    0.000    0.000    0.000    0.000    0.000    0.000 
#
# Total GULP energy -173488.620087 kJ/mol
# GULP energy per Si atom -12392.044292 kJ/mol
# Density = 2.027256 g / cm^3
# Si number density = 20.318802 Si / 1000 Ang^3
#
#
#
# Elastic Constant Matrix: (Units=GPa)
#
#
# Indices 1 2 3 4 5 6 
#
# 1 52.6124 34.7203 24.8282 -4.8956 16.2541 4.5908
# 2 34.7203 110.3378 30.9002 5.7868 1.9069 1.4509
# 3 24.8282 30.9002 94.8015 7.7180 3.2841 1.6039
# 4 -4.8956 5.7868 7.7180 10.2707 2.0833 1.3587
# 5 16.2541 1.9069 3.2841 2.0833 29.2499 6.7790
# 6 4.5908 1.4509 1.6039 1.3587 6.7790 21.1248
#
#
#
# Elastic Compliance Matrix: (Units=1/GPa)
#
#
# Indices 1 2 3 4 5 6 
#
# 1 0.043467 -0.012634 -0.009663 0.040414 -0.024528 -0.002573
# 2 -0.012634 0.013758 -0.000199 -0.015133 0.007106 0.000509
# 3 -0.009663 -0.000199 0.014294 -0.016282 0.004814 0.000531
# 4 0.040414 -0.015133 -0.016282 0.144024 -0.028355 -0.006671
# 5 -0.024528 0.007106 0.004814 -0.028355 0.051180 -0.010123
# 6 -0.002573 0.000509 0.000531 -0.006671 -0.010123 0.051499
#
#
# Mechanical properties :
#
#
# Convention : Reuss Voigt Hill
#
# Bulk Modulus (GPa) = 37.69508 48.73879 43.21693
# Shear Modulus (GPa) = 13.43888 23.28262 18.36075
#
# Velocity S-wave (km/s) = 2.57456 3.38874 3.00931
# Velocity P-wave (km/s) = 5.23736 6.27300 5.77843
#
# Compressibility (1/GPa) = 0.02652866
#
# Stress axis : x y z
#
# Youngs Moduli (GPa) = 23.00606 72.68351 69.96171
#
# Poissons Ratio (x) = 0.91825 0.67604
# Poissons Ratio (y) = 0.29065 0.01389
# Poissons Ratio (z) = 0.22231 0.01443
#
# Static dielectric constant tensor:
#      x y z
#    x 3.914310 0.027640 -0.082600 
#    y 0.027640 3.443420 -0.033610 
#    z -0.082600 -0.033610 3.554830 
# 
# 
# High freq. dielectric constant tensor:
#      x y z
#    x 1.795670 -0.002010 0.001450 
#    y -0.002010 1.765460 0.003420 
#    z 0.001450 0.003420 1.782380 
# 
# From -- ./inp_files/257716.got.cif
#   From: 2010.06.25/outbox.cif.g09.slc.cpg/sg2_129_cif.got.tgz:257716.got - 2010.06.27 13:26:56.
