data_PCOD8039924
_publ_section_title
;
Structure prediction by ZEFSAII (Michael W. Deem and Ramdas Pophale) SiO2 
 PCOD8039924
Probable space group: P -1
;
_chemical_formula_sum "Si O2"
_cell_formula_units_Z 14
_cell_length_a 10.810705
_cell_length_b 10.688767
_cell_length_c 7.724376
_cell_angle_alpha 103.447724
_cell_angle_beta 78.189160
_cell_angle_gamma 58.635684
_cell_volume 681.857255
_symmetry_space_group_name_H-M "P -1"
_symmetry_group_IT_number 2
_symmetry_cell_setting 'triclinic'
loop_
_space_group_symop_operation_xyz
x,y,z
-x,-y,-z
loop_
_atom_site_type_symbol
_atom_site_label
_atom_site_fract_x
_atom_site_fract_y
_atom_site_fract_z
Si Si1 0.237749 0.129869 0.836294
Si Si2 0.422396 0.737783 0.015035
Si Si3 0.764630 0.895964 0.776799
Si Si4 0.450992 0.201452 0.320709
Si Si5 0.727266 0.433864 0.973862
Si Si6 0.781116 0.610059 0.260298
Si Si7 0.978612 0.706927 0.347948
O O1 0.275347 0.258070 0.833822
O O2 0.107433 0.163455 0.743416
O O3 0.394750 0.955974 0.692540
O O4 0.178882 0.140667 0.052123
O O5 0.500085 0.718509 0.801698
O O6 0.294204 0.702206 0.018153
O O7 0.558885 0.606237 0.062022
O O8 0.333739 0.915266 0.175031
O O9 0.650527 0.845474 0.761488
O O10 0.918297 0.796789 0.578361
O O11 0.355391 0.327776 0.540648
O O12 0.820709 0.449100 0.109097
O O13 0.834169 0.384541 0.753463
O O14 0.935074 0.580164 0.300194
#
# Coordination Sequence:
#
# PCOD8039924 Si02
#       7
#     2   2   2   2   2   2   2
#     4   9  18  33  59  89 106 141 185 235 286 304
#     4  10  23  35  60  78 112 157 182 228 278 329
#     4  10  19  38  60  86 109 142 194 237 269 326
#     4  10  18  35  58  89 105 144 196 233 271 323
#     4  11  21  40  51  82 120 149 185 221 280 348
#     4   9  19  33  60  81 113 144 179 236 277 326
#     4   9  22  35  60  87 108 147 186 233 284 319
#
# _framework density 20.532156000000001
#
# number of rings (size 3 to 8) (size 9 to 14) (size 15 to 20)
#    0.857    1.429    0.000    4.286    2.000    1.143 
#    2.571    5.000    0.000    0.000    0.000    0.000 
#    0.000    0.000    0.000    0.000    0.000    0.000 
#
# Total GULP energy -173522.128840 kJ/mol
# GULP energy per Si atom -12394.437774 kJ/mol
# Density = 2.048542 g / cm^3
# Si number density = 20.532156 Si / 1000 Ang^3
#
#
#
# Elastic Constant Matrix: (Units=GPa)
#
#
# Indices 1 2 3 4 5 6 
#
# 1 65.8021 22.1971 43.5449 1.2832 -21.0283 21.1146
# 2 22.1971 14.8669 17.7751 -4.9710 -7.0540 14.3023
# 3 43.5449 17.7751 147.7924 0.6697 -20.7133 23.1926
# 4 1.2832 -4.9710 0.6697 19.2219 -6.7070 0.8362
# 5 -21.0283 -7.0540 -20.7133 -6.7070 22.6677 -9.4758
# 6 21.1146 14.3023 23.1926 0.8362 -9.4758 25.2960
#
#
#
# Elastic Compliance Matrix: (Units=1/GPa)
#
#
# Indices 1 2 3 4 5 6 
#
# 1 0.041842 -0.069998 -0.004054 -0.016321 0.014492 0.014337
# 2 -0.069998 0.340695 0.002719 0.105124 0.019065 -0.133027
# 3 -0.004054 0.002719 0.008943 0.002214 0.003825 -0.004994
# 4 -0.016321 0.105124 0.002214 0.092576 0.030481 -0.039486
# 5 0.014492 0.019065 0.003825 0.030481 0.076543 0.001282
# 6 0.014337 -0.133027 -0.004994 -0.039486 0.001282 0.109142
#
#
# Mechanical properties :
#
#
# Convention : Reuss Voigt Hill
#
# Bulk Modulus (GPa) = 4.01907 43.94397 23.98152
# Shear Modulus (GPa) = 5.58445 23.10008 14.34226
#
# Velocity S-wave (km/s) = 1.65099 3.35784 2.64583
# Velocity P-wave (km/s) = 2.36560 6.04007 4.58686
#
# Compressibility (1/GPa) = 0.24881363
#
# Stress axis : x y z
#
# Youngs Moduli (GPa) = 23.89966 2.93518 111.81468
#
# Poissons Ratio (x) = 0.20546 0.45330
# Poissons Ratio (y) = 1.67294 -0.30407
# Poissons Ratio (z) = 0.09689 -0.00798
#
# Static dielectric constant tensor:
#      x y z
#    x 3.468090 0.078720 -0.123120 
#    y 0.078720 3.521340 0.016740 
#    z -0.123120 0.016740 3.728890 
# 
# 
# High freq. dielectric constant tensor:
#      x y z
#    x 1.774760 -0.002280 -0.011910 
#    y -0.002280 1.784480 0.003320 
#    z -0.011910 0.003320 1.811020 
# 
# From -- ./inp_files/249237.got.cif
#   From: 2010.06.25/outbox.cif.g09.slc.cpg/sg2_125_cif.got.tgz:249237.got - 2010.06.27 13:26:56.
