data_PCOD8039617
_publ_section_title
;
Structure prediction by ZEFSAII (Michael W. Deem and Ramdas Pophale) SiO2 
 PCOD8039617
Probable space group: P -1
;
_chemical_formula_sum "Si O2"
_cell_formula_units_Z 14
_cell_length_a 9.022168
_cell_length_b 9.105795
_cell_length_c 12.726615
_cell_angle_alpha 68.549198
_cell_angle_beta 102.693626
_cell_angle_gamma 62.318266
_cell_volume 759.368238
_symmetry_space_group_name_H-M "P -1"
_symmetry_group_IT_number 2
_symmetry_cell_setting 'triclinic'
loop_
_space_group_symop_operation_xyz
x,y,z
-x,-y,-z
loop_
_atom_site_type_symbol
_atom_site_label
_atom_site_fract_x
_atom_site_fract_y
_atom_site_fract_z
Si Si1 0.683315 0.163181 0.372440
Si Si2 0.126709 0.054087 0.327326
Si Si3 0.456516 0.049011 0.280043
Si Si4 0.870902 0.966314 0.238451
Si Si5 0.488895 0.159855 0.031702
Si Si6 0.750127 0.454965 0.237256
Si Si7 0.827624 0.661962 0.363452
O O1 0.632384 0.376334 0.280903
O O2 0.784810 0.087226 0.520611
O O3 0.495252 0.169837 0.336053
O O4 0.823765 0.013995 0.342622
O O5 0.956828 0.276137 0.275134
O O6 0.282742 0.056645 0.291287
O O7 0.050968 0.970463 0.251857
O O8 0.645881 0.823868 0.362581
O O9 0.405487 0.149973 0.131392
O O10 0.908492 0.757110 0.280746
O O11 0.694226 0.115959 0.094987
O O12 0.358664 0.383100 0.913072
O O13 0.500000 0.000000 0.000000
O O14 0.762928 0.560085 0.309449
O O15 0.000000 0.500000 0.500000
#
# Coordination Sequence:
#
# PCOD8039617 Si02
#       7
#     2   2   2   2   2   2   2
#     4   9  19  35  55  83 112 145 183 221 276 337
#     4  11  21  36  55  87 119 138 178 238 288 317
#     4  10  22  37  56  81 119 147 172 240 283 313
#     4   9  19  34  56  80 110 149 182 228 269 329
#     4  10  19  39  59  77 110 147 199 221 263 331
#     4  11  19  34  64  79 104 152 189 226 264 333
#     4  10  18  34  58  81 103 149 195 214 266 337
#
# _framework density 18.436375999999999
#
# number of rings (size 3 to 8) (size 9 to 14) (size 15 to 20)
#    0.000    2.286    2.857    4.714    0.000    5.714 
#    0.000    5.000    0.000    0.000    0.000    0.000 
#    0.000    0.000    0.000    0.000    0.000    0.000 
#
# Total GULP energy -173456.414435 kJ/mol
# GULP energy per Si atom -12389.743888 kJ/mol
# Density = 1.839441 g / cm^3
# Si number density = 18.436376 Si / 1000 Ang^3
#
#
#
# Elastic Constant Matrix: (Units=GPa)
#
#
# Indices 1 2 3 4 5 6 
#
# 1 155.3400 50.8066 51.2926 -5.5968 4.2473 31.2069
# 2 50.8066 85.2598 30.3006 -9.1433 -0.0558 24.5424
# 3 51.2926 30.3006 131.9855 -14.3892 9.3531 -1.0479
# 4 -5.5968 -9.1433 -14.3892 32.6282 8.9979 6.8672
# 5 4.2473 -0.0558 9.3531 8.9979 18.0846 1.8433
# 6 31.2069 24.5424 -1.0479 6.8672 1.8433 26.1662
#
#
#
# Elastic Compliance Matrix: (Units=1/GPa)
#
#
# Indices 1 2 3 4 5 6 
#
# 1 0.010614 -0.001211 -0.003602 0.002683 -0.000713 -0.012321
# 2 -0.001211 0.020253 -0.003467 0.008070 0.000145 -0.019819
# 3 -0.003602 -0.003467 0.010734 0.003555 -0.007255 0.007555
# 4 0.002683 0.008070 0.003555 0.045713 -0.023048 -0.021000
# 5 -0.000713 0.000145 -0.007255 -0.023048 0.070530 0.001504
# 6 -0.012321 -0.019819 0.007555 -0.021000 0.001504 0.077209
#
#
# Mechanical properties :
#
#
# Convention : Reuss Voigt Hill
#
# Bulk Modulus (GPa) = 39.93288 70.82052 55.37670
# Shear Modulus (GPa) = 19.23373 31.38816 25.31095
#
# Velocity S-wave (km/s) = 3.23344 4.13063 3.70926
# Velocity P-wave (km/s) = 5.97051 7.82600 6.96036
#
# Compressibility (1/GPa) = 0.02504202
#
# Stress axis : x y z
#
# Youngs Moduli (GPa) = 94.21263 49.37519 93.16298
#
# Poissons Ratio (x) = 0.05980 0.33555
# Poissons Ratio (y) = 0.11410 0.32297
# Poissons Ratio (z) = 0.33933 0.17117
#
# Static dielectric constant tensor:
#      x y z
#    x 3.647430 0.573230 0.179270 
#    y 0.573230 3.563140 -0.017840 
#    z 0.179270 -0.017840 3.523830 
# 
# 
# High freq. dielectric constant tensor:
#      x y z
#    x 1.706320 0.038960 0.015450 
#    y 0.038960 1.706320 -0.005440 
#    z 0.015450 -0.005440 1.720270 
# 
# From -- ./inp_files/175441.got.cif
#   From: 2010.06.25/outbox.cif.g09.slc.cpg/sg2_88_cif.got.tgz:175441.got - 2010.06.27 13:26:56.
