data_PCOD8039801
_publ_section_title
;
Structure prediction by ZEFSAII (Michael W. Deem and Ramdas Pophale) SiO2 
 PCOD8039801
Probable space group: P -1
;
_chemical_formula_sum "Si O2"
_cell_formula_units_Z 14
_cell_length_a 10.273921
_cell_length_b 28.307197
_cell_length_c 18.032549
_cell_angle_alpha 160.507279
_cell_angle_beta 142.931847
_cell_angle_gamma 27.487443
_cell_volume 782.267762
_symmetry_space_group_name_H-M "P -1"
_symmetry_group_IT_number 2
_symmetry_cell_setting 'triclinic'
loop_
_space_group_symop_operation_xyz
x,y,z
-x,-y,-z
loop_
_atom_site_type_symbol
_atom_site_label
_atom_site_fract_x
_atom_site_fract_y
_atom_site_fract_z
Si Si1 0.219950 0.922444 0.375806
Si Si2 0.786982 0.110548 0.969005
Si Si3 0.156779 0.443055 0.214072
Si Si4 0.890692 0.621587 0.203251
Si Si5 0.823228 0.874390 0.198934
Si Si6 0.785782 0.953250 0.590768
Si Si7 0.174808 0.141921 0.270639
O O1 0.550523 0.740005 0.236358
O O2 0.064252 0.848842 0.223172
O O3 0.210057 0.047605 0.618560
O O4 0.058883 0.049714 0.416014
O O5 0.725705 0.106406 0.848469
O O6 0.864146 0.928996 0.776020
O O7 0.506063 0.304308 0.167361
O O8 0.051598 0.105138 0.090957
O O9 0.057428 0.484654 0.145792
O O10 0.004923 0.633842 0.473594
O O11 0.071379 0.333291 0.052424
O O12 0.969249 0.753328 0.421970
O O13 0.000000 0.500000 0.000000
O O14 0.515017 0.024606 0.238506
O O15 0.500000 0.000000 0.500000
#
# Coordination Sequence:
#
# PCOD8039801 Si02
#       7
#     2   2   2   2   2   2   2
#     4  10  20  37  54  77 112 146 178 218 269 320
#     4  10  20  33  57  80 110 140 176 226 270 315
#     4  11  18  33  54  83 109 137 178 225 267 317
#     4  11  19  31  54  86 109 133 177 227 273 317
#     4  10  21  37  55  78 111 145 180 218 261 325
#     4  10  18  35  54  77 108 138 173 224 272 311
#     4  10  19  36  53  81 108 142 183 219 266 317
#
# _framework density 17.896685000000002
#
# number of rings (size 3 to 8) (size 9 to 14) (size 15 to 20)
#    0.000    1.714    2.857    5.571    0.000    0.571 
#    2.571    0.714    0.000    0.857    0.000    0.000 
#    0.000    0.000    0.000    0.000    0.000    0.000 
#
# Total GULP energy -173553.744960 kJ/mol
# GULP energy per Si atom -12396.696069 kJ/mol
# Density = 1.785595 g / cm^3
# Si number density = 17.896685 Si / 1000 Ang^3
#
#
#
# Elastic Constant Matrix: (Units=GPa)
#
#
# Indices 1 2 3 4 5 6 
#
# 1 102.1654 42.7293 46.1947 -2.8346 4.2825 -3.8674
# 2 42.7293 82.5915 41.3764 -7.7606 7.0977 3.8194
# 3 46.1947 41.3764 108.5634 5.0985 7.7675 -1.5778
# 4 -2.8346 -7.7606 5.0985 31.5150 6.1530 -3.3111
# 5 4.2825 7.0977 7.7675 6.1530 24.9619 -2.2329
# 6 -3.8674 3.8194 -1.5778 -3.3111 -2.2329 20.7740
#
#
#
# Elastic Compliance Matrix: (Units=1/GPa)
#
#
# Indices 1 2 3 4 5 6 
#
# 1 0.013937 -0.005376 -0.003903 0.000836 0.000456 0.003469
# 2 -0.005376 0.018310 -0.004677 0.005201 -0.004502 -0.004377
# 3 -0.003903 -0.004677 0.012899 -0.003315 -0.001156 0.000460
# 4 0.000836 0.005201 -0.003315 0.035783 -0.009082 0.003675
# 5 0.000456 -0.004502 -0.001156 -0.009082 0.044231 0.004132
# 6 0.003469 -0.004377 0.000460 0.003675 0.004132 0.050652
#
#
# Mechanical properties :
#
#
# Convention : Reuss Voigt Hill
#
# Bulk Modulus (GPa) = 58.02070 61.54679 59.78374
# Shear Modulus (GPa) = 23.87002 26.31818 25.09410
#
# Velocity S-wave (km/s) = 3.65604 3.83895 3.74861
# Velocity P-wave (km/s) = 7.09312 7.35627 7.22590
#
# Compressibility (1/GPa) = 0.01723523
#
# Stress axis : x y z
#
# Youngs Moduli (GPa) = 71.75396 54.61472 77.52340
#
# Poissons Ratio (x) = 0.29361 0.30255
# Poissons Ratio (y) = 0.38575 0.36255
# Poissons Ratio (z) = 0.28003 0.25541
#
# Static dielectric constant tensor:
#      x y z
#    x 3.563540 0.228050 0.298700 
#    y 0.228050 3.401090 0.088960 
#    z 0.298700 0.088960 3.422500 
# 
# 
# High freq. dielectric constant tensor:
#      x y z
#    x 1.672690 0.011070 0.006910 
#    y 0.011070 1.686230 0.002030 
#    z 0.006910 0.002030 1.698310 
# 
# From -- ./inp_files/95563.got.cif
#   From: 2010.06.25/outbox.cif.g09.slc.cpg/sg2_48_cif.got.tgz:95563.got - 2010.06.27 13:26:56.
