data_PCOD8039635
_publ_section_title
;
Structure prediction by ZEFSAII (Michael W. Deem and Ramdas Pophale) SiO2 
 PCOD8039635
Probable space group: P -1
;
_chemical_formula_sum "Si O2"
_cell_formula_units_Z 16
_cell_length_a 10.863814
_cell_length_b 19.853913
_cell_length_c 8.607572
_cell_angle_alpha 98.381916
_cell_angle_beta 51.967412
_cell_angle_gamma 137.447567
_cell_volume 806.725223
_symmetry_space_group_name_H-M "P -1"
_symmetry_group_IT_number 2
_symmetry_cell_setting 'triclinic'
loop_
_space_group_symop_operation_xyz
x,y,z
-x,-y,-z
loop_
_atom_site_type_symbol
_atom_site_label
_atom_site_fract_x
_atom_site_fract_y
_atom_site_fract_z
Si Si1 0.577189 0.028817 0.196831
Si Si2 0.814372 0.028567 0.740363
Si Si3 0.029363 0.585436 0.070665
Si Si4 0.135059 0.808244 0.680180
Si Si5 0.101128 0.419552 0.138125
Si Si6 0.373603 0.189187 0.211946
Si Si7 0.190097 0.559948 0.523686
Si Si8 0.420510 0.323317 0.990296
O O1 0.378766 0.011211 0.259238
O O2 0.771960 0.141327 0.200331
O O3 0.395472 0.907618 0.392949
O O4 0.776760 0.060526 0.933752
O O5 0.735389 0.922202 0.803820
O O6 0.139794 0.146241 0.476903
O O7 0.894657 0.534948 0.332025
O O8 0.353338 0.725436 0.867739
O O9 0.000000 0.500000 0.000000
O O10 0.864823 0.576266 0.075402
O O11 0.993344 0.683395 0.740680
O O12 0.905588 0.777873 0.785117
O O13 0.844214 0.380733 0.341151
O O14 0.391029 0.549927 0.032261
O O15 0.471507 0.270525 0.018908
O O16 0.000000 0.500000 0.500000
O O17 0.498781 0.656592 0.248204
#
# Coordination Sequence:
#
# PCOD8039635 Si02
#       8
#     2   2   2   2   2   2   2   2
#     4  10  23  43  59  82 117 157 201 243 291 340
#     4  10  23  40  64  85 109 158 201 246 293 343
#     4  10  18  34  58  87 119 148 182 235 289 345
#     4  11  23  40  59  83 122 159 195 242 289 346
#     4  10  21  37  60  87 117 160 189 232 295 356
#     4  11  20  37  64  88 118 146 197 245 293 341
#     4   9  18  33  56  86 116 149 185 229 292 342
#     4  11  21  38  58  88 123 151 190 246 290 346
#
# _framework density 19.833271
#
# number of rings (size 3 to 8) (size 9 to 14) (size 15 to 20)
#    0.000    1.750    5.000    1.125    1.750    2.000 
#    0.000    1.250    0.000    0.000    0.000    0.000 
#    0.000    0.000    0.000    0.000    0.000    0.000 
#
# Total GULP energy -198312.438119 kJ/mol
# GULP energy per Si atom -12394.527382 kJ/mol
# Density = 1.978813 g / cm^3
# Si number density = 19.833271 Si / 1000 Ang^3
#
#
#
# Elastic Constant Matrix: (Units=GPa)
#
#
# Indices 1 2 3 4 5 6 
#
# 1 63.5720 21.7341 22.9018 6.1167 17.4758 2.1175
# 2 21.7341 66.7774 32.3571 -6.3395 9.8146 0.5353
# 3 22.9018 32.3571 106.1141 4.2619 8.0441 5.9716
# 4 6.1167 -6.3395 4.2619 27.0193 -0.8870 4.6085
# 5 17.4758 9.8146 8.0441 -0.8870 32.3855 -3.6911
# 6 2.1175 0.5353 5.9716 4.6085 -3.6911 32.1988
#
#
#
# Elastic Compliance Matrix: (Units=1/GPa)
#
#
# Indices 1 2 3 4 5 6 
#
# 1 0.021530 -0.005120 -0.002032 -0.005866 -0.009864 -0.001245
# 2 -0.005120 0.020028 -0.005114 0.006640 -0.001879 -0.000213
# 3 -0.002032 -0.005114 0.011646 -0.002309 -0.000500 -0.001668
# 4 -0.005866 0.006640 -0.002309 0.041176 0.002293 -0.004927
# 5 -0.009864 -0.001879 -0.000500 0.002293 0.037498 0.004743
# 6 -0.001245 -0.000213 -0.001668 -0.004927 0.004743 0.032701
#
#
# Mechanical properties :
#
#
# Convention : Reuss Voigt Hill
#
# Bulk Modulus (GPa) = 34.87738 43.38328 39.13033
# Shear Modulus (GPa) = 25.16749 28.95209 27.05979
#
# Velocity S-wave (km/s) = 3.56610 3.82484 3.69774
# Velocity P-wave (km/s) = 5.88044 6.43641 6.16470
#
# Compressibility (1/GPa) = 0.02867188
#
# Stress axis : x y z
#
# Youngs Moduli (GPa) = 46.44636 49.93055 85.86384
#
# Poissons Ratio (x) = 0.25564 0.17448
# Poissons Ratio (y) = 0.23780 0.43913
# Poissons Ratio (z) = 0.09438 0.25536
#
# Static dielectric constant tensor:
#      x y z
#    x 3.658080 -0.001670 0.405870 
#    y -0.001670 3.246090 0.243320 
#    z 0.405870 0.243320 4.287000 
# 
# 
# High freq. dielectric constant tensor:
#      x y z
#    x 1.774790 0.006280 0.017760 
#    y 0.006280 1.757730 -0.007920 
#    z 0.017760 -0.007920 1.775780 
# 
# From -- ./inp_files/258456.got.cif
#   From: 2010.06.25/outbox.cif.g09.slc.cpg/sg2_130_cif.got.tgz:258456.got - 2010.06.27 13:26:56.
