data_PCOD8039340
_publ_section_title
;
Structure prediction by ZEFSAII (Michael W. Deem and Ramdas Pophale) SiO2 
 PCOD8039340
Probable space group: P -1
;
_chemical_formula_sum "Si O2"
_cell_formula_units_Z 16
_cell_length_a 15.779125
_cell_length_b 15.767397
_cell_length_c 9.064289
_cell_angle_alpha 39.793323
_cell_angle_beta 140.276741
_cell_angle_gamma 144.502969
_cell_volume 773.014451
_symmetry_space_group_name_H-M "P -1"
_symmetry_group_IT_number 2
_symmetry_cell_setting 'triclinic'
loop_
_space_group_symop_operation_xyz
x,y,z
-x,-y,-z
loop_
_atom_site_type_symbol
_atom_site_label
_atom_site_fract_x
_atom_site_fract_y
_atom_site_fract_z
Si Si1 0.807232 0.989871 0.107670
Si Si2 0.099051 0.359602 0.407322
Si Si3 0.870648 0.762587 0.679467
Si Si4 0.834738 0.861634 0.026600
Si Si5 0.656715 0.293830 0.684283
Si Si6 0.526449 0.021332 0.679212
Si Si7 0.264008 0.881001 0.750610
Si Si8 0.668578 0.783865 0.607962
O O1 0.849072 0.881895 0.396057
O O2 0.785640 0.947443 0.962473
O O3 0.645296 0.971761 0.963583
O O4 0.959658 0.165752 0.109336
O O5 0.147051 0.366272 0.289678
O O6 0.162154 0.278431 0.704221
O O7 0.176495 0.540522 0.319572
O O8 0.912439 0.270443 0.300995
O O9 0.738175 0.701281 0.712665
O O10 0.707508 0.780855 0.834985
O O11 0.000000 0.000000 0.000000
O O12 0.520984 0.320784 0.524034
O O13 0.606109 0.208102 0.571626
O O14 0.650823 0.160463 0.957073
O O15 0.357870 0.916223 0.675793
O O16 0.500000 0.000000 0.500000
O O17 0.257350 0.032607 0.587726
#
# Coordination Sequence:
#
# PCOD8039340 Si02
#       8
#     2   2   2   2   2   2   2   2
#     4  10  18  33  57  89 111 140 203 246 284 333
#     4  11  24  39  59  88 123 160 195 242 307 351
#     4  10  19  33  58  86 113 148 196 248 283 346
#     4  11  20  37  64  87 116 157 194 248 293 355
#     4  11  24  40  59  88 126 159 193 244 300 355
#     4  11  23  38  63  88 114 156 203 246 283 354
#     4  11  21  40  63  85 119 161 201 241 292 353
#     4  11  20  37  63  90 113 153 208 243 295 344
#
# _framework density 20.698188999999999
#
# number of rings (size 3 to 8) (size 9 to 14) (size 15 to 20)
#    0.000    1.250    2.500    7.125    0.000    1.000 
#    0.000    1.875    0.000    0.000    0.000    0.000 
#    0.000    0.000    0.000    0.000    0.000    0.000 
#
# Total GULP energy -198340.374096 kJ/mol
# GULP energy per Si atom -12396.273381 kJ/mol
# Density = 2.065108 g / cm^3
# Si number density = 20.698189 Si / 1000 Ang^3
#
#
#
# Elastic Constant Matrix: (Units=GPa)
#
#
# Indices 1 2 3 4 5 6 
#
# 1 133.3950 62.9340 30.1042 11.9427 4.0741 -10.0725
# 2 62.9340 99.3277 13.9768 8.2101 1.3007 -5.1584
# 3 30.1042 13.9768 69.0098 16.0314 -1.5144 -8.8605
# 4 11.9427 8.2101 16.0314 29.6600 3.5554 2.1112
# 5 4.0741 1.3007 -1.5144 3.5554 31.6673 12.8335
# 6 -10.0725 -5.1584 -8.8605 2.1112 12.8335 29.1635
#
#
#
# Elastic Compliance Matrix: (Units=1/GPa)
#
#
# Indices 1 2 3 4 5 6 
#
# 1 0.011810 -0.006750 -0.003190 -0.001080 -0.002533 0.003109
# 2 -0.006750 0.014425 0.000437 -0.001575 0.000346 0.000315
# 3 -0.003190 0.000437 0.018629 -0.009302 0.000215 0.005214
# 4 -0.001080 -0.001575 -0.009302 0.040304 -0.002646 -0.005231
# 5 -0.002533 0.000346 0.000215 -0.002646 0.039460 -0.017922
# 6 0.003109 0.000315 0.005214 -0.005231 -0.017922 0.045268
#
#
# Mechanical properties :
#
#
# Convention : Reuss Voigt Hill
#
# Bulk Modulus (GPa) = 38.67384 57.30693 47.99039
# Shear Modulus (GPa) = 25.31367 31.07935 28.19651
#
# Velocity S-wave (km/s) = 3.50092 3.87919 3.69490
# Velocity P-wave (km/s) = 5.92175 6.91456 6.43732
#
# Compressibility (1/GPa) = 0.02585727
#
# Stress axis : x y z
#
# Youngs Moduli (GPa) = 84.67537 69.32439 53.67941
#
# Poissons Ratio (x) = 0.46793 0.17125
# Poissons Ratio (y) = 0.57155 -0.02345
# Poissons Ratio (z) = 0.27014 -0.03029
#
# Static dielectric constant tensor:
#      x y z
#    x 4.085950 -0.205810 0.072010 
#    y -0.205810 3.554800 0.317800 
#    z 0.072010 0.317800 3.838380 
# 
# 
# High freq. dielectric constant tensor:
#      x y z
#    x 1.819170 -0.006660 0.009660 
#    y -0.006660 1.783910 0.031230 
#    z 0.009660 0.031230 1.808880 
# 
# From -- ./inp_files/223458.got.cif
#   From: 2010.06.25/outbox.cif.g09.slc.cpg/sg2_112_cif.got.tgz:223458.got - 2010.06.27 13:26:56.
