data_PCOD8039085
_publ_section_title
;
Structure prediction by ZEFSAII (Michael W. Deem and Ramdas Pophale) SiO2 
 PCOD8039085
Probable space group: P -1
;
_chemical_formula_sum "Si O2"
_cell_formula_units_Z 16
_cell_length_a 12.267617
_cell_length_b 14.375514
_cell_length_c 8.845564
_cell_angle_alpha 46.729376
_cell_angle_beta 53.188243
_cell_angle_gamma 60.220670
_cell_volume 899.419105
_symmetry_space_group_name_H-M "P -1"
_symmetry_group_IT_number 2
_symmetry_cell_setting 'triclinic'
loop_
_space_group_symop_operation_xyz
x,y,z
-x,-y,-z
loop_
_atom_site_type_symbol
_atom_site_label
_atom_site_fract_x
_atom_site_fract_y
_atom_site_fract_z
Si Si1 0.765566 0.875675 0.772638
Si Si2 0.486923 0.991846 0.342803
Si Si3 0.728150 0.611085 0.238489
Si Si4 0.533799 0.258707 0.533254
Si Si5 0.768485 0.401150 0.192315
Si Si6 0.944819 0.215670 0.466505
Si Si7 0.306090 0.914108 0.154502
Si Si8 0.998925 0.523552 0.793743
O O1 0.660515 0.932298 0.666975
O O2 0.920160 0.884711 0.577343
O O3 0.734781 0.954764 0.864136
O O4 0.750347 0.728163 0.980240
O O5 0.500000 0.000000 0.500000
O O6 0.499137 0.842281 0.451909
O O7 0.610442 0.055707 0.095754
O O8 0.603355 0.645325 0.418869
O O9 0.704717 0.491389 0.283984
O O10 0.864365 0.567574 0.278755
O O11 0.643088 0.345312 0.276918
O O12 0.594088 0.188328 0.714423
O O13 0.874201 0.279436 0.302232
O O14 0.853879 0.478054 0.914005
O O15 0.832095 0.140086 0.724774
O O16 0.991288 0.326114 0.416307
O O17 0.000000 0.500000 0.000000
#
# Coordination Sequence:
#
# PCOD8039085 Si02
#       8
#     2   2   2   2   2   2   2   2
#     4  11  16  31  52  73  97 127 158 197 240 286
#     4  11  23  36  47  65  97 134 167 203 237 274
#     4  10  14  26  48  76 103 121 147 190 242 283
#     4  10  18  31  49  74  97 124 160 197 236 284
#     4   9  16  25  46  80 106 116 144 196 244 283
#     4   9  16  28  47  77 104 120 148 194 247 287
#     4  10  19  30  50  74  97 123 162 202 237 282
#     4   8  14  25  41  75 109 116 140 190 246 287
#
# _framework density 17.789259999999999
#
# number of rings (size 3 to 8) (size 9 to 14) (size 15 to 20)
#    0.000    2.500    6.250    1.500    0.000    0.000 
#    0.000    0.625    0.000    0.750    0.000    4.375 
#    0.000    0.000    0.000    0.000    0.000    0.000 
#
# Total GULP energy -198279.775857 kJ/mol
# GULP energy per Si atom -12392.485991 kJ/mol
# Density = 1.774877 g / cm^3
# Si number density = 17.789260 Si / 1000 Ang^3
#
#
#
# Elastic Constant Matrix: (Units=GPa)
#
#
# Indices 1 2 3 4 5 6 
#
# 1 67.5137 43.8609 60.9259 13.9114 -24.9721 -0.2169
# 2 43.8609 93.4347 36.7395 13.2504 -9.4123 -16.9271
# 3 60.9259 36.7395 92.3174 8.3757 -30.7565 8.1731
# 4 13.9114 13.2504 8.3757 22.5665 -2.8419 -12.6322
# 5 -24.9721 -9.4123 -30.7565 -2.8419 32.7626 1.4932
# 6 -0.2169 -16.9271 8.1731 -12.6322 1.4932 25.0964
#
#
#
# Elastic Compliance Matrix: (Units=1/GPa)
#
#
# Indices 1 2 3 4 5 6 
#
# 1 0.054268 -0.015154 -0.020887 -0.023621 0.016073 -0.015796
# 2 -0.015154 0.020887 -0.004071 0.008716 -0.009539 0.020238
# 3 -0.020887 -0.004071 0.032820 -0.004498 0.014092 -0.016718
# 4 -0.023621 0.008716 -0.004498 0.080809 -0.014933 0.048703
# 5 0.016073 -0.009539 0.014092 -0.014933 0.052949 -0.021551
# 6 -0.015796 0.020238 -0.016718 0.048703 -0.021551 0.084601
#
#
# Mechanical properties :
#
#
# Convention : Reuss Voigt Hill
#
# Bulk Modulus (GPa) = 36.03770 59.59093 47.81431
# Shear Modulus (GPa) = 12.02472 23.53439 17.77956
#
# Velocity S-wave (km/s) = 2.60273 3.64119 3.16484
# Velocity P-wave (km/s) = 5.41612 7.15882 6.34756
#
# Compressibility (1/GPa) = 0.02774872
#
# Stress axis : x y z
#
# Youngs Moduli (GPa) = 18.42722 47.87695 30.46885
#
# Poissons Ratio (x) = 0.72555 0.63641
# Poissons Ratio (y) = 0.27925 0.12405
# Poissons Ratio (z) = 0.38489 0.19493
#
# Static dielectric constant tensor:
#      x y z
#    x 3.260140 -0.181130 -0.797270 
#    y -0.181130 3.449290 -0.146420 
#    z -0.797270 -0.146420 3.375960 
# 
# 
# High freq. dielectric constant tensor:
#      x y z
#    x 1.647470 -0.020160 -0.062090 
#    y -0.020160 1.699870 -0.013370 
#    z -0.062090 -0.013370 1.663830 
# 
# From -- ./inp_files/269525.got.cif
#   From: 2010.06.25/outbox.cif.g09.slc.cpg/sg2_135_cif.got.tgz:269525.got - 2010.06.27 13:26:56.
