data_PCOD8039623
_publ_section_title
;
Structure prediction by ZEFSAII (Michael W. Deem and Ramdas Pophale) SiO2 
 PCOD8039623
Probable space group: P -1
;
_chemical_formula_sum "Si O2"
_cell_formula_units_Z 12
_cell_length_a 12.736194
_cell_length_b 10.243773
_cell_length_c 9.545694
_cell_angle_alpha 113.978001
_cell_angle_beta 143.075704
_cell_angle_gamma 45.220306
_cell_volume 493.909889
_symmetry_space_group_name_H-M "P -1"
_symmetry_group_IT_number 2
_symmetry_cell_setting 'triclinic'
loop_
_space_group_symop_operation_xyz
x,y,z
-x,-y,-z
loop_
_atom_site_type_symbol
_atom_site_label
_atom_site_fract_x
_atom_site_fract_y
_atom_site_fract_z
Si Si1 0.651554 0.087133 0.538213
Si Si2 0.070794 0.887288 0.383411
Si Si3 0.860561 0.702324 0.313145
Si Si4 0.373165 0.011547 0.064003
Si Si5 0.491521 0.460152 0.634590
Si Si6 0.933149 0.348940 0.209816
O O1 0.766243 0.100619 0.531474
O O2 0.422717 0.121690 0.260663
O O3 0.549602 0.257496 0.617569
O O4 0.853959 0.868456 0.727049
O O5 0.223345 0.655851 0.484449
O O6 0.000000 0.000000 0.500000
O O7 0.824111 0.985012 0.076010
O O8 0.964195 0.498455 0.265930
O O9 0.050204 0.668251 0.609217
O O10 0.623824 0.793263 0.195479
O O11 0.775986 0.863245 0.180340
O O12 0.500000 0.500000 0.500000
O O13 0.678740 0.438203 0.921762
#
# Coordination Sequence:
#
# PCOD8039623 Si02
#       6
#     2   2   2   2   2   2
#     4  10  22  38  59  84 117 153 183 232 286 336
#     4  11  21  36  61  87 111 149 194 233 276 334
#     4   9  18  33  58  87 115 148 184 239 285 325
#     4  10  19  37  59  84 116 148 191 230 279 338
#     4  10  21  37  57  81 114 154 190 228 281 340
#     4  10  18  34  58  82 114 151 189 229 285 337
#
# _framework density 24.295929000000001
#
# number of rings (size 3 to 8) (size 9 to 14) (size 15 to 20)
#    0.000    2.000    0.000    6.500    0.000    0.667 
#    0.000   10.833    0.000   18.000    0.000    0.000 
#    0.000    0.000    0.000    0.000    0.000    0.000 
#
# Total GULP energy -148700.404461 kJ/mol
# GULP energy per Si atom -12391.700372 kJ/mol
# Density = 2.424063 g / cm^3
# Si number density = 24.295929 Si / 1000 Ang^3
#
#
#
# Elastic Constant Matrix: (Units=GPa)
#
#
# Indices 1 2 3 4 5 6 
#
# 1 17.5413 7.9237 14.0255 0.3965 0.4038 -6.2043
# 2 7.9237 187.6217 28.8178 -7.9565 6.6226 -12.7168
# 3 14.0255 28.8178 164.7201 16.5923 8.6737 -11.9063
# 4 0.3965 -7.9565 16.5923 45.1267 6.2864 -0.3807
# 5 0.4038 6.6226 8.6737 6.2864 31.8654 -4.5794
# 6 -6.2043 -12.7168 -11.9063 -0.3807 -4.5794 26.3445
#
#
#
# Elastic Compliance Matrix: (Units=1/GPa)
#
#
# Indices 1 2 3 4 5 6 
#
# 1 0.065889 -0.001230 -0.004634 0.000678 0.002455 0.013266
# 2 -0.001230 0.005743 -0.000859 0.001489 -0.000958 0.001949
# 3 -0.004634 -0.000859 0.007029 -0.002549 -0.000963 0.001467
# 4 0.000678 0.001489 -0.002549 0.023968 -0.004453 -0.000701
# 5 0.002455 -0.000958 -0.000963 -0.004453 0.033472 0.005435
# 6 0.013266 0.001949 0.001467 -0.000701 0.005435 0.043621
#
#
# Mechanical properties :
#
#
# Convention : Reuss Voigt Hill
#
# Bulk Modulus (GPa) = 15.33346 52.37969 33.85658
# Shear Modulus (GPa) = 23.26608 41.94172 32.60390
#
# Velocity S-wave (km/s) = 3.09789 4.15937 3.66724
# Velocity P-wave (km/s) = 4.37272 6.68378 5.64773
#
# Compressibility (1/GPa) = 0.06521684
#
# Stress axis : x y z
#
# Youngs Moduli (GPa) = 15.17701 174.13204 142.26522
#
# Poissons Ratio (x) = 0.21412 0.65923
# Poissons Ratio (y) = 0.01866 0.12215
# Poissons Ratio (z) = 0.07033 0.14952
#
# Static dielectric constant tensor:
#      x y z
#    x 3.872750 0.066770 0.092460 
#    y 0.066770 5.315180 -0.327900 
#    z 0.092460 -0.327900 4.748140 
# 
# 
# High freq. dielectric constant tensor:
#      x y z
#    x 1.909690 0.005090 -0.004800 
#    y 0.005090 1.989160 -0.000510 
#    z -0.004800 -0.000510 1.980160 
# 
# From -- ./inp_files/162341.got.cif
#   From: 2010.06.25/outbox.cif.g09.slc.cpg/sg2_82_cif.got.tgz:162341.got - 2010.06.27 13:26:56.
