data_PCOD8039758
_publ_section_title
;
Structure prediction by ZEFSAII (Michael W. Deem and Ramdas Pophale) SiO2 
 PCOD8039758
Probable space group: P -1
;
_chemical_formula_sum "Si O2"
_cell_formula_units_Z 16
_cell_length_a 16.838935
_cell_length_b 8.831099
_cell_length_c 11.181723
_cell_angle_alpha 114.187709
_cell_angle_beta 30.898891
_cell_angle_gamma 103.009296
_cell_volume 749.997290
_symmetry_space_group_name_H-M "P -1"
_symmetry_group_IT_number 2
_symmetry_cell_setting 'triclinic'
loop_
_space_group_symop_operation_xyz
x,y,z
-x,-y,-z
loop_
_atom_site_type_symbol
_atom_site_label
_atom_site_fract_x
_atom_site_fract_y
_atom_site_fract_z
Si Si1 0.341159 0.047301 0.797586
Si Si2 0.476198 0.941623 0.849615
Si Si3 0.713788 0.698611 0.712673
Si Si4 0.366105 0.633861 0.330734
Si Si5 0.836344 0.875352 0.425392
Si Si6 0.110333 0.869949 0.903283
Si Si7 0.294221 0.761067 0.196593
Si Si8 0.281262 0.401499 0.073464
O O1 0.388561 0.975595 0.846327
O O2 0.215988 0.953970 0.878250
O O3 0.500000 0.000000 0.500000
O O4 0.250949 0.255806 0.975493
O O5 0.669860 0.896359 0.572402
O O6 0.420735 0.793517 0.945467
O O7 0.422843 0.118643 0.051409
O O8 0.622632 0.566716 0.734294
O O9 0.853545 0.727357 0.455507
O O10 0.797580 0.627420 0.706863
O O11 0.215766 0.726415 0.634884
O O12 0.362508 0.685590 0.213164
O O13 0.525632 0.667631 0.187530
O O14 0.839087 0.058323 0.544288
O O15 0.990204 0.800051 0.119502
O O16 0.000000 0.000000 0.000000
O O17 0.224645 0.605811 0.178536
#
# Coordination Sequence:
#
# PCOD8039758 Si02
#       8
#     2   2   2   2   2   2   2   2
#     4  11  22  41  59  82 115 153 195 230 284 347
#     4  10  19  36  65  90 111 146 194 239 284 328
#     4   9  19  32  61  93 113 148 194 241 275 327
#     4  11  18  34  60  89 116 148 197 233 276 337
#     4  11  19  35  58  90 120 148 186 232 289 338
#     4  12  25  38  59  83 116 159 188 230 291 349
#     4  10  18  34  63  92 115 144 192 246 277 326
#     4  10  18  34  63  89 110 146 199 242 275 323
#
# _framework density 21.333410000000001
#
# number of rings (size 3 to 8) (size 9 to 14) (size 15 to 20)
#    0.000    1.500    2.500    7.500    0.000    0.500 
#    0.000    6.875    5.500    0.000    0.000    0.000 
#    0.000    0.000    0.000    0.000    0.000    0.000 
#
# Total GULP energy -198225.696021 kJ/mol
# GULP energy per Si atom -12389.106001 kJ/mol
# Density = 2.128485 g / cm^3
# Si number density = 21.333410 Si / 1000 Ang^3
#
#
#
# Elastic Constant Matrix: (Units=GPa)
#
#
# Indices 1 2 3 4 5 6 
#
# 1 71.4969 44.0342 37.1686 -6.5722 11.8776 5.5501
# 2 44.0342 153.0380 47.7783 -11.3494 21.6851 -12.3570
# 3 37.1686 47.7783 127.5371 -25.2995 22.6864 -2.2392
# 4 -6.5722 -11.3494 -25.2995 34.1875 1.4347 9.5292
# 5 11.8776 21.6851 22.6864 1.4347 19.7643 -5.2161
# 6 5.5501 -12.3570 -2.2392 9.5292 -5.2161 22.9247
#
#
#
# Elastic Compliance Matrix: (Units=1/GPa)
#
#
# Indices 1 2 3 4 5 6 
#
# 1 0.020634 -0.004721 -0.002154 0.004316 -0.008065 -0.011379
# 2 -0.004721 0.009342 -0.001143 0.000187 -0.004823 0.004891
# 3 -0.002154 -0.001143 0.014246 0.012616 -0.016768 -0.007762
# 4 0.004316 0.000187 0.012616 0.047849 -0.027583 -0.025877
# 5 -0.008065 -0.004823 -0.016768 -0.027583 0.089799 0.029612
# 6 -0.011379 0.004891 -0.007762 -0.025877 0.029612 0.065748
#
#
# Mechanical properties :
#
#
# Convention : Reuss Voigt Hill
#
# Bulk Modulus (GPa) = 35.47846 67.78158 51.63002
# Shear Modulus (GPa) = 18.31181 30.24805 24.27993
#
# Velocity S-wave (km/s) = 2.93296 3.76955 3.37726
# Velocity P-wave (km/s) = 5.30436 7.12653 6.28187
#
# Compressibility (1/GPa) = 0.02818611
#
# Stress axis : x y z
#
# Youngs Moduli (GPa) = 48.46472 107.04713 70.19593
#
# Poissons Ratio (x) = 0.50532 0.15121
# Poissons Ratio (y) = 0.22878 0.08023
# Poissons Ratio (z) = 0.10440 0.12235
#
# Static dielectric constant tensor:
#      x y z
#    x 3.910810 0.114170 -0.826120 
#    y 0.114170 4.469630 -0.599720 
#    z -0.826120 -0.599720 8.048170 
# 
# 
# High freq. dielectric constant tensor:
#      x y z
#    x 1.801260 -0.004450 0.019530 
#    y -0.004450 1.857110 -0.008980 
#    z 0.019530 -0.008980 1.828250 
# 
# From -- ./inp_files/461510.got.cif
#   From: 2010.06.25/outbox.cif.g09.slc.cpg/sg2_231_cif.got.tgz:461510.got - 2010.06.27 13:26:56.
