data_PCOD8039563
_publ_section_title
;
Structure prediction by ZEFSAII (Michael W. Deem and Ramdas Pophale) SiO2 
 PCOD8039563
Probable space group: P -1
;
_chemical_formula_sum "Si O2"
_cell_formula_units_Z 14
_cell_length_a 18.206598
_cell_length_b 9.361052
_cell_length_c 8.451143
_cell_angle_alpha 31.685074
_cell_angle_beta 111.264801
_cell_angle_gamma 112.866849
_cell_volume 695.562529
_symmetry_space_group_name_H-M "P -1"
_symmetry_group_IT_number 2
_symmetry_cell_setting 'triclinic'
loop_
_space_group_symop_operation_xyz
x,y,z
-x,-y,-z
loop_
_atom_site_type_symbol
_atom_site_label
_atom_site_fract_x
_atom_site_fract_y
_atom_site_fract_z
Si Si1 0.302894 0.783739 0.785672
Si Si2 0.269137 0.885656 0.012430
Si Si3 0.075323 0.309510 0.115896
Si Si4 0.903262 0.145803 0.202354
Si Si5 0.220966 0.236142 0.128853
Si Si6 0.557583 0.281602 0.260529
Si Si7 0.304736 0.428403 0.695821
O O1 0.391051 0.754106 0.822103
O O2 0.259867 0.966956 0.455834
O O3 0.308220 0.905918 0.850040
O O4 0.254603 0.476239 0.052192
O O5 0.270650 0.597746 0.371710
O O6 0.175792 0.911200 0.911879
O O7 0.320582 0.139548 0.907842
O O8 0.125130 0.197323 0.117189
O O9 0.980804 0.254868 0.050771
O O10 0.087990 0.145324 0.440356
O O11 0.104446 0.632921 0.872412
O O12 0.241423 0.344645 0.866285
O O13 0.615760 0.379779 0.360017
O O14 0.500000 0.000000 0.500000
O O15 0.500000 0.500000 0.000000
#
# Coordination Sequence:
#
# PCOD8039563 Si02
#       7
#     2   2   2   2   2   2   2
#     4  11  22  37  67  88 114 158 204 237 285 362
#     4  12  21  40  56  95 124 154 193 248 303 344
#     4  10  18  34  56  87 114 160 211 245 276 331
#     4  10  20  32  57  86 122 155 198 254 288 327
#     4  11  19  39  58  89 115 164 211 240 274 356
#     4  11  23  45  65  87 115 154 196 239 292 365
#     4  11  25  37  62  88 125 152 191 248 307 350
#
# _framework density 20.127593999999998
#
# number of rings (size 3 to 8) (size 9 to 14) (size 15 to 20)
#    0.000    1.143    2.857    6.000    0.000    0.000 
#    0.000    5.714    0.000    0.000    0.000    0.000 
#    0.000    0.000    0.000    0.000    0.000    0.000 
#
# Total GULP energy -173548.281066 kJ/mol
# GULP energy per Si atom -12396.305790 kJ/mol
# Density = 2.008178 g / cm^3
# Si number density = 20.127594 Si / 1000 Ang^3
#
#
#
# Elastic Constant Matrix: (Units=GPa)
#
#
# Indices 1 2 3 4 5 6 
#
# 1 149.5017 36.8195 33.2419 5.3904 15.4757 -7.1178
# 2 36.8195 80.6586 16.1213 -8.9543 -5.2158 -4.8226
# 3 33.2419 16.1213 104.2639 -4.5429 5.1267 -3.3295
# 4 5.3904 -8.9543 -4.5429 35.7847 -1.8339 -1.0276
# 5 15.4757 -5.2158 5.1267 -1.8339 30.7197 -0.9793
# 6 -7.1178 -4.8226 -3.3295 -1.0276 -0.9793 30.2196
#
#
#
# Elastic Compliance Matrix: (Units=1/GPa)
#
#
# Indices 1 2 3 4 5 6 
#
# 1 0.008838 -0.004216 -0.002017 -0.002871 -0.004974 0.000928
# 2 -0.004216 0.015496 -0.001052 0.004698 0.005265 0.001694
# 3 -0.002017 -0.001052 0.010513 0.001349 -0.000819 0.000535
# 4 -0.002871 0.004698 0.001349 0.029961 0.003851 0.001366
# 5 -0.004974 0.005265 -0.000819 0.003851 0.036347 0.000887
# 6 0.000928 0.001694 0.000535 0.001366 0.000887 0.033714
#
#
# Mechanical properties :
#
#
# Convention : Reuss Voigt Hill
#
# Bulk Modulus (GPa) = 49.31625 56.30996 52.81311
# Shear Modulus (GPa) = 32.01074 35.89424 33.95249
#
# Velocity S-wave (km/s) = 3.99230 4.22754 4.11160
# Velocity P-wave (km/s) = 6.76803 7.20185 6.98831
#
# Compressibility (1/GPa) = 0.02027729
#
# Stress axis : x y z
#
# Youngs Moduli (GPa) = 113.14483 64.53233 95.12195
#
# Poissons Ratio (x) = 0.27208 0.19184
# Poissons Ratio (y) = 0.47705 0.10005
# Poissons Ratio (z) = 0.22819 0.06788
#
# Static dielectric constant tensor:
#      x y z
#    x 3.136310 -0.221130 0.011230 
#    y -0.221130 3.424860 -0.255480 
#    z 0.011230 -0.255480 3.691010 
# 
# 
# High freq. dielectric constant tensor:
#      x y z
#    x 1.794360 0.000320 0.004190 
#    y 0.000320 1.760000 -0.026020 
#    z 0.004190 -0.026020 1.800260 
# 
# From -- ./inp_files/41792.got.cif
#   From: 2010.06.25/outbox.cif.g09.slc.cpg/sg2_21_cif.got.tgz:41792.got - 2010.06.27 13:26:56.
