data_PCOD8039057
_publ_section_title
;
Structure prediction by ZEFSAII (Michael W. Deem and Ramdas Pophale) SiO2 
 PCOD8039057
Probable space group: P -1
;
_chemical_formula_sum "Si O2"
_cell_formula_units_Z 16
_cell_length_a 15.367424
_cell_length_b 9.138644
_cell_length_c 18.406357
_cell_angle_alpha 85.573489
_cell_angle_beta 160.721540
_cell_angle_gamma 94.577539
_cell_volume 850.707362
_symmetry_space_group_name_H-M "P -1"
_symmetry_group_IT_number 2
_symmetry_cell_setting 'triclinic'
loop_
_space_group_symop_operation_xyz
x,y,z
-x,-y,-z
loop_
_atom_site_type_symbol
_atom_site_label
_atom_site_fract_x
_atom_site_fract_y
_atom_site_fract_z
Si Si1 0.222281 0.297830 0.011295
Si Si2 0.763046 0.479520 0.591699
Si Si3 0.736851 0.999247 0.023171
Si Si4 0.430348 0.435161 0.712424
Si Si5 0.807374 0.977538 0.239585
Si Si6 0.044768 0.729201 0.893606
Si Si7 0.187631 0.363711 0.147328
Si Si8 0.792512 0.827046 0.373971
O O1 0.957829 0.344693 0.760674
O O2 0.307016 0.138978 0.058195
O O3 0.455637 0.413881 0.169269
O O4 0.178759 0.291806 0.063779
O O5 0.770745 0.529042 0.511847
O O6 0.848675 0.619678 0.700749
O O7 0.478826 0.420558 0.395006
O O8 0.936138 0.115691 0.138064
O O9 0.873949 0.947814 0.208763
O O10 0.453604 0.069002 0.809345
O O11 0.280301 0.342350 0.660369
O O12 0.669527 0.343120 0.870580
O O13 0.877093 0.843812 0.354885
O O14 0.966059 0.123302 0.385830
O O15 0.500000 0.000000 0.000000
O O16 0.918083 0.755267 0.872356
O O17 0.000000 0.500000 0.000000
#
# Coordination Sequence:
#
# PCOD8039057 Si02
#       8
#     2   2   2   2   2   2   2   2
#     4  10  22  34  50  77 110 141 167 217 264 306
#     4  10  18  32  55  73 101 139 178 219 256 295
#     4  10  21  36  52  79 111 134 170 210 267 315
#     4   9  18  33  53  80 100 134 182 211 253 305
#     4   9  18  34  57  83 105 132 168 211 260 307
#     4  10  19  32  54  77  98 137 181 221 248 306
#     4  11  19  34  53  75 102 138 185 217 256 297
#     4   9  18  35  61  79 102 135 172 215 250 308
#
# _framework density 18.807877999999999
#
# number of rings (size 3 to 8) (size 9 to 14) (size 15 to 20)
#    0.000    2.250    3.750    1.125    0.000    3.500 
#    0.000    1.250    0.000    7.500    0.000    0.000 
#    0.000    0.000    0.000    0.000    0.000    0.000 
#
# Total GULP energy -198344.111498 kJ/mol
# GULP energy per Si atom -12396.506969 kJ/mol
# Density = 1.876507 g / cm^3
# Si number density = 18.807878 Si / 1000 Ang^3
#
#
#
# Elastic Constant Matrix: (Units=GPa)
#
#
# Indices 1 2 3 4 5 6 
#
# 1 119.6216 59.7130 30.8110 11.2453 -13.9624 25.4841
# 2 59.7130 90.9303 19.9463 8.4030 -2.0665 11.9895
# 3 30.8110 19.9463 90.5901 8.8275 -14.0985 9.7411
# 4 11.2453 8.4030 8.8275 16.7618 2.3539 3.5467
# 5 -13.9624 -2.0665 -14.0985 2.3539 21.7693 6.7679
# 6 25.4841 11.9895 9.7411 3.5467 6.7679 32.0718
#
#
#
# Elastic Compliance Matrix: (Units=1/GPa)
#
#
# Indices 1 2 3 4 5 6 
#
# 1 0.018497 -0.009365 0.000565 -0.007359 0.016500 -0.014036
# 2 -0.009365 0.017093 -0.001794 -0.001094 -0.006380 0.003064
# 3 0.000565 -0.001794 0.014531 -0.007598 0.012271 -0.005941
# 4 -0.007359 -0.001094 -0.007598 0.070798 -0.018866 0.004716
# 5 0.016500 -0.006380 0.012271 -0.018866 0.074642 -0.028118
# 6 -0.014036 0.003064 -0.005941 0.004716 -0.028118 0.048404
#
#
# Mechanical properties :
#
#
# Convention : Reuss Voigt Hill
#
# Bulk Modulus (GPa) = 34.56292 58.00918 46.28605
# Shear Modulus (GPa) = 18.19524 26.83203 22.51364
#
# Velocity S-wave (km/s) = 3.11372 3.78118 3.46357
# Velocity P-wave (km/s) = 5.59855 7.06917 6.37640
#
# Compressibility (1/GPa) = 0.02893274
#
# Stress axis : x y z
#
# Youngs Moduli (GPa) = 54.06294 58.50359 68.82067
#
# Poissons Ratio (x) = 0.54788 -0.03890
# Poissons Ratio (y) = 0.50629 0.12348
# Poissons Ratio (z) = -0.03056 0.10497
#
# Static dielectric constant tensor:
#      x y z
#    x 4.023940 0.501350 -0.218020 
#    y 0.501350 3.262570 0.087610 
#    z -0.218020 0.087610 3.566650 
# 
# 
# High freq. dielectric constant tensor:
#      x y z
#    x 1.731480 0.028330 -0.011750 
#    y 0.028330 1.701160 0.014400 
#    z -0.011750 0.014400 1.737970 
# 
# From -- ./inp_files/37583.got.cif
#   From: 2010.06.25/outbox.cif.g09.slc.cpg/sg2_19_cif.got.tgz:37583.got - 2010.06.27 13:26:56.
