data_PCOD8039472
_publ_section_title
;
Structure prediction by ZEFSAII (Michael W. Deem and Ramdas Pophale) SiO2 
 PCOD8039472
Probable space group: P -1
;
_chemical_formula_sum "Si O2"
_cell_formula_units_Z 14
_cell_length_a 15.108884
_cell_length_b 10.929229
_cell_length_c 13.721851
_cell_angle_alpha 148.841167
_cell_angle_beta 123.703219
_cell_angle_gamma 76.052041
_cell_volume 818.923464
_symmetry_space_group_name_H-M "P -1"
_symmetry_group_IT_number 2
_symmetry_cell_setting 'triclinic'
loop_
_space_group_symop_operation_xyz
x,y,z
-x,-y,-z
loop_
_atom_site_type_symbol
_atom_site_label
_atom_site_fract_x
_atom_site_fract_y
_atom_site_fract_z
Si Si1 0.813060 0.449776 0.876555
Si Si2 0.035327 0.744207 0.926672
Si Si3 0.199599 0.228057 0.224922
Si Si4 0.090784 0.289316 0.696752
Si Si5 0.913681 0.076407 0.708396
Si Si6 0.463505 0.710512 0.733504
Si Si7 0.356460 0.473365 0.311863
O O1 0.821400 0.176970 0.686927
O O2 0.691891 0.395266 0.706475
O O3 0.797530 0.508778 0.021110
O O4 0.941862 0.711286 0.090604
O O5 0.086004 0.947598 0.191173
O O6 0.138062 0.919040 0.023622
O O7 0.018736 0.445587 0.732109
O O8 0.898686 0.673398 0.762282
O O9 0.326583 0.458710 0.518980
O O10 0.238132 0.224440 0.132988
O O11 0.139926 0.224132 0.582994
O O12 0.000000 0.000000 0.500000
O O13 0.453300 0.719679 0.614777
O O14 0.571853 0.650375 0.785341
O O15 0.500000 0.000000 0.000000
#
# Coordination Sequence:
#
# PCOD8039472 Si02
#       7
#     2   2   2   2   2   2   2
#     4   9  16  28  49  69 100 126 164 212 239 293
#     4  10  18  34  48  76 112 131 157 200 255 313
#     4   9  19  34  51  73 107 137 157 202 258 299
#     4   9  19  28  48  74 100 135 167 201 242 295
#     4   9  16  29  45  71 101 133 160 199 251 289
#     4   9  19  34  51  73  97 131 177 210 236 289
#     4   9  18  33  50  75  97 132 168 205 255 283
#
# _framework density 17.095614000000001
#
# number of rings (size 3 to 8) (size 9 to 14) (size 15 to 20)
#    0.857    2.000    1.429    0.857    0.000    3.429 
#    2.571    1.429    0.000    3.429    0.000    6.000 
#    0.000    0.000    0.000    0.000    0.000    0.000 
#
# Total GULP energy -173436.718310 kJ/mol
# GULP energy per Si atom -12388.337022 kJ/mol
# Density = 1.705670 g / cm^3
# Si number density = 17.095614 Si / 1000 Ang^3
#
#
#
# Elastic Constant Matrix: (Units=GPa)
#
#
# Indices 1 2 3 4 5 6 
#
# 1 84.6615 37.7180 44.2616 1.0535 -9.6172 -15.7018
# 2 37.7180 91.4024 30.6651 -2.3378 1.0228 -19.8658
# 3 44.2616 30.6651 56.1669 2.7401 -8.8183 -16.0140
# 4 1.0535 -2.3378 2.7401 25.2307 0.5201 3.6661
# 5 -9.6172 1.0228 -8.8183 0.5201 36.5193 0.5852
# 6 -15.7018 -19.8658 -16.0140 3.6661 0.5852 27.2986
#
#
#
# Elastic Compliance Matrix: (Units=1/GPa)
#
#
# Indices 1 2 3 4 5 6 
#
# 1 0.021343 -0.003877 -0.014001 0.000050 0.002329 0.001184
# 2 -0.003877 0.015326 -0.003894 0.001106 -0.002511 0.006543
# 3 -0.014001 -0.003894 0.034852 -0.005133 0.004748 0.010145
# 4 0.000050 0.001106 -0.005133 0.041447 -0.001724 -0.007707
# 5 0.002329 -0.002511 0.004748 -0.001724 0.029207 0.001903
# 6 0.001184 0.006543 0.010145 -0.007707 0.001903 0.049021
#
#
# Mechanical properties :
#
#
# Convention : Reuss Voigt Hill
#
# Bulk Modulus (GPa) = 35.74627 50.83558 43.29093
# Shear Modulus (GPa) = 20.48625 25.78212 23.13419
#
# Velocity S-wave (km/s) = 3.46545 3.88766 3.68261
# Velocity P-wave (km/s) = 6.08009 7.06770 6.59242
#
# Compressibility (1/GPa) = 0.02797494
#
# Stress axis : x y z
#
# Youngs Moduli (GPa) = 46.85486 65.24963 28.69265
#
# Poissons Ratio (x) = 0.25299 0.40173
# Poissons Ratio (y) = 0.18167 0.11174
# Poissons Ratio (z) = 0.65602 0.25411
#
# Static dielectric constant tensor:
#      x y z
#    x 3.295330 0.006110 -0.261200 
#    y 0.006110 3.171160 -0.192990 
#    z -0.261200 -0.192990 3.045760 
# 
# 
# High freq. dielectric constant tensor:
#      x y z
#    x 1.647130 -0.011580 -0.018310 
#    y -0.011580 1.657820 -0.015570 
#    z -0.018310 -0.015570 1.623740 
# 
# From -- ./inp_files/449157.got.cif
#   From: 2010.06.25/outbox.cif.g09.slc.cpg/sg2_225_cif.got.tgz:449157.got - 2010.06.27 13:26:56.
