data_PCOD8039423
_publ_section_title
;
Structure prediction by ZEFSAII (Michael W. Deem and Ramdas Pophale) SiO2 
 PCOD8039423
Probable space group: P -1
;
_chemical_formula_sum "Si O2"
_cell_formula_units_Z 16
_cell_length_a 16.047042
_cell_length_b 11.136015
_cell_length_c 9.819498
_cell_angle_alpha 66.417635
_cell_angle_beta 54.110546
_cell_angle_gamma 32.599132
_cell_volume 748.005431
_symmetry_space_group_name_H-M "P -1"
_symmetry_group_IT_number 2
_symmetry_cell_setting 'triclinic'
loop_
_space_group_symop_operation_xyz
x,y,z
-x,-y,-z
loop_
_atom_site_type_symbol
_atom_site_label
_atom_site_fract_x
_atom_site_fract_y
_atom_site_fract_z
Si Si1 0.037448 0.653120 0.825910
Si Si2 0.242140 0.255072 0.002136
Si Si3 0.388105 0.578781 0.775909
Si Si4 0.374197 0.969377 0.560842
Si Si5 0.439577 0.169459 0.280242
Si Si6 0.655888 0.482590 0.443444
Si Si7 0.098000 0.088054 0.887223
Si Si8 0.734494 0.527667 0.921901
O O1 0.159616 0.633843 0.636068
O O2 0.895171 0.721379 0.837721
O O3 0.174244 0.402241 0.866738
O O4 0.929511 0.835474 0.967278
O O5 0.262532 0.333724 0.071241
O O6 0.432300 0.996860 0.894899
O O7 0.577783 0.460688 0.639811
O O8 0.309651 0.629409 0.678496
O O9 0.232719 0.826122 0.883506
O O10 0.422131 0.407873 0.903579
O O11 0.461285 0.864061 0.675903
O O12 0.499754 0.752381 0.440315
O O13 0.345606 0.141482 0.448470
O O14 0.176755 0.119484 0.700189
O O15 0.290682 0.419787 0.239635
O O16 0.909727 0.258602 0.914464
#
# Coordination Sequence:
#
# PCOD8039423 Si02
#       8
#     2   2   2   2   2   2   2   2
#     4  10  18  33  60  90 110 150 203 230 287 344
#     4  10  19  33  57  88 119 148 187 243 289 355
#     4  10  20  36  60  87 118 153 200 237 287 339
#     4  10  21  37  57  84 116 153 199 228 300 354
#     4  11  21  35  58  86 121 154 188 245 295 350
#     4  10  19  35  60  87 109 153 198 245 271 349
#     4  10  20  36  59  86 114 158 199 239 276 350
#     4  11  22  35  57  92 121 151 192 243 297 337
#
# _framework density 21.390218999999998
#
# number of rings (size 3 to 8) (size 9 to 14) (size 15 to 20)
#    0.000    1.750    5.000    0.750    0.000    0.500 
#    0.000    2.500    0.000    1.500    0.000    0.000 
#    0.000    0.000    0.000    0.000    0.000    0.000 
#
# Total GULP energy -198245.726491 kJ/mol
# GULP energy per Si atom -12390.357906 kJ/mol
# Density = 2.134153 g / cm^3
# Si number density = 21.390219 Si / 1000 Ang^3
#
#
#
# Elastic Constant Matrix: (Units=GPa)
#
#
# Indices 1 2 3 4 5 6 
#
# 1 88.9864 27.5077 56.3647 -13.2795 -36.1316 10.1775
# 2 27.5077 46.8739 35.9939 -0.0348 2.0861 8.2624
# 3 56.3647 35.9939 98.5189 -6.6799 -28.4399 -0.0897
# 4 -13.2795 -0.0348 -6.6799 34.5194 -1.5519 5.0986
# 5 -36.1316 2.0861 -28.4399 -1.5519 39.4572 -2.1174
# 6 10.1775 8.2624 -0.0897 5.0986 -2.1174 21.4353
#
#
#
# Elastic Compliance Matrix: (Units=1/GPa)
#
#
# Indices 1 2 3 4 5 6 
#
# 1 0.034387 -0.016348 -0.004200 0.015312 0.029349 -0.010786
# 2 -0.016348 0.048228 -0.018009 -0.009402 -0.031503 -0.011778
# 3 -0.004200 -0.018009 0.023522 0.002103 0.014679 0.009984
# 4 0.015312 -0.009402 0.002103 0.037631 0.016929 -0.010916
# 5 0.029349 -0.031503 0.014679 0.016929 0.065168 0.000680
# 6 -0.010786 -0.011778 0.009984 -0.010916 0.000680 0.059019
#
#
# Mechanical properties :
#
#
# Convention : Reuss Voigt Hill
#
# Bulk Modulus (GPa) = 34.45633 52.67911 43.56772
# Shear Modulus (GPa) = 14.09471 26.71656 20.40564
#
# Velocity S-wave (km/s) = 2.56975 3.53797 3.09199
# Velocity P-wave (km/s) = 4.99482 6.43201 5.75843
#
# Compressibility (1/GPa) = 0.02902224
#
# Stress axis : x y z
#
# Youngs Moduli (GPa) = 29.08062 20.73488 42.51359
#
# Poissons Ratio (x) = 0.33898 0.17855
# Poissons Ratio (y) = 0.47542 0.76563
# Poissons Ratio (z) = 0.12214 0.37342
#
# Static dielectric constant tensor:
#      x y z
#    x 4.062620 0.193710 -0.454410 
#    y 0.193710 3.556110 0.213060 
#    z -0.454410 0.213060 3.859500 
# 
# 
# High freq. dielectric constant tensor:
#      x y z
#    x 1.840550 0.025860 -0.033130 
#    y 0.025860 1.807290 0.022390 
#    z -0.033130 0.022390 1.829980 
# 
# From -- ./inp_files/297775.got.cif
#   From: 2010.06.25/outbox.cif.g09.slc.cpg/sg2_149_cif.got.tgz:297775.got - 2010.06.27 13:26:56.
