data_PCOD8039480
_publ_section_title
;
Structure prediction by ZEFSAII (Michael W. Deem and Ramdas Pophale) SiO2 
 PCOD8039480
Probable space group: P -1
;
_chemical_formula_sum "Si O2"
_cell_formula_units_Z 16
_cell_length_a 9.659514
_cell_length_b 11.411796
_cell_length_c 11.852266
_cell_angle_alpha 90.670356
_cell_angle_beta 120.343233
_cell_angle_gamma 117.251325
_cell_volume 950.769719
_symmetry_space_group_name_H-M "P -1"
_symmetry_group_IT_number 2
_symmetry_cell_setting 'triclinic'
loop_
_space_group_symop_operation_xyz
x,y,z
-x,-y,-z
loop_
_atom_site_type_symbol
_atom_site_label
_atom_site_fract_x
_atom_site_fract_y
_atom_site_fract_z
Si Si1 0.250205 0.543194 0.676762
Si Si2 0.973345 0.220191 0.954998
Si Si3 0.934069 0.645891 0.782390
Si Si4 0.670874 0.708552 0.784454
Si Si5 0.257335 0.872740 0.483424
Si Si6 0.675237 0.963480 0.694549
Si Si7 0.973628 0.392755 0.754952
Si Si8 0.049705 0.701351 0.588905
O O1 0.473493 0.604621 0.764375
O O2 0.214313 0.667370 0.647544
O O3 0.167121 0.470143 0.762296
O O4 0.150377 0.432705 0.533444
O O5 0.017719 0.338234 0.884406
O O6 0.801365 0.069408 0.846727
O O7 0.923704 0.264583 0.054532
O O8 0.164992 0.217009 0.050782
O O9 0.727933 0.623854 0.722893
O O10 0.906136 0.496319 0.759148
O O11 0.024039 0.736115 0.706270
O O12 0.659365 0.819684 0.704706
O O13 0.472335 0.947314 0.615462
O O14 0.196838 0.731799 0.388605
O O15 0.119512 0.833221 0.535726
O O16 0.232700 0.974412 0.390576
#
# Coordination Sequence:
#
# PCOD8039480 Si02
#       8
#     2   2   2   2   2   2   2   2
#     4   9  17  29  53  74  98 129 162 211 238 293
#     4   9  20  33  51  71 104 138 160 201 240 296
#     4   9  20  30  51  76 105 131 151 206 259 294
#     4  10  20  31  49  80 100 132 160 203 254 285
#     4   9  18  31  59  73  89 133 171 216 227 281
#     4  10  18  34  51  75  97 128 180 199 233 293
#     4   9  17  35  54  76  98 125 172 200 251 293
#     4   9  16  33  49  74 100 126 168 198 253 290
#
# _framework density 16.828471
#
# number of rings (size 3 to 8) (size 9 to 14) (size 15 to 20)
#    0.750    2.000    1.250    1.500    0.000    1.000 
#    0.000    1.250    0.000    0.000    0.000    0.000 
#    0.000    0.000    0.000    0.000    0.000    0.000 
#
# Total GULP energy -198280.149510 kJ/mol
# GULP energy per Si atom -12392.509344 kJ/mol
# Density = 1.679017 g / cm^3
# Si number density = 16.828471 Si / 1000 Ang^3
#
#
#
# Elastic Constant Matrix: (Units=GPa)
#
#
# Indices 1 2 3 4 5 6 
#
# 1 89.6620 40.1944 47.2293 2.8389 0.1634 11.5217
# 2 40.1944 78.1079 27.1651 -11.9796 -6.1174 11.1469
# 3 47.2293 27.1651 97.1498 -8.0275 -1.3439 15.0510
# 4 2.8389 -11.9796 -8.0275 17.2295 11.1485 3.3283
# 5 0.1634 -6.1174 -1.3439 11.1485 25.8341 -4.7509
# 6 11.5217 11.1469 15.0510 3.3283 -4.7509 23.6451
#
#
#
# Elastic Compliance Matrix: (Units=1/GPa)
#
#
# Indices 1 2 3 4 5 6 
#
# 1 0.021147 -0.010983 -0.009697 -0.021128 0.006872 0.005400
# 2 -0.010983 0.022671 0.003081 0.026872 -0.008344 -0.012756
# 3 -0.009697 0.003081 0.017708 0.020654 -0.009560 -0.012827
# 4 -0.021128 0.026872 0.020654 0.138272 -0.060778 -0.047195
# 5 0.006872 -0.008344 -0.009560 -0.060778 0.067723 0.028832
# 6 0.005400 -0.012756 -0.012827 -0.047195 0.028832 0.066275
#
#
# Mechanical properties :
#
#
# Convention : Reuss Voigt Hill
#
# Bulk Modulus (GPa) = 37.98132 54.89969 46.44051
# Shear Modulus (GPa) = 13.23562 23.36380 18.29971
#
# Velocity S-wave (km/s) = 2.80751 3.73010 3.30119
# Velocity P-wave (km/s) = 5.75570 7.15859 6.49514
#
# Compressibility (1/GPa) = 0.02632873
#
# Stress axis : x y z
#
# Youngs Moduli (GPa) = 47.28877 44.10875 56.47286
#
# Poissons Ratio (x) = 0.48443 0.54761
# Poissons Ratio (y) = 0.51935 -0.17400
# Poissons Ratio (z) = 0.45855 -0.13590
#
# Static dielectric constant tensor:
#      x y z
#    x 2.859810 0.146640 -0.043020 
#    y 0.146640 3.213200 -0.185860 
#    z -0.043020 -0.185860 3.168640 
# 
# 
# High freq. dielectric constant tensor:
#      x y z
#    x 1.618380 0.014320 -0.000350 
#    y 0.014320 1.650540 -0.014660 
#    z -0.000350 -0.014660 1.648870 
# 
# From -- ./inp_files/259983.got.cif
#   From: 2010.06.25/outbox.cif.g09.slc.cpg/sg2_130_cif.got.tgz:259983.got - 2010.06.27 13:26:56.
