data_PCOD8039080
_publ_section_title
;
Structure prediction by ZEFSAII (Michael W. Deem and Ramdas Pophale) SiO2 
 PCOD8039080
Probable space group: P -1
;
_chemical_formula_sum "Si O2"
_cell_formula_units_Z 14
_cell_length_a 20.338144
_cell_length_b 7.874024
_cell_length_c 11.611099
_cell_angle_alpha 37.535150
_cell_angle_beta 152.187954
_cell_angle_gamma 137.734853
_cell_volume 523.648537
_symmetry_space_group_name_H-M "P -1"
_symmetry_group_IT_number 2
_symmetry_cell_setting 'triclinic'
loop_
_space_group_symop_operation_xyz
x,y,z
-x,-y,-z
loop_
_atom_site_type_symbol
_atom_site_label
_atom_site_fract_x
_atom_site_fract_y
_atom_site_fract_z
Si Si1 0.442421 0.923247 0.328009
Si Si2 0.970326 0.063708 0.137085
Si Si3 0.346752 0.308756 0.789622
Si Si4 0.839599 0.410824 0.939978
Si Si5 0.170049 0.756146 0.728730
Si Si6 0.274551 0.902366 0.422470
Si Si7 0.390671 0.766619 0.896967
O O1 0.580860 0.883166 0.489811
O O2 0.500000 0.000000 0.500000
O O3 0.362215 0.165700 0.015560
O O4 0.332485 0.633804 0.317218
O O5 0.857926 0.975942 0.906751
O O6 0.097879 0.280294 0.166851
O O7 0.900723 0.180036 0.080131
O O8 0.029250 0.777739 0.422036
O O9 0.275369 0.592364 0.533842
O O10 0.242643 0.083971 0.675992
O O11 0.506457 0.401248 0.932131
O O12 0.876496 0.382434 0.147339
O O13 0.289480 0.599947 0.929051
O O14 0.271225 0.880361 0.567599
O O15 0.500000 0.000000 0.000000
#
# Coordination Sequence:
#
# PCOD8039080 Si02
#       7
#     2   2   2   2   2   2   2
#     4  10  18  32  55  87 118 144 197 255 291 338
#     4  11  22  37  61  90 125 156 203 253 293 364
#     4   9  19  36  63  88 116 156 205 250 295 351
#     4  10  21  38  59  89 125 159 203 249 300 355
#     4  10  21  38  63  86 125 167 194 239 314 365
#     4  11  21  38  64  92 117 156 208 252 297 351
#     4   9  19  37  61  86 121 161 197 245 310 360
#
# _framework density 26.735489000000001
#
# number of rings (size 3 to 8) (size 9 to 14) (size 15 to 20)
#    0.000    2.000    1.429    4.714    0.000    1.714 
#    0.000    0.714   12.571    6.857    0.000    0.000 
#    0.000    0.000    0.000    0.000    0.000    0.000 
#
# Total GULP energy -173460.227852 kJ/mol
# GULP energy per Si atom -12390.016275 kJ/mol
# Density = 2.667464 g / cm^3
# Si number density = 26.735489 Si / 1000 Ang^3
#
#
#
# Elastic Constant Matrix: (Units=GPa)
#
#
# Indices 1 2 3 4 5 6 
#
# 1 140.5702 21.5449 31.0666 -5.1132 -22.3215 16.7070
# 2 21.5449 45.3940 13.1591 10.5071 7.7616 17.0414
# 3 31.0666 13.1591 145.9957 14.2946 -38.5807 1.3022
# 4 -5.1132 10.5071 14.2946 18.1226 -2.1795 5.1928
# 5 -22.3215 7.7616 -38.5807 -2.1795 36.4754 11.2471
# 6 16.7070 17.0414 1.3022 5.1928 11.2471 31.1022
#
#
#
# Elastic Compliance Matrix: (Units=1/GPa)
#
#
# Indices 1 2 3 4 5 6 
#
# 1 0.011438 -0.006928 0.000441 0.010832 0.012240 -0.008602
# 2 -0.006928 0.036238 -0.003702 -0.019719 -0.014780 -0.007342
# 3 0.000441 -0.003702 0.011041 -0.004018 0.013370 -0.002835
# 4 0.010832 -0.019719 -0.004018 0.078579 0.015449 -0.013552
# 5 0.012240 -0.014780 0.013370 0.015449 0.060343 -0.023436
# 6 -0.008602 -0.007342 -0.002835 -0.013552 -0.023436 0.051652
#
#
# Mechanical properties :
#
#
# Convention : Reuss Voigt Hill
#
# Bulk Modulus (GPa) = 26.08195 51.50014 38.79105
# Shear Modulus (GPa) = 17.70238 34.88599 26.29418
#
# Velocity S-wave (km/s) = 2.57598 3.61620 3.13947
# Velocity P-wave (km/s) = 4.31559 6.06140 5.26141
#
# Compressibility (1/GPa) = 0.03834069
#
# Stress axis : x y z
#
# Youngs Moduli (GPa) = 87.42691 27.59522 90.56971
#
# Poissons Ratio (x) = 0.19117 -0.03995
# Poissons Ratio (y) = 0.60567 0.33527
# Poissons Ratio (z) = -0.03856 0.10215
#
# Static dielectric constant tensor:
#      x y z
#    x 7.307140 0.669470 0.235170 
#    y 0.669470 4.652650 0.453590 
#    z 0.235170 0.453590 5.027890 
# 
# 
# High freq. dielectric constant tensor:
#      x y z
#    x 2.086620 0.010030 -0.018170 
#    y 0.010030 2.044230 0.028590 
#    z -0.018170 0.028590 2.078620 
# 
# From -- ./inp_files/469256.got.cif
#   From: 2010.06.25/outbox.cif.g09.slc.cpg/sg2_235_cif.got.tgz:469256.got - 2010.06.27 13:26:56.
