data_PCOD8039218
_publ_section_title
;
Structure prediction by ZEFSAII (Michael W. Deem and Ramdas Pophale) SiO2 
 PCOD8039218
Probable space group: P -1
;
_chemical_formula_sum "Si O2"
_cell_formula_units_Z 16
_cell_length_a 8.362166
_cell_length_b 26.269780
_cell_length_c 20.310715
_cell_angle_alpha 161.706089
_cell_angle_beta 147.532743
_cell_angle_gamma 39.324492
_cell_volume 741.737165
_symmetry_space_group_name_H-M "P -1"
_symmetry_group_IT_number 2
_symmetry_cell_setting 'triclinic'
loop_
_space_group_symop_operation_xyz
x,y,z
-x,-y,-z
loop_
_atom_site_type_symbol
_atom_site_label
_atom_site_fract_x
_atom_site_fract_y
_atom_site_fract_z
Si Si1 0.094643 0.740396 0.642958
Si Si2 0.240350 0.229124 0.906220
Si Si3 0.685032 0.829439 0.413422
Si Si4 0.143409 0.985240 0.858996
Si Si5 0.112837 0.589382 0.904280
Si Si6 0.784475 0.936288 0.436469
Si Si7 0.173940 0.601093 0.626065
Si Si8 0.765849 0.704917 0.807143
O O1 0.029332 0.916934 0.808846
O O2 0.976426 0.695183 0.621336
O O3 0.457941 0.751597 0.785431
O O4 0.938833 0.600767 0.366603
O O5 0.252795 0.214089 0.813080
O O6 0.581167 0.260280 0.087698
O O7 0.090835 0.057485 0.675028
O O8 0.070080 0.378902 0.053836
O O9 0.822480 0.862024 0.429257
O O10 0.978929 0.841486 0.576698
O O11 0.497919 0.966738 0.544178
O O12 0.468409 0.651998 0.119216
O O13 0.500000 0.000000 0.000000
O O14 0.073579 0.163145 0.029878
O O15 0.004688 0.701376 0.945173
O O16 0.321144 0.473087 0.475072
O O17 0.000000 0.500000 0.500000
#
# Coordination Sequence:
#
# PCOD8039218 Si02
#       8
#     2   2   2   2   2   2   2   2
#     4  10  20  37  55  84 111 153 183 222 280 335
#     4  10  18  33  52  85 111 144 174 235 286 314
#     4  10  20  34  56  84 108 146 184 233 274 327
#     4  10  22  35  58  81 113 145 190 225 277 337
#     4  10  18  34  61  82 113 140 190 235 273 321
#     4   9  20  32  57  85 113 137 185 235 277 323
#     4  11  22  32  58  85 115 142 186 234 273 320
#     4  10  18  37  57  84 109 149 187 228 275 330
#
# _framework density 21.570982999999998
#
# number of rings (size 3 to 8) (size 9 to 14) (size 15 to 20)
#    0.000    2.000    2.500    3.000    7.000    0.500 
#    0.000    0.625    0.000    2.250    0.000    0.000 
#    0.000    0.000    0.000    0.000    0.000    0.000 
#
# Total GULP energy -198225.577516 kJ/mol
# GULP energy per Si atom -12389.098595 kJ/mol
# Density = 2.152189 g / cm^3
# Si number density = 21.570983 Si / 1000 Ang^3
#
#
#
# Elastic Constant Matrix: (Units=GPa)
#
#
# Indices 1 2 3 4 5 6 
#
# 1 105.7080 27.2128 28.5193 -3.4856 -2.5397 32.0544
# 2 27.2128 61.5197 34.5718 1.2582 8.1039 29.4616
# 3 28.5193 34.5718 131.1935 -27.3486 2.3978 12.2410
# 4 -3.4856 1.2582 -27.3486 38.2367 5.2655 8.6948
# 5 -2.5397 8.1039 2.3978 5.2655 25.6421 3.5995
# 6 32.0544 29.4616 12.2410 8.6948 3.5995 33.0019
#
#
#
# Elastic Compliance Matrix: (Units=1/GPa)
#
#
# Indices 1 2 3 4 5 6 
#
# 1 0.014548 0.001835 -0.001387 0.003674 0.002552 -0.016500
# 2 0.001835 0.033749 -0.005897 0.002453 -0.006270 -0.029686
# 3 -0.001387 -0.005897 0.011135 0.008068 -0.001038 0.000469
# 4 0.003674 0.002453 0.008068 0.037099 -0.006280 -0.017840
# 5 0.002552 -0.006270 -0.001038 -0.006280 0.042547 0.000517
# 6 -0.016500 -0.029686 0.000469 -0.017840 0.000517 0.077299
#
#
# Mechanical properties :
#
#
# Convention : Reuss Voigt Hill
#
# Bulk Modulus (GPa) = 20.60407 53.22546 36.91476
# Shear Modulus (GPa) = 20.53784 33.25061 26.89422
#
# Velocity S-wave (km/s) = 3.08897 3.93039 3.53480
# Velocity P-wave (km/s) = 4.72173 6.73242 5.81465
#
# Compressibility (1/GPa) = 0.04853409
#
# Stress axis : x y z
#
# Youngs Moduli (GPa) = 68.73907 29.63014 89.80839
#
# Poissons Ratio (x) = -0.05437 0.12458
# Poissons Ratio (y) = -0.12613 0.52957
# Poissons Ratio (z) = 0.09535 0.17472
#
# Static dielectric constant tensor:
#      x y z
#    x 4.006060 0.487000 0.055190 
#    y 0.487000 3.735930 -0.011800 
#    z 0.055190 -0.011800 4.182130 
# 
# 
# High freq. dielectric constant tensor:
#      x y z
#    x 1.829940 0.035550 0.008430 
#    y 0.035550 1.805170 -0.012170 
#    z 0.008430 -0.012170 1.869530 
# 
# From -- ./inp_files/262805.got.cif
#   From: 2010.06.25/outbox.cif.g09.slc.cpg/sg2_132_cif.got.tgz:262805.got - 2010.06.27 13:26:56.
