data_PCOD8039715
_publ_section_title
;
Structure prediction by ZEFSAII (Michael W. Deem and Ramdas Pophale) SiO2 
 PCOD8039715
Probable space group: P -1
;
_chemical_formula_sum "Si O2"
_cell_formula_units_Z 16
_cell_length_a 26.147064
_cell_length_b 9.444899
_cell_length_c 14.010015
_cell_angle_alpha 59.578645
_cell_angle_beta 160.984008
_cell_angle_gamma 131.093884
_cell_volume 750.540824
_symmetry_space_group_name_H-M "P -1"
_symmetry_group_IT_number 2
_symmetry_cell_setting 'triclinic'
loop_
_space_group_symop_operation_xyz
x,y,z
-x,-y,-z
loop_
_atom_site_type_symbol
_atom_site_label
_atom_site_fract_x
_atom_site_fract_y
_atom_site_fract_z
Si Si1 0.157944 0.288483 0.815788
Si Si2 0.640307 0.279705 0.893684
Si Si3 0.668965 0.248714 0.733612
Si Si4 0.225181 0.097812 0.172490
Si Si5 0.514149 0.616608 0.765747
Si Si6 0.958519 0.334472 0.062628
Si Si7 0.787096 0.775669 0.513522
Si Si8 0.306642 0.047164 0.872659
O O1 0.923024 0.102366 0.442739
O O2 0.188002 0.497598 0.828246
O O3 0.244506 0.226177 0.071141
O O4 0.275103 0.327844 0.911022
O O5 0.706883 0.294818 0.896684
O O6 0.429635 0.246144 0.545887
O O7 0.622274 0.090973 0.977277
O O8 0.591730 0.370394 0.515832
O O9 0.889413 0.360165 0.034459
O O10 0.500000 0.000000 0.500000
O O11 0.231550 0.908254 0.219563
O O12 0.003570 0.986107 0.868674
O O13 0.364172 0.373540 0.618885
O O14 0.548214 0.775529 0.852979
O O15 0.000000 0.500000 0.000000
O O16 0.157275 0.346617 0.414216
O O17 0.676613 0.840105 0.234077
#
# Coordination Sequence:
#
# PCOD8039715 Si02
#       8
#     2   2   2   2   2   2   2   2
#     4  11  24  41  61  91 127 163 205 251 306 365
#     4  12  23  38  66  92 125 163 204 252 309 357
#     4  12  19  34  63  97 118 151 206 258 299 357
#     4   9  19  37  61  85 124 153 195 251 303 350
#     4  12  21  39  66  92 121 159 206 255 311 356
#     4  10  18  34  60  92 123 147 200 257 298 350
#     4   9  22  39  61  93 124 157 201 256 312 360
#     4  11  24  41  63  86 127 165 205 254 300 367
#
# _framework density 21.317962000000001
#
# number of rings (size 3 to 8) (size 9 to 14) (size 15 to 20)
#    0.750    0.500    5.000    1.500    0.000    1.000 
#    0.000    1.250    5.500    0.000    0.000    0.000 
#    0.000    0.000    0.000    0.000    0.000    0.000 
#
# Total GULP energy -198270.997707 kJ/mol
# GULP energy per Si atom -12391.937357 kJ/mol
# Density = 2.126944 g / cm^3
# Si number density = 21.317962 Si / 1000 Ang^3
#
#
#
# Elastic Constant Matrix: (Units=GPa)
#
#
# Indices 1 2 3 4 5 6 
#
# 1 43.4455 35.2773 7.3935 3.6926 10.1102 13.6966
# 2 35.2773 116.2260 11.1642 -9.3357 -1.9327 23.7817
# 3 7.3935 11.1642 55.4796 -9.1536 11.3646 17.5745
# 4 3.6926 -9.3357 -9.1536 33.7535 7.7047 -3.4480
# 5 10.1102 -1.9327 11.3646 7.7047 26.1547 5.2859
# 6 13.6966 23.7817 17.5745 -3.4480 5.2859 28.1438
#
#
#
# Elastic Compliance Matrix: (Units=1/GPa)
#
#
# Indices 1 2 3 4 5 6 
#
# 1 0.037102 -0.010227 0.001758 -0.004365 -0.012830 -0.008637
# 2 -0.010227 0.013495 0.000339 0.002965 0.005403 -0.007289
# 3 0.001758 0.000339 0.025883 0.008079 -0.011417 -0.014170
# 4 -0.004365 0.002965 0.008079 0.036109 -0.012514 0.001347
# 5 -0.012830 0.005403 -0.011417 -0.012514 0.052773 -0.002637
# 6 -0.008637 -0.007289 -0.014170 0.001347 -0.002637 0.055404
#
#
# Mechanical properties :
#
#
# Convention : Reuss Voigt Hill
#
# Bulk Modulus (GPa) = 16.60611 35.86901 26.23756
# Shear Modulus (GPa) = 19.44778 28.36479 23.90628
#
# Velocity S-wave (km/s) = 3.02366 3.65164 3.35239
# Velocity P-wave (km/s) = 4.47176 5.88571 5.22677
#
# Compressibility (1/GPa) = 0.06021878
#
# Stress axis : x y z
#
# Youngs Moduli (GPa) = 26.95284 74.10148 38.63601
#
# Poissons Ratio (x) = 0.75782 -0.06791
# Poissons Ratio (y) = 0.27564 -0.01309
# Poissons Ratio (z) = -0.04737 -0.02511
#
# Static dielectric constant tensor:
#      x y z
#    x 3.464390 0.180140 0.201910 
#    y 0.180140 3.988610 -0.046500 
#    z 0.201910 -0.046500 3.838670 
# 
# 
# High freq. dielectric constant tensor:
#      x y z
#    x 1.796620 0.019260 0.019350 
#    y 0.019260 1.847760 -0.003890 
#    z 0.019350 -0.003890 1.832020 
# 
# From -- ./inp_files/543833.got.cif
#   From: 2010.06.25/outbox.cif.g09.slc.cpg/sg2_272_cif.got.tgz:543833.got - 2010.06.27 13:26:56.
