data_PCOD8039900
_publ_section_title
;
Structure prediction by ZEFSAII (Michael W. Deem and Ramdas Pophale) SiO2 
 PCOD8039900
Probable space group: P -1
;
_chemical_formula_sum "Si O2"
_cell_formula_units_Z 16
_cell_length_a 10.025893
_cell_length_b 22.761127
_cell_length_c 17.403505
_cell_angle_alpha 26.139600
_cell_angle_beta 145.042884
_cell_angle_gamma 152.434379
_cell_volume 804.168525
_symmetry_space_group_name_H-M "P -1"
_symmetry_group_IT_number 2
_symmetry_cell_setting 'triclinic'
loop_
_space_group_symop_operation_xyz
x,y,z
-x,-y,-z
loop_
_atom_site_type_symbol
_atom_site_label
_atom_site_fract_x
_atom_site_fract_y
_atom_site_fract_z
Si Si1 0.758112 0.629777 0.344856
Si Si2 0.362533 0.238041 0.248182
Si Si3 0.673735 0.308645 0.731793
Si Si4 0.675929 0.541923 0.923230
Si Si5 0.132599 0.781471 0.488893
Si Si6 0.808792 0.429507 0.820477
Si Si7 0.865574 0.686841 0.157680
Si Si8 0.028152 0.997331 0.785899
O O1 0.620821 0.442748 0.525438
O O2 0.503333 0.652349 0.192501
O O3 0.918112 0.674220 0.286573
O O4 0.986712 0.756917 0.366443
O O5 0.292610 0.292644 0.229951
O O6 0.548111 0.168578 0.434399
O O7 0.544863 0.403335 0.089747
O O8 0.069570 0.094675 0.234625
O O9 0.777796 0.334650 0.838370
O O10 0.373985 0.128051 0.791916
O O11 0.926361 0.335018 0.768374
O O12 0.471190 0.463816 0.843553
O O13 0.998731 0.591582 0.003713
O O14 0.949829 0.620242 0.645221
O O15 0.144949 0.925818 0.369539
O O16 0.937958 0.865102 0.965968
#
# Coordination Sequence:
#
# PCOD8039900 Si02
#       8
#     2   2   2   2   2   2   2   2
#     4  11  21  37  58  84 110 148 181 224 276 323
#     4   9  18  32  58  83 106 139 189 231 267 311
#     4  11  20  38  59  82 109 144 189 229 264 324
#     4   9  18  35  53  81 110 143 184 229 267 320
#     4  10  18  35  58  83 110 144 186 224 265 331
#     4  10  18  35  62  79 108 146 190 226 262 322
#     4  11  24  35  56  85 114 144 181 226 281 322
#     4  11  20  35  56  87 111 142 182 227 277 321
#
# _framework density 19.896328
#
# number of rings (size 3 to 8) (size 9 to 14) (size 15 to 20)
#    0.000    1.750    2.500    5.625    0.000    1.000 
#    0.000    0.000    0.000    1.500    0.000    0.000 
#    0.000    0.000    0.000    0.000    0.000    0.000 
#
# Total GULP energy -198401.293999 kJ/mol
# GULP energy per Si atom -12400.080875 kJ/mol
# Density = 1.985104 g / cm^3
# Si number density = 19.896328 Si / 1000 Ang^3
#
#
#
# Elastic Constant Matrix: (Units=GPa)
#
#
# Indices 1 2 3 4 5 6 
#
# 1 67.6810 17.3181 19.8369 2.7483 13.8112 -4.1723
# 2 17.3181 105.5497 31.5662 1.4814 3.6609 -2.3307
# 3 19.8369 31.5662 48.8042 4.8174 18.8236 -4.0987
# 4 2.7483 1.4814 4.8174 30.1455 2.0416 12.2567
# 5 13.8112 3.6609 18.8236 2.0416 29.0032 3.4039
# 6 -4.1723 -2.3307 -4.0987 12.2567 3.4039 22.9426
#
#
#
# Elastic Compliance Matrix: (Units=1/GPa)
#
#
# Indices 1 2 3 4 5 6 
#
# 1 0.017854 -0.001696 -0.002836 -0.002663 -0.006848 0.005007
# 2 -0.001696 0.012479 -0.010099 0.001858 0.005976 -0.002724
# 3 -0.002836 -0.010099 0.039637 -0.009777 -0.024095 0.014338
# 4 -0.002663 0.001858 -0.009777 0.045558 0.007397 -0.027478
# 5 -0.006848 0.005976 -0.024095 0.007397 0.054088 -0.016919
# 6 0.005007 -0.002724 0.014338 -0.027478 -0.016919 0.063972
#
#
# Mechanical properties :
#
#
# Convention : Reuss Voigt Hill
#
# Bulk Modulus (GPa) = 24.56449 39.94192 32.25320
# Shear Modulus (GPa) = 18.08840 26.63919 22.36380
#
# Velocity S-wave (km/s) = 3.01845 3.66307 3.35627
# Velocity P-wave (km/s) = 4.95188 6.16517 5.59153
#
# Compressibility (1/GPa) = 0.04070918
#
# Stress axis : x y z
#
# Youngs Moduli (GPa) = 56.00836 80.13270 25.22894
#
# Poissons Ratio (x) = 0.13591 0.07154
# Poissons Ratio (y) = 0.09499 0.25479
# Poissons Ratio (z) = 0.15881 0.80928
#
# Static dielectric constant tensor:
#      x y z
#    x 3.315910 -0.068930 0.357900 
#    y -0.068930 3.769190 0.160970 
#    z 0.357900 0.160970 3.603980 
# 
# 
# High freq. dielectric constant tensor:
#      x y z
#    x 1.750730 -0.008070 0.036780 
#    y -0.008070 1.783930 0.014050 
#    z 0.036780 0.014050 1.764240 
# 
# From -- ./inp_files/227702.got.cif
#   From: 2010.06.25/outbox.cif.g09.slc.cpg/sg2_114_cif.got.tgz:227702.got - 2010.06.27 13:26:56.
