data_PCOD8039662
_publ_section_title
;
Structure prediction by ZEFSAII (Michael W. Deem and Ramdas Pophale) SiO2 
 PCOD8039662
Probable space group: P -1
;
_chemical_formula_sum "Si O2"
_cell_formula_units_Z 16
_cell_length_a 8.985019
_cell_length_b 20.307424
_cell_length_c 10.626120
_cell_angle_alpha 58.225592
_cell_angle_beta 110.967972
_cell_angle_gamma 148.641881
_cell_volume 839.069036
_symmetry_space_group_name_H-M "P -1"
_symmetry_group_IT_number 2
_symmetry_cell_setting 'triclinic'
loop_
_space_group_symop_operation_xyz
x,y,z
-x,-y,-z
loop_
_atom_site_type_symbol
_atom_site_label
_atom_site_fract_x
_atom_site_fract_y
_atom_site_fract_z
Si Si1 0.285371 0.720664 0.050883
Si Si2 0.974826 0.147487 0.684157
Si Si3 0.600630 0.868685 0.742582
Si Si4 0.183131 0.352918 0.098924
Si Si5 0.212253 0.216239 0.089474
Si Si6 0.343936 0.007970 0.005647
Si Si7 0.005987 0.696279 0.634973
Si Si8 0.563413 0.383242 0.783523
O O1 0.236149 0.611436 0.183136
O O2 0.514677 0.813419 0.913862
O O3 0.987230 0.640728 0.005137
O O4 0.433544 0.829369 0.098391
O O5 0.298798 0.270024 0.717139
O O6 0.730561 0.047810 0.818737
O O7 0.955082 0.221832 0.537483
O O8 0.876941 0.040936 0.660651
O O9 0.689068 0.819553 0.763942
O O10 0.326963 0.791222 0.660774
O O11 0.095284 0.235655 0.127291
O O12 0.137149 0.325204 0.261572
O O13 0.500000 0.500000 0.000000
O O14 0.456842 0.347514 0.932859
O O15 0.939807 0.077582 0.064583
O O16 0.500000 0.000000 0.000000
O O17 0.781019 0.542735 0.662178
#
# Coordination Sequence:
#
# PCOD8039662 Si02
#       8
#     2   2   2   2   2   2   2   2
#     4   9  19  33  56  85 105 135 182 227 270 307
#     4  10  21  38  57  79 108 147 183 214 269 327
#     4   9  20  35  57  80 108 141 182 226 260 320
#     4  11  21  33  54  82 113 140 174 224 270 319
#     4  10  19  34  57  84 106 137 182 227 272 304
#     4  10  18  34  59  83 104 135 178 230 268 313
#     4  11  22  36  57  79 111 148 180 215 267 327
#     4  10  20  35  58  81 107 141 185 227 258 318
#
# _framework density 19.068752
#
# number of rings (size 3 to 8) (size 9 to 14) (size 15 to 20)
#    0.000    2.000    2.500    1.500    1.750    4.500 
#    0.000    0.625    2.750    1.500    0.000    0.000 
#    0.000    0.000    0.000    0.000    0.000    0.000 
#
# Total GULP energy -198299.645060 kJ/mol
# GULP energy per Si atom -12393.727816 kJ/mol
# Density = 1.902535 g / cm^3
# Si number density = 19.068752 Si / 1000 Ang^3
#
#
#
# Elastic Constant Matrix: (Units=GPa)
#
#
# Indices 1 2 3 4 5 6 
#
# 1 91.0837 13.9485 33.0966 5.5586 19.3061 4.6520
# 2 13.9485 91.2339 26.5280 -5.2976 6.8429 -0.0937
# 3 33.0966 26.5280 77.7421 -2.7219 22.7950 -0.1186
# 4 5.5586 -5.2976 -2.7219 23.4853 -2.1466 5.1935
# 5 19.3061 6.8429 22.7950 -2.1466 26.8766 -0.8809
# 6 4.6520 -0.0937 -0.1186 5.1935 -0.8809 21.5169
#
#
#
# Elastic Compliance Matrix: (Units=1/GPa)
#
#
# Indices 1 2 3 4 5 6 
#
# 1 0.014435 -0.000772 -0.003897 -0.004169 -0.007280 -0.002438
# 2 -0.000772 0.012348 -0.004114 0.002681 0.001101 -0.000404
# 3 -0.003897 -0.004114 0.019711 0.001077 -0.012780 0.000150
# 4 -0.004169 0.002681 0.001077 0.046998 0.004816 -0.010228
# 5 -0.007280 0.001101 -0.012780 0.004816 0.053463 0.002535
# 6 -0.002438 -0.000404 0.000150 -0.010228 0.002535 0.049574
#
#
# Mechanical properties :
#
#
# Convention : Reuss Voigt Hill
#
# Bulk Modulus (GPa) = 34.56957 45.24509 39.90733
# Shear Modulus (GPa) = 22.34747 26.80821 24.57784
#
# Velocity S-wave (km/s) = 3.42708 3.75356 3.59403
# Velocity P-wave (km/s) = 5.81619 6.52415 6.18031
#
# Compressibility (1/GPa) = 0.02892718
#
# Stress axis : x y z
#
# Youngs Moduli (GPa) = 69.27500 80.98536 50.73251
#
# Poissons Ratio (x) = 0.06255 0.19770
# Poissons Ratio (y) = 0.05351 0.20873
# Poissons Ratio (z) = 0.26995 0.33320
#
# Static dielectric constant tensor:
#      x y z
#    x 0.667780 -0.756170 -1.021560 
#    y -0.756170 3.611070 -0.254960 
#    z -1.021560 -0.254960 2.740280 
# 
# 
# High freq. dielectric constant tensor:
#      x y z
#    x 1.742350 -0.003270 0.027330 
#    y -0.003270 1.757300 -0.003450 
#    z 0.027330 -0.003450 1.706570 
# 
# From -- ./inp_files/227519.got.cif
#   From: 2010.06.25/outbox.cif.g09.slc.cpg/sg2_114_cif.got.tgz:227519.got - 2010.06.27 13:26:56.
