data_PCOD8039855
_publ_section_title
;
Structure prediction by ZEFSAII (Michael W. Deem and Ramdas Pophale) SiO2 
 PCOD8039855
Probable space group: P -1
;
_chemical_formula_sum "Si O2"
_cell_formula_units_Z 16
_cell_length_a 11.561037
_cell_length_b 16.306263
_cell_length_c 21.201210
_cell_angle_alpha 23.533173
_cell_angle_beta 44.713637
_cell_angle_gamma 32.481523
_cell_volume 819.463966
_symmetry_space_group_name_H-M "P -1"
_symmetry_group_IT_number 2
_symmetry_cell_setting 'triclinic'
loop_
_space_group_symop_operation_xyz
x,y,z
-x,-y,-z
loop_
_atom_site_type_symbol
_atom_site_label
_atom_site_fract_x
_atom_site_fract_y
_atom_site_fract_z
Si Si1 0.460887 0.332247 0.092401
Si Si2 0.979522 0.271293 0.243705
Si Si3 0.614160 0.928425 0.601640
Si Si4 0.145651 0.291943 0.461525
Si Si5 0.837629 0.223124 0.692799
Si Si6 0.053879 0.685254 0.918487
Si Si7 0.351903 0.736854 0.556308
Si Si8 0.049929 0.253733 0.696060
O O1 0.313169 0.299405 0.213805
O O2 0.689014 0.022858 0.201260
O O3 0.500000 0.500000 0.000000
O O4 0.313008 0.506555 0.964952
O O5 0.965275 0.218340 0.213496
O O6 0.769022 0.363432 0.299841
O O7 0.205073 0.985762 0.387140
O O8 0.977918 0.516949 0.075194
O O9 0.813232 0.758692 0.593044
O O10 0.378716 0.050273 0.578164
O O11 0.587082 0.174579 0.469569
O O12 0.963191 0.277002 0.560685
O O13 0.053042 0.600047 0.298527
O O14 0.571960 0.485405 0.609680
O O15 0.927301 0.168997 0.768502
O O16 0.886238 0.954858 0.838213
O O17 0.000000 0.500000 0.500000
#
# Coordination Sequence:
#
# PCOD8039855 Si02
#       8
#     2   2   2   2   2   2   2   2
#     4  12  21  37  64  90 125 166 191 246 327 378
#     4  10  25  43  63  90 115 171 217 252 300 363
#     4  11  19  35  60  89 124 157 201 249 302 366
#     4  10  20  33  59  97 122 154 200 251 303 365
#     4  11  20  37  64  92 123 158 200 261 308 362
#     4  11  23  42  63  89 129 162 203 252 317 367
#     4  11  22  41  69  87 117 164 217 259 295 354
#     4  10  18  35  56  93 119 154 200 238 302 369
#
# _framework density 19.524958000000002
#
# number of rings (size 3 to 8) (size 9 to 14) (size 15 to 20)
#    0.000    1.250    6.250    1.500    0.000    2.000 
#    0.000    1.875    0.000    0.000    0.000    0.000 
#    0.000    0.000    0.000    0.000    0.000    0.000 
#
# Total GULP energy -198386.379136 kJ/mol
# GULP energy per Si atom -12399.148696 kJ/mol
# Density = 1.948052 g / cm^3
# Si number density = 19.524958 Si / 1000 Ang^3
#
#
#
# Elastic Constant Matrix: (Units=GPa)
#
#
# Indices 1 2 3 4 5 6 
#
# 1 96.4100 44.8549 43.1133 -11.8562 -1.7895 6.1979
# 2 44.8549 142.3927 59.6908 -21.7965 2.3194 0.7207
# 3 43.1133 59.6908 83.2320 -12.9181 -6.1493 8.2215
# 4 -11.8562 -21.7965 -12.9181 31.8851 4.1088 -8.0419
# 5 -1.7895 2.3194 -6.1493 4.1088 30.7514 -3.8614
# 6 6.1979 0.7207 8.2215 -8.0419 -3.8614 32.4639
#
#
#
# Elastic Compliance Matrix: (Units=1/GPa)
#
#
# Indices 1 2 3 4 5 6 
#
# 1 0.013972 -0.001774 -0.005679 0.001526 -0.000502 -0.000871
# 2 -0.001774 0.011291 -0.006825 0.005351 -0.002680 0.002823
# 3 -0.005679 -0.006825 0.020501 0.000163 0.003827 -0.003461
# 4 0.001526 0.005351 0.000163 0.038366 -0.004337 0.008537
# 5 -0.000502 -0.002680 0.003827 -0.004337 0.034312 0.002193
# 6 -0.000871 0.002823 -0.003461 0.008537 0.002193 0.034159
#
#
# Mechanical properties :
#
#
# Convention : Reuss Voigt Hill
#
# Bulk Modulus (GPa) = 58.11444 68.59475 63.35459
# Shear Modulus (GPa) = 26.75331 30.64513 28.69922
#
# Velocity S-wave (km/s) = 3.70565 3.96604 3.83805
# Velocity P-wave (km/s) = 6.93815 7.49538 7.22214
#
# Compressibility (1/GPa) = 0.01720743
#
# Stress axis : x y z
#
# Youngs Moduli (GPa) = 71.57254 88.56406 48.77922
#
# Poissons Ratio (x) = 0.15715 0.27701
# Poissons Ratio (y) = 0.12700 0.33291
# Poissons Ratio (z) = 0.40645 0.60444
#
# Static dielectric constant tensor:
#      x y z
#    x 3.861250 0.194750 -0.099960 
#    y 0.194750 3.692760 -0.133380 
#    z -0.099960 -0.133380 3.510400 
# 
# 
# High freq. dielectric constant tensor:
#      x y z
#    x 1.767480 0.003670 -0.011850 
#    y 0.003670 1.755400 -0.010580 
#    z -0.011850 -0.010580 1.748060 
# 
# From -- ./inp_files/295008.got.cif
#   From: 2010.06.25/outbox.cif.g09.slc.cpg/sg2_148_cif.got.tgz:295008.got - 2010.06.27 13:26:56.
