data_PCOD8039600
_publ_section_title
;
Structure prediction by ZEFSAII (Michael W. Deem and Ramdas Pophale) SiO2 
 PCOD8039600
Probable space group: P -1
;
_chemical_formula_sum "Si O2"
_cell_formula_units_Z 14
_cell_length_a 10.862605
_cell_length_b 15.108036
_cell_length_c 13.690418
_cell_angle_alpha 149.017235
_cell_angle_beta 45.684015
_cell_angle_gamma 113.371476
_cell_volume 691.621372
_symmetry_space_group_name_H-M "P -1"
_symmetry_group_IT_number 2
_symmetry_cell_setting 'triclinic'
loop_
_space_group_symop_operation_xyz
x,y,z
-x,-y,-z
loop_
_atom_site_type_symbol
_atom_site_label
_atom_site_fract_x
_atom_site_fract_y
_atom_site_fract_z
Si Si1 0.138554 0.834735 0.491143
Si Si2 0.308818 0.048328 0.716794
Si Si3 0.371092 0.211949 0.565457
Si Si4 0.771447 0.077533 0.672770
Si Si5 0.680385 0.607222 0.439768
Si Si6 0.689964 0.204666 0.043576
Si Si7 0.883669 0.533296 0.869184
O O1 0.280666 0.799201 0.283638
O O2 0.172673 0.616296 0.293770
O O3 0.209216 0.921732 0.620752
O O4 0.897847 0.990180 0.749743
O O5 0.500000 0.000000 0.500000
O O6 0.396706 0.973854 0.707331
O O7 0.145678 0.294514 0.029562
O O8 0.385167 0.327388 0.573911
O O9 0.235065 0.122258 0.528991
O O10 0.261777 0.370488 0.864702
O O11 0.627534 0.213344 0.971882
O O12 0.000000 0.000000 0.500000
O O13 0.727997 0.381661 0.215385
O O14 0.494735 0.771293 0.767081
O O15 0.881723 0.603487 0.353709
#
# Coordination Sequence:
#
# PCOD8039600 Si02
#       7
#     2   2   2   2   2   2   2
#     4  11  20  38  63  89 120 155 197 245 293 351
#     4  10  21  40  57  90 123 154 195 244 293 351
#     4  11  22  37  59  90 122 154 193 250 292 348
#     4  10  18  34  57  87 117 143 193 249 285 340
#     4  11  21  39  61  87 120 158 198 247 299 346
#     4  10  22  37  61  88 121 153 201 250 293 350
#     4  11  21  37  66  86 121 158 196 243 300 343
#
# _framework density 20.242291000000002
#
# number of rings (size 3 to 8) (size 9 to 14) (size 15 to 20)
#    0.000    1.429    4.286    3.857    0.000    4.571 
#    2.571    0.714    0.000    1.714    0.000    0.000 
#    0.000    0.000    0.000    0.000    0.000    0.000 
#
# Total GULP energy -173565.323620 kJ/mol
# GULP energy per Si atom -12397.523116 kJ/mol
# Density = 2.019622 g / cm^3
# Si number density = 20.242291 Si / 1000 Ang^3
#
#
#
# Elastic Constant Matrix: (Units=GPa)
#
#
# Indices 1 2 3 4 5 6 
#
# 1 87.9516 43.2026 36.3947 18.7079 -4.1129 4.7397
# 2 43.2026 86.2377 45.3988 10.0023 -0.5266 1.3413
# 3 36.3947 45.3988 86.0402 2.6360 4.2561 2.7080
# 4 18.7079 10.0023 2.6360 31.5283 6.5552 12.7371
# 5 -4.1129 -0.5266 4.2561 6.5552 27.5569 16.2529
# 6 4.7397 1.3413 2.7080 12.7371 16.2529 28.8348
#
#
#
# Elastic Compliance Matrix: (Units=1/GPa)
#
#
# Indices 1 2 3 4 5 6 
#
# 1 0.018570 -0.005545 -0.004916 -0.009458 0.006871 -0.002028
# 2 -0.005545 0.018590 -0.007449 -0.002777 0.000262 0.001825
# 3 -0.004916 -0.007449 0.017721 0.004758 -0.004800 0.000094
# 4 -0.009458 -0.002777 0.004758 0.045349 -0.002849 -0.017189
# 5 0.006871 0.000262 -0.004800 -0.002849 0.057528 -0.031858
# 6 -0.002028 0.001825 0.000094 -0.017189 -0.031858 0.060470
#
#
# Mechanical properties :
#
#
# Convention : Reuss Voigt Hill
#
# Bulk Modulus (GPa) = 52.45937 56.69131 54.57534
# Shear Modulus (GPa) = 19.20114 26.59957 22.90035
#
# Velocity S-wave (km/s) = 3.08322 3.62893 3.36715
# Velocity P-wave (km/s) = 6.21667 6.75470 6.49126
#
# Compressibility (1/GPa) = 0.01906237
#
# Stress axis : x y z
#
# Youngs Moduli (GPa) = 53.85020 53.79127 56.43031
#
# Poissons Ratio (x) = 0.29826 0.27739
# Poissons Ratio (y) = 0.29859 0.42035
# Poissons Ratio (z) = 0.26471 0.40070
#
# Static dielectric constant tensor:
#      x y z
#    x 3.951580 -0.218520 -0.032450 
#    y -0.218520 3.812250 0.111100 
#    z -0.032450 0.111100 3.785920 
# 
# 
# High freq. dielectric constant tensor:
#      x y z
#    x 1.790510 0.011850 0.002130 
#    y 0.011850 1.781030 0.018930 
#    z 0.002130 0.018930 1.771920 
# 
# From -- ./inp_files/499278.got.cif
#   From: 2010.06.25/outbox.cif.g09.slc.cpg/sg2_250_cif.got.tgz:499278.got - 2010.06.27 13:26:56.
