data_PCOD8039252
_publ_section_title
;
Structure prediction by ZEFSAII (Michael W. Deem and Ramdas Pophale) SiO2 
 PCOD8039252
Probable space group: P -1
;
_chemical_formula_sum "Si O2"
_cell_formula_units_Z 16
_cell_length_a 11.785771
_cell_length_b 11.737316
_cell_length_c 10.329080
_cell_angle_alpha 36.917761
_cell_angle_beta 106.373861
_cell_angle_gamma 107.414259
_cell_volume 816.661582
_symmetry_space_group_name_H-M "P -1"
_symmetry_group_IT_number 2
_symmetry_cell_setting 'triclinic'
loop_
_space_group_symop_operation_xyz
x,y,z
-x,-y,-z
loop_
_atom_site_type_symbol
_atom_site_label
_atom_site_fract_x
_atom_site_fract_y
_atom_site_fract_z
Si Si1 0.861233 0.592557 0.965877
Si Si2 0.839646 0.949926 0.351956
Si Si3 0.513082 0.314152 0.328562
Si Si4 0.559503 0.987169 0.825072
Si Si5 0.050228 0.783548 0.658220
Si Si6 0.345900 0.310509 0.043431
Si Si7 0.672596 0.163137 0.958605
Si Si8 0.308321 0.440757 0.289913
O O1 0.794053 0.713351 0.938691
O O2 0.766978 0.505532 0.906314
O O3 0.969669 0.726759 0.813003
O O4 0.905788 0.405248 0.216982
O O5 0.741196 0.765862 0.483515
O O6 0.970083 0.878035 0.439530
O O7 0.844077 0.060599 0.392946
O O8 0.798518 0.086671 0.102832
O O9 0.426632 0.243225 0.246226
O O10 0.444610 0.430952 0.304450
O O11 0.558013 0.130367 0.574278
O O12 0.623339 0.462769 0.179997
O O13 0.632754 0.816348 0.959351
O O14 0.632501 0.095707 0.865734
O O15 0.425838 0.907818 0.899157
O O16 0.694447 0.393817 0.754373
#
# Coordination Sequence:
#
# PCOD8039252 Si02
#       8
#     2   2   2   2   2   2   2   2
#     4   9  18  34  58  83 112 139 177 245 288 323
#     4  10  19  33  57  85 109 144 181 234 285 324
#     4  10  20  35  55  83 113 150 185 225 276 342
#     4  11  23  37  54  83 116 158 189 216 272 341
#     4   9  18  34  57  88 110 134 190 241 290 322
#     4  10  21  37  56  81 117 148 181 231 281 334
#     4  11  22  35  57  81 119 152 188 228 263 339
#     4  10  18  33  54  82 115 145 179 228 280 324
#
# _framework density 19.591958999999999
#
# number of rings (size 3 to 8) (size 9 to 14) (size 15 to 20)
#    0.000    2.000    3.750    0.375    0.000    1.500 
#    9.000    0.000    0.000    1.500    0.000    0.000 
#    0.000    0.000    0.000    0.000    0.000    0.000 
#
# Total GULP energy -198315.722655 kJ/mol
# GULP energy per Si atom -12394.732666 kJ/mol
# Density = 1.954737 g / cm^3
# Si number density = 19.591959 Si / 1000 Ang^3
#
#
#
# Elastic Constant Matrix: (Units=GPa)
#
#
# Indices 1 2 3 4 5 6 
#
# 1 63.4462 30.4905 15.1326 -2.4146 5.8618 -8.1104
# 2 30.4905 102.9888 24.1448 -12.2134 0.2488 -7.9432
# 3 15.1326 24.1448 60.2938 -11.7782 4.1367 -2.1108
# 4 -2.4146 -12.2134 -11.7782 22.2224 -2.4661 2.1569
# 5 5.8618 0.2488 4.1367 -2.4661 23.2371 -3.3197
# 6 -8.1104 -7.9432 -2.1108 2.1569 -3.3197 27.5545
#
#
#
# Elastic Compliance Matrix: (Units=1/GPa)
#
#
# Indices 1 2 3 4 5 6 
#
# 1 0.019745 -0.005196 -0.003075 -0.003174 -0.004168 0.003825
# 2 -0.005196 0.012648 -0.002901 0.004949 0.002475 0.001805
# 3 -0.003075 -0.002901 0.020325 0.008725 -0.002045 -0.001114
# 4 -0.003174 0.004949 0.008725 0.052728 0.004443 -0.002431
# 5 -0.004168 0.002475 -0.002045 0.004443 0.045533 0.004468
# 6 0.003825 0.001805 -0.001114 -0.002431 0.004468 0.038581
#
#
# Mechanical properties :
#
#
# Convention : Reuss Voigt Hill
#
# Bulk Modulus (GPa) = 32.92261 40.69605 36.80933
# Shear Modulus (GPa) = 22.51956 25.06688 23.79322
#
# Velocity S-wave (km/s) = 3.39400 3.58082 3.48866
# Velocity P-wave (km/s) = 5.67447 6.15737 5.92085
#
# Compressibility (1/GPa) = 0.03037426
#
# Stress axis : x y z
#
# Youngs Moduli (GPa) = 50.64536 79.06172 49.20155
#
# Poissons Ratio (x) = 0.41081 0.15129
# Poissons Ratio (y) = 0.26316 0.14272
# Poissons Ratio (z) = 0.15573 0.22934
#
# Static dielectric constant tensor:
#      x y z
#    x 3.564990 0.002380 0.163340 
#    y 0.002380 3.347300 -0.252950 
#    z 0.163340 -0.252950 3.465890 
# 
# 
# High freq. dielectric constant tensor:
#      x y z
#    x 1.748840 0.005530 0.019110 
#    y 0.005530 1.744180 -0.037140 
#    z 0.019110 -0.037140 1.750160 
# 
# From -- ./inp_files/256022.got.cif
#   From: 2010.06.25/outbox.cif.g09.slc.cpg/sg2_129_cif.got.tgz:256022.got - 2010.06.27 13:26:56.
