data_PCOD8039034
_publ_section_title
;
Structure prediction by ZEFSAII (Michael W. Deem and Ramdas Pophale) SiO2 
 PCOD8039034
Probable space group: P -1
;
_chemical_formula_sum "Si O2"
_cell_formula_units_Z 16
_cell_length_a 12.860215
_cell_length_b 12.117300
_cell_length_c 6.510926
_cell_angle_alpha 61.018902
_cell_angle_beta 65.827253
_cell_angle_gamma 59.100602
_cell_volume 743.933220
_symmetry_space_group_name_H-M "P -1"
_symmetry_group_IT_number 2
_symmetry_cell_setting 'triclinic'
loop_
_space_group_symop_operation_xyz
x,y,z
-x,-y,-z
loop_
_atom_site_type_symbol
_atom_site_label
_atom_site_fract_x
_atom_site_fract_y
_atom_site_fract_z
Si Si1 0.051151 0.611653 0.630176
Si Si2 0.908329 0.041035 0.342415
Si Si3 0.022093 0.193051 0.835699
Si Si4 0.367030 0.789082 0.546895
Si Si5 0.454499 0.648663 0.001319
Si Si6 0.593609 0.704932 0.192339
Si Si7 0.147938 0.300743 0.949238
Si Si8 0.694193 0.402673 0.491386
O O1 0.093138 0.448745 0.750873
O O2 0.158028 0.652167 0.607834
O O3 0.038472 0.657762 0.359729
O O4 0.925940 0.691928 0.786496
O O5 0.767343 0.090763 0.492507
O O6 0.928745 0.913299 0.293829
O O7 0.000000 0.000000 0.500000
O O8 0.923959 0.160848 0.085395
O O9 0.131458 0.193249 0.898776
O O10 0.471029 0.816631 0.300865
O O11 0.362658 0.642926 0.618408
O O12 0.406664 0.773220 0.765789
O O13 0.564793 0.671282 0.015173
O O14 0.337084 0.669311 0.221640
O O15 0.500000 0.500000 0.000000
O O16 0.707039 0.753794 0.058973
O O17 0.632480 0.566155 0.420540
#
# Coordination Sequence:
#
# PCOD8039034 Si02
#       8
#     2   2   2   2   2   2   2   2
#     4  10  21  38  61  91 125 162 199 248 305 362
#     4  11  25  42  66  89 118 156 207 266 304 346
#     4  11  22  41  63  89 116 160 209 252 305 359
#     4  11  20  35  57  85 118 155 199 247 303 355
#     4  11  18  32  55  84 120 158 191 242 299 358
#     4  10  21  34  53  85 122 158 191 237 299 363
#     4  10  22  39  59  89 130 164 196 244 305 368
#     4  10  18  32  53  85 120 153 194 243 298 356
#
# _framework density 21.507307000000001
#
# number of rings (size 3 to 8) (size 9 to 14) (size 15 to 20)
#    0.000    1.500    2.500    4.125    0.000    4.000 
#    2.250    0.625    0.000    3.750    0.000    0.000 
#    0.000    0.000    0.000    0.000    0.000    0.000 
#
# Total GULP energy -198360.707381 kJ/mol
# GULP energy per Si atom -12397.544211 kJ/mol
# Density = 2.145836 g / cm^3
# Si number density = 21.507307 Si / 1000 Ang^3
#
#
#
# Elastic Constant Matrix: (Units=GPa)
#
#
# Indices 1 2 3 4 5 6 
#
# 1 175.5373 42.2222 49.9055 22.8659 -7.1306 -6.5699
# 2 42.2222 53.2453 27.8209 21.5666 -1.6638 -3.4718
# 3 49.9055 27.8209 100.7459 6.0957 6.8419 -4.8060
# 4 22.8659 21.5666 6.0957 27.6372 -1.9027 0.5973
# 5 -7.1306 -1.6638 6.8419 -1.9027 37.5811 7.1655
# 6 -6.5699 -3.4718 -4.8060 0.5973 7.1655 40.2093
#
#
#
# Elastic Compliance Matrix: (Units=1/GPa)
#
#
# Indices 1 2 3 4 5 6 
#
# 1 0.007797 -0.003373 -0.002834 -0.003091 0.001613 0.000402
# 2 -0.003373 0.033907 -0.006291 -0.022285 0.000523 0.001862
# 3 -0.002834 -0.006291 0.013085 0.004125 -0.003193 0.001065
# 4 -0.003091 -0.022285 0.004125 0.055356 0.001040 -0.002944
# 5 0.001613 0.000523 -0.003193 0.001040 0.028559 -0.005178
# 6 0.000402 0.001862 0.001065 -0.002944 -0.005178 0.026190
#
#
# Mechanical properties :
#
#
# Convention : Reuss Voigt Hill
#
# Bulk Modulus (GPa) = 33.56495 63.26953 48.41724
# Shear Modulus (GPa) = 25.02220 35.05752 30.03986
#
# Velocity S-wave (km/s) = 3.41461 4.04174 3.74134
# Velocity P-wave (km/s) = 5.58446 7.15978 6.42062
#
# Compressibility (1/GPa) = 0.02979298
#
# Stress axis : x y z
#
# Youngs Moduli (GPa) = 128.25100 29.49235 76.42268
#
# Poissons Ratio (x) = 0.09949 0.21659
# Poissons Ratio (y) = 0.43265 0.48075
# Poissons Ratio (z) = 0.36348 0.18553
#
# Static dielectric constant tensor:
#      x y z
#    x 4.032600 0.033460 -0.023380 
#    y 0.033460 3.599200 0.125930 
#    z -0.023380 0.125930 3.971490 
# 
# 
# High freq. dielectric constant tensor:
#      x y z
#    x 1.850890 0.001240 0.003360 
#    y 0.001240 1.812040 0.013800 
#    z 0.003360 0.013800 1.844470 
# 
# From -- ./inp_files/69115.got.cif
#   From: 2010.06.25/outbox.cif.g09.slc.cpg/sg2_35_cif.got.tgz:69115.got - 2010.06.27 13:26:56.
