data_PCOD8039891
_publ_section_title
;
Structure prediction by ZEFSAII (Michael W. Deem and Ramdas Pophale) SiO2 
 PCOD8039891
Probable space group: P -1
;
_chemical_formula_sum "Si O2"
_cell_formula_units_Z 16
_cell_length_a 15.144824
_cell_length_b 8.728143
_cell_length_c 9.258646
_cell_angle_alpha 88.556990
_cell_angle_beta 139.394364
_cell_angle_gamma 85.486934
_cell_volume 787.250512
_symmetry_space_group_name_H-M "P -1"
_symmetry_group_IT_number 2
_symmetry_cell_setting 'triclinic'
loop_
_space_group_symop_operation_xyz
x,y,z
-x,-y,-z
loop_
_atom_site_type_symbol
_atom_site_label
_atom_site_fract_x
_atom_site_fract_y
_atom_site_fract_z
Si Si1 0.886780 0.280376 0.114273
Si Si2 0.226873 0.522741 0.293433
Si Si3 0.332233 0.922917 0.180741
Si Si4 0.579947 0.245661 0.420272
Si Si5 0.561311 0.957047 0.233099
Si Si6 0.847718 0.547551 0.259304
Si Si7 0.707202 0.727862 0.850722
Si Si8 0.810211 0.686980 0.499879
O O1 0.805407 0.396444 0.130189
O O2 0.049669 0.237924 0.350163
O O3 0.870715 0.356489 0.931360
O O4 0.814655 0.127197 0.041081
O O5 0.338990 0.611488 0.508878
O O6 0.296819 0.374806 0.293693
O O7 0.149546 0.450845 0.329994
O O8 0.404500 0.807637 0.392747
O O9 0.434956 0.917884 0.173769
O O10 0.301184 0.093476 0.208621
O O11 0.418179 0.302944 0.199726
O O12 0.626639 0.103461 0.372786
O O13 0.684218 0.813924 0.388355
O O14 0.500000 0.000000 0.000000
O O15 0.762538 0.611351 0.293864
O O16 0.000000 0.500000 0.500000
O O17 0.838684 0.679077 0.119314
#
# Coordination Sequence:
#
# PCOD8039891 Si02
#       8
#     2   2   2   2   2   2   2   2
#     4   9  21  39  58  82 112 146 186 225 274 337
#     4  10  20  34  58  86 109 139 185 236 274 318
#     4  10  20  38  60  83 112 148 183 224 276 336
#     4  10  20  36  56  84 114 145 182 224 277 337
#     4  11  23  38  56  84 117 145 182 233 276 319
#     4   9  20  37  54  75 110 149 185 223 270 329
#     4  10  18  35  58  80 108 148 186 223 275 335
#     4  11  20  37  58  82 112 148 184 230 278 321
#
# _framework density 20.323900999999999
#
# number of rings (size 3 to 8) (size 9 to 14) (size 15 to 20)
#    0.000    2.000    0.000    5.250    0.000    3.000 
#    0.000   16.875    0.000    0.000    0.000    0.000 
#    0.000    0.000    0.000    0.000    0.000    0.000 
#
# Total GULP energy -198286.592296 kJ/mol
# GULP energy per Si atom -12392.912019 kJ/mol
# Density = 2.027764 g / cm^3
# Si number density = 20.323901 Si / 1000 Ang^3
#
#
#
# Elastic Constant Matrix: (Units=GPa)
#
#
# Indices 1 2 3 4 5 6 
#
# 1 84.9612 51.8929 31.8136 11.8477 -5.7172 -1.3341
# 2 51.8929 105.2118 29.4716 19.8559 5.5517 4.6474
# 3 31.8136 29.4716 76.5107 11.0307 -0.3566 5.9618
# 4 11.8477 19.8559 11.0307 31.9245 -4.8354 3.6033
# 5 -5.7172 5.5517 -0.3566 -4.8354 31.7836 9.9676
# 6 -1.3341 4.6474 5.9618 3.6033 9.9676 19.8885
#
#
#
# Elastic Compliance Matrix: (Units=1/GPa)
#
#
# Indices 1 2 3 4 5 6 
#
# 1 0.018996 -0.008356 -0.004889 0.000144 0.004011 0.002656
# 2 -0.008356 0.015654 -0.001599 -0.006920 -0.005373 0.000208
# 3 -0.004889 -0.001599 0.016419 -0.002197 0.000776 -0.004867
# 4 0.000144 -0.006920 -0.002197 0.039007 0.010256 -0.009922
# 5 0.004011 -0.005373 0.000776 0.010256 0.041372 -0.021301
# 6 0.002656 0.000208 -0.004867 -0.009922 -0.021301 0.064342
#
#
# Mechanical properties :
#
#
# Convention : Reuss Voigt Hill
#
# Bulk Modulus (GPa) = 46.77118 54.78220 50.77669
# Shear Modulus (GPa) = 21.49577 26.95304 24.22441
#
# Velocity S-wave (km/s) = 3.25570 3.64562 3.45616
# Velocity P-wave (km/s) = 6.09882 6.68833 6.40037
#
# Compressibility (1/GPa) = 0.02138069
#
# Stress axis : x y z
#
# Youngs Moduli (GPa) = 52.64305 63.88058 60.90678
#
# Poissons Ratio (x) = 0.53378 0.29778
# Poissons Ratio (y) = 0.43988 0.09739
# Poissons Ratio (z) = 0.25737 0.10215
#
# Static dielectric constant tensor:
#      x y z
#    x 3.713850 -0.249920 -0.233500 
#    y -0.249920 3.857580 0.256340 
#    z -0.233500 0.256340 3.927490 
# 
# 
# High freq. dielectric constant tensor:
#      x y z
#    x 1.776510 -0.015420 -0.009400 
#    y -0.015420 1.792540 0.004440 
#    z -0.009400 0.004440 1.802480 
# 
# From -- ./inp_files/182593.got.cif
#   From: 2010.06.25/outbox.cif.g09.slc.cpg/sg2_92_cif.got.tgz:182593.got - 2010.06.27 13:26:56.
