data_PCOD8039291
_publ_section_title
;
Structure prediction by ZEFSAII (Michael W. Deem and Ramdas Pophale) SiO2 
 PCOD8039291
Probable space group: P -1
;
_chemical_formula_sum "Si O2"
_cell_formula_units_Z 16
_cell_length_a 23.816876
_cell_length_b 14.821142
_cell_length_c 8.824323
_cell_angle_alpha 127.462893
_cell_angle_beta 125.721708
_cell_angle_gamma 19.978683
_cell_volume 843.912431
_symmetry_space_group_name_H-M "P -1"
_symmetry_group_IT_number 2
_symmetry_cell_setting 'triclinic'
loop_
_space_group_symop_operation_xyz
x,y,z
-x,-y,-z
loop_
_atom_site_type_symbol
_atom_site_label
_atom_site_fract_x
_atom_site_fract_y
_atom_site_fract_z
Si Si1 0.997617 0.278226 0.042995
Si Si2 0.365392 0.607007 0.425993
Si Si3 0.149631 0.656951 0.529101
Si Si4 0.558799 0.098931 0.196393
Si Si5 0.915848 0.637747 0.348512
Si Si6 0.180808 0.854480 0.684299
Si Si7 0.669041 0.731583 0.827677
Si Si8 0.038616 0.180465 0.363137
O O1 0.014679 0.229606 0.197820
O O2 0.990285 0.425005 0.144496
O O3 0.826615 0.474629 0.923074
O O4 0.153523 0.994432 0.908554
O O5 0.500000 0.500000 0.500000
O O6 0.431062 0.387476 0.248386
O O7 0.329239 0.660653 0.604994
O O8 0.208037 0.863197 0.335925
O O9 0.221699 0.677231 0.658871
O O10 0.277305 0.377234 0.370147
O O11 0.112421 0.668046 0.651602
O O12 0.980144 0.914142 0.434486
O O13 0.478955 0.131619 0.223539
O O14 0.719627 0.914591 0.338007
O O15 0.607818 0.953568 0.974171
O O16 0.954564 0.707600 0.422790
O O17 0.000000 0.500000 0.500000
#
# Coordination Sequence:
#
# PCOD8039291 Si02
#       8
#     2   2   2   2   2   2   2   2
#     4   9  19  35  54  80 105 139 177 216 261 310
#     4  11  20  34  54  79 109 138 178 213 260 316
#     4   9  17  32  52  77 105 137 177 216 256 307
#     4  10  18  33  56  77 101 141 176 212 261 312
#     4   9  18  35  55  74 103 140 176 214 260 312
#     4   9  18  33  51  75 106 142 172 213 262 309
#     4   9  18  34  57  78 102 136 180 217 259 312
#     4  10  20  33  55  80 106 141 175 215 260 311
#
# _framework density 18.959313000000002
#
# number of rings (size 3 to 8) (size 9 to 14) (size 15 to 20)
#    0.000    2.500    2.500    0.000    1.750    0.500 
#    2.250    3.125    0.000   13.500    0.000    0.000 
#    0.000    0.000    0.000    0.000    0.000    0.000 
#
# Total GULP energy -198284.834866 kJ/mol
# GULP energy per Si atom -12392.802179 kJ/mol
# Density = 1.891616 g / cm^3
# Si number density = 18.959313 Si / 1000 Ang^3
#
#
#
# Elastic Constant Matrix: (Units=GPa)
#
#
# Indices 1 2 3 4 5 6 
#
# 1 106.9725 36.6352 40.2306 21.1129 6.3499 -4.8669
# 2 36.6352 76.2940 43.2871 32.3587 0.8489 4.6273
# 3 40.2306 43.2871 86.3183 34.6188 2.3937 4.3548
# 4 21.1129 32.3587 34.6188 39.0024 0.6104 3.3730
# 5 6.3499 0.8489 2.3937 0.6104 24.1287 3.1660
# 6 -4.8669 4.6273 4.3548 3.3730 3.1660 28.6152
#
#
#
# Elastic Compliance Matrix: (Units=1/GPa)
#
#
# Indices 1 2 3 4 5 6 
#
# 1 0.012568 -0.003847 -0.003834 -0.000483 -0.003273 0.003762
# 2 -0.003847 0.023131 -0.004559 -0.012881 0.001282 -0.002324
# 3 -0.003834 -0.004559 0.020716 -0.012388 -0.000367 -0.001567
# 4 -0.000483 -0.012881 -0.012388 0.047729 0.000842 -0.001833
# 5 -0.003273 0.001282 -0.000367 0.000842 0.043006 -0.005566
# 6 0.003762 -0.002324 -0.001567 -0.001833 -0.005566 0.037032
#
#
# Mechanical properties :
#
#
# Convention : Reuss Voigt Hill
#
# Bulk Modulus (GPa) = 31.31309 56.65449 43.98379
# Shear Modulus (GPa) = 22.79902 28.31141 25.55522
#
# Velocity S-wave (km/s) = 3.47150 3.86848 3.67536
# Velocity P-wave (km/s) = 5.71141 7.06403 6.42343
#
# Compressibility (1/GPa) = 0.03193552
#
# Stress axis : x y z
#
# Youngs Moduli (GPa) = 79.56527 43.23219 48.27182
#
# Poissons Ratio (x) = 0.16630 0.18507
# Poissons Ratio (y) = 0.30606 0.22008
# Poissons Ratio (z) = 0.30505 0.19711
#
# Static dielectric constant tensor:
#      x y z
#    x 3.795110 0.175840 0.548580 
#    y 0.175840 3.781710 0.707900 
#    z 0.548580 0.707900 3.979150 
# 
# 
# High freq. dielectric constant tensor:
#      x y z
#    x 1.726540 -0.001680 0.019540 
#    y -0.001680 1.729180 0.029130 
#    z 0.019540 0.029130 1.724980 
# 
# From -- ./inp_files/252197.got.cif
#   From: 2010.06.25/outbox.cif.g09.slc.cpg/sg2_127_cif.got.tgz:252197.got - 2010.06.27 13:26:56.
