data_PCOD8039978
_publ_section_title
;
Structure prediction by ZEFSAII (Michael W. Deem and Ramdas Pophale) SiO2 
 PCOD8039978
Probable space group: P -1
;
_chemical_formula_sum "Si O2"
_cell_formula_units_Z 16
_cell_length_a 12.105516
_cell_length_b 11.378570
_cell_length_c 14.250596
_cell_angle_alpha 120.323527
_cell_angle_beta 147.395237
_cell_angle_gamma 46.093410
_cell_volume 745.972638
_symmetry_space_group_name_H-M "P -1"
_symmetry_group_IT_number 2
_symmetry_cell_setting 'triclinic'
loop_
_space_group_symop_operation_xyz
x,y,z
-x,-y,-z
loop_
_atom_site_type_symbol
_atom_site_label
_atom_site_fract_x
_atom_site_fract_y
_atom_site_fract_z
Si Si1 0.402666 0.439651 0.130078
Si Si2 0.774257 0.950794 0.691817
Si Si3 0.554105 0.305072 0.625805
Si Si4 0.108077 0.828065 0.707029
Si Si5 0.024851 0.809881 0.252583
Si Si6 0.148172 0.307360 0.227785
Si Si7 0.893030 0.891425 0.387501
Si Si8 0.631812 0.794853 0.855392
O O1 0.472651 0.560626 0.268379
O O2 0.600628 0.328538 0.144464
O O3 0.438310 0.320209 0.192442
O O4 0.127331 0.531209 0.926008
O O5 0.876506 0.841434 0.816178
O O6 0.963343 0.832273 0.696825
O O7 0.500000 0.000000 0.500000
O O8 0.742057 0.126488 0.741620
O O9 0.282805 0.345470 0.421152
O O10 0.689209 0.296542 0.621372
O O11 0.980893 0.801176 0.514859
O O12 0.101567 0.993600 0.761618
O O13 0.005329 0.762684 0.327537
O O14 0.884456 0.758686 0.064233
O O15 0.326001 0.248336 0.241199
O O16 0.591162 0.010650 0.213575
O O17 0.000000 0.000000 0.500000
#
# Coordination Sequence:
#
# PCOD8039978 Si02
#       8
#     2   2   2   2   2   2   2   2
#     4  12  25  40  59 101 138 158 205 265 327 376
#     4   9  20  45  73  87 118 169 227 257 299 383
#     4  10  23  43  65  93 125 167 215 261 314 375
#     4  10  22  41  64  94 127 166 212 269 307 374
#     4  10  20  38  62  91 126 168 218 251 306 382
#     4  11  24  42  66  91 129 174 207 260 320 369
#     4  10  18  35  60  86 122 167 209 251 314 362
#     4  12  22  39  60  98 133 164 215 260 306 390
#
# _framework density 21.448506999999999
#
# number of rings (size 3 to 8) (size 9 to 14) (size 15 to 20)
#    0.000    1.500    3.750    3.750    0.000    2.500 
#    0.000    2.500    0.000    0.000    0.000    0.000 
#    0.000    0.000    0.000    0.000    0.000    0.000 
#
# Total GULP energy -198347.331556 kJ/mol
# GULP energy per Si atom -12396.708222 kJ/mol
# Density = 2.139969 g / cm^3
# Si number density = 21.448507 Si / 1000 Ang^3
#
#
#
# Elastic Constant Matrix: (Units=GPa)
#
#
# Indices 1 2 3 4 5 6 
#
# 1 104.5389 37.1463 15.4640 -11.2968 20.0194 -4.6665
# 2 37.1463 71.3140 17.7588 -3.8791 6.2385 -11.1222
# 3 15.4640 17.7588 83.5190 1.0213 4.1827 -3.3892
# 4 -11.2968 -3.8791 1.0213 35.9850 -4.1883 1.7445
# 5 20.0194 6.2385 4.1827 -4.1883 21.7727 -8.3570
# 6 -4.6665 -11.1222 -3.3892 1.7445 -8.3570 28.2964
#
#
#
# Elastic Compliance Matrix: (Units=1/GPa)
#
#
# Indices 1 2 3 4 5 6 
#
# 1 0.014582 -0.006815 -0.000832 0.002627 -0.012401 -0.004198
# 2 -0.006815 0.019018 -0.002697 0.000118 0.004138 0.007243
# 3 -0.000832 -0.002697 0.012771 -0.001045 -0.001087 0.000076
# 4 0.002627 0.000118 -0.001045 0.029047 0.003144 -0.000508
# 5 -0.012401 0.004138 -0.001087 0.003144 0.063921 0.018135
# 6 -0.004198 0.007243 0.000076 -0.000508 0.018135 0.042891
#
#
# Mechanical properties :
#
#
# Convention : Reuss Voigt Hill
#
# Bulk Modulus (GPa) = 38.93669 44.45670 41.69670
# Shear Modulus (GPa) = 23.64297 29.81100 26.72698
#
# Velocity S-wave (km/s) = 3.32371 3.73216 3.53384
# Velocity P-wave (km/s) = 5.73780 6.27250 6.01110
#
# Compressibility (1/GPa) = 0.02568272
#
# Stress axis : x y z
#
# Youngs Moduli (GPa) = 68.57791 52.58155 78.30163
#
# Poissons Ratio (x) = 0.35836 0.06516
# Poissons Ratio (y) = 0.46738 0.21116
# Poissons Ratio (z) = 0.05707 0.14180
#
# Static dielectric constant tensor:
#      x y z
#    x 4.392940 0.140200 -0.132210 
#    y 0.140200 4.073850 -0.160510 
#    z -0.132210 -0.160510 3.843290 
# 
# 
# High freq. dielectric constant tensor:
#      x y z
#    x 1.838010 -0.010950 0.008570 
#    y -0.010950 1.825070 -0.008680 
#    z 0.008570 -0.008680 1.838580 
# 
# From -- ./inp_files/298270.got.cif
#   From: 2010.06.25/outbox.cif.g09.slc.cpg/sg2_150_cif.got.tgz:298270.got - 2010.06.27 13:26:56.
