data_PCOD8039793
_publ_section_title
;
Structure prediction by ZEFSAII (Michael W. Deem and Ramdas Pophale) SiO2 
 PCOD8039793
Probable space group: P -1
;
_chemical_formula_sum "Si O2"
_cell_formula_units_Z 16
_cell_length_a 19.133706
_cell_length_b 11.491516
_cell_length_c 21.642452
_cell_angle_alpha 146.740033
_cell_angle_beta 160.379450
_cell_angle_gamma 44.785111
_cell_volume 794.119440
_symmetry_space_group_name_H-M "P -1"
_symmetry_group_IT_number 2
_symmetry_cell_setting 'triclinic'
loop_
_space_group_symop_operation_xyz
x,y,z
-x,-y,-z
loop_
_atom_site_type_symbol
_atom_site_label
_atom_site_fract_x
_atom_site_fract_y
_atom_site_fract_z
Si Si1 0.839994 0.619028 0.174078
Si Si2 0.855312 0.494584 0.936545
Si Si3 0.444043 0.314527 0.924640
Si Si4 0.701491 0.156418 0.154119
Si Si5 0.666270 0.700810 0.575163
Si Si6 0.122564 0.772525 0.047554
Si Si7 0.991248 0.065446 0.657409
Si Si8 0.698139 0.313422 0.352928
O O1 0.645586 0.595730 0.050630
O O2 0.846694 0.800461 0.206314
O O3 0.077316 0.717148 0.452513
O O4 0.793179 0.370188 0.993928
O O5 0.590920 0.433144 0.671032
O O6 0.853494 0.295487 0.892946
O O7 0.000000 0.500000 0.000000
O O8 0.988220 0.749020 0.190704
O O9 0.267635 0.063387 0.640096
O O10 0.500000 0.500000 0.000000
O O11 0.670063 0.282105 0.121381
O O12 0.677165 0.301502 0.256521
O O13 0.942918 0.136000 0.348605
O O14 0.512028 0.890516 0.878991
O O15 0.697483 0.559668 0.479961
O O16 0.710218 0.956911 0.701916
O O17 0.854350 0.717699 0.790668
#
# Coordination Sequence:
#
# PCOD8039793 Si02
#       8
#     2   2   2   2   2   2   2   2
#     4  10  19  39  64  89 121 158 205 248 290 359
#     4  11  24  40  62  93 124 163 202 251 309 362
#     4  12  26  40  57  91 130 158 192 250 317 362
#     4  11  21  36  64  89 115 157 198 251 298 351
#     4  10  20  40  62  94 121 158 211 253 299 356
#     4   9  22  39  65  89 124 160 208 256 297 354
#     4  11  22  42  64  89 117 161 212 244 287 372
#     4  10  18  34  68  93 111 157 210 249 289 345
#
# _framework density 20.148102000000002
#
# number of rings (size 3 to 8) (size 9 to 14) (size 15 to 20)
#    0.000    1.500    3.750    2.250    1.750    2.000 
#    2.250    2.500    0.000    0.000    0.000    0.000 
#    0.000    0.000    0.000    0.000    0.000    0.000 
#
# Total GULP energy -198406.402038 kJ/mol
# GULP energy per Si atom -12400.400127 kJ/mol
# Density = 2.010224 g / cm^3
# Si number density = 20.148102 Si / 1000 Ang^3
#
#
#
# Elastic Constant Matrix: (Units=GPa)
#
#
# Indices 1 2 3 4 5 6 
#
# 1 113.1449 46.0975 33.6315 0.2700 -9.0961 1.0200
# 2 46.0975 107.9986 37.1623 -5.2440 -11.5950 6.7323
# 3 33.6315 37.1623 66.1715 2.6870 -13.1979 -5.0108
# 4 0.2700 -5.2440 2.6870 37.2845 -1.4422 -4.1878
# 5 -9.0961 -11.5950 -13.1979 -1.4422 18.8384 -5.4349
# 6 1.0200 6.7323 -5.0108 -4.1878 -5.4349 28.3353
#
#
#
# Elastic Compliance Matrix: (Units=1/GPa)
#
#
# Indices 1 2 3 4 5 6 
#
# 1 0.011435 -0.003547 -0.003677 -0.000304 0.000701 -0.000130
# 2 -0.003547 0.013188 -0.005613 0.001968 0.001645 -0.003392
# 3 -0.003677 -0.005613 0.023467 -0.001030 0.013453 0.008044
# 4 -0.000304 0.001968 -0.001030 0.027785 0.003673 0.004172
# 5 0.000701 0.001645 0.013453 0.003673 0.068662 0.015676
# 6 -0.000130 -0.003392 0.008044 0.004172 0.015676 0.041148
#
#
# Mechanical properties :
#
#
# Convention : Reuss Voigt Hill
#
# Bulk Modulus (GPa) = 44.60968 57.89974 51.25471
# Shear Modulus (GPa) = 22.84871 28.25323 25.55097
#
# Velocity S-wave (km/s) = 3.37120 3.74876 3.56498
# Velocity P-wave (km/s) = 6.11083 6.89471 6.51457
#
# Compressibility (1/GPa) = 0.02241666
#
# Stress axis : x y z
#
# Youngs Moduli (GPa) = 87.45429 75.82594 42.61229
#
# Poissons Ratio (x) = 0.26893 0.15670
# Poissons Ratio (y) = 0.31017 0.23917
# Poissons Ratio (z) = 0.32160 0.42558
#
# Static dielectric constant tensor:
#      x y z
#    x 3.333170 0.062810 -0.272020 
#    y 0.062810 3.894360 -0.131340 
#    z -0.272020 -0.131340 3.863060 
# 
# 
# High freq. dielectric constant tensor:
#      x y z
#    x 1.751260 0.001670 -0.024780 
#    y 0.001670 1.800920 -0.008010 
#    z -0.024780 -0.008010 1.796060 
# 
# From -- ./inp_files/332556.got.cif
#   From: 2010.06.25/outbox.cif.g09.slc.cpg/sg2_167_cif.got.tgz:332556.got - 2010.06.27 13:26:56.
