data_PCOD8039910
_publ_section_title
;
Structure prediction by ZEFSAII (Michael W. Deem and Ramdas Pophale) SiO2 
 PCOD8039910
Probable space group: P -1
;
_chemical_formula_sum "Si O2"
_cell_formula_units_Z 16
_cell_length_a 11.282676
_cell_length_b 9.087798
_cell_length_c 9.347410
_cell_angle_alpha 80.735921
_cell_angle_beta 90.682602
_cell_angle_gamma 122.788081
_cell_volume 791.947391
_symmetry_space_group_name_H-M "P -1"
_symmetry_group_IT_number 2
_symmetry_cell_setting 'triclinic'
loop_
_space_group_symop_operation_xyz
x,y,z
-x,-y,-z
loop_
_atom_site_type_symbol
_atom_site_label
_atom_site_fract_x
_atom_site_fract_y
_atom_site_fract_z
Si Si1 0.104152 0.456122 0.885786
Si Si2 0.660097 0.292778 0.931896
Si Si3 0.680318 0.074302 0.333513
Si Si4 0.234406 0.408662 0.335937
Si Si5 0.571515 0.958373 0.838047
Si Si6 0.398606 0.219914 0.390446
Si Si7 0.721854 0.423879 0.391234
Si Si8 0.972656 0.276866 0.177905
O O1 0.172368 0.429617 0.748922
O O2 0.003643 0.527192 0.831202
O O3 0.232956 0.622000 0.948191
O O4 0.020468 0.278598 0.011891
O O5 0.671165 0.439251 0.802232
O O6 0.687162 0.153883 0.871272
O O7 0.500838 0.183534 0.011323
O O8 0.548001 0.022934 0.242168
O O9 0.724578 0.246167 0.404556
O O10 0.813809 0.113845 0.232560
O O11 0.634612 0.906354 0.456428
O O12 0.306621 0.303334 0.390651
O O13 0.219412 0.494245 0.466051
O O14 0.078684 0.269825 0.291230
O O15 0.643514 0.893954 0.738751
O O16 0.564083 0.377592 0.369717
#
# Coordination Sequence:
#
# PCOD8039910 Si02
#       8
#     2   2   2   2   2   2   2   2
#     4   9  17  35  60  78 108 138 184 235 258 309
#     4  10  18  35  58  85 104 136 184 229 269 313
#     4  10  19  35  59  78 109 144 182 227 263 315
#     4  11  23  33  55  83 114 147 174 220 272 331
#     4  10  19  34  59  86 104 138 184 230 272 310
#     4  11  21  35  54  84 117 142 170 225 283 323
#     4  10  19  37  56  84 104 141 188 225 269 312
#     4   9  19  35  54  79 106 148 184 216 268 315
#
# _framework density 20.203361999999998
#
# number of rings (size 3 to 8) (size 9 to 14) (size 15 to 20)
#    0.000    2.000    3.750    3.375    0.000    3.000 
#    0.000    1.250    0.000    1.500    0.000    0.000 
#    0.000    0.000    0.000    0.000    0.000    0.000 
#
# Total GULP energy -198352.343314 kJ/mol
# GULP energy per Si atom -12397.021457 kJ/mol
# Density = 2.015738 g / cm^3
# Si number density = 20.203362 Si / 1000 Ang^3
#
#
#
# Elastic Constant Matrix: (Units=GPa)
#
#
# Indices 1 2 3 4 5 6 
#
# 1 76.5367 11.5352 33.7146 -17.0402 -0.4448 -0.4122
# 2 11.5352 33.4719 20.2444 -5.1441 -7.1112 -5.8097
# 3 33.7146 20.2444 115.1639 -9.1063 -12.6259 -7.2960
# 4 -17.0402 -5.1441 -9.1063 14.4838 7.9263 -3.0398
# 5 -0.4448 -7.1112 -12.6259 7.9263 24.0464 -5.5736
# 6 -0.4122 -5.8097 -7.2960 -3.0398 -5.5736 14.1878
#
#
#
# Elastic Compliance Matrix: (Units=1/GPa)
#
#
# Indices 1 2 3 4 5 6 
#
# 1 0.022066 -0.003360 -0.005258 0.028155 -0.013231 -0.002604
# 2 -0.003360 0.040172 -0.002798 0.005698 0.013433 0.021411
# 3 -0.005258 -0.002798 0.011839 -0.002470 0.007803 0.007326
# 4 0.028155 0.005698 -0.002470 0.126061 -0.037348 0.014218
# 5 -0.013231 0.013433 0.007803 -0.037348 0.068193 0.027916
# 6 -0.002604 0.021411 0.007326 0.014218 0.027916 0.096955
#
#
# Mechanical properties :
#
#
# Convention : Reuss Voigt Hill
#
# Bulk Modulus (GPa) = 19.51469 39.57341 29.54405
# Shear Modulus (GPa) = 12.33958 21.18883 16.76421
#
# Velocity S-wave (km/s) = 2.47405 3.24200 2.88370
# Velocity P-wave (km/s) = 4.22390 5.80035 5.07373
#
# Compressibility (1/GPa) = 0.05124344
#
# Stress axis : x y z
#
# Youngs Moduli (GPa) = 45.31878 24.89291 84.46683
#
# Poissons Ratio (x) = 0.08364 0.44416
# Poissons Ratio (y) = 0.15227 0.23637
# Poissons Ratio (z) = 0.23831 0.06966
#
# Static dielectric constant tensor:
#      x y z
#    x 3.541520 0.222460 -0.233230 
#    y 0.222460 3.443390 -0.102690 
#    z -0.233230 -0.102690 3.953600 
# 
# 
# High freq. dielectric constant tensor:
#      x y z
#    x 1.766190 0.021350 -0.011690 
#    y 0.021350 1.754260 -0.008400 
#    z -0.011690 -0.008400 1.808590 
# 
# From -- ./inp_files/243580.got.cif
#   From: 2010.06.25/outbox.cif.g09.slc.cpg/sg2_122_cif.got.tgz:243580.got - 2010.06.27 13:26:56.
