data_PCOD8039129
_publ_section_title
;
Structure prediction by ZEFSAII (Michael W. Deem and Ramdas Pophale) SiO2 
 PCOD8039129
Probable space group: P -1
;
_chemical_formula_sum "Si O2"
_cell_formula_units_Z 16
_cell_length_a 18.833842
_cell_length_b 8.427055
_cell_length_c 9.390770
_cell_angle_alpha 70.601596
_cell_angle_beta 52.747320
_cell_angle_gamma 41.647541
_cell_volume 767.764290
_symmetry_space_group_name_H-M "P -1"
_symmetry_group_IT_number 2
_symmetry_cell_setting 'triclinic'
loop_
_space_group_symop_operation_xyz
x,y,z
-x,-y,-z
loop_
_atom_site_type_symbol
_atom_site_label
_atom_site_fract_x
_atom_site_fract_y
_atom_site_fract_z
Si Si1 0.031607 0.763476 0.713182
Si Si2 0.213592 0.107456 0.993856
Si Si3 0.301659 0.267982 0.639614
Si Si4 0.665679 0.352290 0.845870
Si Si5 0.444996 0.744985 0.189523
Si Si6 0.287601 0.235215 0.101191
Si Si7 0.889470 0.271597 0.665275
Si Si8 0.481005 0.147398 0.694565
O O1 0.168028 0.545797 0.687973
O O2 0.038531 0.717572 0.546996
O O3 0.925795 0.783607 0.905593
O O4 0.987979 0.018646 0.711675
O O5 0.194536 0.274290 0.087778
O O6 0.313858 0.830491 0.013597
O O7 0.275582 0.116639 0.779508
O O8 0.380619 0.286150 0.643064
O O9 0.384903 0.124710 0.437810
O O10 0.617615 0.350311 0.749326
O O11 0.797187 0.273085 0.684513
O O12 0.559861 0.616806 0.972193
O O13 0.493187 0.702001 0.308953
O O14 0.334387 0.040358 0.221786
O O15 0.195299 0.505078 0.192392
O O16 0.418993 0.125611 0.903998
#
# Coordination Sequence:
#
# PCOD8039129 Si02
#       8
#     2   2   2   2   2   2   2   2
#     4  10  21  37  60  80 110 155 188 233 288 328
#     4   9  20  38  55  80 114 155 190 231 272 332
#     4  10  21  37  58  81 115 159 192 222 275 339
#     4   9  19  33  56  84 119 141 178 234 294 331
#     4  10  18  32  57  88 113 149 177 229 292 340
#     4  10  19  33  60  89 113 141 187 238 289 336
#     4  10  20  36  59  88 112 140 187 248 287 329
#     4  10  20  34  56  87 114 145 191 233 271 339
#
# _framework density 20.839731
#
# number of rings (size 3 to 8) (size 9 to 14) (size 15 to 20)
#    0.000    2.250    1.250    1.500    1.750    0.500 
#    2.250    5.625    2.750    0.000    0.000    0.000 
#    0.000    0.000    0.000    0.000    0.000    0.000 
#
# Total GULP energy -198250.541096 kJ/mol
# GULP energy per Si atom -12390.658818 kJ/mol
# Density = 2.079230 g / cm^3
# Si number density = 20.839731 Si / 1000 Ang^3
#
#
#
# Elastic Constant Matrix: (Units=GPa)
#
#
# Indices 1 2 3 4 5 6 
#
# 1 89.6926 35.2394 22.5595 22.1604 21.7145 -5.0406
# 2 35.2394 93.2814 34.2890 22.3874 3.3510 -3.2518
# 3 22.5595 34.2890 83.9985 19.6399 8.9190 9.6367
# 4 22.1604 22.3874 19.6399 30.3010 2.6157 -2.1607
# 5 21.7145 3.3510 8.9190 2.6157 30.2900 8.5671
# 6 -5.0406 -3.2518 9.6367 -2.1607 8.5671 25.0705
#
#
#
# Elastic Compliance Matrix: (Units=1/GPa)
#
#
# Indices 1 2 3 4 5 6 
#
# 1 0.018971 -0.004021 -0.000813 -0.008581 -0.014374 0.007778
# 2 -0.004021 0.015085 -0.004200 -0.005601 0.002534 0.001414
# 3 -0.000813 -0.004200 0.016538 -0.007448 -0.001106 -0.007329
# 4 -0.008581 -0.005601 -0.007448 0.048138 0.003894 0.003229
# 5 -0.014374 0.002534 -0.001106 0.003894 0.048196 -0.018270
# 6 0.007778 0.001414 -0.007329 0.003229 -0.018270 0.050974
#
#
# Mechanical properties :
#
#
# Convention : Reuss Voigt Hill
#
# Bulk Modulus (GPa) = 30.74505 50.12760 40.43632
# Shear Modulus (GPa) = 22.04483 28.79127 25.41805
#
# Velocity S-wave (km/s) = 3.25595 3.72096 3.49620
# Velocity P-wave (km/s) = 5.37774 6.52433 5.97858
#
# Compressibility (1/GPa) = 0.03252556
#
# Stress axis : x y z
#
# Youngs Moduli (GPa) = 52.71295 66.28892 60.46829
#
# Poissons Ratio (x) = 0.26653 0.04918
# Poissons Ratio (y) = 0.21195 0.25396
# Poissons Ratio (z) = 0.04288 0.27841
#
# Static dielectric constant tensor:
#      x y z
#    x 3.949100 0.044710 -0.088060 
#    y 0.044710 3.657050 0.103180 
#    z -0.088060 0.103180 3.631580 
# 
# 
# High freq. dielectric constant tensor:
#      x y z
#    x 1.814580 -0.004590 -0.009070 
#    y -0.004590 1.803670 0.018610 
#    z -0.009070 0.018610 1.799060 
# 
# From -- ./inp_files/205567.got.cif
#   From: 2010.06.25/outbox.cif.g09.slc.cpg/sg2_103_cif.got.tgz:205567.got - 2010.06.27 13:26:56.
