data_PCOD8039532
_publ_section_title
;
Structure prediction by ZEFSAII (Michael W. Deem and Ramdas Pophale) SiO2 
 PCOD8039532
Probable space group: P -1
;
_chemical_formula_sum "Si O2"
_cell_formula_units_Z 16
_cell_length_a 7.573495
_cell_length_b 18.023367
_cell_length_c 17.801057
_cell_angle_alpha 146.125762
_cell_angle_beta 34.844433
_cell_angle_gamma 132.155688
_cell_volume 773.392923
_symmetry_space_group_name_H-M "P -1"
_symmetry_group_IT_number 2
_symmetry_cell_setting 'triclinic'
loop_
_space_group_symop_operation_xyz
x,y,z
-x,-y,-z
loop_
_atom_site_type_symbol
_atom_site_label
_atom_site_fract_x
_atom_site_fract_y
_atom_site_fract_z
Si Si1 0.117684 0.053908 0.387664
Si Si2 0.935615 0.640150 0.361744
Si Si3 0.863100 0.454663 0.639475
Si Si4 0.267897 0.697527 0.671747
Si Si5 0.818932 0.588295 0.196140
Si Si6 0.717566 0.022842 0.061224
Si Si7 0.055897 0.806582 0.679428
Si Si8 0.329947 0.116592 0.526436
O O1 0.007679 0.202847 0.529593
O O2 0.377765 0.994677 0.189664
O O3 0.269756 0.042212 0.406769
O O4 0.808221 0.966161 0.424853
O O5 0.591188 0.615615 0.492889
O O6 0.974377 0.569808 0.208315
O O7 0.169019 0.567801 0.278367
O O8 0.533987 0.455814 0.714684
O O9 0.070645 0.330569 0.427396
O O10 0.995403 0.598351 0.697926
O O11 0.267828 0.820206 0.835161
O O12 0.242670 0.768382 0.658371
O O13 0.843597 0.740135 0.290064
O O14 0.000000 0.500000 0.000000
O O15 0.000000 0.000000 0.000000
O O16 0.779183 0.917285 0.882524
O O17 0.298411 0.866863 0.585182
#
# Coordination Sequence:
#
# PCOD8039532 Si02
#       8
#     2   2   2   2   2   2   2   2
#     4   9  16  31  54  79 107 147 187 224 289 337
#     4  10  20  39  58  82 117 149 187 239 280 345
#     4  11  22  36  62  83 111 159 189 226 298 341
#     4  10  18  36  56  84 118 150 187 235 287 345
#     4  10  22  39  56  83 117 146 193 241 276 339
#     4   9  16  30  53  83 115 141 185 242 279 331
#     4  10  18  34  55  86 115 143 196 239 276 344
#     4   9  16  32  55  77 106 148 185 227 283 341
#
# _framework density 20.688061000000001
#
# number of rings (size 3 to 8) (size 9 to 14) (size 15 to 20)
#    0.000    2.250    6.250    0.750    0.000    2.500 
#    2.250    5.000    2.750    0.000    0.000    0.000 
#    0.000    0.000    0.000    0.000    0.000    0.000 
#
# Total GULP energy -198274.563818 kJ/mol
# GULP energy per Si atom -12392.160239 kJ/mol
# Density = 2.064097 g / cm^3
# Si number density = 20.688061 Si / 1000 Ang^3
#
#
#
# Elastic Constant Matrix: (Units=GPa)
#
#
# Indices 1 2 3 4 5 6 
#
# 1 42.9666 13.6986 17.0427 0.2347 13.0325 -4.1200
# 2 13.6986 151.9575 47.1380 -6.9246 7.5662 1.5260
# 3 17.0427 47.1380 145.6469 3.6261 29.9046 4.3496
# 4 0.2347 -6.9246 3.6261 20.2072 5.9262 5.2242
# 5 13.0325 7.5662 29.9046 5.9262 21.0094 2.3649
# 6 -4.1200 1.5260 4.3496 5.2242 2.3649 11.7395
#
#
#
# Elastic Compliance Matrix: (Units=1/GPa)
#
#
# Indices 1 2 3 4 5 6 
#
# 1 0.031819 -0.002181 0.001161 0.001470 -0.022701 0.014939
# 2 -0.002181 0.007669 -0.002558 0.003322 0.001589 -0.002613
# 3 0.001161 -0.002558 0.010723 0.001992 -0.015512 -0.000995
# 4 0.001470 0.003322 0.001992 0.062369 -0.019787 -0.024423
# 5 -0.022701 0.001589 -0.015512 -0.019787 0.090094 -0.011770
# 6 0.014939 -0.002613 -0.000995 -0.024423 -0.011770 0.104374
#
#
# Mechanical properties :
#
#
# Convention : Reuss Voigt Hill
#
# Bulk Modulus (GPa) = 23.22608 55.14774 39.18691
# Shear Modulus (GPa) = 15.21816 28.10399 21.66107
#
# Velocity S-wave (km/s) = 2.71514 3.68973 3.23930
# Velocity P-wave (km/s) = 4.59135 6.69827 5.74227
#
# Compressibility (1/GPa) = 0.04305505
#
# Stress axis : x y z
#
# Youngs Moduli (GPa) = 31.42790 130.38846 93.25761
#
# Poissons Ratio (x) = 0.28441 -0.10827
# Poissons Ratio (y) = 0.06855 0.23854
# Poissons Ratio (z) = -0.03649 0.33351
#
# Static dielectric constant tensor:
#      x y z
#    x 3.488260 0.103030 0.185200 
#    y 0.103030 3.827940 0.086700 
#    z 0.185200 0.086700 4.166200 
# 
# 
# High freq. dielectric constant tensor:
#      x y z
#    x 1.782360 0.009150 0.011130 
#    y 0.009150 1.805220 0.007410 
#    z 0.011130 0.007410 1.796130 
# 
# From -- ./inp_files/284560.got.cif
#   From: 2010.06.25/outbox.cif.g09.slc.cpg/sg2_143_cif.got.tgz:284560.got - 2010.06.27 13:26:56.
