data_PCOD8039787
_publ_section_title
;
Structure prediction by ZEFSAII (Michael W. Deem and Ramdas Pophale) SiO2 
 PCOD8039787
Probable space group: P -1
;
_chemical_formula_sum "Si O2"
_cell_formula_units_Z 14
_cell_length_a 7.156815
_cell_length_b 18.174987
_cell_length_c 7.754773
_cell_angle_alpha 145.044502
_cell_angle_beta 98.186706
_cell_angle_gamma 76.509940
_cell_volume 559.821734
_symmetry_space_group_name_H-M "P -1"
_symmetry_group_IT_number 2
_symmetry_cell_setting 'triclinic'
loop_
_space_group_symop_operation_xyz
x,y,z
-x,-y,-z
loop_
_atom_site_type_symbol
_atom_site_label
_atom_site_fract_x
_atom_site_fract_y
_atom_site_fract_z
Si Si1 0.722047 0.970772 0.799403
Si Si2 0.910966 0.682661 0.175397
Si Si3 0.638135 0.106109 0.735406
Si Si4 0.729147 0.975827 0.181630
Si Si5 0.533815 0.617981 0.616001
Si Si6 0.085803 0.306704 0.202645
Si Si7 0.191551 0.588553 0.327533
O O1 0.765671 0.817585 0.462822
O O2 0.790085 0.058120 0.821695
O O3 0.493226 0.029448 0.892561
O O4 0.820585 0.995184 0.042695
O O5 0.095295 0.663421 0.289617
O O6 0.979137 0.680035 0.980585
O O7 0.797540 0.567056 0.980507
O O8 0.500000 0.000000 0.500000
O O9 0.750873 0.094379 0.543539
O O10 0.518475 0.251393 0.023095
O O11 0.829793 0.842614 0.029161
O O12 0.500000 0.500000 0.500000
O O13 0.756634 0.603682 0.565048
O O14 0.405540 0.620388 0.430571
O O15 0.906836 0.359543 0.403757
#
# Coordination Sequence:
#
# PCOD8039787 Si02
#       7
#     2   2   2   2   2   2   2
#     4  10  18  34  66  97 128 174 235 269 331 414
#     4  11  22  42  69  96 141 190 219 285 351 406
#     4  10  19  39  67  96 134 177 225 276 347 401
#     4  10  19  33  70 100 119 184 234 262 346 416
#     4  12  25  44  73 108 137 181 239 288 333 421
#     4  12  21  46  74  94 142 188 222 286 355 400
#     4  11  27  43  66 105 143 181 236 280 347 419
#
# _framework density 25.007961999999999
#
# number of rings (size 3 to 8) (size 9 to 14) (size 15 to 20)
#    0.000    1.143    7.143    1.286    0.000    0.000 
#    0.000    7.143    0.000    0.000    0.000    0.000 
#    0.000    0.000    0.000    0.000    0.000    0.000 
#
# Total GULP energy -173516.741980 kJ/mol
# GULP energy per Si atom -12394.052999 kJ/mol
# Density = 2.495104 g / cm^3
# Si number density = 25.007962 Si / 1000 Ang^3
#
#
#
# Elastic Constant Matrix: (Units=GPa)
#
#
# Indices 1 2 3 4 5 6 
#
# 1 37.0378 22.7781 5.1310 -13.3450 8.5233 -1.0923
# 2 22.7781 166.2826 51.7737 -34.8864 -10.1558 2.8942
# 3 5.1310 51.7737 94.4162 -8.1273 -12.3082 2.1860
# 4 -13.3450 -34.8864 -8.1273 67.4256 -4.8548 -8.5658
# 5 8.5233 -10.1558 -12.3082 -4.8548 32.8184 -3.6106
# 6 -1.0923 2.8942 2.1860 -8.5658 -3.6106 22.0106
#
#
#
# Elastic Compliance Matrix: (Units=1/GPa)
#
#
# Indices 1 2 3 4 5 6 
#
# 1 0.033272 -0.004194 -0.000425 0.003987 -0.009258 0.002278
# 2 -0.004194 0.008700 -0.003875 0.003530 0.002948 0.000890
# 3 -0.000425 -0.003875 0.013219 -0.000261 0.003797 -0.000303
# 4 0.003987 0.003530 -0.000261 0.018636 0.003551 0.007595
# 5 -0.009258 0.002948 0.003797 0.003551 0.036411 0.006131
# 6 0.002278 0.000890 -0.000303 0.007595 0.006131 0.049420
#
#
# Mechanical properties :
#
#
# Convention : Reuss Voigt Hill
#
# Bulk Modulus (GPa) = 26.17620 50.78915 38.48267
# Shear Modulus (GPa) = 26.40197 38.98784 32.69490
#
# Velocity S-wave (km/s) = 3.25274 3.95272 3.61969
# Velocity P-wave (km/s) = 4.95954 6.41758 5.73508
#
# Compressibility (1/GPa) = 0.03820264
#
# Stress axis : x y z
#
# Youngs Moduli (GPa) = 30.05555 114.94153 75.64859
#
# Poissons Ratio (x) = 0.48208 0.03213
# Poissons Ratio (y) = 0.12606 0.29316
# Poissons Ratio (z) = 0.01276 0.44543
#
# Static dielectric constant tensor:
#      x y z
#    x 4.540840 0.212950 -0.306230 
#    y 0.212950 6.187310 -1.007040 
#    z -0.306230 -1.007040 5.170930 
# 
# 
# High freq. dielectric constant tensor:
#      x y z
#    x 1.962170 -0.016760 -0.011690 
#    y -0.016760 2.022990 -0.009090 
#    z -0.011690 -0.009090 2.003600 
# 
# From -- ./inp_files/220122.got.cif
#   From: 2010.06.25/outbox.cif.g09.slc.cpg/sg2_111_cif.got.tgz:220122.got - 2010.06.27 13:26:56.
