data_PCOD8039376
_publ_section_title
;
Structure prediction by ZEFSAII (Michael W. Deem and Ramdas Pophale) SiO2 
 PCOD8039376
Probable space group: P -1
;
_chemical_formula_sum "Si O2"
_cell_formula_units_Z 16
_cell_length_a 17.991413
_cell_length_b 19.090813
_cell_length_c 5.376504
_cell_angle_alpha 113.501646
_cell_angle_beta 58.523092
_cell_angle_gamma 152.544141
_cell_volume 716.291525
_symmetry_space_group_name_H-M "P -1"
_symmetry_group_IT_number 2
_symmetry_cell_setting 'triclinic'
loop_
_space_group_symop_operation_xyz
x,y,z
-x,-y,-z
loop_
_atom_site_type_symbol
_atom_site_label
_atom_site_fract_x
_atom_site_fract_y
_atom_site_fract_z
Si Si1 0.640402 0.040549 0.765156
Si Si2 0.025623 0.645631 0.181866
Si Si3 0.421481 0.268310 0.058658
Si Si4 0.540719 0.882521 0.202878
Si Si5 0.739418 0.624233 0.011674
Si Si6 0.599474 0.684481 0.337677
Si Si7 0.845215 0.382112 0.411806
Si Si8 0.186211 0.372262 0.613645
O O1 0.601563 0.967705 0.473711
O O2 0.840963 0.223981 0.651263
O O3 0.644817 0.988759 0.926928
O O4 0.500000 0.000000 0.000000
O O5 0.872512 0.474276 0.309285
O O6 0.927367 0.637663 0.194982
O O7 0.153183 0.696921 0.845531
O O8 0.317194 0.214161 0.415714
O O9 0.438709 0.191484 0.908055
O O10 0.611891 0.453718 0.992111
O O11 0.316108 0.216119 0.921200
O O12 0.338573 0.749545 0.314142
O O13 0.858959 0.710528 0.675601
O O14 0.623240 0.611794 0.198738
O O15 0.860055 0.711024 0.172633
O O16 0.393438 0.547661 0.501022
O O17 0.000000 0.500000 0.500000
#
# Coordination Sequence:
#
# PCOD8039376 Si02
#       8
#     2   2   2   2   2   2   2   2
#     4  12  26  48  64  89 126 186 230 256 317 390
#     4  11  26  41  63  95 129 171 213 277 321 387
#     4  10  19  32  55  89 119 154 204 258 304 364
#     4  12  26  43  68  92 130 176 223 270 312 382
#     4  10  19  34  56  92 128 161 193 258 330 387
#     4  10  18  33  58  90 130 158 196 256 330 385
#     4  11  25  40  66  94 129 165 216 273 344 365
#     4  10  20  32  54  85 123 155 201 247 312 370
#
# _framework density 22.337273
#
# number of rings (size 3 to 8) (size 9 to 14) (size 15 to 20)
#    0.000    1.250    1.250    7.125    8.750    0.000 
#    0.000    0.000    0.000    0.000    0.000   29.750 
#    0.000    0.000    0.000    0.000    0.000    0.000 
#
# Total GULP energy -198332.979948 kJ/mol
# GULP energy per Si atom -12395.811247 kJ/mol
# Density = 2.228643 g / cm^3
# Si number density = 22.337273 Si / 1000 Ang^3
#
#
#
# Elastic Constant Matrix: (Units=GPa)
#
#
# Indices 1 2 3 4 5 6 
#
# 1 155.3015 31.2971 66.1424 20.5936 11.0657 -7.0575
# 2 31.2971 58.7952 34.8769 19.6863 -10.3764 2.4760
# 3 66.1424 34.8769 128.3465 29.4792 33.4030 -6.7130
# 4 20.5936 19.6863 29.4792 30.5594 3.3107 -1.8396
# 5 11.0657 -10.3764 33.4030 3.3107 55.0281 11.0964
# 6 -7.0575 2.4760 -6.7130 -1.8396 11.0964 20.4216
#
#
#
# Elastic Compliance Matrix: (Units=1/GPa)
#
#
# Indices 1 2 3 4 5 6 
#
# 1 0.008616 -0.002684 -0.003201 -0.000749 -0.000776 0.002605
# 2 -0.002684 0.032337 -0.010025 -0.012338 0.017217 -0.018610
# 3 -0.003201 -0.010025 0.018158 -0.006514 -0.014582 0.013415
# 4 -0.000749 -0.012338 -0.006514 0.047950 -0.002016 0.004511
# 5 -0.000776 0.017217 -0.014582 -0.002016 0.035967 -0.026874
# 6 0.002605 -0.018610 0.013415 0.004511 -0.026874 0.071542
#
#
# Mechanical properties :
#
#
# Convention : Reuss Voigt Hill
#
# Bulk Modulus (GPa) = 36.64002 67.45290 52.04646
# Shear Modulus (GPa) = 19.57059 35.21029 27.39044
#
# Velocity S-wave (km/s) = 2.96318 3.97457 3.50554
# Velocity P-wave (km/s) = 5.30527 7.16422 6.30365
#
# Compressibility (1/GPa) = 0.02729256
#
# Stress axis : x y z
#
# Youngs Moduli (GPa) = 116.06202 30.92454 55.07276
#
# Poissons Ratio (x) = 0.08299 0.17627
# Poissons Ratio (y) = 0.31146 0.55209
# Poissons Ratio (z) = 0.37149 0.31001
#
# Static dielectric constant tensor:
#      x y z
#    x 4.618130 -0.064150 0.905460 
#    y -0.064150 3.845030 0.298650 
#    z 0.905460 0.298650 5.040710 
# 
# 
# High freq. dielectric constant tensor:
#      x y z
#    x 1.898540 -0.010260 0.016950 
#    y -0.010260 1.831250 0.023040 
#    z 0.016950 0.023040 1.892270 
# 
# From -- ./inp_files/37622.got.cif
#   From: 2010.06.25/outbox.cif.g09.slc.cpg/sg2_19_cif.got.tgz:37622.got - 2010.06.27 13:26:56.
