data_PCOD8039605
_publ_section_title
;
Structure prediction by ZEFSAII (Michael W. Deem and Ramdas Pophale) SiO2 
 PCOD8039605
Probable space group: P -1
;
_chemical_formula_sum "Si O2"
_cell_formula_units_Z 16
_cell_length_a 13.072629
_cell_length_b 9.128394
_cell_length_c 12.045649
_cell_angle_alpha 120.106696
_cell_angle_beta 109.080395
_cell_angle_gamma 43.061234
_cell_volume 847.135268
_symmetry_space_group_name_H-M "P -1"
_symmetry_group_IT_number 2
_symmetry_cell_setting 'triclinic'
loop_
_space_group_symop_operation_xyz
x,y,z
-x,-y,-z
loop_
_atom_site_type_symbol
_atom_site_label
_atom_site_fract_x
_atom_site_fract_y
_atom_site_fract_z
Si Si1 0.120873 0.410794 0.872095
Si Si2 0.103215 0.151697 0.929736
Si Si3 0.667829 0.837521 0.963876
Si Si4 0.054941 0.910922 0.667227
Si Si5 0.325849 0.069194 0.618625
Si Si6 0.845680 0.566017 0.484932
Si Si7 0.342269 0.312595 0.329839
Si Si8 0.227723 0.802297 0.469120
O O1 0.044029 0.327276 0.869133
O O2 0.193206 0.283286 0.732292
O O3 0.246277 0.350105 0.977115
O O4 0.993382 0.697079 0.935345
O O5 0.082214 0.982265 0.819293
O O6 0.276234 0.024256 0.966304
O O7 0.702499 0.711104 0.813096
O O8 0.500000 0.000000 0.000000
O O9 0.123102 0.657303 0.628614
O O10 0.140205 0.906418 0.593789
O O11 0.881651 0.085428 0.634271
O O12 0.292644 0.202183 0.543153
O O13 0.492063 0.931309 0.669089
O O14 0.321614 0.872961 0.522105
O O15 0.788352 0.619548 0.611604
O O16 0.000000 0.500000 0.500000
O O17 0.338698 0.520941 0.401462
#
# Coordination Sequence:
#
# PCOD8039605 Si02
#       8
#     2   2   2   2   2   2   2   2
#     4   9  19  31  59  85 112 148 191 242 291 327
#     4   9  18  32  56  84 113 144 190 245 292 329
#     4  10  18  34  57  89 116 145 189 249 293 342
#     4  10  19  37  56  89 115 148 202 248 289 338
#     4  12  21  40  56  89 123 152 196 236 298 363
#     4  11  25  39  61  82 121 167 192 235 292 358
#     4  11  23  37  61  88 121 153 193 241 302 345
#     4  10  20  32  62  87 115 147 196 254 293 335
#
# _framework density 18.887184000000001
#
# number of rings (size 3 to 8) (size 9 to 14) (size 15 to 20)
#    0.750    1.000    3.750    1.500    1.750    0.000 
#    0.000    0.625    0.000    0.750    0.000    0.000 
#    0.000    0.000    0.000    0.000    0.000    0.000 
#
# Total GULP energy -198214.071867 kJ/mol
# GULP energy per Si atom -12388.379492 kJ/mol
# Density = 1.884420 g / cm^3
# Si number density = 18.887184 Si / 1000 Ang^3
#
#
#
# Elastic Constant Matrix: (Units=GPa)
#
#
# Indices 1 2 3 4 5 6 
#
# 1 78.9621 23.5418 38.1770 11.8474 6.4998 -7.1305
# 2 23.5418 71.5283 19.5669 1.5819 3.1008 1.1518
# 3 38.1770 19.5669 116.2143 17.5945 6.2315 2.6708
# 4 11.8474 1.5819 17.5945 25.8930 -5.5780 -0.1087
# 5 6.4998 3.1008 6.2315 -5.5780 27.0064 -2.2902
# 6 -7.1305 1.1518 2.6708 -0.1087 -2.2902 31.5129
#
#
#
# Elastic Compliance Matrix: (Units=1/GPa)
#
#
# Indices 1 2 3 4 5 6 
#
# 1 0.017467 -0.004432 -0.004025 -0.005744 -0.003599 0.004174
# 2 -0.004432 0.015827 -0.001477 0.002034 -0.000113 -0.001457
# 3 -0.004025 -0.001477 0.011358 -0.006438 -0.002987 -0.002059
# 4 -0.005744 0.002034 -0.006438 0.048218 0.012615 0.000255
# 5 -0.003599 -0.000113 -0.002987 0.012615 0.041414 0.002496
# 6 0.004174 -0.001457 -0.002059 0.000255 0.002496 0.033088
#
#
# Mechanical properties :
#
#
# Convention : Reuss Voigt Hill
#
# Bulk Modulus (GPa) = 40.35049 47.69733 44.02391
# Shear Modulus (GPa) = 25.57558 29.24373 27.40966
#
# Velocity S-wave (km/s) = 3.68383 3.93916 3.81363
# Velocity P-wave (km/s) = 6.28526 6.78218 6.53844
#
# Compressibility (1/GPa) = 0.02478284
#
# Stress axis : x y z
#
# Youngs Moduli (GPa) = 57.25220 63.18476 88.04447
#
# Poissons Ratio (x) = 0.28002 0.35438
# Poissons Ratio (y) = 0.25373 0.13006
# Poissons Ratio (z) = 0.23044 0.09334
#
# Static dielectric constant tensor:
#      x y z
#    x 3.310250 -0.105030 -0.091500 
#    y -0.105030 3.330440 0.055520 
#    z -0.091500 0.055520 2.606600 
# 
# 
# High freq. dielectric constant tensor:
#      x y z
#    x 1.718740 -0.019280 0.005750 
#    y -0.019280 1.713570 0.005710 
#    z 0.005750 0.005710 1.737470 
# 
# From -- ./inp_files/419775.got.cif
#   From: 2010.06.25/outbox.cif.g09.slc.cpg/sg2_210_cif.got.tgz:419775.got - 2010.06.27 13:26:56.
