data_PCOD8039766
_publ_section_title
;
Structure prediction by ZEFSAII (Michael W. Deem and Ramdas Pophale) SiO2 
 PCOD8039766
Probable space group: P -1
;
_chemical_formula_sum "Si O2"
_cell_formula_units_Z 14
_cell_length_a 8.641243
_cell_length_b 9.758888
_cell_length_c 10.562788
_cell_angle_alpha 95.832600
_cell_angle_beta 123.327698
_cell_angle_gamma 57.913342
_cell_volume 607.374570
_symmetry_space_group_name_H-M "P -1"
_symmetry_group_IT_number 2
_symmetry_cell_setting 'triclinic'
loop_
_space_group_symop_operation_xyz
x,y,z
-x,-y,-z
loop_
_atom_site_type_symbol
_atom_site_label
_atom_site_fract_x
_atom_site_fract_y
_atom_site_fract_z
Si Si1 0.986673 0.225930 0.924527
Si Si2 0.791636 0.039041 0.702022
Si Si3 0.575323 0.636092 0.174083
Si Si4 0.452288 0.500766 0.332726
Si Si5 0.161173 0.692060 0.858825
Si Si6 0.538135 0.016559 0.808506
Si Si7 0.267201 0.878541 0.590595
O O1 0.895669 0.110433 0.847867
O O2 0.823369 0.402315 0.790979
O O3 0.967424 0.280680 0.065821
O O4 0.258295 0.109725 0.012435
O O5 0.627572 0.012628 0.707625
O O6 0.667819 0.149446 0.532365
O O7 0.999925 0.860869 0.720997
O O8 0.505927 0.614902 0.283109
O O9 0.807537 0.463333 0.219846
O O10 0.601393 0.789381 0.191776
O O11 0.395469 0.668743 0.990023
O O12 0.500000 0.500000 0.500000
O O13 0.603437 0.314544 0.320996
O O14 0.366590 0.963631 0.721014
O O15 0.000000 0.000000 0.500000
#
# Coordination Sequence:
#
# PCOD8039766 Si02
#       7
#     2   2   2   2   2   2   2
#     4  10  19  38  70  94 119 162 218 266 310 369
#     4  11  18  40  67  93 119 168 216 263 310 377
#     4  10  18  34  63  96 123 162 209 266 311 371
#     4  11  21  39  63  91 132 172 203 253 329 384
#     4   9  17  31  63  97 120 151 211 270 315 347
#     4  11  21  41  68  97 119 166 227 260 303 381
#     4  12  27  42  59  92 140 174 199 260 333 379
#
# _framework density 23.050028000000001
#
# number of rings (size 3 to 8) (size 9 to 14) (size 15 to 20)
#    0.000    1.429    5.714    2.143    0.000    0.571 
#    0.000    6.429    0.000    0.000    0.000    0.000 
#    0.000    0.000    0.000    0.000    0.000    0.000 
#
# Total GULP energy -173447.891847 kJ/mol
# GULP energy per Si atom -12389.135132 kJ/mol
# Density = 2.299757 g / cm^3
# Si number density = 23.050028 Si / 1000 Ang^3
#
#
#
# Elastic Constant Matrix: (Units=GPa)
#
#
# Indices 1 2 3 4 5 6 
#
# 1 29.6268 39.6105 23.6937 2.3246 18.8939 1.6584
# 2 39.6105 198.1260 51.9059 -13.7162 25.8335 -13.9427
# 3 23.6937 51.9059 94.0898 -9.6261 8.5599 8.4754
# 4 2.3246 -13.7162 -9.6261 41.1828 -1.4990 0.8432
# 5 18.8939 25.8335 8.5599 -1.4990 33.5214 4.1938
# 6 1.6584 -13.9427 8.4754 0.8432 4.1938 30.0152
#
#
#
# Elastic Compliance Matrix: (Units=1/GPa)
#
#
# Indices 1 2 3 4 5 6 
#
# 1 0.079098 -0.008500 -0.013281 -0.011697 -0.035249 0.000685
# 2 -0.008500 0.008069 -0.002390 0.002458 -0.001335 0.005010
# 3 -0.013281 -0.002390 0.015649 0.003957 0.006231 -0.005777
# 4 -0.011697 0.002458 0.003957 0.026883 0.004988 -0.000782
# 5 -0.035249 -0.001335 0.006231 0.004988 0.050311 -0.007601
# 6 0.000685 0.005010 -0.005777 -0.000782 -0.007601 0.038321
#
#
# Mechanical properties :
#
#
# Convention : Reuss Voigt Hill
#
# Bulk Modulus (GPa) = 18.35684 61.36255 39.85969
# Shear Modulus (GPa) = 17.55427 34.71937 26.13682
#
# Velocity S-wave (km/s) = 2.76265 3.88527 3.37102
# Velocity P-wave (km/s) = 4.26117 6.84152 5.69929
#
# Compressibility (1/GPa) = 0.05447560
#
# Stress axis : x y z
#
# Youngs Moduli (GPa) = 12.64260 123.92474 63.90110
#
# Poissons Ratio (x) = 1.05332 0.84867
# Poissons Ratio (y) = 0.10746 0.15270
# Poissons Ratio (z) = 0.16791 0.29614
#
# Static dielectric constant tensor:
#      x y z
#    x 3.599470 -0.328310 -0.047390 
#    y -0.328310 4.808510 -0.570300 
#    z -0.047390 -0.570300 4.254290 
# 
# 
# High freq. dielectric constant tensor:
#      x y z
#    x 1.863390 -0.025800 -0.016040 
#    y -0.025800 1.936910 -0.022370 
#    z -0.016040 -0.022370 1.902350 
# 
# From -- ./inp_files/156864.got.cif
#   From: 2010.06.25/outbox.cif.g09.slc.cpg/sg2_79_cif.got.tgz:156864.got - 2010.06.27 13:26:56.
