data_PCOD8039283
_publ_section_title
;
Structure prediction by ZEFSAII (Michael W. Deem and Ramdas Pophale) SiO2 
 PCOD8039283
Probable space group: P -1
;
_chemical_formula_sum "Si O2"
_cell_formula_units_Z 16
_cell_length_a 11.690775
_cell_length_b 9.306894
_cell_length_c 14.474704
_cell_angle_alpha 53.699965
_cell_angle_beta 126.729645
_cell_angle_gamma 139.611361
_cell_volume 789.133656
_symmetry_space_group_name_H-M "P -1"
_symmetry_group_IT_number 2
_symmetry_cell_setting 'triclinic'
loop_
_space_group_symop_operation_xyz
x,y,z
-x,-y,-z
loop_
_atom_site_type_symbol
_atom_site_label
_atom_site_fract_x
_atom_site_fract_y
_atom_site_fract_z
Si Si1 0.654550 0.310035 0.187029
Si Si2 0.616060 0.829968 0.049500
Si Si3 0.916251 0.819386 0.109076
Si Si4 0.545159 0.439242 0.264384
Si Si5 0.892981 0.180771 0.328929
Si Si6 0.947612 0.285346 0.112416
Si Si7 0.845336 0.908760 0.722634
Si Si8 0.886877 0.785836 0.419370
O O1 0.826156 0.561086 0.134446
O O2 0.562136 0.319807 0.230433
O O3 0.730672 0.172345 0.298011
O O4 0.508975 0.174961 0.085408
O O5 0.751204 0.799604 0.078534
O O6 0.504023 0.611613 0.148073
O O7 0.732933 0.070409 0.069332
O O8 0.072614 0.901343 0.229251
O O9 0.000000 0.000000 0.000000
O O10 0.375167 0.249236 0.320037
O O11 0.731994 0.571354 0.363750
O O12 0.966834 0.332618 0.213315
O O13 0.063416 0.301048 0.437211
O O14 0.814566 0.921223 0.367887
O O15 0.083522 0.234739 0.166151
O O16 0.000000 0.500000 0.000000
O O17 0.923080 0.035429 0.613782
#
# Coordination Sequence:
#
# PCOD8039283 Si02
#       8
#     2   2   2   2   2   2   2   2
#     4  11  22  35  60  97 123 160 204 252 314 361
#     4  10  20  35  56  90 128 157 200 249 311 369
#     4  10  18  33  55  87 128 160 192 247 306 370
#     4  11  20  40  65  91 122 164 206 249 308 370
#     4  10  23  41  65  84 126 165 203 264 301 362
#     4  10  22  39  58  93 124 165 204 252 312 365
#     4  10  20  38  64  86 119 167 205 246 306 369
#     4  10  21  47  64  83 123 168 211 249 311 361
#
# _framework density 20.275402
#
# number of rings (size 3 to 8) (size 9 to 14) (size 15 to 20)
#    0.000    1.750    5.000    3.000    5.250    2.000 
#    0.000    7.500    0.000    0.000    0.000    0.000 
#    0.000    0.000    0.000    0.000    0.000    0.000 
#
# Total GULP energy -198341.993996 kJ/mol
# GULP energy per Si atom -12396.374625 kJ/mol
# Density = 2.022925 g / cm^3
# Si number density = 20.275402 Si / 1000 Ang^3
#
#
#
# Elastic Constant Matrix: (Units=GPa)
#
#
# Indices 1 2 3 4 5 6 
#
# 1 69.0749 52.1578 35.2051 1.6987 -5.4160 9.9551
# 2 52.1578 88.9916 52.9353 9.9371 -6.1097 14.2057
# 3 35.2051 52.9353 129.9595 19.2023 -6.3744 -4.7599
# 4 1.6987 9.9371 19.2023 29.5537 -0.4558 -2.6011
# 5 -5.4160 -6.1097 -6.3744 -0.4558 24.8962 1.5510
# 6 9.9551 14.2057 -4.7599 -2.6011 1.5510 27.1883
#
#
#
# Elastic Compliance Matrix: (Units=1/GPa)
#
#
# Indices 1 2 3 4 5 6 
#
# 1 0.026857 -0.014558 -0.001992 0.004478 0.001982 -0.002260
# 2 -0.014558 0.025558 -0.006030 -0.004656 0.002077 -0.009643
# 3 -0.001992 -0.006030 0.011650 -0.004942 0.000642 0.005410
# 4 0.004478 -0.004656 -0.004942 0.038665 -0.000955 0.003681
# 5 0.001982 0.002077 0.000642 -0.000955 0.041514 -0.004158
# 6 -0.002260 -0.009643 0.005410 0.003681 -0.004158 0.044183
#
#
# Mechanical properties :
#
#
# Convention : Reuss Voigt Hill
#
# Bulk Modulus (GPa) = 52.90066 63.18025 58.04046
# Shear Modulus (GPa) = 20.84287 26.17616 23.50951
#
# Velocity S-wave (km/s) = 3.20970 3.59699 3.40885
# Velocity P-wave (km/s) = 6.31537 6.96274 6.64694
#
# Compressibility (1/GPa) = 0.01890336
#
# Stress axis : x y z
#
# Youngs Moduli (GPa) = 37.23482 39.12619 85.83357
#
# Poissons Ratio (x) = 0.56962 0.17102
# Poissons Ratio (y) = 0.54208 0.51759
# Poissons Ratio (z) = 0.07419 0.23594
#
# Static dielectric constant tensor:
#      x y z
#    x 3.622680 -0.077620 -0.112290 
#    y -0.077620 3.815170 0.132120 
#    z -0.112290 0.132120 3.564300 
# 
# 
# High freq. dielectric constant tensor:
#      x y z
#    x 1.782590 -0.008040 -0.008090 
#    y -0.008040 1.783490 0.014650 
#    z -0.008090 0.014650 1.782920 
# 
# From -- ./inp_files/417286.got.cif
#   From: 2010.06.25/outbox.cif.g09.slc.cpg/sg2_209_cif.got.tgz:417286.got - 2010.06.27 13:26:56.
