data_PCOD8039949
_publ_section_title
;
Structure prediction by ZEFSAII (Michael W. Deem and Ramdas Pophale) SiO2 
 PCOD8039949
Probable space group: P -1
;
_chemical_formula_sum "Si O2"
_cell_formula_units_Z 14
_cell_length_a 8.929645
_cell_length_b 8.383274
_cell_length_c 15.641002
_cell_angle_alpha 117.178905
_cell_angle_beta 39.969701
_cell_angle_gamma 118.255123
_cell_volume 653.333432
_symmetry_space_group_name_H-M "P -1"
_symmetry_group_IT_number 2
_symmetry_cell_setting 'triclinic'
loop_
_space_group_symop_operation_xyz
x,y,z
-x,-y,-z
loop_
_atom_site_type_symbol
_atom_site_label
_atom_site_fract_x
_atom_site_fract_y
_atom_site_fract_z
Si Si1 0.533540 0.121903 0.750442
Si Si2 0.052613 0.581448 0.767516
Si Si3 0.020362 0.568202 0.411306
Si Si4 0.349666 0.678193 0.904336
Si Si5 0.395391 0.679155 0.066609
Si Si6 0.562547 0.717467 0.643936
Si Si7 0.899837 0.730434 0.034591
O O1 0.520814 0.151688 0.865084
O O2 0.267595 0.128128 0.835068
O O3 0.730833 0.285261 0.664062
O O4 0.588135 0.927676 0.655033
O O5 0.994035 0.595088 0.694038
O O6 0.332702 0.592666 0.666633
O O7 0.895648 0.382165 0.816665
O O8 0.960002 0.729527 0.905326
O O9 0.803986 0.659416 0.497574
O O10 0.000000 0.500000 0.500000
O O11 0.544477 0.693942 0.748541
O O12 0.237697 0.466746 0.920865
O O13 0.475477 0.759861 0.957348
O O14 0.149416 0.788159 0.989297
O O15 0.500000 0.500000 0.000000
#
# Coordination Sequence:
#
# PCOD8039949 Si02
#       7
#     2   2   2   2   2   2   2
#     4  11  22  37  59  85 121 147 182 250 296 321
#     4   9  20  37  60  82 111 153 190 232 280 341
#     4  11  24  39  62  81 108 160 204 232 268 350
#     4   9  18  32  58  86 113 147 192 227 273 353
#     4  10  18  35  59  87 116 151 187 229 281 349
#     4  11  23  38  56  87 120 149 189 238 292 335
#     4   9  17  35  58  86 112 147 191 229 283 341
#
# _framework density 21.428567000000001
#
# number of rings (size 3 to 8) (size 9 to 14) (size 15 to 20)
#    0.000    2.000    2.857    2.571    2.000    2.857 
#    0.000    2.143    0.000    0.000    0.000    0.000 
#    0.000    0.000    0.000    0.000    0.000    0.000 
#
# Total GULP energy -173441.337887 kJ/mol
# GULP energy per Si atom -12388.666992 kJ/mol
# Density = 2.137979 g / cm^3
# Si number density = 21.428567 Si / 1000 Ang^3
#
#
#
# Elastic Constant Matrix: (Units=GPa)
#
#
# Indices 1 2 3 4 5 6 
#
# 1 103.3022 28.3790 44.5527 -0.1058 9.7394 -8.5322
# 2 28.3790 46.7739 18.9490 9.0209 0.7659 -5.4685
# 3 44.5527 18.9490 90.6947 -4.6654 -3.9638 -12.6063
# 4 -0.1058 9.0209 -4.6654 23.2768 -14.8497 -4.1889
# 5 9.7394 0.7659 -3.9638 -14.8497 49.5841 -8.5294
# 6 -8.5322 -5.4685 -12.6063 -4.1889 -8.5294 18.4206
#
#
#
# Elastic Compliance Matrix: (Units=1/GPa)
#
#
# Indices 1 2 3 4 5 6 
#
# 1 0.014241 -0.005886 -0.006276 -0.001805 -0.004046 -0.001730
# 2 -0.005886 0.029798 -0.004881 -0.016489 -0.005215 -0.003385
# 3 -0.006276 -0.004881 0.018643 0.015046 0.010147 0.016522
# 4 -0.001805 -0.016489 0.015046 0.079596 0.032106 0.037533
# 5 -0.004046 -0.005215 0.010147 0.032106 0.036216 0.027592
# 6 -0.001730 -0.003385 0.016522 0.037533 0.027592 0.085099
#
#
# Mechanical properties :
#
#
# Convention : Reuss Voigt Hill
#
# Bulk Modulus (GPa) = 34.97028 47.17025 41.07027
# Shear Modulus (GPa) = 16.27553 28.18232 22.22892
#
# Velocity S-wave (km/s) = 2.75894 3.63047 3.22429
# Velocity P-wave (km/s) = 5.14819 6.29558 5.75057
#
# Compressibility (1/GPa) = 0.02859571
#
# Stress axis : x y z
#
# Youngs Moduli (GPa) = 70.22123 33.55979 53.63991
#
# Poissons Ratio (x) = 0.19752 0.33665
# Poissons Ratio (y) = 0.41329 0.26182
# Poissons Ratio (z) = 0.44071 0.16381
#
# Static dielectric constant tensor:
#      x y z
#    x 4.278770 0.093130 -0.019910 
#    y 0.093130 3.405750 -0.125350 
#    z -0.019910 -0.125350 4.086740 
# 
# 
# High freq. dielectric constant tensor:
#      x y z
#    x 1.849010 0.007410 -0.007360 
#    y 0.007410 1.793980 -0.012240 
#    z -0.007360 -0.012240 1.845980 
# 
# From -- ./inp_files/493282.got.cif
#   From: 2010.06.25/outbox.cif.g09.slc.cpg/sg2_247_cif.got.tgz:493282.got - 2010.06.27 13:26:56.
