data_PCOD8039053
_publ_section_title
;
Structure prediction by ZEFSAII (Michael W. Deem and Ramdas Pophale) SiO2 
 PCOD8039053
Probable space group: P -1
;
_chemical_formula_sum "Si O2"
_cell_formula_units_Z 16
_cell_length_a 12.423075
_cell_length_b 14.815157
_cell_length_c 7.937448
_cell_angle_alpha 76.249211
_cell_angle_beta 84.690008
_cell_angle_gamma 31.694590
_cell_volume 728.108467
_symmetry_space_group_name_H-M "P -1"
_symmetry_group_IT_number 2
_symmetry_cell_setting 'triclinic'
loop_
_space_group_symop_operation_xyz
x,y,z
-x,-y,-z
loop_
_atom_site_type_symbol
_atom_site_label
_atom_site_fract_x
_atom_site_fract_y
_atom_site_fract_z
Si Si1 0.051951 0.562669 0.897199
Si Si2 0.669866 0.883277 0.275623
Si Si3 0.102349 0.024226 0.483788
Si Si4 0.945120 0.263904 0.703301
Si Si5 0.910644 0.859153 0.917905
Si Si6 0.412212 0.334080 0.430736
Si Si7 0.692822 0.767649 0.662590
Si Si8 0.432435 0.218396 0.831470
O O1 0.300230 0.380094 0.906526
O O2 0.995273 0.692301 0.959890
O O3 0.907829 0.667575 0.702840
O O4 0.000000 0.500000 0.000000
O O5 0.607704 0.866822 0.454023
O O6 0.668801 0.810834 0.154048
O O7 0.889732 0.773044 0.304791
O O8 0.468438 0.101060 0.212617
O O9 0.063304 0.101146 0.273095
O O10 0.983496 0.169634 0.580507
O O11 0.344850 0.833547 0.585356
O O12 0.000000 0.000000 0.500000
O O13 0.709325 0.478227 0.629523
O O14 0.966472 0.192271 0.911399
O O15 0.670804 0.029684 0.939763
O O16 0.287223 0.359040 0.305876
O O17 0.419771 0.284715 0.633640
#
# Coordination Sequence:
#
# PCOD8039053 Si02
#       8
#     2   2   2   2   2   2   2   2
#     4  12  23  33  55  91 139 175 208 249 300 369
#     4  10  18  32  57  85 124 175 207 246 298 363
#     4  11  26  49  71  91 122 162 212 280 338 380
#     4  12  24  40  68  93 127 165 210 263 327 376
#     4  11  25  42  64  98 131 167 218 261 312 384
#     4  10  21  40  64  94 122 167 217 261 319 385
#     4  10  18  32  54  85 128 169 212 244 293 368
#     4  10  21  36  58  88 136 180 213 251 302 368
#
# _framework density 21.97475
#
# number of rings (size 3 to 8) (size 9 to 14) (size 15 to 20)
#    0.000    1.250    2.500    4.500    1.750    5.000 
#    0.000    0.625    0.000    0.000    0.000    0.000 
#    0.000    0.000    0.000    0.000    0.000    0.000 
#
# Total GULP energy -198263.528468 kJ/mol
# GULP energy per Si atom -12391.470529 kJ/mol
# Density = 2.192473 g / cm^3
# Si number density = 21.974750 Si / 1000 Ang^3
#
#
#
# Elastic Constant Matrix: (Units=GPa)
#
#
# Indices 1 2 3 4 5 6 
#
# 1 74.9311 23.4117 18.6099 4.8135 -1.7978 11.8839
# 2 23.4117 170.5485 39.2609 -3.7285 1.9486 21.5043
# 3 18.6099 39.2609 64.7061 2.8073 2.4514 11.7523
# 4 4.8135 -3.7285 2.8073 30.4581 1.9257 -0.9426
# 5 -1.7978 1.9486 2.4514 1.9257 18.5329 1.6128
# 6 11.8839 21.5043 11.7523 -0.9426 1.6128 16.5192
#
#
#
# Elastic Compliance Matrix: (Units=1/GPa)
#
#
# Indices 1 2 3 4 5 6 
#
# 1 0.015883 -0.000503 -0.002545 -0.002821 0.003043 -0.009418
# 2 -0.000503 0.007602 -0.003211 0.001078 0.000091 -0.007197
# 3 -0.002545 -0.003211 0.019730 -0.001954 -0.001622 -0.007979
# 4 -0.002821 0.001078 -0.001954 0.033980 -0.004038 0.004350
# 5 0.003043 0.000091 -0.001622 -0.004038 0.055470 -0.006800
# 6 -0.009418 -0.007197 -0.007979 0.004350 -0.006800 0.083268
#
#
# Mechanical properties :
#
#
# Convention : Reuss Voigt Hill
#
# Bulk Modulus (GPa) = 32.57683 52.52786 42.55235
# Shear Modulus (GPa) = 20.94838 28.36225 24.65532
#
# Velocity S-wave (km/s) = 3.09089 3.59649 3.35324
# Velocity P-wave (km/s) = 5.25310 6.41888 5.86502
#
# Compressibility (1/GPa) = 0.03069666
#
# Stress axis : x y z
#
# Youngs Moduli (GPa) = 62.96087 131.55175 50.68441
#
# Poissons Ratio (x) = 0.06621 0.12899
# Poissons Ratio (y) = 0.03169 0.16273
# Poissons Ratio (z) = 0.16023 0.42237
#
# Static dielectric constant tensor:
#      x y z
#    x 3.407910 0.178190 -0.121700 
#    y 0.178190 4.944640 0.112840 
#    z -0.121700 0.112840 3.859630 
# 
# 
# High freq. dielectric constant tensor:
#      x y z
#    x 1.804630 0.012040 -0.001740 
#    y 0.012040 1.886740 0.000230 
#    z -0.001740 0.000230 1.884480 
# 
# From -- ./inp_files/272901.got.cif
#   From: 2010.06.25/outbox.cif.g09.slc.cpg/sg2_137_cif.got.tgz:272901.got - 2010.06.27 13:26:56.
