data_PCOD8039446
_publ_section_title
;
Structure prediction by ZEFSAII (Michael W. Deem and Ramdas Pophale) SiO2 
 PCOD8039446
Probable space group: P -1
;
_chemical_formula_sum "Si O2"
_cell_formula_units_Z 16
_cell_length_a 11.761926
_cell_length_b 21.767156
_cell_length_c 7.283291
_cell_angle_alpha 46.911576
_cell_angle_beta 54.570441
_cell_angle_gamma 30.408314
_cell_volume 689.055315
_symmetry_space_group_name_H-M "P -1"
_symmetry_group_IT_number 2
_symmetry_cell_setting 'triclinic'
loop_
_space_group_symop_operation_xyz
x,y,z
-x,-y,-z
loop_
_atom_site_type_symbol
_atom_site_label
_atom_site_fract_x
_atom_site_fract_y
_atom_site_fract_z
Si Si1 0.797360 0.373586 0.603920
Si Si2 0.756591 0.763097 0.468933
Si Si3 0.468189 0.330031 0.792020
Si Si4 0.281167 0.399645 0.224598
Si Si5 0.644395 0.948805 0.647028
Si Si6 0.119781 0.777401 0.495178
Si Si7 0.622429 0.360199 0.110630
Si Si8 0.201634 0.301283 0.012184
O O1 0.638543 0.529793 0.452087
O O2 0.823469 0.335070 0.443869
O O3 0.030422 0.279255 0.687520
O O4 0.697499 0.339126 0.872234
O O5 0.760136 0.677267 0.515322
O O6 0.801887 0.714693 0.735553
O O7 0.522754 0.922539 0.322194
O O8 0.738169 0.211699 0.746674
O O9 0.412205 0.334392 0.042985
O O10 0.368464 0.301284 0.817986
O O11 0.448444 0.365024 0.281784
O O12 0.047430 0.558754 0.106385
O O13 0.724890 0.819893 0.915551
O O14 0.849410 0.913963 0.467091
O O15 0.500000 0.000000 0.500000
O O16 0.172471 0.748629 0.720490
O O17 0.500000 0.500000 0.000000
#
# Coordination Sequence:
#
# PCOD8039446 Si02
#       8
#     2   2   2   2   2   2   2   2
#     4  12  20  40  65  92 129 169 204 258 328 365
#     4  10  20  38  67  91 126 169 215 257 314 373
#     4  11  19  34  60  93 123 163 204 257 320 364
#     4  11  20  38  62  96 127 165 208 264 314 374
#     4  10  20  39  65  92 123 171 215 256 306 378
#     4  12  23  40  61  94 131 166 207 264 312 379
#     4  12  25  36  61  99 133 162 209 259 319 379
#     4  10  18  33  61  96 124 160 216 260 308 373
#
# _framework density 23.220199000000001
#
# number of rings (size 3 to 8) (size 9 to 14) (size 15 to 20)
#    0.000    1.000    7.500    2.625    0.000    0.000 
#    0.000   11.875    0.000    0.000    0.000    0.000 
#    0.000    0.000    0.000    0.000    0.000    0.000 
#
# Total GULP energy -198293.024500 kJ/mol
# GULP energy per Si atom -12393.314031 kJ/mol
# Density = 2.316735 g / cm^3
# Si number density = 23.220199 Si / 1000 Ang^3
#
#
#
# Elastic Constant Matrix: (Units=GPa)
#
#
# Indices 1 2 3 4 5 6 
#
# 1 132.9170 44.2099 18.3485 -7.0146 -25.1090 -28.5801
# 2 44.2099 104.0423 13.7232 -19.6309 -15.3769 -32.6985
# 3 18.3485 13.7232 41.9482 -8.6230 -16.7217 -5.3616
# 4 -7.0146 -19.6309 -8.6230 30.2631 -1.7651 -11.8393
# 5 -25.1090 -15.3769 -16.7217 -1.7651 35.8468 6.4755
# 6 -28.5801 -32.6985 -5.3616 -11.8393 6.4755 46.6284
#
#
#
# Elastic Compliance Matrix: (Units=1/GPa)
#
#
# Indices 1 2 3 4 5 6 
#
# 1 0.010539 -0.000638 -0.000151 0.004836 0.006125 0.006372
# 2 -0.000638 0.020818 0.003636 0.022367 0.007809 0.019220
# 3 -0.000151 0.003636 0.033607 0.016030 0.016456 0.008106
# 4 0.004836 0.022367 0.016030 0.068091 0.017425 0.035361
# 5 0.006125 0.007809 0.016456 0.017425 0.042324 0.009669
# 6 0.006372 0.019220 0.008106 0.035361 0.009669 0.047398
#
#
# Mechanical properties :
#
#
# Convention : Reuss Voigt Hill
#
# Bulk Modulus (GPa) = 14.15287 47.94119 31.04703
# Shear Modulus (GPa) = 20.77837 36.05604 28.41720
#
# Velocity S-wave (km/s) = 2.99463 3.94482 3.50210
# Velocity P-wave (km/s) = 4.25034 6.43739 5.45460
#
# Compressibility (1/GPa) = 0.07065702
#
# Stress axis : x y z
#
# Youngs Moduli (GPa) = 94.88576 48.03579 29.75614
#
# Poissons Ratio (x) = 0.03064 0.00449
# Poissons Ratio (y) = 0.06052 -0.10818
# Poissons Ratio (z) = 0.01432 -0.17464
#
# Static dielectric constant tensor:
#      x y z
#    x 4.407140 -0.129260 -0.547030 
#    y -0.129260 4.748170 0.672600 
#    z -0.547030 0.672600 6.364680 
# 
# 
# High freq. dielectric constant tensor:
#      x y z
#    x 1.933310 -0.019230 -0.017320 
#    y -0.019230 1.901620 0.019420 
#    z -0.017320 0.019420 1.890460 
# 
# From -- ./inp_files/239830.got.cif
#   From: 2010.06.25/outbox.cif.g09.slc.cpg/sg2_120_cif.got.tgz:239830.got - 2010.06.27 13:26:56.
