data_PCOD8039705
_publ_section_title
;
Structure prediction by ZEFSAII (Michael W. Deem and Ramdas Pophale) SiO2 
 PCOD8039705
Probable space group: P -1
;
_chemical_formula_sum "Si O2"
_cell_formula_units_Z 16
_cell_length_a 18.445406
_cell_length_b 9.257318
_cell_length_c 10.130344
_cell_angle_alpha 131.449936
_cell_angle_beta 118.005894
_cell_angle_gamma 38.351607
_cell_volume 799.909150
_symmetry_space_group_name_H-M "P -1"
_symmetry_group_IT_number 2
_symmetry_cell_setting 'triclinic'
loop_
_space_group_symop_operation_xyz
x,y,z
-x,-y,-z
loop_
_atom_site_type_symbol
_atom_site_label
_atom_site_fract_x
_atom_site_fract_y
_atom_site_fract_z
Si Si1 0.073516 0.886153 0.298397
Si Si2 0.186096 0.337101 0.970795
Si Si3 0.782288 0.360050 0.970773
Si Si4 0.383864 0.683060 0.173766
Si Si5 0.819672 0.726259 0.535258
Si Si6 0.944162 0.676532 0.356690
Si Si7 0.354575 0.749723 0.883982
Si Si8 0.184970 0.698568 0.741957
O O1 0.122695 0.889184 0.202638
O O2 0.090927 0.034326 0.505842
O O3 0.137313 0.569884 0.183676
O O4 0.937390 0.061713 0.289647
O O5 0.084733 0.371463 0.839455
O O6 0.288945 0.041000 0.941533
O O7 0.238872 0.379105 0.922197
O O8 0.654513 0.473284 0.927012
O O9 0.839322 0.220795 0.076222
O O10 0.517657 0.486481 0.217664
O O11 0.295611 0.956954 0.349050
O O12 0.371342 0.765990 0.061572
O O13 0.870948 0.691011 0.415294
O O14 0.770593 0.592115 0.414163
O O15 0.918095 0.583163 0.648209
O O16 0.282233 0.676807 0.750907
#
# Coordination Sequence:
#
# PCOD8039705 Si02
#       8
#     2   2   2   2   2   2   2   2
#     4   9  19  33  57  88 115 142 187 236 286 333
#     4  10  21  37  58  87 119 147 182 242 295 326
#     4   9  18  32  60  83 107 147 193 234 280 326
#     4  10  21  40  61  76 111 156 200 230 270 343
#     4  10  18  34  60  86 111 146 189 240 279 331
#     4  10  19  33  59  96 114 136 187 243 293 335
#     4  10  24  40  53  81 115 159 194 222 280 350
#     4  10  19  34  56  83 117 148 189 229 278 352
#
# _framework density 20.002271
#
# number of rings (size 3 to 8) (size 9 to 14) (size 15 to 20)
#    0.750    1.500    2.500    0.375    3.500    1.500 
#    2.250    1.875    0.000    0.000    0.000    0.000 
#    0.000    0.000    0.000    0.000    0.000    0.000 
#
# Total GULP energy -198228.414033 kJ/mol
# GULP energy per Si atom -12389.275877 kJ/mol
# Density = 1.995675 g / cm^3
# Si number density = 20.002271 Si / 1000 Ang^3
#
#
#
# Elastic Constant Matrix: (Units=GPa)
#
#
# Indices 1 2 3 4 5 6 
#
# 1 77.1623 32.2360 26.8957 7.6724 29.9835 -16.9633
# 2 32.2360 92.5148 34.9559 22.1609 20.5801 -7.0750
# 3 26.8957 34.9559 76.8513 15.0929 28.3563 1.0121
# 4 7.6724 22.1609 15.0929 19.5920 9.5893 1.9287
# 5 29.9835 20.5801 28.3563 9.5893 20.0830 3.4850
# 6 -16.9633 -7.0750 1.0121 1.9287 3.4850 22.6469
#
#
#
# Elastic Compliance Matrix: (Units=1/GPa)
#
#
# Indices 1 2 3 4 5 6 
#
# 1 -0.410828 -0.018475 -0.212213 -0.136608 1.076644 -0.458058
# 2 -0.018475 0.017111 -0.010882 -0.020897 0.037472 -0.011994
# 3 -0.212213 -0.010882 -0.081702 -0.072430 0.518235 -0.232283
# 4 -0.136608 -0.020897 -0.072430 0.033644 0.339461 -0.160719
# 5 1.076644 0.037472 0.518235 0.339461 -2.694728 1.180758
# 6 -0.458058 -0.011994 -0.232283 -0.160719 1.180758 -0.460325
#
#
# Mechanical properties :
#
#
# Convention : Reuss Voigt Hill
#
# Bulk Modulus (GPa) = -1.04323 48.30039 23.62858
# Shear Modulus (GPa) = -1.45636 22.62711 10.58537
#
# Velocity S-wave (km/s) = -0.85421 3.36702 2.30295
# Velocity P-wave (km/s) = 1.22295 6.27022 4.34857
#
# Compressibility (1/GPa) = -0.95855943
#
# Stress axis : x y z
#
# Youngs Moduli (GPa) = -2.43411 58.44303 -12.23955
#
# Poissons Ratio (x) = 1.07974 -2.59739
# Poissons Ratio (y) = -0.04497 -0.13318
# Poissons Ratio (z) = -0.51655 0.63595
#
# Static dielectric constant tensor:
#      x y z
#    x 3.755150 -0.058750 0.299810 
#    y -0.058750 3.360850 0.040540 
#    z 0.299810 0.040540 3.682880 
# 
# 
# High freq. dielectric constant tensor:
#      x y z
#    x 1.784460 0.005460 0.019600 
#    y 0.005460 1.751080 0.008360 
#    z 0.019600 0.008360 1.774730 
# 
# From -- ./inp_files/461632.got.cif
#   From: 2010.06.25/outbox.cif.g09.slc.cpg/sg2_231_cif.got.tgz:461632.got - 2010.06.27 13:26:56.
