data_PCOD8039977
_publ_section_title
;
Structure prediction by ZEFSAII (Michael W. Deem and Ramdas Pophale) SiO2 
 PCOD8039977
Probable space group: P -1
;
_chemical_formula_sum "Si O2"
_cell_formula_units_Z 16
_cell_length_a 11.426293
_cell_length_b 11.277900
_cell_length_c 9.698404
_cell_angle_alpha 71.438580
_cell_angle_beta 93.443685
_cell_angle_gamma 143.721735
_cell_volume 656.592726
_symmetry_space_group_name_H-M "P -1"
_symmetry_group_IT_number 2
_symmetry_cell_setting 'triclinic'
loop_
_space_group_symop_operation_xyz
x,y,z
-x,-y,-z
loop_
_atom_site_type_symbol
_atom_site_label
_atom_site_fract_x
_atom_site_fract_y
_atom_site_fract_z
Si Si1 0.196266 0.546842 0.756228
Si Si2 0.759572 0.092161 0.004124
Si Si3 0.340755 0.644193 0.034152
Si Si4 0.882351 0.981921 0.388690
Si Si5 0.898710 0.277824 0.240228
Si Si6 0.526514 0.403044 0.367391
Si Si7 0.712673 0.685513 0.852421
Si Si8 0.228240 0.180093 0.897443
O O1 0.202800 0.703194 0.679026
O O2 0.337658 0.606051 0.625813
O O3 0.299024 0.594808 0.888110
O O4 0.951622 0.283430 0.839310
O O5 0.534711 0.911428 0.978835
O O6 0.741028 0.932059 0.108840
O O7 0.784984 0.186921 0.115517
O O8 0.366178 0.521967 0.131516
O O9 0.143586 0.532565 0.139957
O O10 0.628775 0.727144 0.461919
O O11 0.884445 0.132528 0.370155
O O12 0.000000 0.000000 0.500000
O O13 0.023267 0.086593 0.219923
O O14 0.369282 0.280268 0.270523
O O15 0.700879 0.668497 0.280817
O O16 0.640237 0.659551 0.012803
O O17 0.000000 0.000000 0.000000
#
# Coordination Sequence:
#
# PCOD8039977 Si02
#       8
#     2   2   2   2   2   2   2   2
#     4  11  22  36  56  88 124 154 197 241 290 356
#     4  11  21  34  61  93 119 155 195 244 296 344
#     4  10  18  35  60  86 122 155 190 245 295 343
#     4   9  21  40  63  82 113 158 203 237 297 351
#     4  10  23  40  56  85 121 156 201 242 285 356
#     4  11  20  35  59  87 115 157 194 237 299 344
#     4  10  19  36  58  87 117 151 193 245 293 346
#     4  12  19  32  58  91 122 141 191 251 297 340
#
# _framework density 24.368224999999999
#
# number of rings (size 3 to 8) (size 9 to 14) (size 15 to 20)
#    0.000    1.500    3.750    4.125    0.000    2.500 
#    0.000    2.500    0.000    0.000    0.000    7.875 
#    0.000    0.000    0.000    0.000    0.000    0.000 
#
# Total GULP energy -198230.170621 kJ/mol
# GULP energy per Si atom -12389.385664 kJ/mol
# Density = 2.431276 g / cm^3
# Si number density = 24.368225 Si / 1000 Ang^3
#
#
#
# Elastic Constant Matrix: (Units=GPa)
#
#
# Indices 1 2 3 4 5 6 
#
# 1 107.9398 13.7242 37.9112 -16.2460 -9.1205 -18.9259
# 2 13.7242 104.9274 25.1031 -28.7706 -16.1592 18.6782
# 3 37.9112 25.1031 90.5011 -25.2421 -20.6087 -3.0093
# 4 -16.2460 -28.7706 -25.2421 40.7551 7.4956 -5.8290
# 5 -9.1205 -16.1592 -20.6087 7.4956 44.7020 -4.7642
# 6 -18.9259 18.6782 -3.0093 -5.8290 -4.7642 37.2055
#
#
#
# Elastic Compliance Matrix: (Units=1/GPa)
#
#
# Indices 1 2 3 4 5 6 
#
# 1 0.012440 -0.001145 -0.003737 0.002725 0.000703 0.007117
# 2 -0.001145 0.013238 -0.000886 0.007069 0.002330 -0.005894
# 3 -0.003737 -0.000886 0.016115 0.007121 0.005328 0.001646
# 4 0.002725 0.007069 0.007121 0.035444 0.000886 0.004080
# 5 0.000703 0.002330 0.005328 0.000886 0.025993 0.003086
# 6 0.007117 -0.005894 0.001646 0.004080 0.003086 0.034625
#
#
# Mechanical properties :
#
#
# Convention : Reuss Voigt Hill
#
# Bulk Modulus (GPa) = 33.04945 50.76059 41.90502
# Shear Modulus (GPa) = 31.35251 39.64115 35.49683
#
# Velocity S-wave (km/s) = 3.59083 4.03768 3.82079
# Velocity P-wave (km/s) = 5.54834 6.52787 6.05793
#
# Compressibility (1/GPa) = 0.03025769
#
# Stress axis : x y z
#
# Youngs Moduli (GPa) = 80.38640 75.53757 62.05410
#
# Poissons Ratio (x) = 0.08646 0.23188
# Poissons Ratio (y) = 0.09201 0.05501
# Poissons Ratio (z) = 0.30039 0.06696
#
# Static dielectric constant tensor:
#      x y z
#    x 4.516130 0.357140 -0.208220 
#    y 0.357140 5.513880 -0.066340 
#    z -0.208220 -0.066340 4.505130 
# 
# 
# High freq. dielectric constant tensor:
#      x y z
#    x 1.992210 0.012900 -0.016790 
#    y 0.012900 1.974450 -0.033510 
#    z -0.016790 -0.033510 1.934060 
# 
# From -- ./inp_files/423468.got.cif
#   From: 2010.06.25/outbox.cif.g09.slc.cpg/sg2_212_cif.got.tgz:423468.got - 2010.06.27 13:26:56.
