data_PCOD8039485
_publ_section_title
;
Structure prediction by ZEFSAII (Michael W. Deem and Ramdas Pophale) SiO2 
 PCOD8039485
Probable space group: P -1
;
_chemical_formula_sum "Si O2"
_cell_formula_units_Z 16
_cell_length_a 11.728282
_cell_length_b 11.826046
_cell_length_c 15.099577
_cell_angle_alpha 29.114539
_cell_angle_beta 69.067893
_cell_angle_gamma 61.695586
_cell_volume 889.192841
_symmetry_space_group_name_H-M "P -1"
_symmetry_group_IT_number 2
_symmetry_cell_setting 'triclinic'
loop_
_space_group_symop_operation_xyz
x,y,z
-x,-y,-z
loop_
_atom_site_type_symbol
_atom_site_label
_atom_site_fract_x
_atom_site_fract_y
_atom_site_fract_z
Si Si1 0.852891 0.687183 0.417249
Si Si2 0.442766 0.030150 0.133719
Si Si3 0.609169 0.488699 0.088085
Si Si4 0.584694 0.706657 0.478927
Si Si5 0.668497 0.526340 0.851528
Si Si6 0.683426 0.926771 0.450318
Si Si7 0.850129 0.082913 0.006203
Si Si8 0.636516 0.171452 0.867886
O O1 0.740622 0.573039 0.502412
O O2 0.824450 0.799969 0.448636
O O3 0.000000 0.500000 0.500000
O O4 0.823780 0.897359 0.208432
O O5 0.490618 0.845089 0.330698
O O6 0.350113 0.930879 0.166730
O O7 0.362576 0.316651 0.987070
O O8 0.567307 0.022386 0.047843
O O9 0.452284 0.564762 0.074246
O O10 0.668760 0.202164 0.297200
O O11 0.681379 0.519138 0.957757
O O12 0.551433 0.470870 0.686365
O O13 0.574467 0.915091 0.415396
O O14 0.656258 0.796926 0.634672
O O15 0.797323 0.348313 0.887838
O O16 0.779040 0.104755 0.916498
O O17 0.000000 0.000000 0.000000
#
# Coordination Sequence:
#
# PCOD8039485 Si02
#       8
#     2   2   2   2   2   2   2   2
#     4  10  19  33  53  85 113 140 178 234 282 325
#     4  11  22  35  54  77 120 153 181 227 265 348
#     4  11  20  33  51  79 118 145 182 225 278 341
#     4  10  18  34  52  79 114 139 189 227 274 324
#     4  11  19  33  52  83 109 144 182 232 284 317
#     4  10  19  31  53  79 114 140 184 232 279 327
#     4  12  20  37  59  85 113 140 186 237 283 324
#     4  11  21  37  54  81 113 149 191 221 280 324
#
# _framework density 17.993846000000001
#
# number of rings (size 3 to 8) (size 9 to 14) (size 15 to 20)
#    0.750    0.500    5.000    3.750    0.000    1.000 
#    0.000    0.000    0.000    0.750    0.000    1.750 
#    0.000    0.000    0.000    0.000    0.000    0.000 
#
# Total GULP energy -198222.554542 kJ/mol
# GULP energy per Si atom -12388.909659 kJ/mol
# Density = 1.795289 g / cm^3
# Si number density = 17.993846 Si / 1000 Ang^3
#
#
#
# Elastic Constant Matrix: (Units=GPa)
#
#
# Indices 1 2 3 4 5 6 
#
# 1 52.9401 34.1921 29.5664 -8.5611 8.6252 5.8937
# 2 34.1921 78.8210 21.4304 -15.5388 -0.3261 -4.0207
# 3 29.5664 21.4304 119.7959 6.9953 5.1283 11.9128
# 4 -8.5611 -15.5388 6.9953 28.6707 -1.2226 -6.9779
# 5 8.6252 -0.3261 5.1283 -1.2226 16.5453 -2.8213
# 6 5.8937 -4.0207 11.9128 -6.9779 -2.8213 26.0795
#
#
#
# Elastic Compliance Matrix: (Units=1/GPa)
#
#
# Indices 1 2 3 4 5 6 
#
# 1 0.034871 -0.014522 -0.004207 0.000290 -0.018872 -0.010162
# 2 -0.014522 0.022995 -0.003060 0.012524 0.012095 0.012884
# 3 -0.004207 -0.003060 0.011194 -0.007472 -0.003077 -0.006966
# 4 0.000290 0.012524 -0.007472 0.048672 0.009300 0.019308
# 5 -0.018872 0.012095 -0.003077 0.009300 0.075255 0.018165
# 6 -0.010162 0.012884 -0.006966 0.019308 0.018165 0.052940
#
#
# Mechanical properties :
#
#
# Convention : Reuss Voigt Hill
#
# Bulk Modulus (GPa) = 39.24342 46.88165 43.06253
# Shear Modulus (GPa) = 16.77854 25.35032 21.06443
#
# Velocity S-wave (km/s) = 3.05693 3.75751 3.42518
# Velocity P-wave (km/s) = 5.85803 6.70344 6.29494
#
# Compressibility (1/GPa) = 0.02548198
#
# Stress axis : x y z
#
# Youngs Moduli (GPa) = 28.67693 43.48797 89.33309
#
# Poissons Ratio (x) = 0.63154 0.37583
# Poissons Ratio (y) = 0.41645 0.27333
# Poissons Ratio (z) = 0.12065 0.13306
#
# Static dielectric constant tensor:
#      x y z
#    x 2.816320 0.316760 -0.056470 
#    y 0.316760 3.173120 0.162730 
#    z -0.056470 0.162730 3.585590 
# 
# 
# High freq. dielectric constant tensor:
#      x y z
#    x 1.635820 0.004430 -0.005100 
#    y 0.004430 1.694600 0.010630 
#    z -0.005100 0.010630 1.723720 
# 
# From -- ./inp_files/518561.got.cif
#   From: 2010.06.25/outbox.cif.g09.slc.cpg/sg2_260_cif.got.tgz:518561.got - 2010.06.27 13:26:56.
