data_PCOD8039233
_publ_section_title
;
Structure prediction by ZEFSAII (Michael W. Deem and Ramdas Pophale) SiO2 
 PCOD8039233
Probable space group: P -1
;
_chemical_formula_sum "Si O2"
_cell_formula_units_Z 14
_cell_length_a 8.861765
_cell_length_b 15.042865
_cell_length_c 9.181491
_cell_angle_alpha 73.466790
_cell_angle_beta 86.518866
_cell_angle_gamma 40.689024
_cell_volume 741.050918
_symmetry_space_group_name_H-M "P -1"
_symmetry_group_IT_number 2
_symmetry_cell_setting 'triclinic'
loop_
_space_group_symop_operation_xyz
x,y,z
-x,-y,-z
loop_
_atom_site_type_symbol
_atom_site_label
_atom_site_fract_x
_atom_site_fract_y
_atom_site_fract_z
Si Si1 0.457297 0.369949 0.633464
Si Si2 0.641609 0.620664 0.045957
Si Si3 0.834758 0.692305 0.825154
Si Si4 0.205733 0.674556 0.537431
Si Si5 0.812332 0.903928 0.656090
Si Si6 0.294209 0.744009 0.758592
Si Si7 0.536238 0.775836 0.546645
O O1 0.475952 0.317619 0.817106
O O2 0.251851 0.546110 0.554068
O O3 0.712138 0.296419 0.612121
O O4 0.385183 0.322625 0.549580
O O5 0.879311 0.445142 0.112545
O O6 0.706563 0.694156 0.958217
O O7 0.452113 0.661168 0.932199
O O8 0.749010 0.839394 0.775911
O O9 0.769845 0.681528 0.675376
O O10 0.363412 0.628103 0.694653
O O11 0.927575 0.822395 0.527991
O O12 0.009572 0.870376 0.751458
O O13 0.570453 0.075767 0.570031
O O14 0.335921 0.821473 0.636902
#
# Coordination Sequence:
#
# PCOD8039233 Si02
#       7
#     2   2   2   2   2   2   2
#     4  10  18  33  53  82 108 132 170 230 260 298
#     4  10  19  36  53  80 108 136 178 215 261 311
#     4  10  21  34  55  77 106 147 174 209 255 324
#     4   8  18  32  56  81 104 129 181 221 259 294
#     4  10  18  36  58  79 101 140 183 212 249 323
#     4   8  18  33  58  76 100 140 178 212 252 313
#     4  10  20  34  56  79 108 138 176 211 266 309
#
# _framework density 18.892088999999999
#
# number of rings (size 3 to 8) (size 9 to 14) (size 15 to 20)
#    0.857    1.714    1.429    0.857    0.000    2.857 
#    0.000    2.857    0.000    0.000    0.000    0.000 
#    0.000    0.000    0.000    0.000    0.000    0.000 
#
# Total GULP energy -173486.698230 kJ/mol
# GULP energy per Si atom -12391.907016 kJ/mol
# Density = 1.884909 g / cm^3
# Si number density = 18.892089 Si / 1000 Ang^3
#
#
#
# Elastic Constant Matrix: (Units=GPa)
#
#
# Indices 1 2 3 4 5 6 
#
# 1 56.9504 15.0336 46.8665 0.9824 -8.8949 7.9470
# 2 15.0336 68.8798 38.9919 -6.9073 -4.1168 14.9688
# 3 46.8665 38.9919 126.1203 5.2064 -3.5827 5.4828
# 4 0.9824 -6.9073 5.2064 26.4144 -1.0052 -5.0537
# 5 -8.8949 -4.1168 -3.5827 -1.0052 28.0601 -3.8557
# 6 7.9470 14.9688 5.4828 -5.0537 -3.8557 26.8119
#
#
#
# Elastic Compliance Matrix: (Units=1/GPa)
#
#
# Indices 1 2 3 4 5 6 
#
# 1 0.027465 0.001540 -0.010258 0.000551 0.006843 -0.005815
# 2 0.001540 0.020606 -0.006691 0.004901 0.001534 -0.009448
# 3 -0.010258 -0.006691 0.013766 -0.003598 -0.002197 0.002967
# 4 0.000551 0.004901 -0.003598 0.041074 0.002726 0.005970
# 5 0.006843 0.001534 -0.002197 0.002726 0.038343 0.003592
# 6 -0.005815 -0.009448 0.002967 0.005970 0.003592 0.045330
#
#
# Mechanical properties :
#
#
# Convention : Reuss Voigt Hill
#
# Bulk Modulus (GPa) = 32.23701 50.41492 41.32596
# Shear Modulus (GPa) = 21.95476 26.32786 24.14131
#
# Velocity S-wave (km/s) = 3.41268 3.73713 3.57858
# Velocity P-wave (km/s) = 5.71221 6.73537 6.24478
#
# Compressibility (1/GPa) = 0.03102024
#
# Stress axis : x y z
#
# Youngs Moduli (GPa) = 36.41047 48.52985 72.64050
#
# Poissons Ratio (x) = -0.07475 0.74512
# Poissons Ratio (y) = -0.05608 0.48603
# Poissons Ratio (z) = 0.37349 0.32471
#
# Static dielectric constant tensor:
#      x y z
#    x 3.575670 0.092760 -0.137220 
#    y 0.092760 3.060970 0.047040 
#    z -0.137220 0.047040 3.366710 
# 
# 
# High freq. dielectric constant tensor:
#      x y z
#    x 1.743800 0.011380 -0.013870 
#    y 0.011380 1.698420 -0.003860 
#    z -0.013870 -0.003860 1.715920 
# 
# From -- ./inp_files/196175.got.cif
#   From: 2010.06.25/outbox.cif.g09.slc.cpg/sg2_99_cif.got.tgz:196175.got - 2010.06.27 13:26:56.
