data_PCOD8039003
_publ_section_title
;
Structure prediction by ZEFSAII (Michael W. Deem and Ramdas Pophale) SiO2 
 PCOD8039003
Probable space group: P -1
;
_chemical_formula_sum "Si O2"
_cell_formula_units_Z 16
_cell_length_a 13.357533
_cell_length_b 23.481420
_cell_length_c 11.811198
_cell_angle_alpha 144.309211
_cell_angle_beta 54.114393
_cell_angle_gamma 152.071709
_cell_volume 887.525544
_symmetry_space_group_name_H-M "P -1"
_symmetry_group_IT_number 2
_symmetry_cell_setting 'triclinic'
loop_
_space_group_symop_operation_xyz
x,y,z
-x,-y,-z
loop_
_atom_site_type_symbol
_atom_site_label
_atom_site_fract_x
_atom_site_fract_y
_atom_site_fract_z
Si Si1 0.322097 0.481549 0.477846
Si Si2 0.581682 0.374897 0.982264
Si Si3 0.175157 0.956434 0.535756
Si Si4 0.379127 0.441421 0.144466
Si Si5 0.132704 0.178971 0.265148
Si Si6 0.113596 0.702374 0.180263
Si Si7 0.137310 0.192896 0.699240
Si Si8 0.786207 0.434012 0.154975
O O1 0.269666 0.436005 0.305472
O O2 0.175795 0.297707 0.343370
O O3 0.611090 0.679756 0.625534
O O4 0.216271 0.514860 0.639744
O O5 0.858281 0.550190 0.037059
O O6 0.490118 0.422044 0.102412
O O7 0.578832 0.346641 0.073598
O O8 0.407715 0.181814 0.719676
O O9 0.031334 0.896603 0.643888
O O10 0.005849 0.840507 0.350511
O O11 0.266714 0.907082 0.413048
O O12 0.588544 0.641069 0.258822
O O13 0.159221 0.264751 0.920148
O O14 0.000000 0.000000 0.000000
O O15 0.263430 0.716574 0.043313
O O16 0.050150 0.626171 0.228688
O O17 0.000000 0.000000 0.500000
#
# Coordination Sequence:
#
# PCOD8039003 Si02
#       8
#     2   2   2   2   2   2   2   2
#     4  11  19  34  50  75 110 139 163 210 265 314
#     4  10  18  32  52  78 106 136 165 209 258 309
#     4  12  19  34  54  77 107 139 171 213 260 307
#     4  11  21  34  54  78 107 136 171 213 264 312
#     4  11  21  29  50  80 111 137 161 201 272 331
#     4   9  19  35  49  75 107 137 179 209 248 306
#     4  11  22  35  52  78 105 136 178 214 256 310
#     4   9  18  35  51  73 110 139 171 211 249 313
#
# _framework density 18.027650000000001
#
# number of rings (size 3 to 8) (size 9 to 14) (size 15 to 20)
#    0.750    0.750    5.000    3.000    0.000    0.500 
#    0.000    0.000    0.000    0.750    0.000    1.750 
#    0.000    0.000    0.000    0.000    0.000    0.000 
#
# Total GULP energy -198297.051462 kJ/mol
# GULP energy per Si atom -12393.565716 kJ/mol
# Density = 1.798662 g / cm^3
# Si number density = 18.027650 Si / 1000 Ang^3
#
#
#
# Elastic Constant Matrix: (Units=GPa)
#
#
# Indices 1 2 3 4 5 6 
#
# 1 39.8040 18.7137 39.5473 -14.8185 -1.1490 -10.3748
# 2 18.7137 55.5135 56.2847 -11.5017 -4.0360 -6.2654
# 3 39.5473 56.2847 150.7634 -17.0339 -9.7775 -6.3084
# 4 -14.8185 -11.5017 -17.0339 42.7189 -2.1280 3.1990
# 5 -1.1490 -4.0360 -9.7775 -2.1280 38.6635 -2.7717
# 6 -10.3748 -6.2654 -6.3084 3.1990 -2.7717 14.3570
#
#
#
# Elastic Compliance Matrix: (Units=1/GPa)
#
#
# Indices 1 2 3 4 5 6 
#
# 1 0.045315 -0.000703 -0.009312 0.009907 0.001356 0.026401
# 2 -0.000703 0.030444 -0.010405 0.003289 0.001260 0.007716
# 3 -0.009312 -0.010405 0.012782 -0.000468 0.001466 -0.005266
# 4 0.009907 0.003289 -0.000468 0.027453 0.002224 0.002701
# 5 0.001356 0.001260 0.001466 0.002224 0.027024 0.006896
# 6 0.026401 0.007716 -0.005266 0.002701 0.006896 0.090514
#
#
# Mechanical properties :
#
#
# Convention : Reuss Voigt Hill
#
# Bulk Modulus (GPa) = 20.96442 52.79695 36.88068
# Shear Modulus (GPa) = 17.22522 27.91689 22.57105
#
# Velocity S-wave (km/s) = 3.09445 3.93944 3.54223
# Velocity P-wave (km/s) = 4.94184 7.07407 6.10182
#
# Compressibility (1/GPa) = 0.04769987
#
# Stress axis : x y z
#
# Youngs Moduli (GPa) = 22.06795 32.84692 78.23456
#
# Poissons Ratio (x) = 0.02310 0.72853
# Poissons Ratio (y) = 0.01552 0.81404
# Poissons Ratio (z) = 0.20550 0.34178
#
# Static dielectric constant tensor:
#      x y z
#    x 3.163790 -0.097560 0.044530 
#    y -0.097560 3.209610 0.057990 
#    z 0.044530 0.057990 3.519270 
# 
# 
# High freq. dielectric constant tensor:
#      x y z
#    x 1.663150 -0.005820 -0.001010 
#    y -0.005820 1.671660 0.011750 
#    z -0.001010 0.011750 1.714610 
# 
# From -- ./inp_files/458123.got.cif
#   From: 2010.06.25/outbox.cif.g09.slc.cpg/sg2_230_cif.got.tgz:458123.got - 2010.06.27 13:26:56.
