data_PCOD8039327
_publ_section_title
;
Structure prediction by ZEFSAII (Michael W. Deem and Ramdas Pophale) SiO2 
 PCOD8039327
Probable space group: P -1
;
_chemical_formula_sum "Si O2"
_cell_formula_units_Z 16
_cell_length_a 23.124420
_cell_length_b 7.170598
_cell_length_c 16.157343
_cell_angle_alpha 96.049312
_cell_angle_beta 162.577627
_cell_angle_gamma 90.877993
_cell_volume 734.819632
_symmetry_space_group_name_H-M "P -1"
_symmetry_group_IT_number 2
_symmetry_cell_setting 'triclinic'
loop_
_space_group_symop_operation_xyz
x,y,z
-x,-y,-z
loop_
_atom_site_type_symbol
_atom_site_label
_atom_site_fract_x
_atom_site_fract_y
_atom_site_fract_z
Si Si1 0.959321 0.113541 0.110388
Si Si2 0.586308 0.674283 0.325165
Si Si3 0.222591 0.555969 0.111805
Si Si4 0.120882 0.654852 0.483439
Si Si5 0.514847 0.658927 0.956301
Si Si6 0.164897 0.727871 0.723333
Si Si7 0.964923 0.805645 0.602937
Si Si8 0.635389 0.699840 0.586098
O O1 0.197450 0.166285 0.410053
O O2 0.934076 0.058885 0.171769
O O3 0.898606 0.305387 0.016464
O O4 0.810529 0.923829 0.846022
O O5 0.529644 0.452193 0.198276
O O6 0.600736 0.647377 0.440720
O O7 0.404755 0.753974 0.059812
O O8 0.420887 0.692534 0.333725
O O9 0.294077 0.469231 0.285482
O O10 0.069857 0.364154 0.839093
O O11 0.342380 0.755273 0.741888
O O12 0.126265 0.787978 0.579220
O O13 0.087591 0.427409 0.455263
O O14 0.500000 0.500000 0.000000
O O15 0.749801 0.832448 0.286038
O O16 0.000000 0.500000 0.500000
O O17 0.121382 0.870254 0.740385
#
# Coordination Sequence:
#
# PCOD8039327 Si02
#       8
#     2   2   2   2   2   2   2   2
#     4  11  21  39  59  82 120 153 186 236 287 335
#     4  12  19  32  55  88 118 146 192 238 280 342
#     4  10  22  41  59  81 112 157 195 232 282 337
#     4   9  15  29  50  79 107 141 182 233 279 327
#     4  10  14  28  50  83 112 141 188 229 282 343
#     4  10  16  25  51  87 113 137 194 235 273 341
#     4   9  16  27  52  86 107 146 186 230 282 333
#     4  11  25  38  57  87 113 154 196 233 279 339
#
# _framework density 21.774051
#
# number of rings (size 3 to 8) (size 9 to 14) (size 15 to 20)
#    0.000    1.750    7.500    3.000    0.000    0.500 
#    0.000    0.000    0.000    3.750    0.000    0.000 
#    0.000    0.000    0.000    0.000    0.000    0.000 
#
# Total GULP energy -198340.406713 kJ/mol
# GULP energy per Si atom -12396.275420 kJ/mol
# Density = 2.172449 g / cm^3
# Si number density = 21.774051 Si / 1000 Ang^3
#
#
#
# Elastic Constant Matrix: (Units=GPa)
#
#
# Indices 1 2 3 4 5 6 
#
# 1 112.0520 16.6924 38.5238 10.0379 -13.5233 -9.1755
# 2 16.6924 25.8173 17.8743 7.3162 3.2668 -7.4315
# 3 38.5238 17.8743 122.0662 -19.0044 5.7901 -1.4016
# 4 10.0379 7.3162 -19.0044 -8.3035 -11.9129 7.8488
# 5 -13.5233 3.2668 5.7901 -11.9129 50.0310 -4.9005
# 6 -9.1755 -7.4315 -1.4016 7.8488 -4.9005 7.4085
#
#
#
# Elastic Compliance Matrix: (Units=1/GPa)
#
#
# Indices 1 2 3 4 5 6 
#
# 1 0.010978 -0.007378 -0.001682 0.005913 0.005361 0.003159
# 2 -0.007378 0.037238 0.000581 0.023999 0.001610 0.003965
# 3 -0.001682 0.000581 0.007546 -0.008344 -0.002667 0.007004
# 4 0.005913 0.023999 -0.008344 -0.022782 0.000916 0.054560
# 5 0.005361 0.001610 -0.002667 0.000916 0.024083 0.022709
# 6 0.003159 0.003965 0.007004 0.054560 0.022709 0.101413
#
#
# Mechanical properties :
#
#
# Convention : Reuss Voigt Hill
#
# Bulk Modulus (GPa) = 25.77009 45.12405 35.44707
# Shear Modulus (GPa) = 26.54393 22.28353 24.41373
#
# Velocity S-wave (km/s) = 3.49530 3.20253 3.35211
# Velocity P-wave (km/s) = 5.30569 5.86888 5.59438
#
# Compressibility (1/GPa) = 0.03880468
#
# Stress axis : x y z
#
# Youngs Moduli (GPa) = 91.09422 26.85409 132.52643
#
# Poissons Ratio (x) = 0.19813 0.22286
# Poissons Ratio (y) = 0.67211 -0.07704
# Poissons Ratio (z) = 0.15318 -0.01561
#
# Static dielectric constant tensor:
#      x y z
#    x 4.528070 -0.271960 0.018530 
#    y -0.271960 3.232880 -0.178530 
#    z 0.018530 -0.178530 4.431010 
# 
# 
# High freq. dielectric constant tensor:
#      x y z
#    x 1.867000 -0.014070 -0.000750 
#    y -0.014070 1.799510 -0.012540 
#    z -0.000750 -0.012540 1.874470 
# 
# From -- ./inp_files/540502.got.cif
#   From: 2010.06.25/outbox.cif.g09.slc.cpg/sg2_271_cif.got.tgz:540502.got - 2010.06.27 13:26:56.
