data_PCOD8039104
_publ_section_title
;
Structure prediction by ZEFSAII (Michael W. Deem and Ramdas Pophale) SiO2 
 PCOD8039104
Probable space group: P -1
;
_chemical_formula_sum "Si O2"
_cell_formula_units_Z 16
_cell_length_a 9.227968
_cell_length_b 9.087632
_cell_length_c 15.636910
_cell_angle_alpha 79.336425
_cell_angle_beta 132.157179
_cell_angle_gamma 72.369577
_cell_volume 773.932795
_symmetry_space_group_name_H-M "P -1"
_symmetry_group_IT_number 2
_symmetry_cell_setting 'triclinic'
loop_
_space_group_symop_operation_xyz
x,y,z
-x,-y,-z
loop_
_atom_site_type_symbol
_atom_site_label
_atom_site_fract_x
_atom_site_fract_y
_atom_site_fract_z
Si Si1 0.355339 0.192158 0.673745
Si Si2 0.128398 0.428080 0.393953
Si Si3 0.518061 0.605240 0.574815
Si Si4 0.261213 0.215131 0.107381
Si Si5 0.390921 0.402500 0.820454
Si Si6 0.284284 0.524987 0.154852
Si Si7 0.991645 0.812216 0.351626
Si Si8 0.457939 0.870586 0.944103
O O1 0.281666 0.326705 0.550542
O O2 0.415208 0.269131 0.769854
O O3 0.134211 0.179017 0.609704
O O4 0.592448 0.987588 0.770297
O O5 0.309962 0.333666 0.394540
O O6 0.892159 0.428802 0.293202
O O7 0.030640 0.642304 0.331644
O O8 0.500000 0.500000 0.500000
O O9 0.629856 0.473086 0.715697
O O10 0.246679 0.781422 0.472316
O O11 0.288094 0.344642 0.166312
O O12 0.354605 0.216500 0.050289
O O13 0.983045 0.289167 0.984004
O O14 0.534606 0.486013 0.841818
O O15 0.505891 0.291117 0.965843
O O16 0.817666 0.004366 0.211804
O O17 0.500000 0.000000 0.000000
#
# Coordination Sequence:
#
# PCOD8039104 Si02
#       8
#     2   2   2   2   2   2   2   2
#     4  10  19  35  57  86 116 152 201 248 290 350
#     4  10  18  32  56  85 118 151 197 248 294 341
#     4  10  20  34  58  86 115 155 198 245 288 348
#     4  10  24  42  59  84 127 165 187 247 310 354
#     4  11  20  34  62  90 113 158 204 250 283 355
#     4  11  24  41  59  87 125 160 199 240 307 362
#     4   9  18  32  55  87 118 149 188 247 302 339
#     4  11  19  38  62  89 120 152 200 246 294 346
#
# _framework density 20.673628000000001
#
# number of rings (size 3 to 8) (size 9 to 14) (size 15 to 20)
#    0.000    1.750    3.750    4.500    1.750    2.000 
#    0.000    6.250    0.000    0.000    0.000    0.000 
#    0.000    0.000    0.000    0.000    0.000    0.000 
#
# Total GULP energy -198349.879118 kJ/mol
# GULP energy per Si atom -12396.867445 kJ/mol
# Density = 2.062657 g / cm^3
# Si number density = 20.673628 Si / 1000 Ang^3
#
#
#
# Elastic Constant Matrix: (Units=GPa)
#
#
# Indices 1 2 3 4 5 6 
#
# 1 121.4608 0.0821 62.5865 -2.8604 22.7285 -0.0680
# 2 0.0821 30.9797 12.8250 -2.9325 10.1542 -4.1876
# 3 62.5865 12.8250 114.0206 -12.8937 15.1900 5.0919
# 4 -2.8604 -2.9325 -12.8937 18.8552 -7.5706 0.6472
# 5 22.7285 10.1542 15.1900 -7.5706 52.6752 -4.1651
# 6 -0.0680 -4.1876 5.0919 0.6472 -4.1651 18.9450
#
#
#
# Elastic Compliance Matrix: (Units=1/GPa)
#
#
# Indices 1 2 3 4 5 6 
#
# 1 0.012913 0.004523 -0.007572 -0.004491 -0.004732 0.002194
# 2 0.004523 0.038261 -0.006339 -0.000776 -0.006924 0.008682
# 3 -0.007572 -0.006339 0.014708 0.008529 0.001043 -0.005444
# 4 -0.004491 -0.000776 0.008529 0.061471 0.008244 -0.002768
# 5 -0.004732 -0.006924 0.001043 0.008244 0.023486 0.003054
# 6 0.002194 0.008682 -0.005444 -0.002768 0.003054 0.056940
#
#
# Mechanical properties :
#
#
# Convention : Reuss Voigt Hill
#
# Bulk Modulus (GPa) = 21.22898 46.38316 33.80607
# Shear Modulus (GPa) = 20.63913 30.82627 25.73270
#
# Velocity S-wave (km/s) = 3.16307 3.86565 3.53187
# Velocity P-wave (km/s) = 4.86116 6.51222 5.74630
#
# Compressibility (1/GPa) = 0.04710543
#
# Stress axis : x y z
#
# Youngs Moduli (GPa) = 77.44308 26.13613 67.98870
#
# Poissons Ratio (x) = -0.11821 0.51481
# Poissons Ratio (y) = -0.35027 0.43100
# Poissons Ratio (z) = 0.58640 0.16569
#
# Static dielectric constant tensor:
#      x y z
#    x 4.468720 -0.175950 0.322220 
#    y -0.175950 3.269370 -0.185490 
#    z 0.322220 -0.185490 4.097540 
# 
# 
# High freq. dielectric constant tensor:
#      x y z
#    x 1.820140 -0.011650 0.007810 
#    y -0.011650 1.755060 -0.011750 
#    z 0.007810 -0.011750 1.821390 
# 
# From -- ./inp_files/282884.got.cif
#   From: 2010.06.25/outbox.cif.g09.slc.cpg/sg2_142_cif.got.tgz:282884.got - 2010.06.27 13:26:56.
