data_PCOD8039985
_publ_section_title
;
Structure prediction by ZEFSAII (Michael W. Deem and Ramdas Pophale) SiO2 
 PCOD8039985
Probable space group: P -1
;
_chemical_formula_sum "Si O2"
_cell_formula_units_Z 12
_cell_length_a 8.905245
_cell_length_b 12.249200
_cell_length_c 7.270467
_cell_angle_alpha 68.241541
_cell_angle_beta 126.298190
_cell_angle_gamma 88.190855
_cell_volume 559.265323
_symmetry_space_group_name_H-M "P -1"
_symmetry_group_IT_number 2
_symmetry_cell_setting 'triclinic'
loop_
_space_group_symop_operation_xyz
x,y,z
-x,-y,-z
loop_
_atom_site_type_symbol
_atom_site_label
_atom_site_fract_x
_atom_site_fract_y
_atom_site_fract_z
Si Si1 0.371367 0.014588 0.579386
Si Si2 0.021545 0.879393 0.970239
Si Si3 0.084821 0.670427 0.428085
Si Si4 0.532933 0.210338 0.678795
Si Si5 0.728384 0.606316 0.342874
Si Si6 0.434805 0.744549 0.752735
O O1 0.449239 0.096128 0.728736
O O2 0.500000 0.000000 0.500000
O O3 0.400580 0.874637 0.758166
O O4 0.140015 0.087110 0.328284
O O5 0.985152 0.773977 0.137786
O O6 0.238928 0.831064 0.067932
O O7 0.000000 0.000000 0.000000
O O8 0.201383 0.542042 0.486874
O O9 0.233561 0.712327 0.638613
O O10 0.916067 0.653478 0.447267
O O11 0.411581 0.331974 0.627759
O O12 0.509673 0.246128 0.424912
O O13 0.612139 0.638254 0.045189
#
# Coordination Sequence:
#
# PCOD8039985 Si02
#       6
#     2   2   2   2   2   2
#     4  10  18  35  60  89 119 154 199 243 298 350
#     4  11  19  38  65  89 119 160 202 245 304 350
#     4  10  22  41  62  86 126 161 197 255 298 357
#     4  10  23  38  62  94 118 162 202 246 298 365
#     4  11  24  41  60  92 124 159 203 244 305 357
#     4  10  21  39  63  85 124 161 197 252 297 355
#
# _framework density 21.456721000000002
#
# number of rings (size 3 to 8) (size 9 to 14) (size 15 to 20)
#    0.000    1.667    5.000    2.500    0.000    4.667 
#    0.000    9.167    0.000    0.000    0.000    0.000 
#    0.000    0.000    0.000    0.000    0.000    0.000 
#
# Total GULP energy -148818.034547 kJ/mol
# GULP energy per Si atom -12401.502879 kJ/mol
# Density = 2.140788 g / cm^3
# Si number density = 21.456721 Si / 1000 Ang^3
#
#
#
# Elastic Constant Matrix: (Units=GPa)
#
#
# Indices 1 2 3 4 5 6 
#
# 1 68.3792 35.5399 26.2979 -4.2626 20.7904 -1.8006
# 2 35.5399 77.3971 20.4460 -16.7643 3.8452 9.3621
# 3 26.2979 20.4460 81.8714 -18.4810 10.4944 1.4062
# 4 -4.2626 -16.7643 -18.4810 40.9062 7.5098 5.7513
# 5 20.7904 3.8452 10.4944 7.5098 27.3723 -7.5644
# 6 -1.8006 9.3621 1.4062 5.7513 -7.5644 37.7322
#
#
#
# Elastic Compliance Matrix: (Units=1/GPa)
#
#
# Indices 1 2 3 4 5 6 
#
# 1 0.026821 -0.010570 -0.003828 -0.000199 -0.017191 0.000629
# 2 -0.010570 0.020186 0.000097 0.007907 0.001195 -0.006482
# 3 -0.003828 0.000097 0.016314 0.008737 -0.006724 -0.003494
# 4 -0.000199 0.007907 0.008737 0.036408 -0.017433 -0.011341
# 5 -0.017191 0.001195 -0.006724 -0.017433 0.060638 0.013947
# 6 0.000629 -0.006482 -0.003494 -0.011341 0.013947 0.032796
#
#
# Mechanical properties :
#
#
# Convention : Reuss Voigt Hill
#
# Bulk Modulus (GPa) = 28.80192 43.57948 36.19070
# Shear Modulus (GPa) = 21.42832 30.89308 26.16070
#
# Velocity S-wave (km/s) = 3.16361 3.79857 3.49554
# Velocity P-wave (km/s) = 5.17658 6.29232 5.76152
#
# Compressibility (1/GPa) = 0.03471991
#
# Stress axis : x y z
#
# Youngs Moduli (GPa) = 37.28410 49.54002 61.29877
#
# Poissons Ratio (x) = 0.52363 0.23463
# Poissons Ratio (y) = 0.39409 -0.00596
# Poissons Ratio (z) = 0.14271 -0.00482
#
# Static dielectric constant tensor:
#      x y z
#    x 3.735420 0.492710 0.382450 
#    y 0.492710 4.229960 -0.048520 
#    z 0.382450 -0.048520 4.087140 
# 
# 
# High freq. dielectric constant tensor:
#      x y z
#    x 1.825990 0.025070 0.021550 
#    y 0.025070 1.847060 -0.010510 
#    z 0.021550 -0.010510 1.843360 
# 
# From -- ./inp_files/164477.got.cif
#   From: 2010.06.25/outbox.cif.g09.slc.cpg/sg2_83_cif.got.tgz:164477.got - 2010.06.27 13:26:56.
