data_PCOD8039019
_publ_section_title
;
Structure prediction by ZEFSAII (Michael W. Deem and Ramdas Pophale) SiO2 
 PCOD8039019
Probable space group: P -1
;
_chemical_formula_sum "Si O2"
_cell_formula_units_Z 16
_cell_length_a 16.729052
_cell_length_b 13.749528
_cell_length_c 9.078613
_cell_angle_alpha 118.598395
_cell_angle_beta 100.112659
_cell_angle_gamma 30.721234
_cell_volume 796.628274
_symmetry_space_group_name_H-M "P -1"
_symmetry_group_IT_number 2
_symmetry_cell_setting 'triclinic'
loop_
_space_group_symop_operation_xyz
x,y,z
-x,-y,-z
loop_
_atom_site_type_symbol
_atom_site_label
_atom_site_fract_x
_atom_site_fract_y
_atom_site_fract_z
Si Si1 0.939030 0.469121 0.238870
Si Si2 0.668878 0.022449 0.054848
Si Si3 0.678096 0.880954 0.229215
Si Si4 0.198943 0.704852 0.849453
Si Si5 0.664554 0.278371 0.280223
Si Si6 0.929284 0.254536 0.901035
Si Si7 0.735976 0.599635 0.508893
Si Si8 0.289942 0.373428 0.139347
O O1 0.822435 0.705092 0.283487
O O2 0.854767 0.548776 0.429560
O O3 0.938072 0.360328 0.062505
O O4 0.151187 0.245391 0.165368
O O5 0.695368 0.972129 0.204207
O O6 0.641197 0.186312 0.134376
O O7 0.496617 0.165778 0.042426
O O8 0.474616 0.121831 0.405189
O O9 0.717215 0.734529 0.021790
O O10 0.345786 0.617952 0.780607
O O11 0.204446 0.596070 0.659484
O O12 0.219673 0.637598 0.976805
O O13 0.000000 0.000000 0.000000
O O14 0.500000 0.500000 0.500000
O O15 0.863604 0.048882 0.259173
O O16 0.849716 0.368101 0.793759
O O17 0.770323 0.569453 0.671265
#
# Coordination Sequence:
#
# PCOD8039019 Si02
#       8
#     2   2   2   2   2   2   2   2
#     4   9  18  32  53  77 100 131 175 213 246 296
#     4  10  19  32  51  75 103 136 169 210 256 298
#     4  10  19  34  53  75 105 140 169 203 253 312
#     4   9  18  35  55  74 100 137 173 209 250 300
#     4  10  18  32  53  78 100 129 174 221 250 286
#     4   8  18  35  54  73 102 137 169 204 255 312
#     4  10  18  32  55  80 101 134 174 208 252 310
#     4  10  20  36  53  76 108 138 164 204 260 316
#
# _framework density 20.084648999999999
#
# number of rings (size 3 to 8) (size 9 to 14) (size 15 to 20)
#    0.000    2.500    0.000    4.500    0.000    0.000 
#    0.000   10.000    0.000    6.000    0.000    0.000 
#    0.000    0.000    0.000    0.000    0.000    0.000 
#
# Total GULP energy -198310.719579 kJ/mol
# GULP energy per Si atom -12394.419974 kJ/mol
# Density = 2.003894 g / cm^3
# Si number density = 20.084649 Si / 1000 Ang^3
#
#
#
# Elastic Constant Matrix: (Units=GPa)
#
#
# Indices 1 2 3 4 5 6 
#
# 1 72.2219 15.6582 16.5094 -9.4418 -24.5510 10.8022
# 2 15.6582 94.9239 36.6128 -1.4562 -14.8773 6.8018
# 3 16.5094 36.6128 97.5277 8.9282 -22.4713 -1.9119
# 4 -9.4418 -1.4562 8.9282 25.4559 -1.1512 -2.2290
# 5 -24.5510 -14.8773 -22.4713 -1.1512 41.6350 6.0168
# 6 10.8022 6.8018 -1.9119 -2.2290 6.0168 20.5070
#
#
#
# Elastic Compliance Matrix: (Units=1/GPa)
#
#
# Indices 1 2 3 4 5 6 
#
# 1 0.022753 0.000524 -0.001606 0.008332 0.015262 -0.015881
# 2 0.000524 0.013206 -0.004562 0.002194 0.003474 -0.005862
# 3 -0.001606 -0.004562 0.013789 -0.005337 0.004464 0.001754
# 4 0.008332 0.002194 -0.005337 0.044387 0.004342 -0.002063
# 5 0.015262 0.003474 0.004464 0.004342 0.039671 -0.019943
# 6 -0.015881 -0.005862 0.001754 -0.002063 -0.019943 0.064864
#
#
# Mechanical properties :
#
#
# Convention : Reuss Voigt Hill
#
# Bulk Modulus (GPa) = 26.00026 44.69270 35.34648
# Shear Modulus (GPa) = 22.44392 30.57912 26.51152
#
# Velocity S-wave (km/s) = 3.34648 3.90617 3.63711
# Velocity P-wave (km/s) = 5.28255 6.53029 5.93928
#
# Compressibility (1/GPa) = 0.03846116
#
# Stress axis : x y z
#
# Youngs Moduli (GPa) = 43.95117 75.72353 72.51898
#
# Poissons Ratio (x) = -0.03968 0.11645
# Poissons Ratio (y) = -0.02303 0.33081
# Poissons Ratio (z) = 0.07057 0.34543
#
# Static dielectric constant tensor:
#      x y z
#    x 3.159670 0.166120 -0.512150 
#    y 0.166120 3.749510 0.155780 
#    z -0.512150 0.155780 3.608700 
# 
# 
# High freq. dielectric constant tensor:
#      x y z
#    x 1.786740 0.025030 -0.023470 
#    y 0.025030 1.766680 0.020370 
#    z -0.023470 0.020370 1.776080 
# 
# From -- ./inp_files/180078.got.cif
#   From: 2010.06.25/outbox.cif.g09.slc.cpg/sg2_91_cif.got.tgz:180078.got - 2010.06.27 13:26:56.
