data_PCOD8039313
_publ_section_title
;
Structure prediction by ZEFSAII (Michael W. Deem and Ramdas Pophale) SiO2 
 PCOD8039313
Probable space group: P -1
;
_chemical_formula_sum "Si O2"
_cell_formula_units_Z 16
_cell_length_a 15.302543
_cell_length_b 15.115859
_cell_length_c 9.395614
_cell_angle_alpha 144.415769
_cell_angle_beta 40.820127
_cell_angle_gamma 125.452753
_cell_volume 823.091599
_symmetry_space_group_name_H-M "P -1"
_symmetry_group_IT_number 2
_symmetry_cell_setting 'triclinic'
loop_
_space_group_symop_operation_xyz
x,y,z
-x,-y,-z
loop_
_atom_site_type_symbol
_atom_site_label
_atom_site_fract_x
_atom_site_fract_y
_atom_site_fract_z
Si Si1 0.532476 0.276463 0.799301
Si Si2 0.054906 0.070854 0.666152
Si Si3 0.188495 0.894184 0.795498
Si Si4 0.568742 0.849582 0.500874
Si Si5 0.632299 0.900575 0.021422
Si Si6 0.765796 0.101782 0.565515
Si Si7 0.716041 0.723724 0.418941
Si Si8 0.608425 0.428042 0.161620
O O1 0.685747 0.231855 0.505556
O O2 0.439564 0.288629 0.787397
O O3 0.480232 0.141102 0.782931
O O4 0.533302 0.424024 0.093812
O O5 0.145569 0.207809 0.698753
O O6 0.136401 0.928571 0.460197
O O7 0.000000 0.000000 0.500000
O O8 0.936121 0.148604 0.012587
O O9 0.145963 0.894223 0.681890
O O10 0.233993 0.057233 0.006345
O O11 0.595805 0.783166 0.537421
O O12 0.682881 0.956383 0.457343
O O13 0.426311 0.952648 0.807503
O O14 0.671291 0.762360 0.685541
O O15 0.670107 0.258966 0.911567
O O16 0.729017 0.539319 0.149034
O O17 0.500000 0.500000 0.500000
#
# Coordination Sequence:
#
# PCOD8039313 Si02
#       8
#     2   2   2   2   2   2   2   2
#     4  10  19  34  61  85 116 145 190 234 283 339
#     4  11  23  39  58  86 113 146 199 244 276 320
#     4  10  18  35  59  87 108 148 194 238 273 331
#     4  10  18  33  56  89 111 141 186 242 285 320
#     4  11  16  33  60  86 113 141 190 244 281 332
#     4  10  20  37  62  83 112 152 196 228 278 340
#     4  11  23  34  55  85 122 144 183 237 291 331
#     4  11  21  37  58  87 119 153 181 226 292 356
#
# _framework density 19.438904000000001
#
# number of rings (size 3 to 8) (size 9 to 14) (size 15 to 20)
#    0.000    1.500    6.250    1.500    0.000    1.500 
#    0.000    3.125    0.000    0.000    0.000    0.000 
#    0.000    0.000    0.000    0.000    0.000    0.000 
#
# Total GULP energy -198247.539796 kJ/mol
# GULP energy per Si atom -12390.471237 kJ/mol
# Density = 1.939466 g / cm^3
# Si number density = 19.438904 Si / 1000 Ang^3
#
#
#
# Elastic Constant Matrix: (Units=GPa)
#
#
# Indices 1 2 3 4 5 6 
#
# 1 127.2000 32.0791 41.4443 3.2549 21.4300 6.3366
# 2 32.0791 61.6317 30.8138 -5.9597 2.5114 13.7605
# 3 41.4443 30.8138 96.1830 -12.9122 18.4655 7.9375
# 4 3.2549 -5.9597 -12.9122 26.3384 6.9096 5.0806
# 5 21.4300 2.5114 18.4655 6.9096 35.0155 2.4780
# 6 6.3366 13.7605 7.9375 5.0806 2.4780 28.2714
#
#
#
# Elastic Compliance Matrix: (Units=1/GPa)
#
#
# Indices 1 2 3 4 5 6 
#
# 1 0.010650 -0.004582 -0.002828 -0.002926 -0.004229 0.001534
# 2 -0.004582 0.023596 -0.004777 0.004638 0.003441 -0.010252
# 3 -0.002828 -0.004777 0.016295 0.009949 -0.008293 -0.002677
# 4 -0.002926 0.004638 0.009949 0.049973 -0.012783 -0.012255
# 5 -0.004229 0.003441 -0.008293 -0.012783 0.037754 0.000589
# 6 0.001534 -0.010252 -0.002677 -0.012255 0.000589 0.042920
#
#
# Mechanical properties :
#
#
# Convention : Reuss Voigt Hill
#
# Bulk Modulus (GPa) = 38.21859 54.85434 46.53647
# Shear Modulus (GPa) = 23.33348 29.97020 26.65184
#
# Velocity S-wave (km/s) = 3.46837 3.93079 3.70680
# Velocity P-wave (km/s) = 5.97854 6.99154 6.50479
#
# Compressibility (1/GPa) = 0.02616528
#
# Stress axis : x y z
#
# Youngs Moduli (GPa) = 93.89966 42.38032 61.36980
#
# Poissons Ratio (x) = 0.19419 0.17358
# Poissons Ratio (y) = 0.43026 0.29316
# Poissons Ratio (z) = 0.26559 0.20245
#
# Static dielectric constant tensor:
#      x y z
#    x 3.945410 0.099370 0.312470 
#    y 0.099370 3.525230 -0.027740 
#    z 0.312470 -0.027740 3.350840 
# 
# 
# High freq. dielectric constant tensor:
#      x y z
#    x 1.768120 0.009650 0.030780 
#    y 0.009650 1.739490 -0.015540 
#    z 0.030780 -0.015540 1.733610 
# 
# From -- ./inp_files/206419.got.cif
#   From: 2010.06.25/outbox.cif.g09.slc.cpg/sg2_104_cif.got.tgz:206419.got - 2010.06.27 13:26:56.
