data_PCOD8039158
_publ_section_title
;
Structure prediction by ZEFSAII (Michael W. Deem and Ramdas Pophale) SiO2 
 PCOD8039158
Probable space group: P -1
;
_chemical_formula_sum "Si O2"
_cell_formula_units_Z 16
_cell_length_a 11.982587
_cell_length_b 11.271391
_cell_length_c 15.658554
_cell_angle_alpha 127.400172
_cell_angle_beta 29.323475
_cell_angle_gamma 138.662435
_cell_volume 676.754215
_symmetry_space_group_name_H-M "P -1"
_symmetry_group_IT_number 2
_symmetry_cell_setting 'triclinic'
loop_
_space_group_symop_operation_xyz
x,y,z
-x,-y,-z
loop_
_atom_site_type_symbol
_atom_site_label
_atom_site_fract_x
_atom_site_fract_y
_atom_site_fract_z
Si Si1 0.601961 0.528439 0.109748
Si Si2 0.944193 0.712847 0.281902
Si Si3 0.887053 0.532771 0.506511
Si Si4 0.063558 0.687151 0.008614
Si Si5 0.563232 0.277068 0.353625
Si Si6 0.815071 0.839489 0.988112
Si Si7 0.305276 0.823266 0.607754
Si Si8 0.662912 0.255042 0.840656
O O1 0.317826 0.408164 0.301407
O O2 0.851977 0.657893 0.063744
O O3 0.578274 0.662811 0.121421
O O4 0.668820 0.413348 0.955989
O O5 0.035922 0.779054 0.151541
O O6 0.787916 0.496054 0.308772
O O7 0.744859 0.772998 0.469287
O O8 0.226764 0.824540 0.198764
O O9 0.697596 0.341877 0.501790
O O10 0.000000 0.500000 0.500000
O O11 0.126268 0.681073 0.350865
O O12 0.000000 0.500000 0.000000
O O13 0.370449 0.793641 0.807760
O O14 0.583052 0.161199 0.364488
O O15 0.651058 0.883543 0.047702
O O16 0.003375 0.787617 0.791727
O O17 0.000000 0.000000 0.000000
O O18 0.500000 0.000000 0.500000
#
# Coordination Sequence:
#
# PCOD8039158 Si02
#       8
#     2   2   2   2   2   2   2   2
#     4  12  21  39  66  95 132 165 212 270 321 390
#     4  10  20  34  64  96 134 164 210 270 323 379
#     4  12  23  37  62  97 127 168 215 266 330 384
#     4  10  18  32  58  95 124 161 206 257 319 377
#     4  10  19  37  59  96 130 167 210 267 315 388
#     4  12  25  43  63  91 130 177 216 271 332 385
#     4  12  24  43  64  94 135 174 220 267 325 393
#     4  12  23  42  63  99 135 162 217 280 321 385
#
# _framework density 23.642261999999999
#
# number of rings (size 3 to 8) (size 9 to 14) (size 15 to 20)
#    0.000    0.750    7.500    2.625    3.500    0.000 
#    0.000    0.000    0.000    3.750    0.000    0.000 
#    0.000    0.000    0.000    0.000    0.000    0.000 
#
# Total GULP energy -198288.754720 kJ/mol
# GULP energy per Si atom -12393.047170 kJ/mol
# Density = 2.358845 g / cm^3
# Si number density = 23.642262 Si / 1000 Ang^3
#
#
#
# Elastic Constant Matrix: (Units=GPa)
#
#
# Indices 1 2 3 4 5 6 
#
# 1 163.1469 9.5583 70.8236 -3.0580 -8.7371 9.6393
# 2 9.5583 14.1905 9.1033 -8.2568 1.6077 0.2415
# 3 70.8236 9.1033 200.7594 4.5342 -0.2802 -0.6864
# 4 -3.0580 -8.2568 4.5342 18.7902 -4.6845 1.9702
# 5 -8.7371 1.6077 -0.2802 -4.6845 49.0543 -4.3051
# 6 9.6393 0.2415 -0.6864 1.9702 -4.3051 31.1823
#
#
#
# Elastic Compliance Matrix: (Units=1/GPa)
#
#
# Indices 1 2 3 4 5 6 
#
# 1 0.007660 -0.002926 -0.002602 0.001167 0.001356 -0.002289
# 2 -0.002926 0.102141 -0.004645 0.045886 0.000236 -0.002855
# 3 -0.002602 -0.004645 0.006208 -0.004229 -0.000577 0.001164
# 4 0.001167 0.045886 -0.004229 0.076489 0.005556 -0.004875
# 5 0.001356 0.000236 -0.000577 0.005556 0.021336 0.002161
# 6 -0.002289 -0.002855 0.001164 -0.004875 0.002161 0.033431
#
#
# Mechanical properties :
#
#
# Convention : Reuss Voigt Hill
#
# Bulk Modulus (GPa) = 10.45331 61.89633 36.17482
# Shear Modulus (GPa) = 16.69446 39.04614 27.87030
#
# Velocity S-wave (km/s) = 2.66019 4.06832 3.43714
# Velocity P-wave (km/s) = 3.72378 6.95022 5.57549
#
# Compressibility (1/GPa) = 0.09566352
#
# Stress axis : x y z
#
# Youngs Moduli (GPa) = 130.54603 9.79034 161.07495
#
# Poissons Ratio (x) = 0.02865 0.41910
# Poissons Ratio (y) = 0.38202 0.74819
# Poissons Ratio (z) = 0.33967 0.04548
#
# Static dielectric constant tensor:
#      x y z
#    x 4.602060 -0.129970 0.211040 
#    y -0.129970 3.613520 0.074160 
#    z 0.211040 0.074160 5.042290 
# 
# 
# High freq. dielectric constant tensor:
#      x y z
#    x 1.949870 -0.010590 0.004750 
#    y -0.010590 1.875800 0.008250 
#    z 0.004750 0.008250 1.964340 
# 
# From -- ./inp_files/272139.got.cif
#   From: 2010.06.25/outbox.cif.g09.slc.cpg/sg2_137_cif.got.tgz:272139.got - 2010.06.27 13:26:56.
