data_PCOD8039062
_publ_section_title
;
Structure prediction by ZEFSAII (Michael W. Deem and Ramdas Pophale) SiO2 
 PCOD8039062
Probable space group: P -1
;
_chemical_formula_sum "Si O2"
_cell_formula_units_Z 16
_cell_length_a 15.752449
_cell_length_b 18.608728
_cell_length_c 8.593504
_cell_angle_alpha 70.426272
_cell_angle_beta 128.058874
_cell_angle_gamma 151.502390
_cell_volume 790.124223
_symmetry_space_group_name_H-M "P -1"
_symmetry_group_IT_number 2
_symmetry_cell_setting 'triclinic'
loop_
_space_group_symop_operation_xyz
x,y,z
-x,-y,-z
loop_
_atom_site_type_symbol
_atom_site_label
_atom_site_fract_x
_atom_site_fract_y
_atom_site_fract_z
Si Si1 0.712327 0.258687 0.222191
Si Si2 0.037472 0.955956 0.455965
Si Si3 0.841712 0.511804 0.241945
Si Si4 0.848090 0.610258 0.877127
Si Si5 0.004700 0.422028 0.138294
Si Si6 0.836313 0.051957 0.109200
Si Si7 0.461766 0.287010 0.478111
Si Si8 0.338979 0.215341 0.054411
O O1 0.763472 0.381685 0.171046
O O2 0.789996 0.272577 0.134946
O O3 0.876680 0.319806 0.493321
O O4 0.418795 0.060684 0.080668
O O5 0.063558 0.898522 0.636688
O O6 0.292938 0.127248 0.517915
O O7 0.000000 0.000000 0.500000
O O8 0.794154 0.799752 0.177935
O O9 0.639934 0.405457 0.223561
O O10 0.828209 0.572021 0.060803
O O11 0.573450 0.428647 0.607644
O O12 0.045551 0.677633 0.970225
O O13 0.952413 0.762875 0.875774
O O14 0.297594 0.605367 0.398307
O O15 0.000000 0.500000 0.000000
O O16 0.796253 0.950048 0.035303
O O17 0.297817 0.205379 0.199643
#
# Coordination Sequence:
#
# PCOD8039062 Si02
#       8
#     2   2   2   2   2   2   2   2
#     4  10  18  33  56  79 114 151 186 226 269 342
#     4  10  20  38  62  82 109 148 190 231 278 339
#     4  10  18  34  56  82 110 151 192 220 273 338
#     4  10  21  34  55  81 122 141 190 232 278 331
#     4  10  18  32  55  80 108 149 184 221 268 334
#     4  10  22  37  53  87 116 146 184 236 285 323
#     4  10  20  37  58  84 109 145 195 225 274 344
#     4  10  20  38  61  81 108 148 195 231 273 335
#
# _framework density 20.249980999999998
#
# number of rings (size 3 to 8) (size 9 to 14) (size 15 to 20)
#    0.750    1.250    2.500    3.375    0.000    1.000 
#    0.000    8.750    0.000    0.000    0.000    0.000 
#    0.000    0.000    0.000    0.000    0.000    0.000 
#
# Total GULP energy -198226.245027 kJ/mol
# GULP energy per Si atom -12389.140314 kJ/mol
# Density = 2.020389 g / cm^3
# Si number density = 20.249981 Si / 1000 Ang^3
#
#
#
# Elastic Constant Matrix: (Units=GPa)
#
#
# Indices 1 2 3 4 5 6 
#
# 1 33.2068 14.6116 10.7892 -4.3364 -7.6354 6.1158
# 2 14.6116 89.5880 51.2964 -20.9418 -3.4271 -1.8447
# 3 10.7892 51.2964 134.8150 -14.8112 -3.5740 -5.7093
# 4 -4.3364 -20.9418 -14.8112 28.2037 14.9221 -0.8873
# 5 -7.6354 -3.4271 -3.5740 14.9221 23.9019 -4.2418
# 6 6.1158 -1.8447 -5.7093 -0.8873 -4.2418 17.6164
#
#
#
# Elastic Compliance Matrix: (Units=1/GPa)
#
#
# Indices 1 2 3 4 5 6 
#
# 1 0.037815 -0.006863 -0.001366 -0.007541 0.013576 -0.011400
# 2 -0.006863 0.018280 -0.004966 0.014937 -0.009432 0.001169
# 3 -0.001366 -0.004966 0.009690 0.001246 0.000087 0.003178
# 4 -0.007541 0.014937 0.001246 0.069043 -0.043618 -0.002439
# 5 0.013576 -0.009432 0.000087 -0.043618 0.073824 0.009906
# 6 -0.011400 0.001169 0.003178 -0.002439 0.009906 0.064138
#
#
# Mechanical properties :
#
#
# Convention : Reuss Voigt Hill
#
# Bulk Modulus (GPa) = 25.38448 45.66713 35.52580
# Shear Modulus (GPa) = 16.00963 26.00523 21.00743
#
# Velocity S-wave (km/s) = 2.81481 3.58748 3.22437
# Velocity P-wave (km/s) = 4.80905 6.30560 5.60748
#
# Compressibility (1/GPa) = 0.03939415
#
# Stress axis : x y z
#
# Youngs Moduli (GPa) = 26.44469 54.70532 103.19875
#
# Poissons Ratio (x) = 0.37547 0.14099
# Poissons Ratio (y) = 0.18150 0.51244
# Poissons Ratio (z) = 0.03613 0.27164
#
# Static dielectric constant tensor:
#      x y z
#    x 3.458550 0.258610 0.037580 
#    y 0.258610 3.365320 0.015740 
#    z 0.037580 0.015740 4.043330 
# 
# 
# High freq. dielectric constant tensor:
#      x y z
#    x 1.765720 0.034190 0.002410 
#    y 0.034190 1.765010 -0.005270 
#    z 0.002410 -0.005270 1.802690 
# 
# From -- ./inp_files/349889.got.cif
#   From: 2010.06.25/outbox.cif.g09.slc.cpg/sg2_175_cif.got.tgz:349889.got - 2010.06.27 13:26:56.
