data_PCOD8039970
_publ_section_title
;
Structure prediction by ZEFSAII (Michael W. Deem and Ramdas Pophale) SiO2 
 PCOD8039970
Probable space group: P -1
;
_chemical_formula_sum "Si O2"
_cell_formula_units_Z 16
_cell_length_a 9.453129
_cell_length_b 10.947921
_cell_length_c 9.013001
_cell_angle_alpha 117.381666
_cell_angle_beta 87.972755
_cell_angle_gamma 100.243627
_cell_volume 813.916026
_symmetry_space_group_name_H-M "P -1"
_symmetry_group_IT_number 2
_symmetry_cell_setting 'triclinic'
loop_
_space_group_symop_operation_xyz
x,y,z
-x,-y,-z
loop_
_atom_site_type_symbol
_atom_site_label
_atom_site_fract_x
_atom_site_fract_y
_atom_site_fract_z
Si Si1 0.344993 0.986916 0.067487
Si Si2 0.761443 0.288537 0.600085
Si Si3 0.465380 0.544179 0.187689
Si Si4 0.051426 0.455166 0.629685
Si Si5 0.703635 0.707891 0.448510
Si Si6 0.347707 0.989547 0.416017
Si Si7 0.738299 0.276654 0.238047
Si Si8 0.414576 0.290689 0.235854
O O1 0.358469 0.953199 0.221901
O O2 0.306155 0.141784 0.130692
O O3 0.231768 0.869209 0.917308
O O4 0.500000 0.000000 0.000000
O O5 0.629746 0.335449 0.720256
O O6 0.742057 0.279535 0.417836
O O7 0.909398 0.393796 0.696601
O O8 0.766435 0.132909 0.571200
O O9 0.625971 0.600999 0.270268
O O10 0.372692 0.410397 0.200476
O O11 0.500000 0.500000 0.000000
O O12 0.140321 0.328466 0.542344
O O13 0.149209 0.596317 0.769850
O O14 0.000000 0.500000 0.500000
O O15 0.715164 0.867763 0.484719
O O16 0.599551 0.669321 0.571134
O O17 0.500000 0.000000 0.500000
O O18 0.580336 0.287409 0.193286
#
# Coordination Sequence:
#
# PCOD8039970 Si02
#       8
#     2   2   2   2   2   2   2   2
#     4   9  20  31  57  88 113 154 197 243 301 344
#     4  11  23  39  58  89 122 159 200 248 309 356
#     4  12  24  35  59  91 121 152 199 258 304 356
#     4  10  22  38  63  87 118 164 209 246 297 368
#     4  11  21  39  63  88 118 163 202 246 305 352
#     4  11  21  37  61  89 127 155 197 252 299 364
#     4  10  18  36  61  85 115 158 202 249 289 358
#     4  10  18  35  60  85 116 149 204 249 290 353
#
# _framework density 19.658045999999999
#
# number of rings (size 3 to 8) (size 9 to 14) (size 15 to 20)
#    0.000    1.500    3.750    3.375    3.500    1.500 
#    0.000    2.500    0.000   18.750    0.000    0.000 
#    0.000    0.000    0.000    0.000    0.000    0.000 
#
# Total GULP energy -198265.863674 kJ/mol
# GULP energy per Si atom -12391.616480 kJ/mol
# Density = 1.961330 g / cm^3
# Si number density = 19.658046 Si / 1000 Ang^3
#
#
#
# Elastic Constant Matrix: (Units=GPa)
#
#
# Indices 1 2 3 4 5 6 
#
# 1 79.0637 39.9835 22.5359 11.2199 5.9437 0.1000
# 2 39.9835 162.0397 47.9862 13.8816 4.6880 5.3146
# 3 22.5359 47.9862 121.5925 16.8367 1.6050 5.0299
# 4 11.2199 13.8816 16.8367 23.8784 6.4536 1.1268
# 5 5.9437 4.6880 1.6050 6.4536 12.0183 4.3041
# 6 0.1000 5.3146 5.0299 1.1268 4.3041 37.6351
#
#
#
# Elastic Compliance Matrix: (Units=1/GPa)
#
#
# Indices 1 2 3 4 5 6 
#
# 1 0.015368 -0.003059 -0.001161 -0.003363 -0.004878 0.001205
# 2 -0.003059 0.007745 -0.002267 -0.001377 -0.000210 -0.000717
# 3 -0.001161 -0.002267 0.010215 -0.006351 0.003973 -0.001306
# 4 -0.003363 -0.001377 -0.006351 0.056197 -0.028052 0.002578
# 5 -0.004878 -0.000210 0.003973 -0.028052 0.104382 -0.011586
# 6 0.001205 -0.000717 -0.001306 0.002578 -0.011586 0.028092
#
#
# Mechanical properties :
#
#
# Convention : Reuss Voigt Hill
#
# Bulk Modulus (GPa) = 49.12671 64.85633 56.99152
# Shear Modulus (GPa) = 20.68196 31.51906 26.10051
#
# Velocity S-wave (km/s) = 3.24711 4.00855 3.64775
# Velocity P-wave (km/s) = 6.25325 7.38163 6.84075
#
# Compressibility (1/GPa) = 0.02035552
#
# Stress axis : x y z
#
# Youngs Moduli (GPa) = 65.06968 129.11958 97.89605
#
# Poissons Ratio (x) = 0.39492 0.11366
# Poissons Ratio (y) = 0.19902 0.22188
# Poissons Ratio (z) = 0.07555 0.29265
#
# Static dielectric constant tensor:
#      x y z
#    x 3.992720 -0.808030 0.546240 
#    y -0.808030 5.970850 -0.264890 
#    z 0.546240 -0.264890 4.193070 
# 
# 
# High freq. dielectric constant tensor:
#      x y z
#    x 1.729770 0.002890 0.000790 
#    y 0.002890 1.788640 0.016250 
#    z 0.000790 0.016250 1.756840 
# 
# From -- ./inp_files/182589.got.cif
#   From: 2010.06.25/outbox.cif.g09.slc.cpg/sg2_92_cif.got.tgz:182589.got - 2010.06.27 13:26:56.
