data_PCOD8039507
_publ_section_title
;
Structure prediction by ZEFSAII (Michael W. Deem and Ramdas Pophale) SiO2 
 PCOD8039507
Probable space group: P -1
;
_chemical_formula_sum "Si O2"
_cell_formula_units_Z 16
_cell_length_a 16.054223
_cell_length_b 14.146132
_cell_length_c 19.589964
_cell_angle_alpha 29.170292
_cell_angle_beta 21.351854
_cell_angle_gamma 38.505896
_cell_volume 777.623396
_symmetry_space_group_name_H-M "P -1"
_symmetry_group_IT_number 2
_symmetry_cell_setting 'triclinic'
loop_
_space_group_symop_operation_xyz
x,y,z
-x,-y,-z
loop_
_atom_site_type_symbol
_atom_site_label
_atom_site_fract_x
_atom_site_fract_y
_atom_site_fract_z
Si Si1 0.639816 0.371483 0.020449
Si Si2 0.680611 0.571030 0.660447
Si Si3 0.767930 0.016014 0.703546
Si Si4 0.451445 0.523730 0.622661
Si Si5 0.298399 0.413649 0.950340
Si Si6 0.429937 0.168042 0.768507
Si Si7 0.178959 0.791988 0.136687
Si Si8 0.943422 0.433415 0.330828
O O1 0.693039 0.193970 0.044031
O O2 0.887315 0.488506 0.785478
O O3 0.500000 0.500000 0.000000
O O4 0.473930 0.305569 0.252639
O O5 0.543127 0.510166 0.734855
O O6 0.727899 0.370684 0.785652
O O7 0.908015 0.724399 0.372613
O O8 0.586478 0.034134 0.771143
O O9 0.820265 0.211937 0.586558
O O10 0.000000 0.000000 0.500000
O O11 0.687485 0.815289 0.933498
O O12 0.292559 0.519030 0.814811
O O13 0.352154 0.327513 0.778436
O O14 0.423230 0.715673 0.479255
O O15 0.729374 0.548582 0.410429
O O16 0.083480 0.436844 0.149365
O O17 0.214080 0.009229 0.005622
#
# Coordination Sequence:
#
# PCOD8039507 Si02
#       8
#     2   2   2   2   2   2   2   2
#     4   9  18  32  53  81 114 145 177 229 286 325
#     4   9  18  32  54  84 112 138 183 231 278 325
#     4   9  18  34  58  84 108 141 184 241 276 319
#     4  10  22  39  57  80 115 157 181 228 282 335
#     4  10  18  36  59  82 111 144 188 237 279 322
#     4  10  21  39  56  81 119 147 189 228 277 338
#     4  10  18  34  54  79 113 147 178 231 276 325
#     4   9  19  35  55  83 113 146 188 233 279 330
#
# _framework density 20.575510999999999
#
# number of rings (size 3 to 8) (size 9 to 14) (size 15 to 20)
#    0.000    2.500    1.250    0.750    1.750    2.000 
#    6.750   13.750    0.000    3.000    0.000    0.000 
#    0.000    0.000    0.000    0.000    0.000    0.000 
#
# Total GULP energy -198225.406887 kJ/mol
# GULP energy per Si atom -12389.087930 kJ/mol
# Density = 2.052868 g / cm^3
# Si number density = 20.575511 Si / 1000 Ang^3
#
#
#
# Elastic Constant Matrix: (Units=GPa)
#
#
# Indices 1 2 3 4 5 6 
#
# 1 62.8466 7.3620 21.0841 -4.6076 1.1915 23.8288
# 2 7.3620 35.1177 25.0624 -1.0442 -6.9336 13.0102
# 3 21.0841 25.0624 78.9490 -5.5153 -4.0683 18.9291
# 4 -4.6076 -1.0442 -5.5153 21.5673 2.9491 -0.1758
# 5 1.1915 -6.9336 -4.0683 2.9491 36.4162 -3.9498
# 6 23.8288 13.0102 18.9291 -0.1758 -3.9498 23.9432
#
#
#
# Elastic Compliance Matrix: (Units=1/GPa)
#
#
# Indices 1 2 3 4 5 6 
#
# 1 0.027698 0.006108 -0.001935 0.005979 -0.003689 -0.029920
# 2 0.006108 0.042960 -0.010067 0.000012 0.004608 -0.020704
# 3 -0.001935 -0.010067 0.018332 0.003851 -0.000900 -0.007218
# 4 0.005979 0.000012 0.003851 0.049205 -0.004770 -0.009427
# 5 -0.003689 0.004608 -0.000900 -0.004770 0.029472 0.006705
# 6 -0.029920 -0.020704 -0.007218 -0.009427 0.006705 0.089535
#
#
# Mechanical properties :
#
#
# Convention : Reuss Voigt Hill
#
# Bulk Modulus (GPa) = 12.95281 31.54781 22.25031
# Shear Modulus (GPa) = 16.96515 24.61232 20.78874
#
# Velocity S-wave (km/s) = 2.87458 3.46236 3.18207
# Velocity P-wave (km/s) = 4.16252 5.59910 4.93338
#
# Compressibility (1/GPa) = 0.07720333
#
# Stress axis : x y z
#
# Youngs Moduli (GPa) = 36.10389 23.27760 54.54953
#
# Poissons Ratio (x) = -0.14219 0.10554
# Poissons Ratio (y) = -0.22053 0.54913
# Poissons Ratio (z) = 0.06985 0.23433
#
# Static dielectric constant tensor:
#      x y z
#    x 3.836160 0.047420 -0.014780 
#    y 0.047420 3.975210 -0.191940 
#    z -0.014780 -0.191940 3.908780 
# 
# 
# High freq. dielectric constant tensor:
#      x y z
#    x 1.806190 0.013580 -0.013490 
#    y 0.013580 1.778350 0.009020 
#    z -0.013490 0.009020 1.798420 
# 
# From -- ./inp_files/453808.got.cif
#   From: 2010.06.25/outbox.cif.g09.slc.cpg/sg2_227_cif.got.tgz:453808.got - 2010.06.27 13:26:56.
