data_PCOD8039968
_publ_section_title
;
Structure prediction by ZEFSAII (Michael W. Deem and Ramdas Pophale) SiO2 
 PCOD8039968
Probable space group: P -1
;
_chemical_formula_sum "Si O2"
_cell_formula_units_Z 14
_cell_length_a 12.188623
_cell_length_b 12.769739
_cell_length_c 9.411888
_cell_angle_alpha 82.876572
_cell_angle_beta 107.431987
_cell_angle_gamma 39.008810
_cell_volume 707.631184
_symmetry_space_group_name_H-M "P -1"
_symmetry_group_IT_number 2
_symmetry_cell_setting 'triclinic'
loop_
_space_group_symop_operation_xyz
x,y,z
-x,-y,-z
loop_
_atom_site_type_symbol
_atom_site_label
_atom_site_fract_x
_atom_site_fract_y
_atom_site_fract_z
Si Si1 0.576643 0.240753 0.438185
Si Si2 0.184527 0.581576 0.448840
Si Si3 0.462756 0.645514 0.902782
Si Si4 0.030264 0.938405 0.361429
Si Si5 0.325645 0.076961 0.517593
Si Si6 0.175927 0.291198 0.692047
Si Si7 0.801713 0.516873 0.221735
O O1 0.370921 0.405667 0.436948
O O2 0.531764 0.353019 0.266924
O O3 0.798101 0.110239 0.630187
O O4 0.618277 0.090329 0.424323
O O5 0.146428 0.734967 0.420016
O O6 0.259906 0.482555 0.649285
O O7 0.957025 0.701209 0.288533
O O8 0.500000 0.500000 0.000000
O O9 0.657603 0.570748 0.039988
O O10 0.218400 0.870163 0.835500
O O11 0.000000 0.000000 0.500000
O O12 0.357957 0.099752 0.684777
O O13 0.068013 0.294510 0.327404
O O14 0.500000 0.000000 0.500000
O O15 0.275032 0.297493 0.842756
O O16 0.000000 0.500000 0.500000
#
# Coordination Sequence:
#
# PCOD8039968 Si02
#       7
#     2   2   2   2   2   2   2
#     4  11  21  36  58  84 111 149 189 228 276 337
#     4  10  19  37  58  81 108 146 192 229 269 337
#     4  11  22  38  56  82 115 147 183 234 284 326
#     4  10  20  36  57  78 106 149 188 222 274 336
#     4  10  18  35  60  85 110 148 190 226 272 340
#     4   8  16  31  53  79 107 142 180 222 272 327
#     4  10  19  35  58  83 112 147 186 235 279 321
#
# _framework density 19.784317999999999
#
# number of rings (size 3 to 8) (size 9 to 14) (size 15 to 20)
#    0.000    2.286    0.000    9.000    0.000    0.000 
#    0.000   11.429    0.000    0.000    0.000    0.000 
#    0.000    0.000    0.000    0.000    0.000    0.000 
#
# Total GULP energy -173461.634274 kJ/mol
# GULP energy per Si atom -12390.116734 kJ/mol
# Density = 1.973929 g / cm^3
# Si number density = 19.784318 Si / 1000 Ang^3
#
#
#
# Elastic Constant Matrix: (Units=GPa)
#
#
# Indices 1 2 3 4 5 6 
#
# 1 134.1704 64.4146 28.3708 2.9634 14.1415 -8.8244
# 2 64.4146 150.5414 20.6749 5.1064 8.2581 -3.3225
# 3 28.3708 20.6749 52.5997 -3.9491 17.3472 -12.1100
# 4 2.9634 5.1064 -3.9491 13.1016 2.6478 0.2000
# 5 14.1415 8.2581 17.3472 2.6478 32.8345 4.3864
# 6 -8.8244 -3.3225 -12.1100 0.2000 4.3864 51.7358
#
#
#
# Elastic Compliance Matrix: (Units=1/GPa)
#
#
# Indices 1 2 3 4 5 6 
#
# 1 0.010242 -0.003749 -0.003432 -0.001571 -0.001642 0.000848
# 2 -0.003749 0.008574 -0.002027 -0.003272 0.000876 -0.000625
# 3 -0.003432 -0.002027 0.029593 0.013553 -0.015741 0.007494
# 4 -0.001571 -0.003272 0.013553 0.084606 -0.012946 0.003465
# 5 -0.001642 0.000876 -0.015741 -0.012946 0.041286 -0.007359
# 6 0.000848 -0.000625 0.007494 0.003465 -0.007359 0.021798
#
#
# Mechanical properties :
#
#
# Convention : Reuss Voigt Hill
#
# Bulk Modulus (GPa) = 33.33941 62.69246 48.01594
# Shear Modulus (GPa) = 22.27036 34.45780 28.36408
#
# Velocity S-wave (km/s) = 3.35872 4.17786 3.79048
# Velocity P-wave (km/s) = 5.65061 7.41818 6.59389
#
# Compressibility (1/GPa) = 0.02999453
#
# Stress axis : x y z
#
# Youngs Moduli (GPa) = 97.63333 116.62656 33.79140
#
# Poissons Ratio (x) = 0.43725 0.11597
# Poissons Ratio (y) = 0.36604 0.06848
# Poissons Ratio (z) = 0.33508 0.23635
#
# Static dielectric constant tensor:
#      x y z
#    x 4.278870 0.228310 0.530470 
#    y 0.228310 3.862650 0.036380 
#    z 0.530470 0.036380 3.462120 
# 
# 
# High freq. dielectric constant tensor:
#      x y z
#    x 1.795310 0.010940 0.022290 
#    y 0.010940 1.783480 0.000730 
#    z 0.022290 0.000730 1.723240 
# 
# From -- ./inp_files/258612.got.cif
#   From: 2010.06.25/outbox.cif.g09.slc.cpg/sg2_130_cif.got.tgz:258612.got - 2010.06.27 13:26:56.
