data_PCOD8039366
_publ_section_title
;
Structure prediction by ZEFSAII (Michael W. Deem and Ramdas Pophale) SiO2 
 PCOD8039366
Probable space group: P -1
;
_chemical_formula_sum "Si O2"
_cell_formula_units_Z 16
_cell_length_a 22.301463
_cell_length_b 10.016154
_cell_length_c 16.378716
_cell_angle_alpha 35.457438
_cell_angle_beta 155.169714
_cell_angle_gamma 145.446933
_cell_volume 836.098993
_symmetry_space_group_name_H-M "P -1"
_symmetry_group_IT_number 2
_symmetry_cell_setting 'triclinic'
loop_
_space_group_symop_operation_xyz
x,y,z
-x,-y,-z
loop_
_atom_site_type_symbol
_atom_site_label
_atom_site_fract_x
_atom_site_fract_y
_atom_site_fract_z
Si Si1 0.173292 0.829225 0.614090
Si Si2 0.704033 0.662047 0.423104
Si Si3 0.638686 0.442675 0.950936
Si Si4 0.706383 0.540932 0.303878
Si Si5 0.636591 0.746929 0.956784
Si Si6 0.328581 0.873535 0.314868
Si Si7 0.912541 0.348877 0.567906
Si Si8 0.120650 0.112978 0.022371
O O1 0.207889 0.797555 0.577380
O O2 0.006486 0.631345 0.520366
O O3 0.175639 0.102131 0.501982
O O4 0.300292 0.782292 0.852256
O O5 0.536401 0.662127 0.237596
O O6 0.737727 0.684796 0.356474
O O7 0.718367 0.417900 0.600989
O O8 0.666849 0.588373 0.999110
O O9 0.737942 0.633552 0.908981
O O10 0.539152 0.344224 0.191875
O O11 0.815533 0.377804 0.512049
O O12 0.730972 0.729602 0.163332
O O13 0.679538 0.025018 0.837254
O O14 0.500000 0.000000 0.500000
O O15 0.197161 0.919225 0.184173
O O16 0.022644 0.192748 0.793419
O O17 0.000000 0.000000 0.000000
#
# Coordination Sequence:
#
# PCOD8039366 Si02
#       8
#     2   2   2   2   2   2   2   2
#     4  10  21  36  55  84 110 149 189 232 289 336
#     4  11  21  34  60  86 112 146 194 240 277 328
#     4   9  17  35  56  83 110 148 186 239 274 333
#     4  10  18  33  58  88 107 149 190 239 275 328
#     4   9  18  31  58  86 111 145 198 222 277 343
#     4  11  19  36  57  84 117 152 190 228 285 349
#     4  10  21  36  60  76 114 152 187 233 286 348
#     4  10  20  33  58  87 111 148 196 228 278 349
#
# _framework density 19.136489999999998
#
# number of rings (size 3 to 8) (size 9 to 14) (size 15 to 20)
#    0.000    2.000    5.000    1.125    1.750    0.500 
#    0.000    0.625    5.500    1.500    0.000    0.000 
#    0.000    0.000    0.000    0.000    0.000    0.000 
#
# Total GULP energy -198231.759026 kJ/mol
# GULP energy per Si atom -12389.484939 kJ/mol
# Density = 1.909293 g / cm^3
# Si number density = 19.136490 Si / 1000 Ang^3
#
#
#
# Elastic Constant Matrix: (Units=GPa)
#
#
# Indices 1 2 3 4 5 6 
#
# 1 101.1873 41.9627 35.2916 -1.5063 6.1840 13.8425
# 2 41.9627 116.3195 43.4973 -20.4913 -5.3450 -8.5077
# 3 35.2916 43.4973 81.8331 -16.5459 10.2741 0.5636
# 4 -1.5063 -20.4913 -16.5459 27.6727 4.3541 -3.1674
# 5 6.1840 -5.3450 10.2741 4.3541 40.4920 -6.0117
# 6 13.8425 -8.5077 0.5636 -3.1674 -6.0117 18.1954
#
#
#
# Elastic Compliance Matrix: (Units=1/GPa)
#
#
# Indices 1 2 3 4 5 6 
#
# 1 0.017691 -0.008011 -0.004525 -0.009261 -0.004614 -0.020201
# 2 -0.008011 0.016378 -0.004015 0.010380 0.005906 0.017635
# 3 -0.004525 -0.004015 0.018799 0.008965 -0.005463 0.000739
# 4 -0.009261 0.010380 0.008965 0.051277 -0.002054 0.019869
# 5 -0.004614 0.005906 -0.005463 -0.002054 0.030171 0.016052
# 6 -0.020201 0.017635 0.000739 0.019869 0.016052 0.087312
#
#
# Mechanical properties :
#
#
# Convention : Reuss Voigt Hill
#
# Bulk Modulus (GPa) = 50.59219 60.09368 55.34293
# Shear Modulus (GPa) = 19.13373 29.17789 24.15581
#
# Velocity S-wave (km/s) = 3.16548 3.90901 3.55673
# Velocity P-wave (km/s) = 6.31310 7.20032 6.77126
#
# Compressibility (1/GPa) = 0.01976590
#
# Stress axis : x y z
#
# Youngs Moduli (GPa) = 56.52696 61.05686 53.19366
#
# Poissons Ratio (x) = 0.48911 0.24072
# Poissons Ratio (y) = 0.45282 0.21357
# Poissons Ratio (z) = 0.25581 0.24514
#
# Static dielectric constant tensor:
#      x y z
#    x 3.706790 0.283230 0.003870 
#    y 0.283230 3.246560 -0.224910 
#    z 0.003870 -0.224910 3.670590 
# 
# 
# High freq. dielectric constant tensor:
#      x y z
#    x 1.739150 0.022770 0.016820 
#    y 0.022770 1.707560 -0.017070 
#    z 0.016820 -0.017070 1.753160 
# 
# From -- ./inp_files/515549.got.cif
#   From: 2010.06.25/outbox.cif.g09.slc.cpg/sg2_258_cif.got.tgz:515549.got - 2010.06.27 13:26:56.
