data_PCOD8039296
_publ_section_title
;
Structure prediction by ZEFSAII (Michael W. Deem and Ramdas Pophale) SiO2 
 PCOD8039296
Probable space group: P -1
;
_chemical_formula_sum "Si O2"
_cell_formula_units_Z 14
_cell_length_a 10.042803
_cell_length_b 8.858772
_cell_length_c 11.363067
_cell_angle_alpha 54.327066
_cell_angle_beta 113.191037
_cell_angle_gamma 129.958720
_cell_volume 629.187762
_symmetry_space_group_name_H-M "P -1"
_symmetry_group_IT_number 2
_symmetry_cell_setting 'triclinic'
loop_
_space_group_symop_operation_xyz
x,y,z
-x,-y,-z
loop_
_atom_site_type_symbol
_atom_site_label
_atom_site_fract_x
_atom_site_fract_y
_atom_site_fract_z
Si Si1 0.921606 0.338870 0.712012
Si Si2 0.153828 0.000861 0.751123
Si Si3 0.769007 0.318298 0.179301
Si Si4 0.456778 0.577607 0.811001
Si Si5 0.203423 0.088865 0.003969
Si Si6 0.170431 0.294284 0.108834
Si Si7 0.797063 0.573815 0.412630
O O1 0.795632 0.397377 0.578280
O O2 0.053184 0.544915 0.747076
O O3 0.035987 0.307707 0.670750
O O4 0.792048 0.107061 0.840850
O O5 0.264111 0.917411 0.764866
O O6 0.949568 0.803635 0.773106
O O7 0.186948 0.222348 0.598909
O O8 0.197475 0.058373 0.877224
O O9 0.602767 0.273380 0.213784
O O10 0.789442 0.460229 0.005367
O O11 0.663506 0.717049 0.803985
O O12 0.380654 0.540828 0.669707
O O13 0.383109 0.342540 0.964194
O O14 0.080538 0.147581 0.017970
#
# Coordination Sequence:
#
# PCOD8039296 Si02
#       7
#     2   2   2   2   2   2   2
#     4  10  18  34  58  78 107 140 195 215 257 314
#     4  11  20  33  59  84 110 134 188 220 274 306
#     4  10  20  32  56  87 108 137 175 234 268 311
#     4   9  21  37  57  78 115 138 182 216 277 314
#     4  10  18  33  56  80 102 147 178 223 252 328
#     4  11  19  35  56  84 110 140 175 230 264 324
#     4   9  20  36  56  78 104 151 184 218 254 332
#
# _framework density 22.250909
#
# number of rings (size 3 to 8) (size 9 to 14) (size 15 to 20)
#    0.000    2.000    2.857    3.429    0.000    0.571 
#    0.000    7.143    3.143    0.857    0.000    0.000 
#    0.000    0.000    0.000    0.000    0.000    0.000 
#
# Total GULP energy -173460.399740 kJ/mol
# GULP energy per Si atom -12390.028553 kJ/mol
# Density = 2.220026 g / cm^3
# Si number density = 22.250909 Si / 1000 Ang^3
#
#
#
# Elastic Constant Matrix: (Units=GPa)
#
#
# Indices 1 2 3 4 5 6 
#
# 1 99.6559 45.9289 24.7671 -4.4943 24.2327 -15.4365
# 2 45.9289 67.9952 21.1114 -14.9216 20.1291 -27.1641
# 3 24.7671 21.1114 87.9191 -10.6845 24.0283 -4.3703
# 4 -4.4943 -14.9216 -10.6845 22.9228 -2.7487 14.5264
# 5 24.2327 20.1291 24.0283 -2.7487 25.9838 -7.2280
# 6 -15.4365 -27.1641 -4.3703 14.5264 -7.2280 30.8629
#
#
#
# Elastic Compliance Matrix: (Units=1/GPa)
#
#
# Indices 1 2 3 4 5 6 
#
# 1 0.016203 -0.009424 -0.000730 -0.004125 -0.007609 -0.000135
# 2 -0.009424 0.033443 -0.000869 0.006017 -0.010294 0.019355
# 3 -0.000730 -0.000869 0.016706 0.009578 -0.014967 -0.006778
# 4 -0.004125 0.006017 0.009578 0.069255 -0.010843 -0.030547
# 5 -0.007609 -0.010294 -0.014967 -0.010843 0.067926 0.006026
# 6 -0.000135 0.019355 -0.006778 -0.030547 0.006026 0.064199
#
#
# Mechanical properties :
#
#
# Convention : Reuss Voigt Hill
#
# Bulk Modulus (GPa) = 22.57060 48.79830 35.68445
# Shear Modulus (GPa) = 16.41783 26.87141 21.64462
#
# Velocity S-wave (km/s) = 2.71929 3.47890 3.12228
# Velocity P-wave (km/s) = 4.47494 6.17378 5.39169
#
# Compressibility (1/GPa) = 0.04430543
#
# Stress axis : x y z
#
# Youngs Moduli (GPa) = 61.71807 29.90160 59.85901
#
# Poissons Ratio (x) = 0.28181 0.04369
# Poissons Ratio (y) = 0.58166 0.05200
# Poissons Ratio (z) = 0.04505 0.02598
#
# Static dielectric constant tensor:
#      x y z
#    x 3.718040 0.078490 0.146940 
#    y 0.078490 4.235260 -0.118830 
#    z 0.146940 -0.118830 3.886570 
# 
# 
# High freq. dielectric constant tensor:
#      x y z
#    x 1.849500 -0.003090 0.016890 
#    y -0.003090 1.878480 -0.004460 
#    z 0.016890 -0.004460 1.856880 
# 
# From -- ./inp_files/186945.got.cif
#   From: 2010.06.25/outbox.cif.g09.slc.cpg/sg2_94_cif.got.tgz:186945.got - 2010.06.27 13:26:56.
