data_PCOD8039732
_publ_section_title
;
Structure prediction by ZEFSAII (Michael W. Deem and Ramdas Pophale) SiO2 
 PCOD8039732
Probable space group: P -1
;
_chemical_formula_sum "Si O2"
_cell_formula_units_Z 16
_cell_length_a 9.459875
_cell_length_b 11.493746
_cell_length_c 10.822530
_cell_angle_alpha 125.020184
_cell_angle_beta 53.280470
_cell_angle_gamma 139.137845
_cell_volume 600.259152
_symmetry_space_group_name_H-M "P -1"
_symmetry_group_IT_number 2
_symmetry_cell_setting 'triclinic'
loop_
_space_group_symop_operation_xyz
x,y,z
-x,-y,-z
loop_
_atom_site_type_symbol
_atom_site_label
_atom_site_fract_x
_atom_site_fract_y
_atom_site_fract_z
Si Si1 0.117592 0.176155 0.962303
Si Si2 0.196214 0.810505 0.736043
Si Si3 0.844533 0.181600 0.527599
Si Si4 0.474711 0.773741 0.149070
Si Si5 0.836599 0.098334 0.836352
Si Si6 0.738223 0.348716 0.070442
Si Si7 0.575332 0.816331 0.601733
Si Si8 0.781900 0.623461 0.379171
O O1 0.049572 0.295867 0.131607
O O2 0.388295 0.283925 0.886836
O O3 0.013070 0.107843 0.838919
O O4 0.000000 0.000000 0.000000
O O5 0.181109 0.838635 0.617419
O O6 0.309837 0.716310 0.649904
O O7 0.361793 0.010610 0.834699
O O8 0.730129 0.271301 0.687818
O O9 0.114442 0.327192 0.506364
O O10 0.728104 0.980518 0.523016
O O11 0.396782 0.674435 0.996387
O O12 0.984468 0.233611 0.729413
O O13 0.651644 0.896053 0.751848
O O14 0.706088 0.165480 0.010215
O O15 0.665166 0.417458 0.264585
O O16 0.000000 0.500000 0.000000
O O17 0.599970 0.657960 0.475437
#
# Coordination Sequence:
#
# PCOD8039732 Si02
#       8
#     2   2   2   2   2   2   2   2
#     4  10  24  35  55  90 121 156 191 240 297 343
#     4  10  21  36  55  90 123 151 188 242 298 350
#     4  10  18  34  61  85 122 144 190 253 299 331
#     4  10  18  36  58  87 113 152 194 243 291 339
#     4  10  19  36  59  83 122 146 197 248 280 348
#     4  10  18  39  58  87 118 150 194 247 291 344
#     4  10  19  33  58  92 110 148 199 250 293 323
#     4  10  21  32  61  93 113 148 194 246 298 338
#
# _framework density 26.655156000000002
#
# number of rings (size 3 to 8) (size 9 to 14) (size 15 to 20)
#    0.000    2.000    5.000    3.000    8.750    0.500 
#    0.000    3.750    0.000    4.500    0.000    0.000 
#    0.000    0.000    0.000    0.000    0.000    0.000 
#
# Total GULP energy -198326.275937 kJ/mol
# GULP energy per Si atom -12395.392246 kJ/mol
# Density = 2.659449 g / cm^3
# Si number density = 26.655156 Si / 1000 Ang^3
#
#
#
# Elastic Constant Matrix: (Units=GPa)
#
#
# Indices 1 2 3 4 5 6 
#
# 1 236.3131 34.2218 77.4964 15.5067 0.2779 9.2076
# 2 34.2218 44.7144 31.2246 21.9604 -0.3755 -0.9149
# 3 77.4964 31.2246 132.3775 20.7139 -12.3316 0.1259
# 4 15.5067 21.9604 20.7139 37.9896 0.5434 -3.7952
# 5 0.2779 -0.3755 -12.3316 0.5434 62.6161 -6.0987
# 6 9.2076 -0.9149 0.1259 -3.7952 -6.0987 28.3390
#
#
#
# Elastic Compliance Matrix: (Units=1/GPa)
#
#
# Indices 1 2 3 4 5 6 
#
# 1 0.005573 -0.002649 -0.002803 0.000599 -0.000790 -0.001974
# 2 -0.002649 0.035873 -0.004237 -0.017378 -0.000495 -0.000396
# 3 -0.002803 -0.004237 0.010745 -0.002206 0.002211 0.000907
# 4 0.000599 -0.017378 -0.002206 0.037754 -0.000459 0.004211
# 5 -0.000790 -0.000495 0.002211 -0.000459 0.016778 0.003780
# 6 -0.001974 -0.000396 0.000907 0.004211 0.003780 0.037289
#
#
# Mechanical properties :
#
#
# Convention : Reuss Voigt Hill
#
# Bulk Modulus (GPa) = 30.47685 77.69897 54.08791
# Shear Modulus (GPa) = 28.68142 43.81976 36.25059
#
# Velocity S-wave (km/s) = 3.28383 4.05896 3.69180
# Velocity P-wave (km/s) = 5.08297 7.15401 6.20550
#
# Compressibility (1/GPa) = 0.03281179
#
# Stress axis : x y z
#
# Youngs Moduli (GPa) = 179.43334 27.87617 93.06692
#
# Poissons Ratio (x) = 0.07385 0.26089
# Poissons Ratio (y) = 0.47533 0.39436
# Poissons Ratio (z) = 0.50299 0.11812
#
# Static dielectric constant tensor:
#      x y z
#    x 5.894020 0.443760 -0.476600 
#    y 0.443760 4.699830 0.119810 
#    z -0.476600 0.119810 5.869790 
# 
# 
# High freq. dielectric constant tensor:
#      x y z
#    x 2.091170 0.008660 -0.006810 
#    y 0.008660 2.049870 -0.009170 
#    z -0.006810 -0.009170 2.076700 
# 
# From -- ./inp_files/266895.got.cif
#   From: 2010.06.25/outbox.cif.g09.slc.cpg/sg2_134_cif.got.tgz:266895.got - 2010.06.27 13:26:56.
