data_PCOD8039384
_publ_section_title
;
Structure prediction by ZEFSAII (Michael W. Deem and Ramdas Pophale) SiO2 
 PCOD8039384
Probable space group: P -1
;
_chemical_formula_sum "Si O2"
_cell_formula_units_Z 16
_cell_length_a 24.119870
_cell_length_b 10.194368
_cell_length_c 9.630334
_cell_angle_alpha 150.729000
_cell_angle_beta 120.793101
_cell_angle_gamma 49.762604
_cell_volume 875.367543
_symmetry_space_group_name_H-M "P -1"
_symmetry_group_IT_number 2
_symmetry_cell_setting 'triclinic'
loop_
_space_group_symop_operation_xyz
x,y,z
-x,-y,-z
loop_
_atom_site_type_symbol
_atom_site_label
_atom_site_fract_x
_atom_site_fract_y
_atom_site_fract_z
Si Si1 0.988741 0.987951 0.137130
Si Si2 0.215107 0.327354 0.183467
Si Si3 0.798133 0.943129 0.581062
Si Si4 0.847066 0.386206 0.924302
Si Si5 0.663752 0.214659 0.833640
Si Si6 0.585604 0.807264 0.411297
Si Si7 0.706271 0.319821 0.263294
Si Si8 0.108227 0.326190 0.273140
O O1 0.066352 0.829494 0.167187
O O2 0.942023 0.320598 0.442663
O O3 0.945786 0.807125 0.955453
O O4 0.000000 0.000000 0.000000
O O5 0.177298 0.502569 0.158926
O O6 0.243907 0.527933 0.489629
O O7 0.158236 0.276529 0.157609
O O8 0.278469 0.979596 0.902181
O O9 0.847059 0.833538 0.679404
O O10 0.805384 0.206987 0.755997
O O11 0.711305 0.084306 0.635079
O O12 0.824178 0.663435 0.254178
O O13 0.621449 0.025174 0.637727
O O14 0.604035 0.577729 0.089571
O O15 0.723056 0.180623 0.998409
O O16 0.621421 0.593157 0.398052
O O17 0.500000 0.000000 0.500000
#
# Coordination Sequence:
#
# PCOD8039384 Si02
#       8
#     2   2   2   2   2   2   2   2
#     4  12  23  39  57  85 108 149 198 249 300 357
#     4  12  24  40  56  89 114 157 193 245 291 348
#     4  12  21  40  60  86 109 159 190 252 282 342
#     4  12  27  38  58  83 120 147 203 243 300 347
#     4  10  20  33  60  92 117 147 198 225 282 340
#     4  10  18  33  58  98 129 143 178 243 285 325
#     4  10  19  36  59  84 123 146 189 230 282 345
#     4  12  22  37  66  75 112 151 195 248 306 341
#
# _framework density 18.278036
#
# number of rings (size 3 to 8) (size 9 to 14) (size 15 to 20)
#    0.750    0.000    5.000    3.750    1.750    1.000 
#    0.000    0.000    0.000    0.000    0.000   17.500 
#    0.000    0.000    0.000    0.000    0.000    0.000 
#
# Total GULP energy -198250.533308 kJ/mol
# GULP energy per Si atom -12390.658332 kJ/mol
# Density = 1.823643 g / cm^3
# Si number density = 18.278036 Si / 1000 Ang^3
#
#
#
# Elastic Constant Matrix: (Units=GPa)
#
#
# Indices 1 2 3 4 5 6 
#
# 1 73.9912 49.6623 -19.0230 20.8374 11.5693 -1.8243
# 2 49.6623 110.2507 0.9623 19.6681 3.3874 4.2740
# 3 -19.0230 0.9623 -57.6102 58.3459 26.4302 3.1838
# 4 20.8374 19.6681 58.3459 21.4054 -2.7533 -2.8160
# 5 11.5693 3.3874 26.4302 -2.7533 34.9536 7.8149
# 6 -1.8243 4.2740 3.1838 -2.8160 7.8149 24.3239
#
#
#
# Elastic Compliance Matrix: (Units=1/GPa)
#
#
# Indices 1 2 3 4 5 6 
#
# 1 0.017959 -0.008615 -0.004373 0.002617 -0.002620 0.004578
# 2 -0.008615 0.013764 -0.000184 -0.004023 0.002288 -0.004242
# 3 -0.004373 -0.000184 -0.002387 0.011469 0.004173 0.000004
# 4 0.002617 -0.004023 0.011469 0.016008 -0.008801 0.004083
# 5 -0.002620 0.002288 0.004173 -0.008801 0.027894 -0.011126
# 6 0.004578 -0.004242 0.000004 0.004083 -0.011126 0.046247
#
#
# Mechanical properties :
#
#
# Convention : Reuss Voigt Hill
#
# Bulk Modulus (GPa) = 334.14662 21.09276 177.61969
# Shear Modulus (GPa) = 34.05370 22.47191 28.26280
#
# Velocity S-wave (km/s) = 4.32104 3.51015 3.93653
# Velocity P-wave (km/s) = 14.42585 5.29086 10.86505
#
# Compressibility (1/GPa) = 0.00299270
#
# Stress axis : x y z
#
# Youngs Moduli (GPa) = 55.68233 72.65146 -418.92657
#
# Poissons Ratio (x) = 0.62591 -1.83176
# Poissons Ratio (y) = 0.47972 -0.07707
# Poissons Ratio (z) = 0.24347 0.01337
#
# Static dielectric constant tensor:
#      x y z
#    x 3.212880 -0.054940 0.081130 
#    y -0.054940 3.375320 0.232910 
#    z 0.081130 0.232910 3.630690 
# 
# 
# High freq. dielectric constant tensor:
#      x y z
#    x 1.693450 -0.008710 0.009990 
#    y -0.008710 1.690030 0.022120 
#    z 0.009990 0.022120 1.735780 
# 
# From -- ./inp_files/138939.got.cif
#   From: 2010.06.25/outbox.cif.g09.slc.cpg/sg2_70_cif.got.tgz:138939.got - 2010.06.27 13:26:56.
