data_PCOD8039426
_publ_section_title
;
Structure prediction by ZEFSAII (Michael W. Deem and Ramdas Pophale) SiO2 
 PCOD8039426
Probable space group: P -1
;
_chemical_formula_sum "Si O2"
_cell_formula_units_Z 14
_cell_length_a 12.712090
_cell_length_b 18.569502
_cell_length_c 8.717419
_cell_angle_alpha 85.123015
_cell_angle_beta 76.086941
_cell_angle_gamma 152.624893
_cell_volume 682.743979
_symmetry_space_group_name_H-M "P -1"
_symmetry_group_IT_number 2
_symmetry_cell_setting 'triclinic'
loop_
_space_group_symop_operation_xyz
x,y,z
-x,-y,-z
loop_
_atom_site_type_symbol
_atom_site_label
_atom_site_fract_x
_atom_site_fract_y
_atom_site_fract_z
Si Si1 0.889900 0.595581 0.848419
Si Si2 0.259604 0.200403 0.669093
Si Si3 0.873172 0.000153 0.587632
Si Si4 0.848685 0.090396 0.310423
Si Si5 0.249940 0.237993 0.996546
Si Si6 0.745272 0.436631 0.226206
Si Si7 0.125082 0.603609 0.601100
O O1 0.132895 0.812400 0.685453
O O2 0.957283 0.572226 0.713951
O O3 0.530312 0.395833 0.987010
O O4 0.949225 0.612431 0.004330
O O5 0.563992 0.370797 0.429573
O O6 0.033684 0.117105 0.675053
O O7 0.377090 0.309192 0.766165
O O8 0.055576 0.001696 0.813594
O O9 0.963597 0.120272 0.417430
O O10 0.494190 0.757092 0.767565
O O11 0.000000 0.000000 0.500000
O O12 0.114203 0.234279 0.065184
O O13 0.501844 0.850206 0.420462
O O14 0.961797 0.513804 0.224511
O O15 0.000000 0.500000 0.500000
#
# Coordination Sequence:
#
# PCOD8039426 Si02
#       7
#     2   2   2   2   2   2   2
#     4  12  24  38  62  94 121 160 197 251 307 358
#     4  10  18  33  60  92 118 153 202 256 278 344
#     4   9  15  33  57  82 115 159 195 235 284 353
#     4  11  23  41  60  89 129 156 196 253 306 354
#     4  11  20  34  62  91 121 153 200 245 304 344
#     4  10  19  38  60  86 119 157 208 242 291 365
#     4  11  24  43  65  86 116 161 210 248 296 360
#
# _framework density 20.505490000000002
#
# number of rings (size 3 to 8) (size 9 to 14) (size 15 to 20)
#    0.000    1.429    5.714    3.000    2.000    0.000 
#    0.000    5.000    0.000    0.000    0.000    0.000 
#    0.000    0.000    0.000    0.000    0.000    0.000 
#
# Total GULP energy -173522.994774 kJ/mol
# GULP energy per Si atom -12394.499627 kJ/mol
# Density = 2.045882 g / cm^3
# Si number density = 20.505490 Si / 1000 Ang^3
#
#
#
# Elastic Constant Matrix: (Units=GPa)
#
#
# Indices 1 2 3 4 5 6 
#
# 1 115.5059 48.2726 49.0500 8.8701 13.7378 2.6624
# 2 48.2726 75.7535 32.5992 17.8901 12.3654 9.0683
# 3 49.0500 32.5992 80.9148 17.7395 5.0670 -8.2885
# 4 8.8701 17.8901 17.7395 25.6771 4.4344 -1.7658
# 5 13.7378 12.3654 5.0670 4.4344 40.7047 0.5494
# 6 2.6624 9.0683 -8.2885 -1.7658 0.5494 27.1292
#
#
#
# Elastic Compliance Matrix: (Units=1/GPa)
#
#
# Indices 1 2 3 4 5 6 
#
# 1 0.014429 -0.006845 -0.007023 0.004998 -0.002448 -0.000899
# 2 -0.006845 0.023325 -0.003423 -0.011620 -0.002964 -0.008867
# 3 -0.007023 -0.003423 0.020687 -0.009265 0.001743 0.007515
# 4 0.004998 -0.011620 -0.009265 0.052472 -0.002774 0.004035
# 5 -0.002448 -0.002964 0.001743 -0.002774 0.026365 0.001049
# 6 -0.000899 -0.008867 0.007515 0.004035 0.001049 0.042450
#
#
# Mechanical properties :
#
#
# Convention : Reuss Voigt Hill
#
# Bulk Modulus (GPa) = 41.91456 59.11311 50.51383
# Shear Modulus (GPa) = 22.49568 28.18570 25.34069
#
# Velocity S-wave (km/s) = 3.31578 3.71151 3.51921
# Velocity P-wave (km/s) = 5.92825 6.87441 6.41879
#
# Compressibility (1/GPa) = 0.02385806
#
# Stress axis : x y z
#
# Youngs Moduli (GPa) = 69.30485 42.87205 48.33898
#
# Poissons Ratio (x) = 0.29347 0.33950
# Poissons Ratio (y) = 0.47442 0.16546
# Poissons Ratio (z) = 0.48676 0.14675
#
# Static dielectric constant tensor:
#      x y z
#    x 3.907630 0.298980 0.151170 
#    y 0.298980 3.804460 0.324180 
#    z 0.151170 0.324180 3.671230 
# 
# 
# High freq. dielectric constant tensor:
#      x y z
#    x 1.803000 0.019860 0.001430 
#    y 0.019860 1.777090 0.012930 
#    z 0.001430 0.012930 1.791280 
# 
# From -- ./inp_files/178103.got.cif
#   From: 2010.06.25/outbox.cif.g09.slc.cpg/sg2_90_cif.got.tgz:178103.got - 2010.06.27 13:26:56.
