data_PCOD8039390
_publ_section_title
;
Structure prediction by ZEFSAII (Michael W. Deem and Ramdas Pophale) SiO2 
 PCOD8039390
Probable space group: P -1
;
_chemical_formula_sum "Si O2"
_cell_formula_units_Z 14
_cell_length_a 10.084936
_cell_length_b 9.121799
_cell_length_c 18.286859
_cell_angle_alpha 140.310189
_cell_angle_beta 134.387772
_cell_angle_gamma 55.828502
_cell_volume 766.739850
_symmetry_space_group_name_H-M "P -1"
_symmetry_group_IT_number 2
_symmetry_cell_setting 'triclinic'
loop_
_space_group_symop_operation_xyz
x,y,z
-x,-y,-z
loop_
_atom_site_type_symbol
_atom_site_label
_atom_site_fract_x
_atom_site_fract_y
_atom_site_fract_z
Si Si1 0.761084 0.819288 0.637617
Si Si2 0.006251 0.475493 0.079272
Si Si3 0.340705 0.764552 0.491440
Si Si4 0.756709 0.306749 0.410331
Si Si5 0.930885 0.044867 0.655851
Si Si6 0.643613 0.695205 0.764429
Si Si7 0.157466 0.954053 0.101479
O O1 0.544147 0.848014 0.584474
O O2 0.829853 0.560834 0.544395
O O3 0.795491 0.984845 0.646427
O O4 0.883098 0.902905 0.784757
O O5 0.970502 0.720062 0.197911
O O6 0.209071 0.359532 0.134967
O O7 0.000000 0.500000 0.000000
O O8 0.839370 0.317107 0.981396
O O9 0.293496 0.797583 0.570662
O O10 0.192200 0.927341 0.453475
O O11 0.327031 0.496699 0.362012
O O12 0.567411 0.313251 0.290678
O O13 0.911741 0.154090 0.370197
O O14 0.662515 0.946916 0.830891
O O15 0.000000 0.000000 0.000000
#
# Coordination Sequence:
#
# PCOD8039390 Si02
#       7
#     2   2   2   2   2   2   2
#     4  11  19  36  59  79 106 142 183 217 263 324
#     4  10  20  35  56  77 106 144 181 217 259 315
#     4  10  19  35  58  81 104 143 181 220 263 319
#     4  11  20  36  56  82 111 138 173 227 277 314
#     4  11  23  34  52  86 115 134 172 231 277 305
#     4   9  18  35  58  79  99 141 189 214 253 325
#     4  10  18  33  59  78  98 138 194 214 242 315
#
# _framework density 18.259125999999998
#
# number of rings (size 3 to 8) (size 9 to 14) (size 15 to 20)
#    0.000    1.714    4.286    2.143    0.000    0.000 
#    0.000    1.429    0.000    0.000    0.000    0.000 
#    0.000    0.000    0.000    0.000    0.000    0.000 
#
# Total GULP energy -173536.575788 kJ/mol
# GULP energy per Si atom -12395.469699 kJ/mol
# Density = 1.821757 g / cm^3
# Si number density = 18.259126 Si / 1000 Ang^3
#
#
#
# Elastic Constant Matrix: (Units=GPa)
#
#
# Indices 1 2 3 4 5 6 
#
# 1 52.8109 22.3993 27.7559 3.3104 7.7912 7.4983
# 2 22.3993 73.7880 43.3728 3.8362 3.4754 3.6798
# 3 27.7559 43.3728 106.0926 5.0607 8.3978 4.8866
# 4 3.3104 3.8362 5.0607 36.6007 8.6736 2.5144
# 5 7.7912 3.4754 8.3978 8.6736 20.1800 4.1841
# 6 7.4983 3.6798 4.8866 2.5144 4.1841 33.3866
#
#
#
# Elastic Compliance Matrix: (Units=1/GPa)
#
#
# Indices 1 2 3 4 5 6 
#
# 1 0.024367 -0.004710 -0.003795 0.000611 -0.006528 -0.003626
# 2 -0.004710 0.018806 -0.006539 -0.001052 0.001795 -0.000204
# 3 -0.003795 -0.006539 0.013327 -0.000127 -0.002899 -0.000005
# 4 0.000611 -0.001052 -0.000127 0.030516 -0.012978 -0.000674
# 5 -0.006528 0.001795 -0.002899 -0.012978 0.059544 -0.004792
# 6 -0.003626 -0.000204 -0.000005 -0.000674 -0.004792 0.031441
#
#
# Mechanical properties :
#
#
# Convention : Reuss Voigt Hill
#
# Bulk Modulus (GPa) = 37.85868 46.63859 42.24864
# Shear Modulus (GPa) = 23.05293 27.31105 25.18199
#
# Velocity S-wave (km/s) = 3.55708 3.87169 3.71771
# Velocity P-wave (km/s) = 6.13593 6.75164 6.45113
#
# Compressibility (1/GPa) = 0.02641402
#
# Stress axis : x y z
#
# Youngs Moduli (GPa) = 41.03878 53.17530 75.03345
#
# Poissons Ratio (x) = 0.25044 0.28474
# Poissons Ratio (y) = 0.19328 0.49061
# Poissons Ratio (z) = 0.15574 0.34769
#
# Static dielectric constant tensor:
#      x y z
#    x 3.229660 0.360100 0.410230 
#    y 0.360100 3.497340 0.124760 
#    z 0.410230 0.124760 3.995740 
# 
# 
# High freq. dielectric constant tensor:
#      x y z
#    x 1.679990 0.029800 0.014860 
#    y 0.029800 1.704980 -0.004770 
#    z 0.014860 -0.004770 1.722460 
# 
# From -- ./inp_files/161045.got.cif
#   From: 2010.06.25/outbox.cif.g09.slc.cpg/sg2_81_cif.got.tgz:161045.got - 2010.06.27 13:26:56.
