data_PCOD8039491
_publ_section_title
;
Structure prediction by ZEFSAII (Michael W. Deem and Ramdas Pophale) SiO2 
 PCOD8039491
Probable space group: P -1
;
_chemical_formula_sum "Si O2"
_cell_formula_units_Z 14
_cell_length_a 6.341388
_cell_length_b 14.563271
_cell_length_c 20.420871
_cell_angle_alpha 30.810519
_cell_angle_beta 66.882555
_cell_angle_gamma 58.429916
_cell_volume 815.936232
_symmetry_space_group_name_H-M "P -1"
_symmetry_group_IT_number 2
_symmetry_cell_setting 'triclinic'
loop_
_space_group_symop_operation_xyz
x,y,z
-x,-y,-z
loop_
_atom_site_type_symbol
_atom_site_label
_atom_site_fract_x
_atom_site_fract_y
_atom_site_fract_z
Si Si1 0.887376 0.345574 0.714513
Si Si2 0.920289 0.745959 0.498056
Si Si3 0.913169 0.284055 0.355291
Si Si4 0.296940 0.697261 0.375673
Si Si5 0.395524 0.965611 0.466049
Si Si6 0.600806 0.908588 0.146085
Si Si7 0.424727 0.290704 0.861730
O O1 0.953770 0.525250 0.617195
O O2 0.821199 0.361994 0.636392
O O3 0.663858 0.340527 0.788968
O O4 0.132384 0.148008 0.816984
O O5 0.022211 0.759165 0.549548
O O6 0.085300 0.802556 0.390861
O O7 0.631090 0.895852 0.430400
O O8 0.811004 0.512550 0.210862
O O9 0.161334 0.167408 0.352366
O O10 0.699592 0.208316 0.409370
O O11 0.500000 0.500000 0.500000
O O12 0.416081 0.851260 0.249072
O O13 0.500000 0.000000 0.500000
O O14 0.648636 0.798154 0.138751
O O15 0.479102 0.141325 0.007096
#
# Coordination Sequence:
#
# PCOD8039491 Si02
#       7
#     2   2   2   2   2   2   2
#     4  11  19  32  50  76 104 139 168 203 253 304
#     4  11  19  31  52  76 105 135 162 209 259 300
#     4  10  18  34  53  76 103 131 168 216 259 293
#     4  11  22  32  48  75 109 140 170 202 249 308
#     4   9  20  32  50  79 100 127 173 213 262 297
#     4  10  21  33  47  76 107 139 173 199 246 311
#     4  10  19  33  52  73 104 138 171 210 248 297
#
# _framework density 17.158204000000001
#
# number of rings (size 3 to 8) (size 9 to 14) (size 15 to 20)
#    0.000    1.714    4.286    1.714    0.000    0.000 
#    0.000    0.000    0.000    0.857    0.000   10.000 
#    0.000    0.000    0.000    0.000    0.000    0.000 
#
# Total GULP energy -173573.385034 kJ/mol
# GULP energy per Si atom -12398.098931 kJ/mol
# Density = 1.711915 g / cm^3
# Si number density = 17.158204 Si / 1000 Ang^3
#
#
#
# Elastic Constant Matrix: (Units=GPa)
#
#
# Indices 1 2 3 4 5 6 
#
# 1 88.5738 30.2382 34.1674 -2.6716 15.2295 -6.5392
# 2 30.2382 83.5294 51.4325 -11.2913 10.2835 -28.2832
# 3 34.1674 51.4325 113.3793 -10.8890 15.6467 -14.4825
# 4 -2.6716 -11.2913 -10.8890 28.5799 -3.6229 3.0154
# 5 15.2295 10.2835 15.6467 -3.6229 18.1867 -7.0064
# 6 -6.5392 -28.2832 -14.4825 3.0154 -7.0064 36.3636
#
#
#
# Elastic Compliance Matrix: (Units=1/GPa)
#
#
# Indices 1 2 3 4 5 6 
#
# 1 0.014913 -0.004501 -0.001655 -0.001959 -0.010171 -0.003276
# 2 -0.004501 0.023339 -0.007375 0.004891 0.003549 0.014684
# 3 -0.001655 -0.007375 0.013439 0.001443 -0.006510 -0.002056
# 4 -0.001959 0.004891 0.001443 0.037828 0.005953 0.002037
# 5 -0.010171 0.003549 -0.006510 0.005953 0.072861 0.011883
# 6 -0.003276 0.014684 -0.002056 0.002037 0.011883 0.039634
#
#
# Mechanical properties :
#
#
# Convention : Reuss Voigt Hill
#
# Bulk Modulus (GPa) = 40.60483 57.46209 49.03346
# Shear Modulus (GPa) = 21.07160 27.93565 24.50363
#
# Velocity S-wave (km/s) = 3.50820 4.03938 3.78312
# Velocity P-wave (km/s) = 6.33453 7.43759 6.90811
#
# Compressibility (1/GPa) = 0.02462761
#
# Stress axis : x y z
#
# Youngs Moduli (GPa) = 67.05525 42.84716 74.41146
#
# Poissons Ratio (x) = 0.19287 0.12316
# Poissons Ratio (y) = 0.30183 0.54880
# Poissons Ratio (z) = 0.11098 0.31600
#
# Static dielectric constant tensor:
#      x y z
#    x 3.508020 -0.252120 0.078880 
#    y -0.252120 3.380580 -0.147830 
#    z 0.078880 -0.147830 3.181790 
# 
# 
# High freq. dielectric constant tensor:
#      x y z
#    x 1.685940 -0.009450 0.003800 
#    y -0.009450 1.645200 -0.015560 
#    z 0.003800 -0.015560 1.636130 
# 
# From -- ./inp_files/34534.got.cif
#   From: 2010.06.25/outbox.cif.g09.slc.cpg/sg2_18_cif.got.tgz:34534.got - 2010.06.27 13:26:56.
