data_PCOD8039550
_publ_section_title
;
Structure prediction by ZEFSAII (Michael W. Deem and Ramdas Pophale) SiO2 
 PCOD8039550
Probable space group: P -1
;
_chemical_formula_sum "Si O2"
_cell_formula_units_Z 16
_cell_length_a 8.901361
_cell_length_b 14.176295
_cell_length_c 15.298749
_cell_angle_alpha 42.306269
_cell_angle_beta 96.572757
_cell_angle_gamma 64.062247
_cell_volume 806.637590
_symmetry_space_group_name_H-M "P -1"
_symmetry_group_IT_number 2
_symmetry_cell_setting 'triclinic'
loop_
_space_group_symop_operation_xyz
x,y,z
-x,-y,-z
loop_
_atom_site_type_symbol
_atom_site_label
_atom_site_fract_x
_atom_site_fract_y
_atom_site_fract_z
Si Si1 0.314429 0.887432 0.367074
Si Si2 0.324151 0.476573 0.226207
Si Si3 0.903381 0.662740 0.962006
Si Si4 0.289803 0.666564 0.761103
Si Si5 0.761855 0.147865 0.979247
Si Si6 0.520184 0.214769 0.083135
Si Si7 0.033773 0.054135 0.602110
Si Si8 0.688523 0.245367 0.714710
O O1 0.568653 0.683445 0.573639
O O2 0.348511 0.857218 0.285068
O O3 0.144886 0.875387 0.383947
O O4 0.191277 0.120834 0.229668
O O5 0.529961 0.344921 0.256104
O O6 0.224642 0.700701 0.092330
O O7 0.115164 0.530984 0.136169
O O8 0.683347 0.753125 0.938776
O O9 0.000000 0.500000 0.000000
O O10 0.137783 0.839045 0.711381
O O11 0.427376 0.430777 0.966732
O O12 0.110486 0.748603 0.613561
O O13 0.635806 0.227675 0.821172
O O14 0.594863 0.176158 0.013100
O O15 0.036843 0.891904 0.172302
O O16 0.757325 0.003219 0.300769
O O17 0.500000 0.500000 0.500000
#
# Coordination Sequence:
#
# PCOD8039550 Si02
#       8
#     2   2   2   2   2   2   2   2
#     4  11  21  38  61  86 116 150 200 245 288 350
#     4  10  20  38  59  86 116 152 199 241 287 343
#     4  12  25  38  56  84 128 170 193 223 282 355
#     4   9  19  32  57  82 108 147 197 247 285 336
#     4  10  21  37  64  92 112 142 198 255 297 347
#     4  11  21  35  55  82 120 154 188 238 288 345
#     4  10  18  34  56  82 110 145 197 249 289 327
#     4  11  20  37  68  94 108 141 193 258 310 338
#
# _framework density 19.835425000000001
#
# number of rings (size 3 to 8) (size 9 to 14) (size 15 to 20)
#    0.000    1.500    3.750    2.625    0.000    1.500 
#    0.000    0.625    0.000    1.500    0.000    0.000 
#    0.000    0.000    0.000    0.000    0.000    0.000 
#
# Total GULP energy -198402.702930 kJ/mol
# GULP energy per Si atom -12400.168933 kJ/mol
# Density = 1.979028 g / cm^3
# Si number density = 19.835425 Si / 1000 Ang^3
#
#
#
# Elastic Constant Matrix: (Units=GPa)
#
#
# Indices 1 2 3 4 5 6 
#
# 1 93.4669 29.7837 42.3991 16.3028 28.8891 -2.2206
# 2 29.7837 96.5513 31.1530 13.0912 9.5175 1.3321
# 3 42.3991 31.1530 121.5717 10.4717 26.7617 1.5822
# 4 16.3028 13.0912 10.4717 36.5466 7.1527 2.3453
# 5 28.8891 9.5175 26.7617 7.1527 29.4201 -1.8287
# 6 -2.2206 1.3321 1.5822 2.3453 -1.8287 25.3777
#
#
#
# Elastic Compliance Matrix: (Units=1/GPa)
#
#
# Indices 1 2 3 4 5 6 
#
# 1 0.017305 -0.002892 -0.002093 -0.003573 -0.013211 0.001175
# 2 -0.002892 0.012185 -0.002216 -0.002718 0.001550 -0.000392
# 3 -0.002093 -0.002216 0.011186 0.000075 -0.007502 -0.001312
# 4 -0.003573 -0.002718 0.000075 0.030776 -0.003365 -0.003261
# 5 -0.013211 0.001550 -0.007502 -0.003365 0.054318 0.003455
# 6 0.001175 -0.000392 -0.001312 -0.003261 0.003455 0.040160
#
#
# Mechanical properties :
#
#
# Convention : Reuss Voigt Hill
#
# Bulk Modulus (GPa) = 38.06217 57.58461 47.82339
# Shear Modulus (GPa) = 26.44232 32.15248 29.29740
#
# Velocity S-wave (km/s) = 3.65511 4.03049 3.84738
# Velocity P-wave (km/s) = 6.08635 7.12418 6.62562
#
# Compressibility (1/GPa) = 0.02627280
#
# Stress axis : x y z
#
# Youngs Moduli (GPa) = 57.78831 82.06509 89.40070
#
# Poissons Ratio (x) = 0.23734 0.18716
# Poissons Ratio (y) = 0.16713 0.19810
# Poissons Ratio (z) = 0.12098 0.18185
#
# Static dielectric constant tensor:
#      x y z
#    x 3.224360 -0.133100 0.232940 
#    y -0.133100 3.744190 0.045460 
#    z 0.232940 0.045460 3.873000 
# 
# 
# High freq. dielectric constant tensor:
#      x y z
#    x 1.725750 -0.013020 0.024070 
#    y -0.013020 1.778700 0.006670 
#    z 0.024070 0.006670 1.792740 
# 
# From -- ./inp_files/276193.got.cif
#   From: 2010.06.25/outbox.cif.g09.slc.cpg/sg2_139_cif.got.tgz:276193.got - 2010.06.27 13:26:56.
