data_PCOD8039615
_publ_section_title
;
Structure prediction by ZEFSAII (Michael W. Deem and Ramdas Pophale) SiO2 
 PCOD8039615
Probable space group: P -1
;
_chemical_formula_sum "Si O2"
_cell_formula_units_Z 16
_cell_length_a 7.968183
_cell_length_b 16.114720
_cell_length_c 17.356235
_cell_angle_alpha 156.514461
_cell_angle_beta 108.145591
_cell_angle_gamma 83.646321
_cell_volume 748.496333
_symmetry_space_group_name_H-M "P -1"
_symmetry_group_IT_number 2
_symmetry_cell_setting 'triclinic'
loop_
_space_group_symop_operation_xyz
x,y,z
-x,-y,-z
loop_
_atom_site_type_symbol
_atom_site_label
_atom_site_fract_x
_atom_site_fract_y
_atom_site_fract_z
Si Si1 0.231567 0.345635 0.759650
Si Si2 0.409633 0.960541 0.680421
Si Si3 0.984809 0.439362 0.684689
Si Si4 0.901883 0.680633 0.559436
Si Si5 0.486008 0.164423 0.572920
Si Si6 0.785010 0.065788 0.911131
Si Si7 0.335355 0.338604 0.929147
Si Si8 0.729341 0.170911 0.159043
O O1 0.062856 0.397847 0.743014
O O2 0.274570 0.167382 0.559657
O O3 0.179621 0.251891 0.760963
O O4 0.437745 0.589662 0.006014
O O5 0.506976 0.935994 0.594257
O O6 0.252547 0.708287 0.475486
O O7 0.583041 0.074565 0.865015
O O8 0.289456 0.115552 0.787538
O O9 0.089274 0.366395 0.569410
O O10 0.031504 0.708181 0.907962
O O11 0.767497 0.436577 0.376392
O O12 0.126632 0.820936 0.743927
O O13 0.785783 0.832734 0.681966
O O14 0.500000 0.000000 0.500000
O O15 0.664854 0.435982 0.836481
O O16 0.796573 0.073861 0.011982
O O17 0.500000 0.000000 0.000000
#
# Coordination Sequence:
#
# PCOD8039615 Si02
#       8
#     2   2   2   2   2   2   2   2
#     4   9  17  38  58  75 117 155 192 250 302 334
#     4  12  22  37  60  86 117 157 204 244 296 347
#     4  11  24  38  58  89 120 157 198 244 293 350
#     4  10  23  42  62  91 124 155 191 235 292 349
#     4  10  18  34  58  80 105 154 197 246 299 346
#     4  11  23  40  63  89 124 157 189 242 290 347
#     4   9  19  35  59  77 112 155 198 247 296 344
#     4  10  22  42  67  93 121 153 191 235 287 351
#
# _framework density 21.376189
#
# number of rings (size 3 to 8) (size 9 to 14) (size 15 to 20)
#    0.750    1.000    2.500    1.875    0.000    3.000 
#    0.000    0.625    0.000    0.000    0.000    0.000 
#    0.000    0.000    0.000    0.000    0.000    0.000 
#
# Total GULP energy -198330.837202 kJ/mol
# GULP energy per Si atom -12395.677325 kJ/mol
# Density = 2.132754 g / cm^3
# Si number density = 21.376189 Si / 1000 Ang^3
#
#
#
# Elastic Constant Matrix: (Units=GPa)
#
#
# Indices 1 2 3 4 5 6 
#
# 1 36.8319 14.5992 20.4616 13.3316 9.0269 -0.0368
# 2 14.5992 83.5694 28.5427 1.0222 5.5209 -14.2618
# 3 20.4616 28.5427 96.4221 10.3926 -1.8713 -4.6685
# 4 13.3316 1.0222 10.3926 35.0672 -2.2453 4.5338
# 5 9.0269 5.5209 -1.8713 -2.2453 43.3417 6.5172
# 6 -0.0368 -14.2618 -4.6685 4.5338 6.5172 13.3362
#
#
#
# Elastic Compliance Matrix: (Units=1/GPa)
#
#
# Indices 1 2 3 4 5 6 
#
# 1 0.039097 -0.003444 -0.005752 -0.014133 -0.009246 0.003734
# 2 -0.003444 0.017527 -0.003452 -0.001098 -0.004762 0.020226
# 3 -0.005752 -0.003452 0.012818 -0.001409 0.002082 0.000241
# 4 -0.014133 -0.001098 -0.001409 0.037169 0.007668 -0.018090
# 5 -0.009246 -0.004762 0.002082 0.007668 0.029297 -0.021313
# 6 0.003734 0.020226 0.000241 -0.018090 -0.021313 0.113273
#
#
# Mechanical properties :
#
#
# Convention : Reuss Voigt Hill
#
# Bulk Modulus (GPa) = 22.65364 38.22561 30.43963
# Shear Modulus (GPa) = 17.28955 28.56368 22.92662
#
# Velocity S-wave (km/s) = 2.84707 3.65943 3.27850
# Velocity P-wave (km/s) = 4.62907 5.98133 5.34812
#
# Compressibility (1/GPa) = 0.04414301
#
# Stress axis : x y z
#
# Youngs Moduli (GPa) = 25.57769 57.05620 78.01783
#
# Poissons Ratio (x) = 0.19652 0.44879
# Poissons Ratio (y) = 0.08810 0.26932
# Poissons Ratio (z) = 0.14713 0.19696
#
# Static dielectric constant tensor:
#      x y z
#    x 3.331620 0.018860 0.002650 
#    y 0.018860 3.975210 0.025550 
#    z 0.002650 0.025550 3.906610 
# 
# 
# High freq. dielectric constant tensor:
#      x y z
#    x 1.796650 -0.004070 0.000750 
#    y -0.004070 1.846040 -0.000190 
#    z 0.000750 -0.000190 1.845980 
# 
# From -- ./inp_files/561985.got.cif
#   From: 2010.06.25/outbox.cif.g09.slc.cpg/sg2_281_cif.got.tgz:561985.got - 2010.06.27 13:26:56.
