data_PCOD8039444
_publ_section_title
;
Structure prediction by ZEFSAII (Michael W. Deem and Ramdas Pophale) SiO2 
 PCOD8039444
Probable space group: P -1
;
_chemical_formula_sum "Si O2"
_cell_formula_units_Z 16
_cell_length_a 9.559165
_cell_length_b 14.418786
_cell_length_c 11.953141
_cell_angle_alpha 55.676401
_cell_angle_beta 142.919054
_cell_angle_gamma 109.149756
_cell_volume 795.459806
_symmetry_space_group_name_H-M "P -1"
_symmetry_group_IT_number 2
_symmetry_cell_setting 'triclinic'
loop_
_space_group_symop_operation_xyz
x,y,z
-x,-y,-z
loop_
_atom_site_type_symbol
_atom_site_label
_atom_site_fract_x
_atom_site_fract_y
_atom_site_fract_z
Si Si1 0.423492 0.227883 0.965756
Si Si2 0.778156 0.529772 0.418589
Si Si3 0.231670 0.068705 0.799745
Si Si4 0.147316 0.060644 0.318220
Si Si5 0.872582 0.424497 0.225131
Si Si6 0.425759 0.159194 0.258152
Si Si7 0.452336 0.622068 0.748932
Si Si8 0.962089 0.187497 0.331540
O O1 0.339985 0.225943 0.042335
O O2 0.700956 0.159470 0.175273
O O3 0.407630 0.358182 0.826888
O O4 0.238548 0.177496 0.808429
O O5 0.648030 0.423606 0.398464
O O6 0.000000 0.500000 0.500000
O O7 0.875620 0.550123 0.589663
O O8 0.102314 0.110564 0.572978
O O9 0.085052 0.987563 0.823408
O O10 0.500000 0.000000 0.000000
O O11 0.200023 0.128889 0.195736
O O12 0.103862 0.149487 0.333607
O O13 0.374323 0.956582 0.562135
O O14 0.725931 0.380418 0.259852
O O15 0.941213 0.323194 0.245803
O O16 0.717132 0.542549 0.993717
O O17 0.532228 0.245545 0.346467
#
# Coordination Sequence:
#
# PCOD8039444 Si02
#       8
#     2   2   2   2   2   2   2   2
#     4  12  21  37  65  91 122 159 201 264 305 361
#     4  10  20  31  58  99 120 148 203 258 306 357
#     4  12  23  37  66  92 116 159 211 259 305 351
#     4  11  25  41  61  88 128 170 205 252 303 373
#     4  10  18  33  61  93 119 148 206 257 307 355
#     4  11  23  42  60  88 129 171 204 242 315 373
#     4  10  18  35  59  87 123 160 194 253 307 363
#     4  12  21  41  64  92 123 157 209 259 312 360
#
# _framework density 20.114152000000001
#
# number of rings (size 3 to 8) (size 9 to 14) (size 15 to 20)
#    0.000    1.000    6.250    2.625    1.750    0.500 
#    0.000    0.625    0.000    0.750    0.000    0.000 
#    0.000    0.000    0.000    0.000    0.000    0.000 
#
# Total GULP energy -198397.656550 kJ/mol
# GULP energy per Si atom -12399.853534 kJ/mol
# Density = 2.006837 g / cm^3
# Si number density = 20.114152 Si / 1000 Ang^3
#
#
#
# Elastic Constant Matrix: (Units=GPa)
#
#
# Indices 1 2 3 4 5 6 
#
# 1 90.2501 48.0358 30.5136 4.5261 12.6040 -3.3201
# 2 48.0358 118.8308 22.9230 5.6082 8.0463 -20.6064
# 3 30.5136 22.9230 84.2675 11.0271 14.1281 -7.3474
# 4 4.5261 5.6082 11.0271 33.1348 -3.9651 5.1480
# 5 12.6040 8.0463 14.1281 -3.9651 17.5899 -0.0807
# 6 -3.3201 -20.6064 -7.3474 5.1480 -0.0807 24.2717
#
#
#
# Elastic Compliance Matrix: (Units=1/GPa)
#
#
# Indices 1 2 3 4 5 6 
#
# 1 0.016268 -0.006195 -0.003547 -0.000074 -0.006010 -0.004112
# 2 -0.006195 0.013115 0.000607 -0.003659 -0.002821 0.011237
# 3 -0.003547 0.000607 0.016755 -0.007783 -0.012918 0.006710
# 4 -0.000074 -0.003659 -0.007783 0.037432 0.016354 -0.013357
# 5 -0.006010 -0.002821 -0.012918 0.016354 0.076463 -0.010342
# 6 -0.004112 0.011237 0.006710 -0.013357 -0.010342 0.055008
#
#
# Mechanical properties :
#
#
# Convention : Reuss Voigt Hill
#
# Bulk Modulus (GPa) = 35.88131 55.14369 45.51250
# Shear Modulus (GPa) = 20.61005 27.79099 24.20052
#
# Velocity S-wave (km/s) = 3.20449 3.72111 3.47242
# Velocity P-wave (km/s) = 5.61865 6.77769 6.22520
#
# Compressibility (1/GPa) = 0.02786967
#
# Stress axis : x y z
#
# Youngs Moduli (GPa) = 61.46854 76.25003 59.68207
#
# Poissons Ratio (x) = 0.47235 0.21169
# Poissons Ratio (y) = 0.38078 -0.03624
# Poissons Ratio (z) = 0.21803 -0.04630
#
# Static dielectric constant tensor:
#      x y z
#    x 3.313480 -0.161750 0.171210 
#    y -0.161750 4.288050 0.268420 
#    z 0.171210 0.268420 3.625880 
# 
# 
# High freq. dielectric constant tensor:
#      x y z
#    x 1.735330 -0.018940 0.021930 
#    y -0.018940 1.809650 0.002190 
#    z 0.021930 0.002190 1.784080 
# 
# From -- ./inp_files/398684.got.cif
#   From: 2010.06.25/outbox.cif.g09.slc.cpg/sg2_200_cif.got.tgz:398684.got - 2010.06.27 13:26:56.
