data_PCOD8039345
_publ_section_title
;
Structure prediction by ZEFSAII (Michael W. Deem and Ramdas Pophale) SiO2 
 PCOD8039345
Probable space group: P -1
;
_chemical_formula_sum "Si O2"
_cell_formula_units_Z 16
_cell_length_a 20.328874
_cell_length_b 7.122074
_cell_length_c 8.892451
_cell_angle_alpha 115.242834
_cell_angle_beta 142.529902
_cell_angle_gamma 56.182578
_cell_volume 650.428100
_symmetry_space_group_name_H-M "P -1"
_symmetry_group_IT_number 2
_symmetry_cell_setting 'triclinic'
loop_
_space_group_symop_operation_xyz
x,y,z
-x,-y,-z
loop_
_atom_site_type_symbol
_atom_site_label
_atom_site_fract_x
_atom_site_fract_y
_atom_site_fract_z
Si Si1 0.051688 0.688545 0.156363
Si Si2 0.711812 0.878488 0.089464
Si Si3 0.763486 0.620408 0.813480
Si Si4 0.577613 0.271136 0.485417
Si Si5 0.175866 0.970309 0.052556
Si Si6 0.461337 0.144118 0.659318
Si Si7 0.195782 0.781648 0.701991
Si Si8 0.399210 0.319728 0.937131
O O1 0.145208 0.625002 0.165275
O O2 0.113523 0.684757 0.428880
O O3 0.000000 0.500000 0.000000
O O4 0.943521 0.935464 0.030184
O O5 0.674405 0.801575 0.150003
O O6 0.799754 0.005748 0.313428
O O7 0.771729 0.651418 0.018162
O O8 0.600867 0.070391 0.864389
O O9 0.627963 0.652975 0.537678
O O10 0.790047 0.817402 0.845673
O O11 0.500000 0.500000 0.500000
O O12 0.717847 0.221137 0.725219
O O13 0.559518 0.082362 0.491995
O O14 0.525849 0.272791 0.225352
O O15 0.148648 0.865715 0.813207
O O16 0.425509 0.207878 0.786716
O O17 0.325636 0.585886 0.884344
#
# Coordination Sequence:
#
# PCOD8039345 Si02
#       8
#     2   2   2   2   2   2   2   2
#     4  10  20  38  65  92 119 170 220 261 314 382
#     4  10  22  37  60  95 135 162 209 268 313 383
#     4   9  18  36  60  90 127 165 214 258 316 375
#     4  10  18  33  57  93 126 157 208 251 311 379
#     4   9  19  34  61  92 122 167 214 258 306 382
#     4  10  20  38  59  93 130 173 206 256 323 379
#     4  11  21  39  66  95 123 168 221 255 323 379
#     4  11  22  40  64  96 132 171 205 259 329 379
#
# _framework density 24.599181999999999
#
# number of rings (size 3 to 8) (size 9 to 14) (size 15 to 20)
#    0.000    2.000    2.500    2.250    0.000    1.500 
#    0.000    2.500    0.000   13.500    0.000    0.000 
#    0.000    0.000    0.000    0.000    0.000    0.000 
#
# Total GULP energy -198259.731549 kJ/mol
# GULP energy per Si atom -12391.233222 kJ/mol
# Density = 2.454319 g / cm^3
# Si number density = 24.599182 Si / 1000 Ang^3
#
#
#
# Elastic Constant Matrix: (Units=GPa)
#
#
# Indices 1 2 3 4 5 6 
#
# 1 56.0486 34.7813 18.2420 10.4041 -2.5474 -26.3349
# 2 34.7813 129.7904 44.2996 -1.6761 -0.5012 -44.0700
# 3 18.2420 44.2996 113.0943 8.2341 4.4869 -4.4272
# 4 10.4041 -1.6761 8.2341 42.0703 -5.3961 5.9236
# 5 -2.5474 -0.5012 4.4869 -5.3961 24.3739 -3.7297
# 6 -26.3349 -44.0700 -4.4272 5.9236 -3.7297 38.3867
#
#
#
# Elastic Compliance Matrix: (Units=1/GPa)
#
#
# Indices 1 2 3 4 5 6 
#
# 1 0.032458 0.001232 -0.004235 -0.009959 0.005864 0.025300
# 2 0.001232 0.015693 -0.005734 -0.000650 0.004226 0.018711
# 3 -0.004235 -0.005734 0.011666 -0.000814 -0.004177 -0.008423
# 4 -0.009959 -0.000650 -0.000814 0.028479 0.003608 -0.011716
# 5 0.005864 0.004226 -0.004177 0.003608 0.045166 0.012225
# 6 0.025300 0.018711 -0.008423 -0.011716 0.012225 0.066913
#
#
# Mechanical properties :
#
#
# Convention : Reuss Voigt Hill
#
# Bulk Modulus (GPa) = 23.61605 54.84213 39.22909
# Shear Modulus (GPa) = 21.55516 34.40688 27.98102
#
# Velocity S-wave (km/s) = 2.96337 3.74398 3.37631
# Velocity P-wave (km/s) = 4.61844 6.40566 5.58402
#
# Compressibility (1/GPa) = 0.04234408
#
# Stress axis : x y z
#
# Youngs Moduli (GPa) = 30.80878 63.72390 85.71576
#
# Poissons Ratio (x) = -0.07851 0.36302
# Poissons Ratio (y) = -0.03796 0.49145
# Poissons Ratio (z) = 0.13048 0.36536
#
# Static dielectric constant tensor:
#      x y z
#    x 4.189460 -0.501370 0.232400 
#    y -0.501370 5.004260 -0.009750 
#    z 0.232400 -0.009750 4.804560 
# 
# 
# High freq. dielectric constant tensor:
#      x y z
#    x 1.953720 -0.025780 0.003540 
#    y -0.025780 1.992740 0.012810 
#    z 0.003540 0.012810 1.967660 
# 
# From -- ./inp_files/342970.got.cif
#   From: 2010.06.25/outbox.cif.g09.slc.cpg/sg2_172_cif.got.tgz:342970.got - 2010.06.27 13:26:56.
