data_PCOD8039858
_publ_section_title
;
Structure prediction by ZEFSAII (Michael W. Deem and Ramdas Pophale) SiO2 
 PCOD8039858
Probable space group: P -1
;
_chemical_formula_sum "Si O2"
_cell_formula_units_Z 16
_cell_length_a 8.660916
_cell_length_b 12.687380
_cell_length_c 15.437969
_cell_angle_alpha 65.394394
_cell_angle_beta 40.515744
_cell_angle_gamma 88.446275
_cell_volume 873.469213
_symmetry_space_group_name_H-M "P -1"
_symmetry_group_IT_number 2
_symmetry_cell_setting 'triclinic'
loop_
_space_group_symop_operation_xyz
x,y,z
-x,-y,-z
loop_
_atom_site_type_symbol
_atom_site_label
_atom_site_fract_x
_atom_site_fract_y
_atom_site_fract_z
Si Si1 0.929862 0.297491 0.562218
Si Si2 0.159548 0.360692 0.757066
Si Si3 0.928807 0.849378 0.597101
Si Si4 0.174909 0.117682 0.773402
Si Si5 0.614282 0.942019 0.121117
Si Si6 0.541566 0.032753 0.569982
Si Si7 0.392719 0.830623 0.854968
Si Si8 0.237854 0.497195 0.506808
O O1 0.651087 0.181794 0.763290
O O2 0.874134 0.402664 0.499754
O O3 0.048622 0.228343 0.469833
O O4 0.126654 0.371026 0.533128
O O5 0.178275 0.255762 0.720939
O O6 0.140688 0.459139 0.661170
O O7 0.436799 0.434949 0.668351
O O8 0.906396 0.294399 0.955018
O O9 0.611674 0.777158 0.787374
O O10 0.000000 0.000000 0.500000
O O11 0.145213 0.862128 0.573897
O O12 0.283525 0.106133 0.824462
O O13 0.374105 0.111940 0.620491
O O14 0.864343 0.000688 0.926897
O O15 0.538399 0.054956 0.142647
O O16 0.409247 0.897272 0.730667
O O17 0.500000 0.000000 0.500000
#
# Coordination Sequence:
#
# PCOD8039858 Si02
#       8
#     2   2   2   2   2   2   2   2
#     4  11  19  37  55  81 111 141 184 221 274 326
#     4  10  19  39  54  79 109 142 192 221 263 321
#     4  10  18  35  57  79 111 142 175 224 282 326
#     4   9  16  30  55  80 104 141 170 232 274 315
#     4   9  15  30  57  79 106 135 175 223 286 315
#     4  10  19  31  51  86 113 139 173 217 289 329
#     4   9  19  35  58  79 110 143 175 231 277 317
#     4  10  23  34  57  80 108 152 180 223 262 320
#
# _framework density 18.317761000000001
#
# number of rings (size 3 to 8) (size 9 to 14) (size 15 to 20)
#    0.000    2.250    5.000    0.750    0.000    2.000 
#    2.250    2.500    0.000    0.000    0.000    0.000 
#    0.000    0.000    0.000    0.000    0.000    0.000 
#
# Total GULP energy -198208.849800 kJ/mol
# GULP energy per Si atom -12388.053112 kJ/mol
# Density = 1.827607 g / cm^3
# Si number density = 18.317761 Si / 1000 Ang^3
#
#
#
# Elastic Constant Matrix: (Units=GPa)
#
#
# Indices 1 2 3 4 5 6 
#
# 1 66.0362 31.9675 57.3712 10.4649 -14.7346 8.0787
# 2 31.9675 77.9639 34.2937 7.2005 -16.0841 4.6334
# 3 57.3712 34.2937 117.3182 0.9208 -29.9644 7.5202
# 4 10.4649 7.2005 0.9208 28.9092 1.7254 -7.9117
# 5 -14.7346 -16.0841 -29.9644 1.7254 25.7071 1.6316
# 6 8.0787 4.6334 7.5202 -7.9117 1.6316 23.1677
#
#
#
# Elastic Compliance Matrix: (Units=1/GPa)
#
#
# Indices 1 2 3 4 5 6 
#
# 1 0.033300 -0.005552 -0.013496 -0.013272 0.001455 -0.010755
# 2 -0.005552 0.017328 -0.000046 -0.003702 0.008066 -0.003347
# 3 -0.013496 -0.000046 0.018768 0.003109 0.013986 -0.001300
# 4 -0.013272 -0.003702 0.003109 0.046618 -0.010764 0.021037
# 5 0.001455 0.008066 0.013986 -0.010764 0.062741 -0.014754
# 6 -0.010755 -0.003347 -0.001300 0.021037 -0.014754 0.056228
#
#
# Mechanical properties :
#
#
# Convention : Reuss Voigt Hill
#
# Bulk Modulus (GPa) = 32.04428 56.50924 44.27676
# Shear Modulus (GPa) = 17.63192 24.73585 21.18389
#
# Velocity S-wave (km/s) = 3.10588 3.67873 3.40438
# Velocity P-wave (km/s) = 5.51303 6.99718 6.29897
#
# Compressibility (1/GPa) = 0.03120682
#
# Stress axis : x y z
#
# Youngs Moduli (GPa) = 30.03008 57.70910 53.28104
#
# Poissons Ratio (x) = 0.32042 0.71909
# Poissons Ratio (y) = 0.16674 0.00247
# Poissons Ratio (z) = 0.40529 0.00267
#
# Static dielectric constant tensor:
#      x y z
#    x 1.719170 3.118950 1.194190 
#    y 3.118950 -3.121580 -3.223700 
#    z 1.194190 -3.223700 2.044100 
# 
# 
# High freq. dielectric constant tensor:
#      x y z
#    x 1.700270 -0.011570 -0.023710 
#    y -0.011570 1.697830 -0.001970 
#    z -0.023710 -0.001970 1.702670 
# 
# From -- ./inp_files/397425.got.cif
#   From: 2010.06.25/outbox.cif.g09.slc.cpg/sg2_199_cif.got.tgz:397425.got - 2010.06.27 13:26:56.
