data_PCOD8039342
_publ_section_title
;
Structure prediction by ZEFSAII (Michael W. Deem and Ramdas Pophale) SiO2 
 PCOD8039342
Probable space group: P -1
;
_chemical_formula_sum "Si O2"
_cell_formula_units_Z 16
_cell_length_a 17.911964
_cell_length_b 8.850406
_cell_length_c 13.836090
_cell_angle_alpha 107.767064
_cell_angle_beta 155.314691
_cell_angle_gamma 59.901208
_cell_volume 720.487444
_symmetry_space_group_name_H-M "P -1"
_symmetry_group_IT_number 2
_symmetry_cell_setting 'triclinic'
loop_
_space_group_symop_operation_xyz
x,y,z
-x,-y,-z
loop_
_atom_site_type_symbol
_atom_site_label
_atom_site_fract_x
_atom_site_fract_y
_atom_site_fract_z
Si Si1 0.266765 0.240591 0.496095
Si Si2 0.928180 0.343205 0.566103
Si Si3 0.858741 0.269423 0.260425
Si Si4 0.722529 0.248067 0.461834
Si Si5 0.572526 0.301194 0.779536
Si Si6 0.000317 0.924817 0.881337
Si Si7 0.310362 0.112089 0.721670
Si Si8 0.712477 0.663342 0.104545
O O1 0.181538 0.445875 0.481071
O O2 0.426880 0.212736 0.591720
O O3 0.385201 0.091524 0.695312
O O4 0.082234 0.215709 0.233777
O O5 0.817608 0.326643 0.335239
O O6 0.901073 0.217559 0.588375
O O7 0.178892 0.261379 0.824881
O O8 0.809601 0.441028 0.161798
O O9 0.104663 0.091968 0.487039
O O10 0.681664 0.236783 0.003710
O O11 0.575960 0.469032 0.368378
O O12 0.842295 0.109925 0.665690
O O13 0.551563 0.203669 0.203114
O O14 0.753429 0.199199 0.890251
O O15 0.000000 0.000000 0.000000
O O16 0.219232 0.324658 0.701769
O O17 0.500000 0.000000 0.000000
#
# Coordination Sequence:
#
# PCOD8039342 Si02
#       8
#     2   2   2   2   2   2   2   2
#     4  11  21  41  64  92 128 170 211 262 323 374
#     4  10  19  37  65  94 135 170 207 254 308 386
#     4  10  18  36  59  91 135 175 201 244 314 377
#     4  10  24  40  66  98 126 165 218 258 324 384
#     4  10  24  42  68  97 126 164 220 264 315 392
#     4  12  27  49  67  88 128 167 215 285 331 371
#     4  11  19  29  53  88 127 170 204 238 296 374
#     4  10  18  33  57  89 128 168 203 239 299 380
#
# _framework density 22.207187999999999
#
# number of rings (size 3 to 8) (size 9 to 14) (size 15 to 20)
#    0.000    1.500    3.750    2.250    1.750    5.500 
#    0.000    3.750    0.000    0.000    0.000    0.000 
#    0.000    0.000    0.000    0.000    0.000    0.000 
#
# Total GULP energy -198213.177183 kJ/mol
# GULP energy per Si atom -12388.323574 kJ/mol
# Density = 2.215664 g / cm^3
# Si number density = 22.207188 Si / 1000 Ang^3
#
#
#
# Elastic Constant Matrix: (Units=GPa)
#
#
# Indices 1 2 3 4 5 6 
#
# 1 135.4734 48.7622 62.3118 25.8243 15.9785 2.4133
# 2 48.7622 58.4913 26.4016 11.2456 6.6300 11.4301
# 3 62.3118 26.4016 78.8686 6.9485 15.6847 10.2821
# 4 25.8243 11.2456 6.9485 34.8967 -0.2535 2.7361
# 5 15.9785 6.6300 15.6847 -0.2535 43.6039 4.3271
# 6 2.4133 11.4301 10.2821 2.7361 4.3271 28.3392
#
#
#
# Elastic Compliance Matrix: (Units=1/GPa)
#
#
# Indices 1 2 3 4 5 6 
#
# 1 0.017044 -0.009187 -0.010205 -0.008187 -0.001924 0.007041
# 2 -0.009187 0.027074 -0.000501 -0.001046 0.000408 -0.009917
# 3 -0.010205 -0.000501 0.022148 0.003812 -0.003454 -0.006805
# 4 -0.008187 -0.001046 0.003812 0.034621 0.002383 -0.003970
# 5 -0.001924 0.000408 -0.003454 0.002383 0.025112 -0.002812
# 6 0.007041 -0.009917 -0.006805 -0.003970 -0.002812 0.041969
#
#
# Mechanical properties :
#
#
# Convention : Reuss Voigt Hill
#
# Bulk Modulus (GPa) = 37.76302 60.86495 49.31399
# Shear Modulus (GPa) = 23.08623 30.39178 26.73900
#
# Velocity S-wave (km/s) = 3.22776 3.70341 3.47374
# Velocity P-wave (km/s) = 5.56174 6.76419 6.19222
#
# Compressibility (1/GPa) = 0.02648093
#
# Stress axis : x y z
#
# Youngs Moduli (GPa) = 58.67222 36.93562 45.15153
#
# Poissons Ratio (x) = 0.33931 0.46075
# Poissons Ratio (y) = 0.53899 0.02263
# Poissons Ratio (z) = 0.59872 0.01852
#
# Static dielectric constant tensor:
#      x y z
#    x 4.072440 -0.268480 0.479990 
#    y -0.268480 5.711500 -0.045020 
#    z 0.479990 -0.045020 4.176200 
# 
# 
# High freq. dielectric constant tensor:
#      x y z
#    x 1.848960 0.003300 0.032520 
#    y 0.003300 1.896390 -0.002510 
#    z 0.032520 -0.002510 1.868680 
# 
# From -- ./inp_files/447695.got.cif
#   From: 2010.06.25/outbox.cif.g09.slc.cpg/sg2_224_cif.got.tgz:447695.got - 2010.06.27 13:26:56.
