data_PCOD8039127
_publ_section_title
;
Structure prediction by ZEFSAII (Michael W. Deem and Ramdas Pophale) SiO2 
 PCOD8039127
Probable space group: P -1
;
_chemical_formula_sum "Si O2"
_cell_formula_units_Z 16
_cell_length_a 9.603447
_cell_length_b 11.123866
_cell_length_c 12.143217
_cell_angle_alpha 41.699021
_cell_angle_beta 112.892661
_cell_angle_gamma 106.460564
_cell_volume 794.917038
_symmetry_space_group_name_H-M "P -1"
_symmetry_group_IT_number 2
_symmetry_cell_setting 'triclinic'
loop_
_space_group_symop_operation_xyz
x,y,z
-x,-y,-z
loop_
_atom_site_type_symbol
_atom_site_label
_atom_site_fract_x
_atom_site_fract_y
_atom_site_fract_z
Si Si1 0.485783 0.776817 0.733054
Si Si2 0.298553 0.673207 0.409565
Si Si3 0.341240 0.776925 0.902641
Si Si4 0.774259 0.664903 0.495914
Si Si5 0.511430 0.894193 0.188404
Si Si6 0.584468 0.549698 0.712426
Si Si7 0.737249 0.037646 0.624059
Si Si8 0.958081 0.008228 0.355614
O O1 0.402088 0.676359 0.878446
O O2 0.560184 0.646811 0.754683
O O3 0.350829 0.896041 0.557397
O O4 0.624354 0.895406 0.742954
O O5 0.183861 0.527873 0.418886
O O6 0.355311 0.802726 0.239582
O O7 0.437952 0.563305 0.581941
O O8 0.221205 0.797979 0.393161
O O9 0.434831 0.962152 0.802164
O O10 0.164172 0.831773 0.810918
O O11 0.376203 0.658370 0.103235
O O12 0.639194 0.740153 0.326630
O O13 0.722613 0.634063 0.628211
O O14 0.909214 0.806919 0.440273
O O15 0.500000 0.000000 0.000000
O O16 0.894478 0.942219 0.703884
O O17 0.000000 0.000000 0.500000
#
# Coordination Sequence:
#
# PCOD8039127 Si02
#       8
#     2   2   2   2   2   2   2   2
#     4  10  19  35  59  85 111 144 192 234 283 325
#     4  10  19  35  57  84 115 148 187 231 285 324
#     4  11  20  34  58  88 112 148 189 231 283 335
#     4  10  21  35  55  84 113 152 185 227 286 338
#     4  10  18  32  57  87 113 143 190 233 275 333
#     4  10  20  34  58  87 119 141 186 242 277 327
#     4  10  20  36  59  82 114 150 187 236 276 334
#     4  11  22  38  58  80 115 152 191 225 283 341
#
# _framework density 20.127887000000001
#
# number of rings (size 3 to 8) (size 9 to 14) (size 15 to 20)
#    0.000    1.750    2.500    4.125    3.500    0.500 
#    0.000    2.500    0.000    6.750    0.000    0.000 
#    0.000    0.000    0.000    0.000    0.000    0.000 
#
# Total GULP energy -198270.453768 kJ/mol
# GULP energy per Si atom -12391.903360 kJ/mol
# Density = 2.008208 g / cm^3
# Si number density = 20.127887 Si / 1000 Ang^3
#
#
#
# Elastic Constant Matrix: (Units=GPa)
#
#
# Indices 1 2 3 4 5 6 
#
# 1 101.0387 30.1428 31.8758 4.8155 -7.9855 -15.4592
# 2 30.1428 86.6678 12.0140 -0.5203 1.4409 -11.1936
# 3 31.8758 12.0140 104.8983 3.8420 -8.3451 -10.2106
# 4 4.8155 -0.5203 3.8420 23.6656 -4.6300 -4.9255
# 5 -7.9855 1.4409 -8.3451 -4.6300 17.2892 -2.4746
# 6 -15.4592 -11.1936 -10.2106 -4.9255 -2.4746 20.7942
#
#
#
# Elastic Compliance Matrix: (Units=1/GPa)
#
#
# Indices 1 2 3 4 5 6 
#
# 1 0.013363 -0.003410 -0.002407 0.000504 0.006548 0.007816
# 2 -0.003410 0.013411 -0.000230 0.001693 -0.001667 0.004774
# 3 -0.002407 -0.000230 0.011084 0.000552 0.005015 0.004257
# 4 0.000504 0.001693 0.000552 0.048191 0.015383 0.014803
# 5 0.006548 -0.001667 0.005015 0.015383 0.070180 0.018429
# 6 0.007816 0.004774 0.004257 0.014803 0.018429 0.064260
#
#
# Mechanical properties :
#
#
# Convention : Reuss Voigt Hill
#
# Bulk Modulus (GPa) = 38.81385 48.96333 43.88859
# Shear Modulus (GPa) = 20.73214 26.92129 23.82671
#
# Velocity S-wave (km/s) = 3.21288 3.66117 3.44432
# Velocity P-wave (km/s) = 5.75230 6.50009 6.13759
#
# Compressibility (1/GPa) = 0.02576400
#
# Stress axis : x y z
#
# Youngs Moduli (GPa) = 74.83161 74.56737 90.22166
#
# Poissons Ratio (x) = 0.25431 0.21715
# Poissons Ratio (y) = 0.25521 0.02071
# Poissons Ratio (z) = 0.18011 0.01712
#
# Static dielectric constant tensor:
#      x y z
#    x 3.454040 -0.073160 -0.097000 
#    y -0.073160 3.838470 -0.101440 
#    z -0.097000 -0.101440 3.558480 
# 
# 
# High freq. dielectric constant tensor:
#      x y z
#    x 1.754530 -0.012740 -0.014070 
#    y -0.012740 1.800170 -0.001050 
#    z -0.014070 -0.001050 1.773370 
# 
# From -- ./inp_files/217336.got.cif
#   From: 2010.06.25/outbox.cif.g09.slc.cpg/sg2_109_cif.got.tgz:217336.got - 2010.06.27 13:26:56.
