data_PCOD8039840
_publ_section_title
;
Structure prediction by ZEFSAII (Michael W. Deem and Ramdas Pophale) SiO2 
 PCOD8039840
Probable space group: P -1
;
_chemical_formula_sum "Si O2"
_cell_formula_units_Z 16
_cell_length_a 14.427442
_cell_length_b 9.207594
_cell_length_c 8.404536
_cell_angle_alpha 57.521737
_cell_angle_beta 92.717242
_cell_angle_gamma 70.975611
_cell_volume 855.071948
_symmetry_space_group_name_H-M "P -1"
_symmetry_group_IT_number 2
_symmetry_cell_setting 'triclinic'
loop_
_space_group_symop_operation_xyz
x,y,z
-x,-y,-z
loop_
_atom_site_type_symbol
_atom_site_label
_atom_site_fract_x
_atom_site_fract_y
_atom_site_fract_z
Si Si1 0.250143 0.939100 0.537302
Si Si2 0.333318 0.510962 0.277050
Si Si3 0.162145 0.802524 0.885407
Si Si4 0.813240 0.666007 0.545541
Si Si5 0.673416 0.143547 0.735287
Si Si6 0.984145 0.373162 0.938468
Si Si7 0.831935 0.863442 0.121327
Si Si8 0.532634 0.165568 0.447868
O O1 0.189093 0.841720 0.686438
O O2 0.240155 0.904383 0.369133
O O3 0.371624 0.849304 0.646445
O O4 0.204902 0.161917 0.438021
O O5 0.283172 0.386903 0.434512
O O6 0.352224 0.648645 0.322308
O O7 0.440694 0.369603 0.293756
O O8 0.261122 0.626253 0.060449
O O9 0.131631 0.987737 0.882736
O O10 0.064674 0.754130 0.903050
O O11 0.913518 0.490169 0.718276
O O12 0.828275 0.714541 0.337123
O O13 0.570902 0.140965 0.651088
O O14 0.718669 0.982345 0.969191
O O15 0.093000 0.242492 0.952053
O O16 0.000000 0.500000 0.000000
O O17 0.500000 0.000000 0.500000
#
# Coordination Sequence:
#
# PCOD8039840 Si02
#       8
#     2   2   2   2   2   2   2   2
#     4   9  19  36  55  78 111 142 180 215 274 316
#     4  10  18  35  56  82 108 143 177 227 264 318
#     4   9  21  37  57  78 110 144 179 219 273 322
#     4  10  20  36  57  80 111 142 180 221 274 317
#     4   9  20  34  56  79 111 140 179 227 265 312
#     4  11  22  35  58  84 109 139 182 227 268 323
#     4  10  20  39  56  77 110 146 181 220 271 324
#     4  10  19  34  60  78 111 144 182 215 275 320
#
# _framework density 18.711874999999999
#
# number of rings (size 3 to 8) (size 9 to 14) (size 15 to 20)
#    0.750    1.500    1.250    1.875    0.000    1.500 
#    0.000    7.500    0.000    0.000    0.000    0.000 
#    0.000    0.000    0.000    0.000    0.000    0.000 
#
# Total GULP energy -198343.485011 kJ/mol
# GULP energy per Si atom -12396.467813 kJ/mol
# Density = 1.866929 g / cm^3
# Si number density = 18.711875 Si / 1000 Ang^3
#
#
#
# Elastic Constant Matrix: (Units=GPa)
#
#
# Indices 1 2 3 4 5 6 
#
# 1 48.3511 9.3127 15.8977 -12.9476 -8.7644 3.9512
# 2 9.3127 82.4957 17.2067 -6.8010 -6.1723 -2.8836
# 3 15.8977 17.2067 73.9264 -8.2881 -13.0586 6.3395
# 4 -12.9476 -6.8010 -8.2881 25.5514 1.4301 3.3097
# 5 -8.7644 -6.1723 -13.0586 1.4301 26.1709 -0.4373
# 6 3.9512 -2.8836 6.3395 3.3097 -0.4373 35.1107
#
#
#
# Elastic Compliance Matrix: (Units=1/GPa)
#
#
# Indices 1 2 3 4 5 6 
#
# 1 0.026574 -0.001069 -0.002584 0.012453 0.006616 -0.003703
# 2 -0.001069 0.013071 -0.002482 0.001861 0.001409 0.001484
# 3 -0.002584 -0.002482 0.016463 0.003410 0.006526 -0.003126
# 4 0.012453 0.001861 0.003410 0.047664 0.003601 -0.006312
# 5 0.006616 0.001409 0.006526 0.003601 0.043791 -0.001601
# 6 -0.003703 0.001484 -0.003126 -0.006312 -0.001601 0.030159
#
#
# Mechanical properties :
#
#
# Convention : Reuss Voigt Hill
#
# Bulk Modulus (GPa) = 22.81067 32.17861 27.49464
# Shear Modulus (GPa) = 24.43733 28.19036 26.31384
#
# Velocity S-wave (km/s) = 3.61775 3.88564 3.75409
# Velocity P-wave (km/s) = 5.44682 6.11270 5.78934
#
# Compressibility (1/GPa) = 0.04383914
#
# Stress axis : x y z
#
# Youngs Moduli (GPa) = 37.63106 76.50540 60.74096
#
# Poissons Ratio (x) = 0.08177 0.15693
# Poissons Ratio (y) = 0.04022 0.15077
# Poissons Ratio (z) = 0.09722 0.18990
#
# Static dielectric constant tensor:
#      x y z
#    x 3.337090 -0.030150 0.010170 
#    y -0.030150 3.464490 -0.114050 
#    z 0.010170 -0.114050 3.313570 
# 
# 
# High freq. dielectric constant tensor:
#      x y z
#    x 1.716970 -0.002590 0.005380 
#    y -0.002590 1.736780 -0.008830 
#    z 0.005380 -0.008830 1.716430 
# 
# From -- ./inp_files/201578.got.cif
#   From: 2010.06.25/outbox.cif.g09.slc.cpg/sg2_101_cif.got.tgz:201578.got - 2010.06.27 13:26:56.
