data_PCOD8039195
_publ_section_title
;
Structure prediction by ZEFSAII (Michael W. Deem and Ramdas Pophale) SiO2 
 PCOD8039195
Probable space group: P -1
;
_chemical_formula_sum "Si O2"
_cell_formula_units_Z 16
_cell_length_a 6.258880
_cell_length_b 15.142851
_cell_length_c 15.285018
_cell_angle_alpha 99.509998
_cell_angle_beta 66.733347
_cell_angle_gamma 58.779047
_cell_volume 1004.020267
_symmetry_space_group_name_H-M "P -1"
_symmetry_group_IT_number 2
_symmetry_cell_setting 'triclinic'
loop_
_space_group_symop_operation_xyz
x,y,z
-x,-y,-z
loop_
_atom_site_type_symbol
_atom_site_label
_atom_site_fract_x
_atom_site_fract_y
_atom_site_fract_z
Si Si1 0.241078 0.363370 0.853480
Si Si2 0.776437 0.320764 0.472530
Si Si3 0.668085 0.473693 0.057583
Si Si4 0.859979 0.473813 0.763066
Si Si5 0.235941 0.874540 0.549362
Si Si6 0.091273 0.249528 0.588244
Si Si7 0.918320 0.471910 0.417710
Si Si8 0.178411 0.865009 0.352602
O O1 0.397364 0.409812 0.879998
O O2 0.502652 0.229000 0.763218
O O3 0.043118 0.451352 0.818490
O O4 0.026089 0.368699 0.962681
O O5 0.864854 0.197864 0.407902
O O6 0.953891 0.355069 0.397211
O O7 0.420115 0.417658 0.533841
O O8 0.842983 0.318441 0.563279
O O9 0.503670 0.447982 0.149005
O O10 0.500000 0.500000 0.000000
O O11 0.019538 0.343260 0.684802
O O12 0.872613 0.547206 0.699103
O O13 0.571128 0.821617 0.518273
O O14 0.253363 0.867087 0.440882
O O15 0.988472 0.008205 0.643401
O O16 0.050559 0.162368 0.625008
O O17 0.000000 0.500000 0.500000
#
# Coordination Sequence:
#
# PCOD8039195 Si02
#       8
#     2   2   2   2   2   2   2   2
#     4  10  18  33  47  69  98 126 161 198 234 285
#     4  10  20  30  44  65  97 129 161 194 226 279
#     4   9  20  31  47  68  94 125 161 199 242 280
#     4  11  18  29  49  68  97 131 154 194 238 280
#     4  10  19  31  42  69  98 127 164 194 228 285
#     4  11  17  30  44  67  98 129 158 189 230 281
#     4  11  20  31  47  69  95 132 163 193 238 286
#     4  10  19  28  48  67  93 132 162 190 238 283
#
# _framework density 15.935933
#
# number of rings (size 3 to 8) (size 9 to 14) (size 15 to 20)
#    0.000    1.750    5.000    1.125    0.000    0.000 
#    0.000    0.000    0.000    0.000    0.000    0.875 
#    0.000   13.000    0.000    0.500    0.000    0.000 
#
# Total GULP energy -198276.675763 kJ/mol
# GULP energy per Si atom -12392.292235 kJ/mol
# Density = 1.589966 g / cm^3
# Si number density = 15.935933 Si / 1000 Ang^3
#
#
#
# Elastic Constant Matrix: (Units=GPa)
#
#
# Indices 1 2 3 4 5 6 
#
# 1 93.1677 41.8556 34.6048 -2.6079 -8.8084 8.2804
# 2 41.8556 98.6932 42.2438 1.6671 -11.8886 22.4363
# 3 34.6048 42.2438 87.8600 2.2208 -21.7175 9.7332
# 4 -2.6079 1.6671 2.2208 22.6091 3.7805 -3.2081
# 5 -8.8084 -11.8886 -21.7175 3.7805 30.9042 -7.2773
# 6 8.2804 22.4363 9.7332 -3.2081 -7.2773 29.4256
#
#
#
# Elastic Compliance Matrix: (Units=1/GPa)
#
#
# Indices 1 2 3 4 5 6 
#
# 1 0.014151 -0.004815 -0.003528 0.002543 -0.000364 0.001044
# 2 -0.004815 0.016595 -0.005046 -0.002613 -0.000584 -0.010058
# 3 -0.003528 -0.005046 0.017660 -0.003302 0.010137 0.001146
# 4 0.002543 -0.002613 -0.003302 0.047028 -0.006996 0.005766
# 5 -0.000364 -0.000584 0.010137 -0.006996 0.041591 0.006717
# 6 0.001044 -0.010058 0.001146 0.005766 0.006717 0.043270
#
#
# Mechanical properties :
#
#
# Convention : Reuss Voigt Hill
#
# Bulk Modulus (GPa) = 46.23997 57.45881 51.84939
# Shear Modulus (GPa) = 23.33347 27.32222 25.32785
#
# Velocity S-wave (km/s) = 3.83064 4.14515 3.99100
# Velocity P-wave (km/s) = 6.97454 7.68401 7.33786
#
# Compressibility (1/GPa) = 0.02162631
#
# Stress axis : x y z
#
# Youngs Moduli (GPa) = 70.66592 60.25912 56.62532
#
# Poissons Ratio (x) = 0.29017 0.19978
# Poissons Ratio (y) = 0.34028 0.28575
# Poissons Ratio (z) = 0.24932 0.30409
#
# Static dielectric constant tensor:
#      x y z
#    x 3.477810 0.177690 -0.207080 
#    y 0.177690 3.027110 -0.038390 
#    z -0.207080 -0.038390 3.141720 
# 
# 
# High freq. dielectric constant tensor:
#      x y z
#    x 1.641660 0.008050 -0.003110 
#    y 0.008050 1.580610 0.000820 
#    z -0.003110 0.000820 1.583850 
# 
# From -- ./inp_files/74962.got.cif
#   From: 2010.06.25/outbox.cif.g09.slc.cpg/sg2_38_cif.got.tgz:74962.got - 2010.06.27 13:26:56.
