data_PCOD8039928
_publ_section_title
;
Structure prediction by ZEFSAII (Michael W. Deem and Ramdas Pophale) SiO2 
 PCOD8039928
Probable space group: P -1
;
_chemical_formula_sum "Si O2"
_cell_formula_units_Z 16
_cell_length_a 17.699678
_cell_length_b 8.689085
_cell_length_c 12.314105
_cell_angle_alpha 123.757451
_cell_angle_beta 28.623629
_cell_angle_gamma 121.990457
_cell_volume 750.076720
_symmetry_space_group_name_H-M "P -1"
_symmetry_group_IT_number 2
_symmetry_cell_setting 'triclinic'
loop_
_space_group_symop_operation_xyz
x,y,z
-x,-y,-z
loop_
_atom_site_type_symbol
_atom_site_label
_atom_site_fract_x
_atom_site_fract_y
_atom_site_fract_z
Si Si1 0.659258 0.609950 0.298393
Si Si2 0.154207 0.947452 0.108464
Si Si3 0.092922 0.771824 0.722024
Si Si4 0.773003 0.953235 0.176714
Si Si5 0.139778 0.851309 0.461063
Si Si6 0.056131 0.435706 0.788419
Si Si7 0.321298 0.241912 0.442684
Si Si8 0.306110 0.739509 0.002173
O O1 0.500000 0.500000 0.500000
O O2 0.643704 0.774214 0.293550
O O3 0.741346 0.723689 0.341386
O O4 0.754792 0.447949 0.063376
O O5 0.279886 0.927936 0.040599
O O6 0.040193 0.759805 0.190275
O O7 0.041901 0.114203 0.327626
O O8 0.255155 0.967182 0.876923
O O9 0.152025 0.733489 0.510515
O O10 0.027930 0.582074 0.788086
O O11 0.232430 0.882735 0.662748
O O12 0.949682 0.895617 0.934352
O O13 0.205863 0.730496 0.235212
O O14 0.253050 0.041003 0.408533
O O15 0.243339 0.401794 0.536441
O O16 0.000000 0.500000 0.000000
O O17 0.509896 0.264075 0.201651
#
# Coordination Sequence:
#
# PCOD8039928 Si02
#       8
#     2   2   2   2   2   2   2   2
#     4  10  21  37  57  82 121 157 194 237 296 355
#     4  10  21  35  60  90 118 152 199 248 299 350
#     4  10  19  32  61  90 116 146 202 255 292 338
#     4  10  18  35  58  90 116 149 198 254 292 344
#     4  10  21  39  60  87 118 156 202 243 293 358
#     4  11  19  34  61  92 115 152 201 256 291 343
#     4  10  21  38  60  84 116 158 205 238 291 356
#     4  11  22  39  58  85 124 162 190 240 307 360
#
# _framework density 21.331153
#
# number of rings (size 3 to 8) (size 9 to 14) (size 15 to 20)
#    0.000    1.750    2.500    3.000    0.000    0.000 
#    0.000   13.750    0.000    0.000    0.000    0.000 
#    0.000    0.000    0.000    0.000    0.000    0.000 
#
# Total GULP energy -198241.645507 kJ/mol
# GULP energy per Si atom -12390.102844 kJ/mol
# Density = 2.128260 g / cm^3
# Si number density = 21.331153 Si / 1000 Ang^3
#
#
#
# Elastic Constant Matrix: (Units=GPa)
#
#
# Indices 1 2 3 4 5 6 
#
# 1 75.1486 16.0302 49.1255 -1.8389 17.6708 -22.7123
# 2 16.0302 77.5012 30.7823 -12.8990 16.4765 -14.1787
# 3 49.1255 30.7823 102.7641 5.1835 22.7507 -6.4001
# 4 -1.8389 -12.8990 5.1835 31.9389 0.9562 9.2911
# 5 17.6708 16.4765 22.7507 0.9562 48.5673 -3.9078
# 6 -22.7123 -14.1787 -6.4001 9.2911 -3.9078 35.3494
#
#
#
# Elastic Compliance Matrix: (Units=1/GPa)
#
#
# Indices 1 2 3 4 5 6 
#
# 1 0.025493 0.002764 -0.011263 0.000162 -0.003734 0.014994
# 2 0.002764 0.017573 -0.005691 0.006670 -0.003982 0.005601
# 3 -0.011263 -0.005691 0.017206 -0.004036 -0.002403 -0.005609
# 4 0.000162 0.006670 -0.004036 0.037013 -0.001794 -0.007878
# 5 -0.003734 -0.003982 -0.002403 -0.001794 0.024359 -0.001267
# 6 0.014994 0.005601 -0.005609 -0.007878 -0.001267 0.041084
#
#
# Mechanical properties :
#
#
# Convention : Reuss Voigt Hill
#
# Bulk Modulus (GPa) = 31.35442 49.69886 40.52664
# Shear Modulus (GPa) = 24.78442 33.80285 29.29363
#
# Velocity S-wave (km/s) = 3.41235 3.98511 3.70980
# Velocity P-wave (km/s) = 5.50057 6.67264 6.11475
#
# Compressibility (1/GPa) = 0.03189343
#
# Stress axis : x y z
#
# Youngs Moduli (GPa) = 39.22569 56.90496 58.11885
#
# Poissons Ratio (x) = -0.15730 0.65457
# Poissons Ratio (y) = -0.10843 0.33078
# Poissons Ratio (z) = 0.44178 0.32387
#
# Static dielectric constant tensor:
#      x y z
#    x 4.072490 -0.162460 0.133100 
#    y -0.162460 3.852360 0.173270 
#    z 0.133100 0.173270 3.801820 
# 
# 
# High freq. dielectric constant tensor:
#      x y z
#    x 1.832710 -0.008380 0.005830 
#    y -0.008380 1.825000 0.000380 
#    z 0.005830 0.000380 1.820750 
# 
# From -- ./inp_files/262286.got.cif
#   From: 2010.06.25/outbox.cif.g09.slc.cpg/sg2_132_cif.got.tgz:262286.got - 2010.06.27 13:26:56.
