data_PCOD8039933
_publ_section_title
;
Structure prediction by ZEFSAII (Michael W. Deem and Ramdas Pophale) SiO2 
 PCOD8039933
Probable space group: P -1
;
_chemical_formula_sum "Si O2"
_cell_formula_units_Z 16
_cell_length_a 24.049633
_cell_length_b 11.389493
_cell_length_c 4.960167
_cell_angle_alpha 116.638406
_cell_angle_beta 63.127572
_cell_angle_gamma 141.577769
_cell_volume 742.200928
_symmetry_space_group_name_H-M "P -1"
_symmetry_group_IT_number 2
_symmetry_cell_setting 'triclinic'
loop_
_space_group_symop_operation_xyz
x,y,z
-x,-y,-z
loop_
_atom_site_type_symbol
_atom_site_label
_atom_site_fract_x
_atom_site_fract_y
_atom_site_fract_z
Si Si1 0.032601 0.718236 0.101790
Si Si2 0.724417 0.537236 0.683216
Si Si3 0.577652 0.494707 0.110532
Si Si4 0.185177 0.903662 0.350619
Si Si5 0.134063 0.078471 0.976635
Si Si6 0.817291 0.590192 0.015819
Si Si7 0.384687 0.280592 0.246656
Si Si8 0.080944 0.510785 0.369725
O O1 0.953722 0.588210 0.363038
O O2 0.128061 0.807173 0.095634
O O3 0.001856 0.582598 0.763495
O O4 0.047411 0.891883 0.147596
O O5 0.783400 0.762099 0.833996
O O6 0.742279 0.509295 0.321057
O O7 0.619945 0.420677 0.842209
O O8 0.756538 0.474950 0.761224
O O9 0.468076 0.312277 0.179293
O O10 0.618139 0.598687 0.419930
O O11 0.602272 0.649322 0.011774
O O12 0.155900 0.740140 0.444866
O O13 0.292237 0.054497 0.220735
O O14 0.162266 0.006843 0.640097
O O15 0.113622 0.179461 0.951239
O O16 0.873933 0.549076 0.926122
#
# Coordination Sequence:
#
# PCOD8039933 Si02
#       8
#     2   2   2   2   2   2   2   2
#     4  12  25  42  59  88 117 163 204 253 297 351
#     4  10  19  38  62  84 122 151 197 230 317 345
#     4  10  18  35  58  97 118 153 181 250 293 365
#     4  12  24  43  61  90 122 160 197 248 305 357
#     4  10  22  37  64  85 114 153 201 247 299 346
#     4  10  23  41  59  88 114 167 194 252 291 356
#     4  10  21  32  60  91 128 142 195 239 307 344
#     4  12  28  41  61  82 124 161 211 243 295 351
#
# _framework density 21.557504999999999
#
# number of rings (size 3 to 8) (size 9 to 14) (size 15 to 20)
#    0.750    0.500    2.500    4.500    1.750    1.000 
#    0.000    0.000    0.000    1.500    0.000    0.000 
#    0.000    0.000    0.000    0.000    0.000    0.000 
#
# Total GULP energy -198308.620496 kJ/mol
# GULP energy per Si atom -12394.288781 kJ/mol
# Density = 2.150844 g / cm^3
# Si number density = 21.557505 Si / 1000 Ang^3
#
#
#
# Elastic Constant Matrix: (Units=GPa)
#
#
# Indices 1 2 3 4 5 6 
#
# 1 55.9844 40.9188 16.3955 -4.1729 2.9619 1.0915
# 2 40.9188 104.7404 28.9785 -12.7312 -10.0529 11.0102
# 3 16.3955 28.9785 87.8637 -16.3921 13.9979 -2.1337
# 4 -4.1729 -12.7312 -16.3921 28.3984 -0.1989 -2.4138
# 5 2.9619 -10.0529 13.9979 -0.1989 28.4447 2.6699
# 6 1.0915 11.0102 -2.1337 -2.4138 2.6699 27.7583
#
#
#
# Elastic Compliance Matrix: (Units=1/GPa)
#
#
# Indices 1 2 3 4 5 6 
#
# 1 0.026614 -0.011641 -0.000064 -0.001041 -0.007253 0.004173
# 2 -0.011641 0.017653 -0.005030 0.002718 0.010670 -0.007721
# 3 -0.000064 -0.005030 0.016167 0.007409 -0.010131 0.004859
# 4 -0.001041 0.002718 0.007409 0.040821 -0.002604 0.003332
# 5 -0.007253 0.010670 -0.010131 -0.002604 0.045525 -0.009331
# 6 0.004173 -0.007721 0.004859 0.003332 -0.009331 0.040484
#
#
# Mechanical properties :
#
#
# Convention : Reuss Voigt Hill
#
# Bulk Modulus (GPa) = 37.08825 46.79712 41.94269
# Shear Modulus (GPa) = 21.76545 27.73999 24.75272
#
# Velocity S-wave (km/s) = 3.18094 3.59108 3.39221
# Velocity P-wave (km/s) = 5.54372 6.24096 5.90265
#
# Compressibility (1/GPa) = 0.02696271
#
# Stress axis : x y z
#
# Youngs Moduli (GPa) = 37.57436 56.64793 61.85596
#
# Poissons Ratio (x) = 0.65942 0.00399
# Poissons Ratio (y) = 0.43739 0.31115
# Poissons Ratio (z) = 0.00242 0.28495
#
# Static dielectric constant tensor:
#      x y z
#    x 3.878820 0.054560 0.114180 
#    y 0.054560 3.884360 -0.142190 
#    z 0.114180 -0.142190 3.899740 
# 
# 
# High freq. dielectric constant tensor:
#      x y z
#    x 1.837910 0.001490 0.015290 
#    y 0.001490 1.814340 -0.018540 
#    z 0.015290 -0.018540 1.856450 
# 
# From -- ./inp_files/126756.got.cif
#   From: 2010.06.25/outbox.cif.g09.slc.cpg/sg2_64_cif.got.tgz:126756.got - 2010.06.27 13:26:56.
