data_PCOD8039776
_publ_section_title
;
Structure prediction by ZEFSAII (Michael W. Deem and Ramdas Pophale) SiO2 
 PCOD8039776
Probable space group: P -1
;
_chemical_formula_sum "Si O2"
_cell_formula_units_Z 14
_cell_length_a 8.919112
_cell_length_b 11.068053
_cell_length_c 11.501397
_cell_angle_alpha 139.323499
_cell_angle_beta 101.901519
_cell_angle_gamma 94.704331
_cell_volume 671.621605
_symmetry_space_group_name_H-M "P -1"
_symmetry_group_IT_number 2
_symmetry_cell_setting 'triclinic'
loop_
_space_group_symop_operation_xyz
x,y,z
-x,-y,-z
loop_
_atom_site_type_symbol
_atom_site_label
_atom_site_fract_x
_atom_site_fract_y
_atom_site_fract_z
Si Si1 0.247636 0.847839 0.166340
Si Si2 0.922154 0.390578 0.260516
Si Si3 0.531218 0.714257 0.514576
Si Si4 0.073245 0.779949 0.440788
Si Si5 0.703004 0.388230 0.791196
Si Si6 0.747596 0.503971 0.506992
Si Si7 0.074825 0.181856 0.784627
O O1 0.317734 0.709709 0.155510
O O2 0.110228 0.898583 0.252560
O O3 0.398862 0.046434 0.300413
O O4 0.166215 0.738079 0.956344
O O5 0.793386 0.353980 0.319122
O O6 0.986824 0.627065 0.417174
O O7 0.085309 0.347325 0.293189
O O8 0.470376 0.637952 0.317368
O O9 0.674096 0.638648 0.519177
O O10 0.380433 0.635363 0.522714
O O11 0.217189 0.725755 0.365539
O O12 0.932393 0.760582 0.308857
O O13 0.144486 0.003391 0.670847
O O14 0.810870 0.623945 0.985069
#
# Coordination Sequence:
#
# PCOD8039776 Si02
#       7
#     2   2   2   2   2   2   2
#     4  11  21  37  66  92 125 163 204 263 319 364
#     4  11  20  42  65  90 119 165 221 258 293 368
#     4  11  23  42  59  91 132 165 202 256 322 370
#     4  10  18  34  64  92 125 153 213 255 298 362
#     4  11  20  41  62  96 130 163 197 263 314 381
#     4  10  24  41  63  84 124 174 210 260 298 365
#     4  10  19  34  64  96 121 164 203 252 312 369
#
# _framework density 20.845071000000001
#
# number of rings (size 3 to 8) (size 9 to 14) (size 15 to 20)
#    0.000    1.429    4.286    2.143    0.000    1.143 
#    2.571    6.429    0.000    0.000    0.000    0.000 
#    0.000    0.000    0.000    0.000    0.000    0.000 
#
# Total GULP energy -173572.341408 kJ/mol
# GULP energy per Si atom -12398.024386 kJ/mol
# Density = 2.079763 g / cm^3
# Si number density = 20.845071 Si / 1000 Ang^3
#
#
#
# Elastic Constant Matrix: (Units=GPa)
#
#
# Indices 1 2 3 4 5 6 
#
# 1 74.8756 35.4779 49.0358 -7.3632 8.6804 -3.8848
# 2 35.4779 78.0244 72.5292 -10.0529 19.7886 -11.4389
# 3 49.0358 72.5292 128.8243 -9.1330 9.8249 -16.0131
# 4 -7.3632 -10.0529 -9.1330 39.7582 -4.7547 2.3925
# 5 8.6804 19.7886 9.8249 -4.7547 30.0554 -3.4772
# 6 -3.8848 -11.4389 -16.0131 2.3925 -3.4772 27.7608
#
#
#
# Elastic Compliance Matrix: (Units=1/GPa)
#
#
# Indices 1 2 3 4 5 6 
#
# 1 0.018561 -0.003316 -0.005250 0.001341 -0.001492 -0.002100
# 2 -0.003316 0.033960 -0.016266 0.002262 -0.015494 0.002011
# 3 -0.005250 -0.016266 0.018945 -0.000216 0.006499 0.004324
# 4 0.001341 0.002262 -0.000216 0.026249 0.002232 -0.000987
# 5 -0.001492 -0.015494 0.006499 0.002232 0.042396 0.002273
# 6 -0.002100 0.002011 0.004324 -0.000987 0.002273 0.039421
#
#
# Mechanical properties :
#
#
# Convention : Reuss Voigt Hill
#
# Bulk Modulus (GPa) = 45.86594 66.20111 56.03353
# Shear Modulus (GPa) = 21.14485 27.82696 24.48591
#
# Velocity S-wave (km/s) = 3.18839 3.65765 3.43105
# Velocity P-wave (km/s) = 5.96703 7.04737 6.52958
#
# Compressibility (1/GPa) = 0.02180267
#
# Stress axis : x y z
#
# Youngs Moduli (GPa) = 53.87659 29.44603 52.78349
#
# Poissons Ratio (x) = 0.09764 0.27713
# Poissons Ratio (y) = 0.17864 0.85857
# Poissons Ratio (z) = 0.28287 0.47896
#
# Static dielectric constant tensor:
#      x y z
#    x 3.664060 -0.116460 0.074570 
#    y -0.116460 4.121660 -0.174590 
#    z 0.074570 -0.174590 3.688440 
# 
# 
# High freq. dielectric constant tensor:
#      x y z
#    x 1.799540 -0.001130 0.003010 
#    y -0.001130 1.830460 -0.015100 
#    z 0.003010 -0.015100 1.807680 
# 
# From -- ./inp_files/174763.got.cif
#   From: 2010.06.25/outbox.cif.g09.slc.cpg/sg2_88_cif.got.tgz:174763.got - 2010.06.27 13:26:56.
