data_PCOD8039693
_publ_section_title
;
Structure prediction by ZEFSAII (Michael W. Deem and Ramdas Pophale) SiO2 
 PCOD8039693
Probable space group: P -1
;
_chemical_formula_sum "Si O2"
_cell_formula_units_Z 16
_cell_length_a 15.603051
_cell_length_b 8.677928
_cell_length_c 8.401180
_cell_angle_alpha 74.810849
_cell_angle_beta 51.671360
_cell_angle_gamma 97.682938
_cell_volume 792.546666
_symmetry_space_group_name_H-M "P -1"
_symmetry_group_IT_number 2
_symmetry_cell_setting 'triclinic'
loop_
_space_group_symop_operation_xyz
x,y,z
-x,-y,-z
loop_
_atom_site_type_symbol
_atom_site_label
_atom_site_fract_x
_atom_site_fract_y
_atom_site_fract_z
Si Si1 0.719634 0.851146 0.754836
Si Si2 0.468599 0.346369 0.202211
Si Si3 0.967761 0.016708 0.281147
Si Si4 0.198234 0.998905 0.073406
Si Si5 0.299242 0.334768 0.679254
Si Si6 0.915181 0.398109 0.768526
Si Si7 0.703766 0.511490 0.023306
Si Si8 0.939111 0.714707 0.150368
O O1 0.616688 0.827913 0.747457
O O2 0.845705 0.985307 0.514377
O O3 0.702561 0.938097 0.916843
O O4 0.725682 0.666377 0.831620
O O5 0.406989 0.385606 0.418722
O O6 0.592950 0.343257 0.125922
O O7 0.500000 0.500000 0.000000
O O8 0.955799 0.862068 0.219379
O O9 0.079817 0.029857 0.260721
O O10 0.997735 0.199340 0.109216
O O11 0.168025 0.800283 0.122212
O O12 0.248791 0.125821 0.827863
O O13 0.335311 0.442413 0.772304
O O14 0.200536 0.388080 0.691670
O O15 0.000000 0.500000 0.500000
O O16 0.000591 0.411377 0.816859
O O17 0.825804 0.485366 0.899968
#
# Coordination Sequence:
#
# PCOD8039693 Si02
#       8
#     2   2   2   2   2   2   2   2
#     4  10  18  34  60  83 107 147 200 236 269 329
#     4  10  21  35  62  86 110 144 198 246 281 319
#     4   9  15  29  54  82 109 137 191 234 269 323
#     4   9  20  34  57  86 111 151 188 231 280 336
#     4  10  19  38  63  83 112 144 202 240 267 337
#     4  11  23  37  56  83 129 150 177 229 297 349
#     4  10  22  37  55  88 115 154 185 233 294 332
#     4   9  18  30  54  84 108 146 179 228 285 331
#
# _framework density 20.188085999999998
#
# number of rings (size 3 to 8) (size 9 to 14) (size 15 to 20)
#    0.000    2.250    1.250    3.000    1.750    2.500 
#    0.000    1.250    0.000    0.000    0.000    0.000 
#    0.000    0.000    0.000    0.000    0.000    0.000 
#
# Total GULP energy -198227.609094 kJ/mol
# GULP energy per Si atom -12389.225568 kJ/mol
# Density = 2.014214 g / cm^3
# Si number density = 20.188086 Si / 1000 Ang^3
#
#
#
# Elastic Constant Matrix: (Units=GPa)
#
#
# Indices 1 2 3 4 5 6 
#
# 1 109.4281 19.3380 24.2165 -2.1272 -8.5945 6.5469
# 2 19.3380 43.8316 13.4501 -4.9993 10.0605 2.8226
# 3 24.2165 13.4501 100.6011 2.7746 -4.3939 -2.2631
# 4 -2.1272 -4.9993 2.7746 17.3010 0.2716 -0.7000
# 5 -8.5945 10.0605 -4.3939 0.2716 16.2691 -1.6946
# 6 6.5469 2.8226 -2.2631 -0.7000 -1.6946 25.9556
#
#
#
# Elastic Compliance Matrix: (Units=1/GPa)
#
#
# Indices 1 2 3 4 5 6 
#
# 1 0.011523 -0.006830 -0.001457 -0.000544 0.009752 -0.001669
# 2 -0.006830 0.034837 -0.004562 0.010222 -0.026964 -0.003948
# 3 -0.001457 -0.004562 0.011274 -0.003304 0.005371 0.002108
# 4 -0.000544 0.010222 -0.003304 0.061344 -0.008542 -0.000166
# 5 0.009752 -0.026964 0.005371 -0.008542 0.085541 0.006295
# 6 -0.001669 -0.003948 0.002108 -0.000166 0.006295 0.039968
#
#
# Mechanical properties :
#
#
# Convention : Reuss Voigt Hill
#
# Bulk Modulus (GPa) = 31.31250 40.87445 36.09347
# Shear Modulus (GPa) = 17.80428 25.02886 21.41657
#
# Velocity S-wave (km/s) = 2.97294 3.52488 3.26061
# Velocity P-wave (km/s) = 5.22767 6.07101 5.66505
#
# Compressibility (1/GPa) = 0.03193613
#
# Stress axis : x y z
#
# Youngs Moduli (GPa) = 86.78246 28.70521 88.69861
#
# Poissons Ratio (x) = 0.19605 0.12926
# Poissons Ratio (y) = 0.59269 0.40465
# Poissons Ratio (z) = 0.12647 0.13095
#
# Static dielectric constant tensor:
#      x y z
#    x 4.293300 0.309510 -0.023160 
#    y 0.309510 3.240440 -0.190290 
#    z -0.023160 -0.190290 3.679810 
# 
# 
# High freq. dielectric constant tensor:
#      x y z
#    x 1.803760 0.027640 0.005930 
#    y 0.027640 1.737870 -0.009460 
#    z 0.005930 -0.009460 1.788720 
# 
# From -- ./inp_files/223262.got.cif
#   From: 2010.06.25/outbox.cif.g09.slc.cpg/sg2_112_cif.got.tgz:223262.got - 2010.06.27 13:26:56.
