data_PCOD8039876
_publ_section_title
;
Structure prediction by ZEFSAII (Michael W. Deem and Ramdas Pophale) SiO2 
 PCOD8039876
Probable space group: P -1
;
_chemical_formula_sum "Si O2"
_cell_formula_units_Z 16
_cell_length_a 11.988456
_cell_length_b 9.521559
_cell_length_c 11.705747
_cell_angle_alpha 99.955007
_cell_angle_beta 127.665172
_cell_angle_gamma 53.423154
_cell_volume 810.064935
_symmetry_space_group_name_H-M "P -1"
_symmetry_group_IT_number 2
_symmetry_cell_setting 'triclinic'
loop_
_space_group_symop_operation_xyz
x,y,z
-x,-y,-z
loop_
_atom_site_type_symbol
_atom_site_label
_atom_site_fract_x
_atom_site_fract_y
_atom_site_fract_z
Si Si1 0.896153 0.009156 0.329752
Si Si2 0.788624 0.287606 0.663654
Si Si3 0.146876 0.256021 0.625892
Si Si4 0.539433 0.393074 0.124006
Si Si5 0.982468 0.446060 0.857141
Si Si6 0.811366 0.627146 0.551691
Si Si7 0.646710 0.782150 0.058063
Si Si8 0.477104 0.413540 0.637111
O O1 0.803151 0.923381 0.305564
O O2 0.032525 0.907589 0.294129
O O3 0.749051 0.216696 0.228195
O O4 0.000000 0.000000 0.500000
O O5 0.675655 0.269859 0.683696
O O6 0.655150 0.398421 0.489432
O O7 0.850806 0.394873 0.776049
O O8 0.182737 0.236954 0.508341
O O9 0.278369 0.288189 0.774996
O O10 0.936892 0.424830 0.543593
O O11 0.492648 0.532548 0.214618
O O12 0.500000 0.500000 0.000000
O O13 0.422198 0.323156 0.050282
O O14 0.183423 0.273184 0.919792
O O15 0.887547 0.611708 0.725201
O O16 0.000000 0.500000 0.000000
O O17 0.608981 0.690574 0.430142
O O18 0.500000 0.000000 0.000000
#
# Coordination Sequence:
#
# PCOD8039876 Si02
#       8
#     2   2   2   2   2   2   2   2
#     4  12  21  39  62  90 118 161 207 253 309 359
#     4  10  19  36  60  87 118 158 207 248 297 373
#     4  10  18  35  57  85 118 154 201 249 301 358
#     4  12  24  37  59  95 125 156 209 260 305 362
#     4  10  19  34  55  86 117 158 198 237 307 367
#     4   9  18  34  59  85 118 156 200 250 297 359
#     4  11  20  35  58  84 116 157 195 247 305 357
#     4  10  19  36  59  90 118 158 203 247 305 362
#
# _framework density 19.751504000000001
#
# number of rings (size 3 to 8) (size 9 to 14) (size 15 to 20)
#    0.000    1.500    6.250    1.500    0.000    2.000 
#    0.000    0.625    0.000    6.000    0.000    0.000 
#    0.000    0.000    0.000    0.000    0.000    0.000 
#
# Total GULP energy -198288.413813 kJ/mol
# GULP energy per Si atom -12393.025863 kJ/mol
# Density = 1.970655 g / cm^3
# Si number density = 19.751504 Si / 1000 Ang^3
#
#
#
# Elastic Constant Matrix: (Units=GPa)
#
#
# Indices 1 2 3 4 5 6 
#
# 1 129.4383 36.9415 61.9488 -4.9771 -6.9720 -11.4719
# 2 36.9415 54.4480 35.1224 -6.1060 -9.9999 -4.7129
# 3 61.9488 35.1224 138.1622 14.0199 -12.4123 -8.1692
# 4 -4.9771 -6.1060 14.0199 32.2952 -3.1089 -0.9653
# 5 -6.9720 -9.9999 -12.4123 -3.1089 37.9278 2.8858
# 6 -11.4719 -4.7129 -8.1692 -0.9653 2.8858 18.2667
#
#
#
# Elastic Compliance Matrix: (Units=1/GPa)
#
#
# Indices 1 2 3 4 5 6 
#
# 1 0.011422 -0.004563 -0.004024 0.002726 -0.000534 0.004425
# 2 -0.004563 0.026391 -0.004834 0.006907 0.005000 0.001356
# 3 -0.004024 -0.004834 0.011034 -0.006204 0.001037 0.000668
# 4 0.002726 0.006907 -0.006204 0.035742 0.003060 0.002125
# 5 -0.000534 0.005000 0.001037 0.003060 0.028397 -0.002906
# 6 0.004425 0.001356 0.000668 0.002125 -0.002906 0.058743
#
#
# Mechanical properties :
#
#
# Convention : Reuss Voigt Hill
#
# Bulk Modulus (GPa) = 45.44837 65.56374 55.50605
# Shear Modulus (GPa) = 24.28280 30.23365 27.25822
#
# Velocity S-wave (km/s) = 3.51011 3.91666 3.71894
# Velocity P-wave (km/s) = 6.28393 7.32939 6.82671
#
# Compressibility (1/GPa) = 0.02200299
#
# Stress axis : x y z
#
# Youngs Moduli (GPa) = 87.54834 37.89188 90.63302
#
# Poissons Ratio (x) = 0.17290 0.36474
# Poissons Ratio (y) = 0.39949 0.43815
# Poissons Ratio (z) = 0.35233 0.18318
#
# Static dielectric constant tensor:
#      x y z
#    x 3.891700 0.071900 0.155870 
#    y 0.071900 3.294120 0.134750 
#    z 0.155870 0.134750 3.895910 
# 
# 
# High freq. dielectric constant tensor:
#      x y z
#    x 1.772880 -0.004900 0.011130 
#    y -0.004900 1.725870 0.006300 
#    z 0.011130 0.006300 1.786840 
# 
# From -- ./inp_files/419557.got.cif
#   From: 2010.06.25/outbox.cif.g09.slc.cpg/sg2_210_cif.got.tgz:419557.got - 2010.06.27 13:26:56.
