data_PCOD8039826
_publ_section_title
;
Structure prediction by ZEFSAII (Michael W. Deem and Ramdas Pophale) SiO2 
 PCOD8039826
Probable space group: P -1
;
_chemical_formula_sum "Si O2"
_cell_formula_units_Z 16
_cell_length_a 18.248703
_cell_length_b 9.682024
_cell_length_c 7.771430
_cell_angle_alpha 74.145949
_cell_angle_beta 72.448274
_cell_angle_gamma 36.006730
_cell_volume 768.585328
_symmetry_space_group_name_H-M "P -1"
_symmetry_group_IT_number 2
_symmetry_cell_setting 'triclinic'
loop_
_space_group_symop_operation_xyz
x,y,z
-x,-y,-z
loop_
_atom_site_type_symbol
_atom_site_label
_atom_site_fract_x
_atom_site_fract_y
_atom_site_fract_z
Si Si1 0.895130 0.845028 0.200880
Si Si2 0.735590 0.277688 0.668231
Si Si3 0.933993 0.755470 0.582740
Si Si4 0.104210 0.731743 0.567859
Si Si5 0.549814 0.348792 0.850026
Si Si6 0.799588 0.811950 0.954147
Si Si7 0.853700 0.416045 0.036561
Si Si8 0.715782 0.346733 0.059529
O O1 0.855231 0.795371 0.095776
O O2 0.908950 0.737601 0.410476
O O3 0.792507 0.123433 0.202861
O O4 0.024703 0.735408 0.112965
O O5 0.758675 0.407997 0.545149
O O6 0.602171 0.398646 0.667666
O O7 0.845497 0.019301 0.601764
O O8 0.736815 0.260777 0.879882
O O9 0.074565 0.617424 0.547161
O O10 0.904511 0.675861 0.772499
O O11 0.100795 0.727688 0.775064
O O12 0.000000 0.000000 0.500000
O O13 0.428159 0.442152 0.836237
O O14 0.500000 0.500000 0.000000
O O15 0.664751 0.072255 0.906347
O O16 0.780040 0.671953 0.043408
O O17 0.760907 0.444055 0.997306
#
# Coordination Sequence:
#
# PCOD8039826 Si02
#       8
#     2   2   2   2   2   2   2   2
#     4  12  21  39  66  90 123 165 211 248 307 378
#     4   9  17  35  58  89 115 151 206 260 286 346
#     4  10  20  36  61  88 123 165 200 250 307 363
#     4  10  18  35  55  85 129 154 196 253 300 356
#     4   9  18  39  69  83 118 170 206 255 304 358
#     4  11  23  44  59  92 133 160 202 258 309 367
#     4  12  25  37  60  96 130 161 201 256 317 366
#     4  11  20  38  66  92 117 169 212 249 306 367
#
# _framework density 20.817467000000001
#
# number of rings (size 3 to 8) (size 9 to 14) (size 15 to 20)
#    0.000    1.500    5.000    3.750    0.000    1.000 
#    2.250    5.625    0.000    3.000    0.000    0.000 
#    0.000    0.000    0.000    0.000    0.000    0.000 
#
# Total GULP energy -198228.708751 kJ/mol
# GULP energy per Si atom -12389.294297 kJ/mol
# Density = 2.077009 g / cm^3
# Si number density = 20.817467 Si / 1000 Ang^3
#
#
#
# Elastic Constant Matrix: (Units=GPa)
#
#
# Indices 1 2 3 4 5 6 
#
# 1 136.1358 41.5573 32.0270 8.4372 -17.7086 -12.9720
# 2 41.5573 46.6501 15.9044 -0.7495 -9.6650 -9.4707
# 3 32.0270 15.9044 112.3530 -1.4663 -1.7024 -4.2012
# 4 8.4372 -0.7495 -1.4663 22.1404 2.0661 -3.5496
# 5 -17.7086 -9.6650 -1.7024 2.0661 35.4381 6.3179
# 6 -12.9720 -9.4707 -4.2012 -3.5496 6.3179 30.2698
#
#
#
# Elastic Compliance Matrix: (Units=1/GPa)
#
#
# Indices 1 2 3 4 5 6 
#
# 1 0.011232 -0.008600 -0.001976 -0.004924 0.003358 0.000570
# 2 -0.008600 0.031551 -0.001685 0.004915 0.002883 0.005927
# 3 -0.001976 -0.001685 0.009720 0.001508 -0.001138 0.000389
# 4 -0.004924 0.004915 0.001508 0.048807 -0.005036 0.006411
# 5 0.003358 0.002883 -0.001138 -0.005036 0.031822 -0.005049
# 6 0.000570 0.005927 0.000389 0.006411 -0.005049 0.036995
#
#
# Mechanical properties :
#
#
# Convention : Reuss Voigt Hill
#
# Bulk Modulus (GPa) = 35.74037 52.67958 44.20997
# Shear Modulus (GPa) = 24.51270 31.27969 27.89619
#
# Velocity S-wave (km/s) = 3.43520 3.88050 3.66462
# Velocity P-wave (km/s) = 5.73933 6.74078 6.26011
#
# Compressibility (1/GPa) = 0.02797957
#
# Stress axis : x y z
#
# Youngs Moduli (GPa) = 89.03064 31.69439 102.88582
#
# Poissons Ratio (x) = 0.27256 0.20335
# Poissons Ratio (y) = 0.76564 0.17341
# Poissons Ratio (z) = 0.17597 0.05342
#
# Static dielectric constant tensor:
#      x y z
#    x 5.384860 1.830430 -2.710060 
#    y 1.830430 13.225640 -9.007570 
#    z -2.710060 -9.007570 12.839610 
# 
# 
# High freq. dielectric constant tensor:
#      x y z
#    x 1.826060 0.007470 -0.014970 
#    y 0.007470 1.784350 0.003500 
#    z -0.014970 0.003500 1.813580 
# 
# From -- ./inp_files/328710.got.cif
#   From: 2010.06.25/outbox.cif.g09.slc.cpg/sg2_165_cif.got.tgz:328710.got - 2010.06.27 13:26:56.
