data_PCOD8039738
_publ_section_title
;
Structure prediction by ZEFSAII (Michael W. Deem and Ramdas Pophale) SiO2 
 PCOD8039738
Probable space group: P -1
;
_chemical_formula_sum "Si O2"
_cell_formula_units_Z 14
_cell_length_a 27.690511
_cell_length_b 8.988624
_cell_length_c 12.182989
_cell_angle_alpha 45.681360
_cell_angle_beta 28.428219
_cell_angle_gamma 29.438761
_cell_volume 679.595768
_symmetry_space_group_name_H-M "P -1"
_symmetry_group_IT_number 2
_symmetry_cell_setting 'triclinic'
loop_
_space_group_symop_operation_xyz
x,y,z
-x,-y,-z
loop_
_atom_site_type_symbol
_atom_site_label
_atom_site_fract_x
_atom_site_fract_y
_atom_site_fract_z
Si Si1 0.071583 0.500437 0.562031
Si Si2 0.125830 0.449651 0.717024
Si Si3 0.872607 0.454529 0.934508
Si Si4 0.656266 0.188767 0.661461
Si Si5 0.840177 0.270638 0.315089
Si Si6 0.684307 0.747054 0.953903
Si Si7 0.549413 0.256345 0.614390
O O1 0.056330 0.631269 0.644359
O O2 0.152991 0.527727 0.297139
O O3 0.914896 0.637130 0.758471
O O4 0.179651 0.129856 0.556187
O O5 0.162227 0.601446 0.632817
O O6 0.282737 0.081005 0.580035
O O7 0.000000 0.500000 0.000000
O O8 0.721968 0.669621 0.047364
O O9 0.830178 0.449172 0.143829
O O10 0.005174 0.103815 0.800700
O O11 0.685070 0.367712 0.568464
O O12 0.540188 0.373515 0.694416
O O13 0.607507 0.090079 0.900405
O O14 0.568755 0.750603 0.144041
O O15 0.500000 0.500000 0.500000
#
# Coordination Sequence:
#
# PCOD8039738 Si02
#       7
#     2   2   2   2   2   2   2
#     4   8  18  34  60  84 117 157 195 241 290 351
#     4  11  22  39  61  90 125 153 195 255 302 341
#     4  10  18  34  61  90 117 160 202 241 289 362
#     4   8  19  36  58  86 111 159 199 237 290 354
#     4  10  20  34  61  87 121 154 204 243 292 350
#     4  10  20  36  64  85 119 156 209 238 293 364
#     4  11  23  40  65  87 116 161 205 244 296 362
#
# _framework density 20.600482
#
# number of rings (size 3 to 8) (size 9 to 14) (size 15 to 20)
#    0.857    1.429    1.429    1.714    4.000    0.000 
#    0.000    4.286    3.143    0.000    0.000    0.000 
#    0.000    0.000    0.000    0.000    0.000    0.000 
#
# Total GULP energy -173466.771132 kJ/mol
# GULP energy per Si atom -12390.483652 kJ/mol
# Density = 2.055359 g / cm^3
# Si number density = 20.600482 Si / 1000 Ang^3
#
#
#
# Elastic Constant Matrix: (Units=GPa)
#
#
# Indices 1 2 3 4 5 6 
#
# 1 150.4836 29.1485 29.0945 -8.7015 -16.1192 8.5190
# 2 29.1485 37.3277 14.8162 -9.2014 -2.5943 1.5440
# 3 29.0945 14.8162 101.0300 -20.7665 -23.5549 7.6817
# 4 -8.7015 -9.2014 -20.7665 19.1129 3.6401 0.1266
# 5 -16.1192 -2.5943 -23.5549 3.6401 42.9411 -7.5943
# 6 8.5190 1.5440 7.6817 0.1266 -7.5943 33.0188
#
#
#
# Elastic Compliance Matrix: (Units=1/GPa)
#
#
# Indices 1 2 3 4 5 6 
#
# 1 0.008256 -0.005998 -0.001086 -0.000682 0.001998 -0.001135
# 2 -0.005998 0.035076 -0.001101 0.013329 -0.001924 -0.000330
# 3 -0.001086 -0.001101 0.014795 0.013890 0.006155 -0.001748
# 4 -0.000682 0.013329 0.013890 0.073294 0.001308 -0.003659
# 5 0.001998 -0.001924 0.006155 0.001308 0.027996 0.004577
# 6 -0.001135 -0.000330 -0.001748 -0.003659 0.004577 0.032067
#
#
# Mechanical properties :
#
#
# Convention : Reuss Voigt Hill
#
# Bulk Modulus (GPa) = 23.94755 48.32886 36.13820
# Shear Modulus (GPa) = 22.54561 33.40005 27.97283
#
# Velocity S-wave (km/s) = 3.31179 4.03093 3.68893
# Velocity P-wave (km/s) = 5.12581 6.72128 5.97702
#
# Compressibility (1/GPa) = 0.04175793
#
# Stress axis : x y z
#
# Youngs Moduli (GPa) = 121.12603 28.50962 67.58941
#
# Poissons Ratio (x) = 0.17100 0.07339
# Poissons Ratio (y) = 0.72653 0.07438
# Poissons Ratio (z) = 0.13153 0.03138
#
# Static dielectric constant tensor:
#      x y z
#    x 4.018850 0.017600 -0.167380 
#    y 0.017600 3.265660 -0.168260 
#    z -0.167380 -0.168260 3.609560 
# 
# 
# High freq. dielectric constant tensor:
#      x y z
#    x 1.830400 -0.004720 -0.010430 
#    y -0.004720 1.748870 -0.021530 
#    z -0.010430 -0.021530 1.800260 
# 
# From -- ./inp_files/476181.got.cif
#   From: 2010.06.25/outbox.cif.g09.slc.cpg/sg2_239_cif.got.tgz:476181.got - 2010.06.27 13:26:56.
