data_PCOD8039256
_publ_section_title
;
Structure prediction by ZEFSAII (Michael W. Deem and Ramdas Pophale) SiO2 
 PCOD8039256
Probable space group: P -1
;
_chemical_formula_sum "Si O2"
_cell_formula_units_Z 16
_cell_length_a 10.836974
_cell_length_b 8.964934
_cell_length_c 11.507960
_cell_angle_alpha 126.694361
_cell_angle_beta 93.009952
_cell_angle_gamma 73.623249
_cell_volume 850.274705
_symmetry_space_group_name_H-M "P -1"
_symmetry_group_IT_number 2
_symmetry_cell_setting 'triclinic'
loop_
_space_group_symop_operation_xyz
x,y,z
-x,-y,-z
loop_
_atom_site_type_symbol
_atom_site_label
_atom_site_fract_x
_atom_site_fract_y
_atom_site_fract_z
Si Si1 0.347797 0.192512 0.331321
Si Si2 0.521463 0.537683 0.196932
Si Si3 0.318273 0.216204 0.598523
Si Si4 0.658355 0.220856 0.891550
Si Si5 0.836563 0.732456 0.167232
Si Si6 0.288248 0.552313 0.342558
Si Si7 0.365969 0.890053 0.618246
Si Si8 0.135086 0.639142 0.152370
O O1 0.276363 0.203185 0.457690
O O2 0.269222 0.377700 0.337347
O O3 0.497120 0.191964 0.347488
O O4 0.337391 0.998137 0.178312
O O5 0.585344 0.653229 0.341946
O O6 0.461916 0.685962 0.157702
O O7 0.413735 0.470718 0.228316
O O8 0.630845 0.344524 0.066529
O O9 0.196556 0.320919 0.727105
O O10 0.388556 0.995657 0.548393
O O11 0.793697 0.222877 0.842669
O O12 0.982624 0.738919 0.171918
O O13 0.737409 0.947626 0.230568
O O14 0.814225 0.577283 0.002458
O O15 0.302923 0.721075 0.507195
O O16 0.164009 0.629498 0.287373
#
# Coordination Sequence:
#
# PCOD8039256 Si02
#       8
#     2   2   2   2   2   2   2   2
#     4  12  22  35  53  86 120 146 173 219 289 331
#     4  10  18  33  54  84 107 140 186 226 274 318
#     4  10  18  35  57  82 104 145 186 223 267 322
#     4  10  19  33  57  80 108 143 187 228 265 322
#     4   9  21  37  66  80 100 145 195 233 263 309
#     4  11  24  34  54  84 122 145 169 230 279 334
#     4  10  20  36  56  84 108 148 185 222 270 323
#     4  10  20  41  59  83 108 138 192 233 270 315
#
# _framework density 18.817449
#
# number of rings (size 3 to 8) (size 9 to 14) (size 15 to 20)
#    0.750    1.000    3.750    2.250    3.500    1.000 
#    0.000    0.625    0.000    1.500    0.000    0.000 
#    0.000    0.000    0.000    0.000    0.000    0.000 
#
# Total GULP energy -198372.239313 kJ/mol
# GULP energy per Si atom -12398.264957 kJ/mol
# Density = 1.877462 g / cm^3
# Si number density = 18.817449 Si / 1000 Ang^3
#
#
#
# Elastic Constant Matrix: (Units=GPa)
#
#
# Indices 1 2 3 4 5 6 
#
# 1 57.5320 1.2056 17.3240 8.1874 5.8074 -1.6160
# 2 1.2056 64.9475 19.6245 15.2526 8.3338 10.3448
# 3 17.3240 19.6245 69.1816 24.0804 6.7498 -0.6993
# 4 8.1874 15.2526 24.0804 24.9749 6.5905 4.2820
# 5 5.8074 8.3338 6.7498 6.5905 26.7021 4.7871
# 6 -1.6160 10.3448 -0.6993 4.2820 4.7871 13.6812
#
#
#
# Elastic Compliance Matrix: (Units=1/GPa)
#
#
# Indices 1 2 3 4 5 6 
#
# 1 0.019393 0.001479 -0.003768 -0.003256 -0.003501 0.003224
# 2 0.001479 0.020314 -0.003794 -0.006581 -0.001804 -0.012689
# 3 -0.003768 -0.003794 0.024051 -0.021257 -0.000722 0.010559
# 4 -0.003256 -0.006581 -0.021257 0.070054 -0.006244 -0.016236
# 5 -0.003501 -0.001804 -0.000722 -0.006244 0.042660 -0.012060
# 6 0.003224 -0.012689 0.010559 -0.016236 -0.012060 0.092909
#
#
# Mechanical properties :
#
#
# Convention : Reuss Voigt Hill
#
# Bulk Modulus (GPa) = 19.38334 29.77437 24.57886
# Shear Modulus (GPa) = 16.73672 23.30541 20.02107
#
# Velocity S-wave (km/s) = 2.98556 3.52305 3.26538
# Velocity P-wave (km/s) = 4.71252 5.69265 5.22562
#
# Compressibility (1/GPa) = 0.05159070
#
# Stress axis : x y z
#
# Youngs Moduli (GPa) = 51.56591 49.22691 41.57883
#
# Poissons Ratio (x) = -0.07281 0.15667
# Poissons Ratio (y) = -0.07627 0.15776
# Poissons Ratio (z) = 0.19431 0.18678
#
# Static dielectric constant tensor:
#      x y z
#    x 3.213720 0.086540 -0.024390 
#    y 0.086540 3.057020 0.092930 
#    z -0.024390 0.092930 3.554900 
# 
# 
# High freq. dielectric constant tensor:
#      x y z
#    x 1.711050 0.016170 -0.000770 
#    y 0.016170 1.692990 0.014170 
#    z -0.000770 0.014170 1.745440 
# 
# From -- ./inp_files/179230.got.cif
#   From: 2010.06.25/outbox.cif.g09.slc.cpg/sg2_90_cif.got.tgz:179230.got - 2010.06.27 13:26:56.
