data_PCOD8039214
_publ_section_title
;
Structure prediction by ZEFSAII (Michael W. Deem and Ramdas Pophale) SiO2 
 PCOD8039214
Probable space group: P -1
;
_chemical_formula_sum "Si O2"
_cell_formula_units_Z 16
_cell_length_a 8.081786
_cell_length_b 9.333599
_cell_length_c 19.206734
_cell_angle_alpha 150.358217
_cell_angle_beta 106.785349
_cell_angle_gamma 65.154436
_cell_volume 640.732528
_symmetry_space_group_name_H-M "P -1"
_symmetry_group_IT_number 2
_symmetry_cell_setting 'triclinic'
loop_
_space_group_symop_operation_xyz
x,y,z
-x,-y,-z
loop_
_atom_site_type_symbol
_atom_site_label
_atom_site_fract_x
_atom_site_fract_y
_atom_site_fract_z
Si Si1 0.142802 0.841632 0.585491
Si Si2 0.845591 0.010885 0.199353
Si Si3 0.405871 0.879301 0.532442
Si Si4 0.233174 0.855461 0.900178
Si Si5 0.522798 0.388406 0.816997
Si Si6 0.241954 0.083932 0.451994
Si Si7 0.068224 0.542002 0.849089
Si Si8 0.766963 0.409826 0.971798
O O1 0.203933 0.790787 0.651610
O O2 0.323036 0.677046 0.487910
O O3 0.056606 0.202578 0.703877
O O4 0.976317 0.710276 0.496182
O O5 0.065065 0.894771 0.162240
O O6 0.733987 0.225577 0.212400
O O7 0.784790 0.716556 0.071859
O O8 0.381049 0.197618 0.708298
O O9 0.623902 0.722860 0.472152
O O10 0.281103 0.966878 0.485967
O O11 0.425074 0.729202 0.913985
O O12 0.099879 0.674261 0.834287
O O13 0.132882 0.227212 0.051108
O O14 0.706979 0.210769 0.718715
O O15 0.578621 0.392751 0.907132
O O16 0.228264 0.573494 0.936033
#
# Coordination Sequence:
#
# PCOD8039214 Si02
#       8
#     2   2   2   2   2   2   2   2
#     4  11  17  35  59  77 102 147 178 215 262 316
#     4   9  18  31  49  76 107 142 176 209 257 324
#     4   9  19  33  53  86 100 129 186 235 257 301
#     4  10  19  31  49  76 117 142 165 215 268 314
#     4  10  18  33  52  77 107 138 170 222 267 303
#     4   9  19  33  55  82 102 131 183 236 258 299
#     4   9  19  33  50  79 110 143 177 208 253 333
#     4   9  17  31  51  71 105 144 180 209 251 316
#
# _framework density 24.971418
#
# number of rings (size 3 to 8) (size 9 to 14) (size 15 to 20)
#    0.750    1.750    2.500    1.125    0.000    1.000 
#    0.000    0.000    0.000    1.500    0.000    0.000 
#    0.000    0.000    0.000    0.000    0.000    0.000 
#
# Total GULP energy -198214.233838 kJ/mol
# GULP energy per Si atom -12388.389615 kJ/mol
# Density = 2.491458 g / cm^3
# Si number density = 24.971418 Si / 1000 Ang^3
#
#
#
# Elastic Constant Matrix: (Units=GPa)
#
#
# Indices 1 2 3 4 5 6 
#
# 1 96.7367 20.7759 3.3378 -21.8341 -2.5379 3.7103
# 2 20.7759 110.5910 19.8136 -32.5841 -1.4096 10.5287
# 3 3.3378 19.8136 50.8837 -29.8761 -0.6324 3.9590
# 4 -21.8341 -32.5841 -29.8761 43.5968 3.5630 -12.5909
# 5 -2.5379 -1.4096 -0.6324 3.5630 21.4916 -19.9294
# 6 3.7103 10.5287 3.9590 -12.5909 -19.9294 32.6620
#
#
#
# Elastic Compliance Matrix: (Units=1/GPa)
#
#
# Indices 1 2 3 4 5 6 
#
# 1 0.012580 -0.000623 0.005238 0.010459 0.004321 0.004805
# 2 -0.000623 0.011712 0.000557 0.008416 -0.002703 -0.002178
# 3 0.005238 0.000557 0.036150 0.030293 0.006320 0.010378
# 4 0.010459 0.008416 0.030293 0.061506 0.017150 0.026601
# 5 0.004321 -0.002703 0.006320 0.017150 0.115109 0.076462
# 6 0.004805 -0.002178 0.010378 0.026601 0.076462 0.086424
#
#
# Mechanical properties :
#
#
# Convention : Reuss Voigt Hill
#
# Bulk Modulus (GPa) = 14.12680 38.45180 26.28930
# Shear Modulus (GPa) = 14.84867 33.83569 24.34218
#
# Velocity S-wave (km/s) = 2.44114 3.68499 3.12557
# Velocity P-wave (km/s) = 3.68986 5.79114 4.85553
#
# Compressibility (1/GPa) = 0.07078746
#
# Stress axis : x y z
#
# Youngs Moduli (GPa) = 79.49081 85.38394 27.66282
#
# Poissons Ratio (x) = 0.05315 -0.14490
# Poissons Ratio (y) = 0.04948 -0.01542
# Poissons Ratio (z) = -0.41638 -0.04759
#
# Static dielectric constant tensor:
#      x y z
#    x 4.485030 -0.000900 -0.345790 
#    y -0.000900 4.244710 -0.286690 
#    z -0.345790 -0.286690 4.213040 
# 
# 
# High freq. dielectric constant tensor:
#      x y z
#    x 1.995720 -0.002080 -0.028450 
#    y -0.002080 1.980590 -0.030190 
#    z -0.028450 -0.030190 1.972560 
# 
# From -- ./inp_files/555617.got.cif
#   From: 2010.06.25/outbox.cif.g09.slc.cpg/sg2_278_cif.got.tgz:555617.got - 2010.06.27 13:26:56.
