data_PCOD8039821
_publ_section_title
;
Structure prediction by ZEFSAII (Michael W. Deem and Ramdas Pophale) SiO2 
 PCOD8039821
Probable space group: P -1
;
_chemical_formula_sum "Si O2"
_cell_formula_units_Z 16
_cell_length_a 14.117605
_cell_length_b 8.797009
_cell_length_c 29.191436
_cell_angle_alpha 52.069945
_cell_angle_beta 20.672548
_cell_angle_gamma 64.294390
_cell_volume 869.710670
_symmetry_space_group_name_H-M "P -1"
_symmetry_group_IT_number 2
_symmetry_cell_setting 'triclinic'
loop_
_space_group_symop_operation_xyz
x,y,z
-x,-y,-z
loop_
_atom_site_type_symbol
_atom_site_label
_atom_site_fract_x
_atom_site_fract_y
_atom_site_fract_z
Si Si1 0.419390 0.702639 0.418758
Si Si2 0.068624 0.936302 0.817310
Si Si3 0.218261 0.861128 0.316272
Si Si4 0.257153 0.613335 0.823942
Si Si5 0.881237 0.010767 0.502664
Si Si6 0.997130 0.237416 0.733435
Si Si7 0.515504 0.969085 0.069693
Si Si8 0.592574 0.415264 0.657358
O O1 0.740442 0.895773 0.258623
O O2 0.490187 0.647743 0.346483
O O3 0.280020 0.488871 0.554928
O O4 0.160348 0.775973 0.521332
O O5 0.140876 0.077779 0.710703
O O6 0.156299 0.743970 0.809341
O O7 0.698109 0.828662 0.015669
O O8 0.393973 0.785200 0.286278
O O9 0.129815 0.028878 0.349500
O O10 0.920470 0.644126 0.470076
O O11 0.448608 0.011204 0.143705
O O12 0.564882 0.780326 0.680920
O O13 0.314250 0.439562 0.801467
O O14 0.000000 0.500000 0.000000
O O15 0.000000 0.000000 0.500000
O O16 0.813623 0.168358 0.781468
O O17 0.749678 0.200753 0.893372
#
# Coordination Sequence:
#
# PCOD8039821 Si02
#       8
#     2   2   2   2   2   2   2   2
#     4  11  19  36  57  82 111 142 183 222 273 327
#     4   9  20  35  56  80 112 138 180 225 275 309
#     4  10  18  35  55  82 109 140 186 225 256 333
#     4  10  21  37  53  80 112 143 177 223 271 324
#     4  10  21  36  54  83 111 142 178 224 276 314
#     4   9  19  35  60  78 105 151 184 218 268 322
#     4   9  18  35  59  80 103 146 186 221 265 320
#     4  10  20  31  59  80 106 146 182 214 275 327
#
# _framework density 18.396923999999999
#
# number of rings (size 3 to 8) (size 9 to 14) (size 15 to 20)
#    0.750    1.500    2.500    1.125    0.000    1.000 
#    2.250    3.125    2.750    0.000    0.000    0.000 
#    0.000    0.000    0.000    0.000    0.000    0.000 
#
# Total GULP energy -198271.227913 kJ/mol
# GULP energy per Si atom -12391.951745 kJ/mol
# Density = 1.835505 g / cm^3
# Si number density = 18.396924 Si / 1000 Ang^3
#
#
#
# Elastic Constant Matrix: (Units=GPa)
#
#
# Indices 1 2 3 4 5 6 
#
# 1 91.8096 39.2671 27.5868 12.1708 3.4724 -14.4474
# 2 39.2671 108.0634 33.7440 22.5749 7.2706 -13.2797
# 3 27.5868 33.7440 60.3043 14.5671 24.2415 -3.4450
# 4 12.1708 22.5749 14.5671 26.1647 -1.5302 2.1196
# 5 3.4724 7.2706 24.2415 -1.5302 33.7376 6.4992
# 6 -14.4474 -13.2797 -3.4450 2.1196 6.4992 28.9906
#
#
#
# Elastic Compliance Matrix: (Units=1/GPa)
#
#
# Indices 1 2 3 4 5 6 
#
# 1 0.014605 -0.002823 -0.004995 -0.001901 0.001612 0.005169
# 2 -0.002823 0.014153 -0.003063 -0.009796 -0.002141 0.005908
# 3 -0.004995 -0.003063 0.036062 -0.017315 -0.027009 0.007714
# 4 -0.001901 -0.009796 -0.017315 0.059738 0.020633 -0.016486
# 5 0.001612 -0.002141 -0.027009 0.020633 0.053533 -0.016896
# 6 0.005169 0.005908 0.007714 -0.016486 -0.016896 0.045686
#
#
# Mechanical properties :
#
#
# Convention : Reuss Voigt Hill
#
# Bulk Modulus (GPa) = 23.22529 51.26368 37.24449
# Shear Modulus (GPa) = 19.23868 28.41722 23.82795
#
# Velocity S-wave (km/s) = 3.23732 3.93450 3.60281
# Velocity P-wave (km/s) = 5.16000 6.96894 6.13155
#
# Compressibility (1/GPa) = 0.04305651
#
# Stress axis : x y z
#
# Youngs Moduli (GPa) = 68.46960 70.65716 27.72987
#
# Poissons Ratio (x) = 0.19950 0.13851
# Poissons Ratio (y) = 0.19332 0.08495
# Poissons Ratio (z) = 0.34200 0.21645
#
# Static dielectric constant tensor:
#      x y z
#    x 3.459300 -0.265780 -0.016260 
#    y -0.265780 3.605160 0.128910 
#    z -0.016260 0.128910 3.267670 
# 
# 
# High freq. dielectric constant tensor:
#      x y z
#    x 1.721490 -0.016500 -0.000280 
#    y -0.016500 1.691280 0.009570 
#    z -0.000280 0.009570 1.703620 
# 
# From -- ./inp_files/284933.got.cif
#   From: 2010.06.25/outbox.cif.g09.slc.cpg/sg2_143_cif.got.tgz:284933.got - 2010.06.27 13:26:56.
