data_PCOD8039884
_publ_section_title
;
Structure prediction by ZEFSAII (Michael W. Deem and Ramdas Pophale) SiO2 
 PCOD8039884
Probable space group: P -1
;
_chemical_formula_sum "Si O2"
_cell_formula_units_Z 16
_cell_length_a 15.190526
_cell_length_b 11.964212
_cell_length_c 15.360027
_cell_angle_alpha 145.649229
_cell_angle_beta 150.526401
_cell_angle_gamma 55.921621
_cell_volume 636.444797
_symmetry_space_group_name_H-M "P -1"
_symmetry_group_IT_number 2
_symmetry_cell_setting 'triclinic'
loop_
_space_group_symop_operation_xyz
x,y,z
-x,-y,-z
loop_
_atom_site_type_symbol
_atom_site_label
_atom_site_fract_x
_atom_site_fract_y
_atom_site_fract_z
Si Si1 0.838084 0.657368 0.273327
Si Si2 0.138995 0.636876 0.624384
Si Si3 0.378541 0.195308 0.220794
Si Si4 0.636320 0.612355 0.373615
Si Si5 0.214115 0.760985 0.346758
Si Si6 0.912763 0.988929 0.716161
Si Si7 0.802153 0.112610 0.397159
Si Si8 0.428811 0.635204 0.680993
O O1 0.857159 0.801928 0.470229
O O2 0.961113 0.530143 0.324217
O O3 0.966352 0.814034 0.397883
O O4 0.590426 0.458058 0.907203
O O5 0.325798 0.593431 0.748849
O O6 0.000000 0.500000 0.500000
O O7 0.269229 0.925303 0.916813
O O8 0.573624 0.245496 0.483601
O O9 0.481737 0.384447 0.348830
O O10 0.175671 0.188821 0.083798
O O11 0.824111 0.863900 0.653480
O O12 0.647253 0.610625 0.488236
O O13 0.206650 0.903484 0.515699
O O14 0.203138 0.879317 0.324314
O O15 0.000000 0.500000 0.000000
O O16 0.752202 0.309442 0.452609
O O17 0.625489 0.848312 0.042312
#
# Coordination Sequence:
#
# PCOD8039884 Si02
#       8
#     2   2   2   2   2   2   2   2
#     4  11  21  32  57  96 124 153 188 234 309 366
#     4  11  19  34  53  90 135 158 179 228 312 367
#     4  10  21  39  63  86 124 156 193 244 290 362
#     4  12  22  30  55  92 132 153 182 235 303 375
#     4  11  26  43  61  83 115 162 212 249 282 337
#     4  11  23  37  58  91 119 153 197 240 301 352
#     4  10  19  36  61  87 120 157 193 244 292 356
#     4  10  18  35  57  93 123 151 185 236 313 358
#
# _framework density 25.139652000000002
#
# number of rings (size 3 to 8) (size 9 to 14) (size 15 to 20)
#    0.000    1.250    6.250    3.375    3.500    1.500 
#    0.000    0.000    0.000    3.750    0.000    0.000 
#    0.000    0.000    0.000    0.000    0.000    0.000 
#
# Total GULP energy -198264.244706 kJ/mol
# GULP energy per Si atom -12391.515294 kJ/mol
# Density = 2.508243 g / cm^3
# Si number density = 25.139652 Si / 1000 Ang^3
#
#
#
# Elastic Constant Matrix: (Units=GPa)
#
#
# Indices 1 2 3 4 5 6 
#
# 1 106.2627 43.1807 38.2220 1.0168 26.2844 26.3552
# 2 43.1807 137.3688 40.0743 -21.4156 23.3946 43.5610
# 3 38.2220 40.0743 96.8427 -27.7426 33.6425 12.9152
# 4 1.0168 -21.4156 -27.7426 34.0531 -1.8406 12.8384
# 5 26.2844 23.3946 33.6425 -1.8406 44.2831 8.4504
# 6 26.3552 43.5610 12.9152 12.8384 8.4504 49.3315
#
#
#
# Elastic Compliance Matrix: (Units=1/GPa)
#
#
# Indices 1 2 3 4 5 6 
#
# 1 0.013274 -0.002565 -0.004242 -0.004920 -0.003143 -0.001897
# 2 -0.002565 0.017880 0.005534 0.023236 -0.007216 -0.020678
# 3 -0.004242 0.005534 0.025211 0.028562 -0.015707 -0.013964
# 4 -0.004920 0.023236 0.028562 0.082793 -0.019291 -0.043609
# 5 -0.003143 -0.007216 -0.015707 -0.019291 0.037332 0.010789
# 6 -0.001897 -0.020678 -0.013964 -0.043609 0.010789 0.052700
#
#
# Mechanical properties :
#
#
# Convention : Reuss Voigt Hill
#
# Bulk Modulus (GPa) = 18.58070 64.82537 41.70303
# Shear Modulus (GPa) = 20.02600 40.13335 30.07968
#
# Velocity S-wave (km/s) = 2.82545 3.99985 3.46280
# Velocity P-wave (km/s) = 4.24868 6.86832 5.71074
#
# Compressibility (1/GPa) = 0.05381930
#
# Stress axis : x y z
#
# Youngs Moduli (GPa) = 75.33564 55.92834 39.66540
#
# Poissons Ratio (x) = 0.14347 0.16826
# Poissons Ratio (y) = 0.19325 -0.21952
# Poissons Ratio (z) = 0.31957 -0.30953
#
# Static dielectric constant tensor:
#      x y z
#    x 4.415360 -0.025210 0.506590 
#    y -0.025210 5.471930 -0.325240 
#    z 0.506590 -0.325240 4.668560 
# 
# 
# High freq. dielectric constant tensor:
#      x y z
#    x 1.997780 0.013150 0.022490 
#    y 0.013150 2.014090 -0.019490 
#    z 0.022490 -0.019490 1.995610 
# 
# From -- ./inp_files/532747.got.cif
#   From: 2010.06.25/outbox.cif.g09.slc.cpg/sg2_267_cif.got.tgz:532747.got - 2010.06.27 13:26:56.
