data_PCOD8039848
_publ_section_title
;
Structure prediction by ZEFSAII (Michael W. Deem and Ramdas Pophale) SiO2 
 PCOD8039848
Probable space group: P -1
;
_chemical_formula_sum "Si O2"
_cell_formula_units_Z 16
_cell_length_a 9.935281
_cell_length_b 16.082938
_cell_length_c 15.479699
_cell_angle_alpha 36.553625
_cell_angle_beta 135.812969
_cell_angle_gamma 145.156327
_cell_volume 829.437013
_symmetry_space_group_name_H-M "P -1"
_symmetry_group_IT_number 2
_symmetry_cell_setting 'triclinic'
loop_
_space_group_symop_operation_xyz
x,y,z
-x,-y,-z
loop_
_atom_site_type_symbol
_atom_site_label
_atom_site_fract_x
_atom_site_fract_y
_atom_site_fract_z
Si Si1 0.059361 0.035781 0.137113
Si Si2 0.856471 0.752256 0.584030
Si Si3 0.670375 0.639464 0.892667
Si Si4 0.373449 0.097761 0.073029
Si Si5 0.639816 0.940042 0.365988
Si Si6 0.093707 0.830700 0.455750
Si Si7 0.462810 0.802879 0.576668
Si Si8 0.233448 0.506695 0.097552
O O1 0.128230 0.187192 0.109268
O O2 0.286550 0.082907 0.144474
O O3 0.966312 0.862285 0.293535
O O4 0.851571 0.006955 0.006010
O O5 0.687484 0.816639 0.438657
O O6 0.739857 0.587152 0.730521
O O7 0.906144 0.714635 0.542116
O O8 0.106896 0.899360 0.618287
O O9 0.502149 0.658941 0.736649
O O10 0.791716 0.580269 0.933999
O O11 0.500000 0.500000 0.000000
O O12 0.518124 0.014392 0.195088
O O13 0.534567 0.297588 0.955281
O O14 0.456657 0.822765 0.455229
O O15 0.204026 0.733245 0.553660
O O16 0.317130 0.018378 0.431761
O O17 0.000000 0.500000 0.000000
#
# Coordination Sequence:
#
# PCOD8039848 Si02
#       8
#     2   2   2   2   2   2   2   2
#     4  10  22  39  62  90 119 159 203 246 294 364
#     4  10  21  34  57  87 121 151 198 248 296 350
#     4  11  22  37  60  90 120 154 206 253 293 344
#     4  11  22  39  63  89 125 160 197 244 308 355
#     4  10  18  35  56  87 113 158 197 242 292 353
#     4   9  18  32  57  84 110 151 201 244 285 344
#     4   9  17  30  56  84 111 145 202 254 278 332
#     4  12  24  38  59  94 125 155 194 253 308 350
#
# _framework density 19.290192000000001
#
# number of rings (size 3 to 8) (size 9 to 14) (size 15 to 20)
#    0.000    1.750    5.000    0.000    5.250    0.000 
#    0.000    3.125    2.750    3.000    0.000    0.000 
#    0.000    0.000    0.000    0.000    0.000    0.000 
#
# Total GULP energy -198337.144718 kJ/mol
# GULP energy per Si atom -12396.071545 kJ/mol
# Density = 1.924629 g / cm^3
# Si number density = 19.290192 Si / 1000 Ang^3
#
#
#
# Elastic Constant Matrix: (Units=GPa)
#
#
# Indices 1 2 3 4 5 6 
#
# 1 148.6435 31.6539 61.7840 -3.4610 5.0091 -0.3933
# 2 31.6539 45.3162 31.0642 -3.7915 3.6097 -0.7726
# 3 61.7840 31.0642 123.5082 -6.9650 1.4005 2.5860
# 4 -3.4610 -3.7915 -6.9650 22.7812 5.7227 -1.6742
# 5 5.0091 3.6097 1.4005 5.7227 45.0629 -1.8548
# 6 -0.3933 -0.7726 2.5860 -1.6742 -1.8548 16.6225
#
#
#
# Elastic Compliance Matrix: (Units=1/GPa)
#
#
# Indices 1 2 3 4 5 6 
#
# 1 0.009045 -0.003830 -0.003576 -0.000182 -0.000543 0.000513
# 2 -0.003830 0.028749 -0.005151 0.003301 -0.002048 0.002151
# 3 -0.003576 -0.005151 0.011325 0.001888 0.000141 -0.001880
# 4 -0.000182 0.003301 0.001888 0.046810 -0.006087 0.003891
# 5 -0.000543 -0.002048 0.000141 -0.006087 0.023261 0.001852
# 6 0.000513 0.002151 -0.001880 0.003891 0.001852 0.061163
#
#
# Mechanical properties :
#
#
# Convention : Reuss Voigt Hill
#
# Bulk Modulus (GPa) = 41.65649 62.94135 52.29892
# Shear Modulus (GPa) = 23.42274 29.75770 26.59022
#
# Velocity S-wave (km/s) = 3.48836 3.93190 3.71675
# Velocity P-wave (km/s) = 6.15357 7.30155 6.75200
#
# Compressibility (1/GPa) = 0.02400586
#
# Stress axis : x y z
#
# Youngs Moduli (GPa) = 110.55868 34.78384 88.29701
#
# Poissons Ratio (x) = 0.13321 0.31578
# Poissons Ratio (y) = 0.42341 0.45479
# Poissons Ratio (z) = 0.39539 0.17916
#
# Static dielectric constant tensor:
#      x y z
#    x 3.989380 -0.078220 0.168110 
#    y -0.078220 3.044760 -0.167100 
#    z 0.168110 -0.167100 3.973030 
# 
# 
# High freq. dielectric constant tensor:
#      x y z
#    x 1.766090 0.002680 0.000360 
#    y 0.002680 1.693330 -0.004710 
#    z 0.000360 -0.004710 1.766010 
# 
# From -- ./inp_files/273482.got.cif
#   From: 2010.06.25/outbox.cif.g09.slc.cpg/sg2_137_cif.got.tgz:273482.got - 2010.06.27 13:26:56.
