data_PCOD8039284
_publ_section_title
;
Structure prediction by ZEFSAII (Michael W. Deem and Ramdas Pophale) SiO2 
 PCOD8039284
Probable space group: P -1
;
_chemical_formula_sum "Si O2"
_cell_formula_units_Z 14
_cell_length_a 11.419637
_cell_length_b 8.793394
_cell_length_c 24.981456
_cell_angle_alpha 137.995517
_cell_angle_beta 150.012505
_cell_angle_gamma 61.880370
_cell_volume 719.134198
_symmetry_space_group_name_H-M "P -1"
_symmetry_group_IT_number 2
_symmetry_cell_setting 'triclinic'
loop_
_space_group_symop_operation_xyz
x,y,z
-x,-y,-z
loop_
_atom_site_type_symbol
_atom_site_label
_atom_site_fract_x
_atom_site_fract_y
_atom_site_fract_z
Si Si1 0.244221 0.665392 0.469815
Si Si2 0.260445 0.059063 0.417481
Si Si3 0.447680 0.929842 0.727498
Si Si4 0.449997 0.508637 0.683796
Si Si5 0.156070 0.117791 0.276275
Si Si6 0.991125 0.718681 0.018200
Si Si7 0.000278 0.968546 0.395974
O O1 0.280724 0.708401 0.558772
O O2 0.091471 0.354098 0.313628
O O3 0.532571 0.799093 0.589100
O O4 0.071327 0.797511 0.418402
O O5 0.416871 0.372776 0.576737
O O6 0.101536 0.988171 0.279711
O O7 0.026871 0.888386 0.324718
O O8 0.500000 0.000000 0.500000
O O9 0.445155 0.776404 0.740660
O O10 0.303676 0.097183 0.728322
O O11 0.750401 0.134320 0.880210
O O12 0.207795 0.290231 0.569231
O O13 0.732355 0.581830 0.841919
O O14 0.968849 0.917385 0.103220
O O15 0.000000 0.500000 0.000000
#
# Coordination Sequence:
#
# PCOD8039284 Si02
#       7
#     2   2   2   2   2   2   2
#     4  10  18  33  55  88 114 147 199 241 282 337
#     4  10  18  34  59  87 110 146 197 239 281 341
#     4  11  21  37  59  87 120 153 197 241 291 348
#     4  10  21  37  60  89 115 153 193 240 291 348
#     4  10  19  34  58  86 113 150 196 244 283 341
#     4  11  23  39  59  88 118 156 194 240 294 347
#     4  10  21  34  63  89 114 153 196 246 287 342
#
# _framework density 19.467856000000001
#
# number of rings (size 3 to 8) (size 9 to 14) (size 15 to 20)
#    0.857    0.857    2.857    3.857    0.000    0.000 
#    0.000    0.000    0.000   13.714    0.000    0.000 
#    0.000    0.000    0.000    0.000    0.000    0.000 
#
# Total GULP energy -173487.199725 kJ/mol
# GULP energy per Si atom -12391.942837 kJ/mol
# Density = 1.942355 g / cm^3
# Si number density = 19.467856 Si / 1000 Ang^3
#
#
#
# Elastic Constant Matrix: (Units=GPa)
#
#
# Indices 1 2 3 4 5 6 
#
# 1 67.3442 9.2292 20.6054 -14.1139 -3.1808 1.9751
# 2 9.2292 123.9737 10.3468 -7.2276 8.4999 8.0414
# 3 20.6054 10.3468 39.4819 -4.6996 2.3327 2.2257
# 4 -14.1139 -7.2276 -4.6996 25.8681 -0.6323 0.4213
# 5 -3.1808 8.4999 2.3327 -0.6323 13.8106 0.8012
# 6 1.9751 8.0414 2.2257 0.4213 0.8012 30.9559
#
#
#
# Elastic Compliance Matrix: (Units=1/GPa)
#
#
# Indices 1 2 3 4 5 6 
#
# 1 0.020187 -0.000595 -0.009653 0.009280 0.007115 -0.000750
# 2 -0.000595 0.008814 -0.001367 0.001797 -0.005130 -0.002045
# 3 -0.009653 -0.001367 0.031160 -0.000131 -0.006587 -0.001097
# 4 0.009280 0.001797 -0.000131 0.044306 0.003182 -0.001735
# 5 0.007115 -0.005130 -0.006587 0.003182 0.078504 -0.000723
# 6 -0.000750 -0.002045 -0.001097 -0.001735 -0.000723 0.033004
#
#
# Mechanical properties :
#
#
# Convention : Reuss Voigt Hill
#
# Bulk Modulus (GPa) = 27.07797 34.57362 30.82579
# Shear Modulus (GPa) = 19.87953 26.83481 23.35717
#
# Velocity S-wave (km/s) = 3.19900 3.71673 3.46754
# Velocity P-wave (km/s) = 5.25206 6.01803 5.64804
#
# Compressibility (1/GPa) = 0.03693039
#
# Stress axis : x y z
#
# Youngs Moduli (GPa) = 49.53622 113.45884 32.09285
#
# Poissons Ratio (x) = 0.06754 0.30979
# Poissons Ratio (y) = 0.02949 0.04386
# Poissons Ratio (z) = 0.47818 0.15507
#
# Static dielectric constant tensor:
#      x y z
#    x 3.642480 0.024330 -0.165930 
#    y 0.024330 3.588340 0.120820 
#    z -0.165930 0.120820 3.263410 
# 
# 
# High freq. dielectric constant tensor:
#      x y z
#    x 1.758050 0.006120 -0.008060 
#    y 0.006120 1.771750 0.003220 
#    z -0.008060 0.003220 1.714840 
# 
# From -- ./inp_files/244704.got.cif
#   From: 2010.06.25/outbox.cif.g09.slc.cpg/sg2_123_cif.got.tgz:244704.got - 2010.06.27 13:26:56.
