data_PCOD8039996
_publ_section_title
;
Structure prediction by ZEFSAII (Michael W. Deem and Ramdas Pophale) SiO2 
 PCOD8039996
Probable space group: P -1
;
_chemical_formula_sum "Si O2"
_cell_formula_units_Z 16
_cell_length_a 14.505154
_cell_length_b 9.227287
_cell_length_c 8.919590
_cell_angle_alpha 100.717867
_cell_angle_beta 47.466392
_cell_angle_gamma 70.581448
_cell_volume 669.264009
_symmetry_space_group_name_H-M "P -1"
_symmetry_group_IT_number 2
_symmetry_cell_setting 'triclinic'
loop_
_space_group_symop_operation_xyz
x,y,z
-x,-y,-z
loop_
_atom_site_type_symbol
_atom_site_label
_atom_site_fract_x
_atom_site_fract_y
_atom_site_fract_z
Si Si1 0.690494 0.847711 0.259721
Si Si2 0.863097 0.862800 0.802703
Si Si3 0.660183 0.795082 0.829479
Si Si4 0.831205 0.422628 0.415054
Si Si5 0.370004 0.378134 0.883922
Si Si6 0.821139 0.226558 0.937967
Si Si7 0.702434 0.247323 0.389597
Si Si8 0.071199 0.168551 0.847790
O O1 0.733753 0.650233 0.119894
O O2 0.777559 0.826485 0.318758
O O3 0.500000 0.000000 0.500000
O O4 0.757358 0.918017 0.080150
O O5 0.795139 0.811475 0.735318
O O6 0.050653 0.682868 0.590915
O O7 0.852509 0.041876 0.799105
O O8 0.731762 0.649173 0.583319
O O9 0.614732 0.709623 0.989465
O O10 0.500000 0.000000 0.000000
O O11 0.704849 0.381692 0.530766
O O12 0.936324 0.345810 0.133793
O O13 0.276309 0.603355 0.043583
O O14 0.547461 0.263652 0.596413
O O15 0.706470 0.303610 0.225736
O O16 0.990457 0.186216 0.780828
O O17 0.866343 0.032012 0.190197
#
# Coordination Sequence:
#
# PCOD8039996 Si02
#       8
#     2   2   2   2   2   2   2   2
#     4  10  18  35  60  93 134 169 204 262 321 384
#     4  10  20  40  70  88 127 171 215 262 324 384
#     4  11  27  48  64  88 128 179 230 267 316 380
#     4  10  20  41  70  92 126 177 217 260 321 384
#     4  11  25  39  62  99 132 170 216 269 325 384
#     4  11  20  39  66 104 130 165 212 264 335 386
#     4  11  19  39  69 100 137 159 209 271 327 393
#     4  10  19  38  70  96 133 170 208 262 331 395
#
# _framework density 23.906860000000002
#
# number of rings (size 3 to 8) (size 9 to 14) (size 15 to 20)
#    0.000    1.500    5.000    1.500    1.750    1.000 
#    6.750    5.625    0.000    0.000    0.000    0.000 
#    0.000    0.000    0.000    0.000    0.000    0.000 
#
# Total GULP energy -198322.542676 kJ/mol
# GULP energy per Si atom -12395.158917 kJ/mol
# Density = 2.385245 g / cm^3
# Si number density = 23.906860 Si / 1000 Ang^3
#
#
#
# Elastic Constant Matrix: (Units=GPa)
#
#
# Indices 1 2 3 4 5 6 
#
# 1 124.5923 40.2407 27.4032 5.0301 -7.8231 30.8484
# 2 40.2407 135.1196 43.0325 29.8799 -4.9281 -1.2194
# 3 27.4032 43.0325 60.9589 21.4606 -5.9932 11.5210
# 4 5.0301 29.8799 21.4606 39.9322 12.1929 3.0649
# 5 -7.8231 -4.9281 -5.9932 12.1929 32.7560 4.3679
# 6 30.8484 -1.2194 11.5210 3.0649 4.3679 34.9537
#
#
#
# Elastic Compliance Matrix: (Units=1/GPa)
#
#
# Indices 1 2 3 4 5 6 
#
# 1 0.012363 -0.003694 -0.001161 0.001768 0.003019 -0.011190
# 2 -0.003694 0.011702 -0.005319 -0.006331 0.001490 0.005791
# 3 -0.001161 -0.005319 0.027986 -0.013362 0.010148 -0.008482
# 4 0.001768 -0.006331 -0.013362 0.042423 -0.018935 0.001270
# 5 0.003019 0.001490 0.010148 -0.018935 0.041646 -0.009501
# 6 -0.011190 0.005791 -0.008482 0.001270 -0.009501 0.042558
#
#
# Mechanical properties :
#
#
# Convention : Reuss Voigt Hill
#
# Bulk Modulus (GPa) = 31.54243 60.22485 45.88364
# Shear Modulus (GPa) = 23.85582 35.52800 29.69191
#
# Velocity S-wave (km/s) = 3.16233 3.85918 3.52800
# Velocity P-wave (km/s) = 5.15328 6.71594 5.98582
#
# Compressibility (1/GPa) = 0.03170333
#
# Stress axis : x y z
#
# Youngs Moduli (GPa) = 80.88457 85.45804 35.73263
#
# Poissons Ratio (x) = 0.31569 0.04147
# Poissons Ratio (y) = 0.29880 0.19006
# Poissons Ratio (z) = 0.09388 0.45454
#
# Static dielectric constant tensor:
#      x y z
#    x 4.801390 0.436510 -0.182170 
#    y 0.436510 4.176320 0.180240 
#    z -0.182170 0.180240 3.906980 
# 
# 
# High freq. dielectric constant tensor:
#      x y z
#    x 1.960110 0.026590 -0.013680 
#    y 0.026590 1.939370 0.020170 
#    z -0.013680 0.020170 1.921300 
# 
# From -- ./inp_files/298691.got.cif
#   From: 2010.06.25/outbox.cif.g09.slc.cpg/sg2_150_cif.got.tgz:298691.got - 2010.06.27 13:26:56.
