data_PCOD8039247
_publ_section_title
;
Structure prediction by ZEFSAII (Michael W. Deem and Ramdas Pophale) SiO2 
 PCOD8039247
Probable space group: P -1
;
_chemical_formula_sum "Si O2"
_cell_formula_units_Z 16
_cell_length_a 13.830776
_cell_length_b 16.457603
_cell_length_c 9.091329
_cell_angle_alpha 46.209439
_cell_angle_beta 36.361391
_cell_angle_gamma 56.815405
_cell_volume 885.419178
_symmetry_space_group_name_H-M "P -1"
_symmetry_group_IT_number 2
_symmetry_cell_setting 'triclinic'
loop_
_space_group_symop_operation_xyz
x,y,z
-x,-y,-z
loop_
_atom_site_type_symbol
_atom_site_label
_atom_site_fract_x
_atom_site_fract_y
_atom_site_fract_z
Si Si1 0.823023 0.663946 0.172857
Si Si2 0.048429 0.873349 0.108309
Si Si3 0.344579 0.933991 0.830382
Si Si4 0.615515 0.469176 0.764366
Si Si5 0.147731 0.288353 0.257679
Si Si6 0.449311 0.255888 0.106972
Si Si7 0.966132 0.477963 0.400325
Si Si8 0.797435 0.838286 0.229859
O O1 0.658807 0.584066 0.475973
O O2 0.967992 0.596250 0.160546
O O3 0.794875 0.780066 0.147752
O O4 0.877919 0.692974 0.905799
O O5 0.968225 0.815778 0.422655
O O6 0.972744 0.816449 0.123824
O O7 0.244331 0.873592 0.892884
O O8 0.000000 0.000000 0.000000
O O9 0.408533 0.834925 0.982580
O O10 0.500000 0.000000 0.500000
O O11 0.231844 0.027788 0.928692
O O12 0.785447 0.419041 0.681235
O O13 0.500000 0.500000 0.000000
O O14 0.529552 0.378794 0.877071
O O15 0.335469 0.260288 0.097362
O O16 0.102973 0.399505 0.264270
O O17 0.343844 0.218937 0.425115
O O18 0.000000 0.500000 0.500000
#
# Coordination Sequence:
#
# PCOD8039247 Si02
#       8
#     2   2   2   2   2   2   2   2
#     4  10  22  34  56  83 118 152 183 239 290 332
#     4   9  18  34  59  82 103 144 196 231 273 338
#     4   9  18  32  58  83 104 137 192 244 277 321
#     4  10  19  33  57  82 113 143 195 229 282 331
#     4  11  21  36  55  82 120 149 189 232 289 337
#     4  10  18  33  54  80 109 151 190 234 275 336
#     4  10  20  35  57  80 108 150 193 231 272 340
#     4   9  17  35  56  80 111 142 192 237 282 337
#
# _framework density 18.070536000000001
#
# number of rings (size 3 to 8) (size 9 to 14) (size 15 to 20)
#    0.750    1.500    1.250    4.125    0.000    0.500 
#    0.000    3.125    0.000    0.000    0.000    0.000 
#    0.000    0.000    0.000    0.000    0.000    0.000 
#
# Total GULP energy -198221.961932 kJ/mol
# GULP energy per Si atom -12388.872621 kJ/mol
# Density = 1.802941 g / cm^3
# Si number density = 18.070536 Si / 1000 Ang^3
#
#
#
# Elastic Constant Matrix: (Units=GPa)
#
#
# Indices 1 2 3 4 5 6 
#
# 1 126.9478 48.1819 45.7450 -0.2011 -2.1119 -2.4605
# 2 48.1819 103.6562 32.8026 -10.7242 10.9399 0.5465
# 3 45.7450 32.8026 72.8549 -8.2707 4.8633 10.7781
# 4 -0.2011 -10.7242 -8.2707 22.5024 3.8022 -2.9023
# 5 -2.1119 10.9399 4.8633 3.8022 42.3322 1.5445
# 6 -2.4605 0.5465 10.7781 -2.9023 1.5445 32.2179
#
#
#
# Elastic Compliance Matrix: (Units=1/GPa)
#
#
# Indices 1 2 3 4 5 6 
#
# 1 0.011993 -0.004217 -0.006725 -0.004494 0.002766 0.002700
# 2 -0.004217 0.013497 -0.002612 0.006249 -0.003999 0.001078
# 3 -0.006725 -0.002612 0.020965 0.005916 -0.002351 -0.006837
# 4 -0.004494 0.006249 0.005916 0.051094 -0.007200 0.002520
# 5 0.002766 -0.003999 -0.002351 -0.007200 0.025741 -0.000817
# 6 0.002700 0.001078 -0.006837 0.002520 -0.000817 0.033780
#
#
# Mechanical properties :
#
#
# Convention : Reuss Voigt Hill
#
# Bulk Modulus (GPa) = 51.69278 61.87978 56.78628
# Shear Modulus (GPa) = 26.22925 31.19246 28.71086
#
# Velocity S-wave (km/s) = 3.81398 4.15920 3.99033
# Velocity P-wave (km/s) = 6.93278 7.57516 7.26108
#
# Compressibility (1/GPa) = 0.01934506
#
# Stress axis : x y z
#
# Youngs Moduli (GPa) = 83.38503 74.09018 47.69883
#
# Poissons Ratio (x) = 0.31245 0.32080
# Poissons Ratio (y) = 0.35165 0.12459
# Poissons Ratio (z) = 0.56080 0.19353
#
# Static dielectric constant tensor:
#      x y z
#    x 3.508800 -0.356670 -0.237900 
#    y -0.356670 3.474120 -0.215060 
#    z -0.237900 -0.215060 3.159060 
# 
# 
# High freq. dielectric constant tensor:
#      x y z
#    x 1.700390 -0.011880 -0.020190 
#    y -0.011880 1.697550 -0.026880 
#    z -0.020190 -0.026880 1.672840 
# 
# From -- ./inp_files/310924.got.cif
#   From: 2010.06.25/outbox.cif.g09.slc.cpg/sg2_156_cif.got.tgz:310924.got - 2010.06.27 13:26:56.
