data_PCOD8039386
_publ_section_title
;
Structure prediction by ZEFSAII (Michael W. Deem and Ramdas Pophale) SiO2 
 PCOD8039386
Probable space group: P -1
;
_chemical_formula_sum "Si O2"
_cell_formula_units_Z 14
_cell_length_a 20.116067
_cell_length_b 9.699243
_cell_length_c 10.000114
_cell_angle_alpha 29.372470
_cell_angle_beta 53.262508
_cell_angle_gamma 63.954759
_cell_volume 749.976722
_symmetry_space_group_name_H-M "P -1"
_symmetry_group_IT_number 2
_symmetry_cell_setting 'triclinic'
loop_
_space_group_symop_operation_xyz
x,y,z
-x,-y,-z
loop_
_atom_site_type_symbol
_atom_site_label
_atom_site_fract_x
_atom_site_fract_y
_atom_site_fract_z
Si Si1 0.312885 0.158259 0.284639
Si Si2 0.227621 0.503253 0.925634
Si Si3 0.350582 0.961724 0.904916
Si Si4 0.559791 0.793701 0.142607
Si Si5 0.402962 0.389172 0.249397
Si Si6 0.806788 0.930569 0.878908
Si Si7 0.900939 0.477696 0.137509
O O1 0.347976 0.235143 0.323996
O O2 0.286602 0.816132 0.596101
O O3 0.236202 0.328317 0.201022
O O4 0.385205 0.270825 0.994496
O O5 0.132141 0.532361 0.970565
O O6 0.255996 0.303908 0.942133
O O7 0.384209 0.060797 0.925651
O O8 0.401431 0.158042 0.563063
O O9 0.359458 0.638586 0.144376
O O10 0.250038 0.972230 0.017657
O O11 0.500000 0.500000 0.500000
O O12 0.500000 0.000000 0.000000
O O13 0.500000 0.500000 0.000000
O O14 0.852754 0.199140 0.508857
O O15 0.877931 0.763738 0.992941
O O16 0.000000 0.500000 0.000000
#
# Coordination Sequence:
#
# PCOD8039386 Si02
#       7
#     2   2   2   2   2   2   2
#     4  12  22  39  57  81 115 152 199 249 284 355
#     4  10  19  35  59  85 116 145 191 232 289 343
#     4  12  23  42  59  81 119 155 198 250 290 358
#     4  12  23  35  57  82 105 146 194 247 304 343
#     4  12  27  42  56  83 119 161 205 254 301 337
#     4  10  20  35  58  90 118 150 191 231 293 347
#     4  10  18  33  58  99 130 140 176 244 302 346
#
# _framework density 18.667247
#
# number of rings (size 3 to 8) (size 9 to 14) (size 15 to 20)
#    0.857    0.000    2.857    6.000    2.000    0.000 
#    0.000    0.000    0.000    0.000    0.000   20.000 
#    0.000    0.000    0.000    0.000    0.000    0.000 
#
# Total GULP energy -173465.516896 kJ/mol
# GULP energy per Si atom -12390.394064 kJ/mol
# Density = 1.862476 g / cm^3
# Si number density = 18.667247 Si / 1000 Ang^3
#
#
#
# Elastic Constant Matrix: (Units=GPa)
#
#
# Indices 1 2 3 4 5 6 
#
# 1 96.7153 40.7720 25.1789 -2.2236 4.5157 -12.2051
# 2 40.7720 78.3620 21.0885 -8.0324 -5.0287 1.3397
# 3 25.1789 21.0885 93.3508 -17.3386 9.3761 3.1478
# 4 -2.2236 -8.0324 -17.3386 29.8007 -2.7093 3.1996
# 5 4.5157 -5.0287 9.3761 -2.7093 28.8254 -1.0915
# 6 -12.2051 1.3397 3.1478 3.1996 -1.0915 23.8638
#
#
#
# Elastic Compliance Matrix: (Units=1/GPa)
#
#
# Indices 1 2 3 4 5 6 
#
# 1 0.015843 -0.008146 -0.003235 -0.004169 -0.002886 0.009414
# 2 -0.008146 0.018270 -0.001424 0.004533 0.005149 -0.005376
# 3 -0.003235 -0.001424 0.013842 0.007584 -0.003705 -0.004587
# 4 -0.004169 0.004533 0.007584 0.040027 0.002412 -0.008643
# 5 -0.002886 0.005149 -0.003705 0.002412 0.037478 0.000114
# 6 0.009414 -0.005376 -0.004587 -0.008643 0.000114 0.048790
#
#
# Mechanical properties :
#
#
# Convention : Reuss Voigt Hill
#
# Bulk Modulus (GPa) = 44.75251 49.16743 46.95997
# Shear Modulus (GPa) = 24.11881 28.59056 26.35469
#
# Velocity S-wave (km/s) = 3.59839 3.91780 3.76149
# Velocity P-wave (km/s) = 6.42576 6.84555 6.63898
#
# Compressibility (1/GPa) = 0.02234512
#
# Stress axis : x y z
#
# Youngs Moduli (GPa) = 63.12059 54.73490 72.24478
#
# Poissons Ratio (x) = 0.44587 0.23369
# Poissons Ratio (y) = 0.51418 0.10287
# Poissons Ratio (z) = 0.20418 0.07794
#
# Static dielectric constant tensor:
#      x y z
#    x 3.574050 -0.169620 0.134850 
#    y -0.169620 3.376820 -0.182850 
#    z 0.134850 -0.182850 3.524140 
# 
# 
# High freq. dielectric constant tensor:
#      x y z
#    x 1.723110 -0.008810 0.019300 
#    y -0.008810 1.704530 -0.026640 
#    z 0.019300 -0.026640 1.735820 
# 
# From -- ./inp_files/106736.got.cif
#   From: 2010.06.25/outbox.cif.g09.slc.cpg/sg2_54_cif.got.tgz:106736.got - 2010.06.27 13:26:56.
