data_PCOD8039576
_publ_section_title
;
Structure prediction by ZEFSAII (Michael W. Deem and Ramdas Pophale) SiO2 
 PCOD8039576
Probable space group: P -1
;
_chemical_formula_sum "Si O2"
_cell_formula_units_Z 16
_cell_length_a 13.926368
_cell_length_b 17.447068
_cell_length_c 8.970918
_cell_angle_alpha 58.699059
_cell_angle_beta 98.886787
_cell_angle_gamma 146.972041
_cell_volume 809.361799
_symmetry_space_group_name_H-M "P -1"
_symmetry_group_IT_number 2
_symmetry_cell_setting 'triclinic'
loop_
_space_group_symop_operation_xyz
x,y,z
-x,-y,-z
loop_
_atom_site_type_symbol
_atom_site_label
_atom_site_fract_x
_atom_site_fract_y
_atom_site_fract_z
Si Si1 0.497664 0.068249 0.218023
Si Si2 0.810459 0.497393 0.293994
Si Si3 0.711790 0.588853 0.018047
Si Si4 0.202415 0.152600 0.283154
Si Si5 0.978381 0.312517 0.536198
Si Si6 0.046034 0.537678 0.147294
Si Si7 0.003343 0.804128 0.590817
Si Si8 0.572548 0.934304 0.466371
O O1 0.525950 0.132019 0.325792
O O2 0.540263 0.996720 0.299423
O O3 0.695201 0.269956 0.959640
O O4 0.272319 0.917003 0.239630
O O5 0.859871 0.535920 0.442308
O O6 0.562616 0.257465 0.451262
O O7 0.983105 0.579596 0.163485
O O8 0.836471 0.621019 0.118911
O O9 0.783719 0.749828 0.924929
O O10 0.792366 0.648893 0.802848
O O11 0.448915 0.354297 0.209753
O O12 0.137177 0.001204 0.354610
O O13 0.000000 0.000000 0.500000
O O14 0.918868 0.352027 0.385314
O O15 0.081765 0.321290 0.446913
O O16 0.000000 0.500000 0.000000
O O17 0.172268 0.883541 0.647725
#
# Coordination Sequence:
#
# PCOD8039576 Si02
#       8
#     2   2   2   2   2   2   2   2
#     4  10  20  36  54  78 110 156 198 233 269 334
#     4  12  22  37  55  84 121 150 184 244 289 329
#     4  10  20  37  64  88 110 144 192 230 282 342
#     4   9  19  37  64  94 109 135 190 242 275 332
#     4  11  25  37  51  86 123 149 189 237 287 327
#     4  12  21  37  60  79 110 161 205 231 276 330
#     4  10  20  37  61  84 111 151 192 232 273 342
#     4  10  18  34  57  80 112 150 195 236 275 320
#
# _framework density 19.768661999999999
#
# number of rings (size 3 to 8) (size 9 to 14) (size 15 to 20)
#    0.000    1.500    3.750    3.375    0.000    0.500 
#    2.250    0.625    0.000    6.750    0.000    0.000 
#    0.000    0.000    0.000    0.000    0.000    0.000 
#
# Total GULP energy -198252.918281 kJ/mol
# GULP energy per Si atom -12390.807393 kJ/mol
# Density = 1.972367 g / cm^3
# Si number density = 19.768662 Si / 1000 Ang^3
#
#
#
# Elastic Constant Matrix: (Units=GPa)
#
#
# Indices 1 2 3 4 5 6 
#
# 1 97.2628 28.7628 31.5545 3.8284 11.1898 -2.1651
# 2 28.7628 95.4254 34.0344 4.8609 5.2581 -12.1710
# 3 31.5545 34.0344 70.2318 -8.6522 -5.0276 3.0694
# 4 3.8284 4.8609 -8.6522 24.9635 9.2656 -5.5535
# 5 11.1898 5.2581 -5.0276 9.2656 40.6951 -9.2566
# 6 -2.1651 -12.1710 3.0694 -5.5535 -9.2566 16.4804
#
#
#
# Elastic Compliance Matrix: (Units=1/GPa)
#
#
# Indices 1 2 3 4 5 6 
#
# 1 0.013123 -0.001860 -0.005506 -0.002491 -0.003851 -0.001627
# 2 -0.001860 0.015306 -0.007399 -0.002968 0.001028 0.012014
# 3 -0.005506 -0.007399 0.021661 0.007618 0.001915 -0.006579
# 4 -0.002491 -0.002968 0.007618 0.048128 -0.007057 0.008316
# 5 -0.003851 0.001028 0.001915 -0.007057 0.030700 0.014763
# 6 -0.001627 0.012014 -0.006579 0.008316 0.014763 0.081656
#
#
# Mechanical properties :
#
#
# Convention : Reuss Voigt Hill
#
# Bulk Modulus (GPa) = 48.63816 50.18038 49.40927
# Shear Modulus (GPa) = 20.24647 27.66569 23.95608
#
# Velocity S-wave (km/s) = 3.20374 3.74501 3.48490
# Velocity P-wave (km/s) = 6.19212 6.64372 6.42189
#
# Compressibility (1/GPa) = 0.02055999
#
# Stress axis : x y z
#
# Youngs Moduli (GPa) = 76.20407 65.33498 46.16613
#
# Poissons Ratio (x) = 0.12152 0.25419
# Poissons Ratio (y) = 0.14174 0.34157
# Poissons Ratio (z) = 0.41958 0.48339
#
# Static dielectric constant tensor:
#      x y z
#    x 4.014370 -0.073890 0.102790 
#    y -0.073890 3.320640 -0.418620 
#    z 0.102790 -0.418620 3.758700 
# 
# 
# High freq. dielectric constant tensor:
#      x y z
#    x 1.783150 -0.000190 -0.000480 
#    y -0.000190 1.732520 -0.035930 
#    z -0.000480 -0.035930 1.767420 
# 
# From -- ./inp_files/207575.got.cif
#   From: 2010.06.25/outbox.cif.g09.slc.cpg/sg2_104_cif.got.tgz:207575.got - 2010.06.27 13:26:56.
