data_PCOD8039165
_publ_section_title
;
Structure prediction by ZEFSAII (Michael W. Deem and Ramdas Pophale) SiO2 
 PCOD8039165
Probable space group: P -1
;
_chemical_formula_sum "Si O2"
_cell_formula_units_Z 14
_cell_length_a 6.620050
_cell_length_b 10.436362
_cell_length_c 8.868031
_cell_angle_alpha 70.908542
_cell_angle_beta 55.618901
_cell_angle_gamma 79.870808
_cell_volume 477.806735
_symmetry_space_group_name_H-M "P -1"
_symmetry_group_IT_number 2
_symmetry_cell_setting 'triclinic'
loop_
_space_group_symop_operation_xyz
x,y,z
-x,-y,-z
loop_
_atom_site_type_symbol
_atom_site_label
_atom_site_fract_x
_atom_site_fract_y
_atom_site_fract_z
Si Si1 0.877011 0.498349 0.214102
Si Si2 0.583695 0.284269 0.799586
Si Si3 0.661099 0.551884 0.776669
Si Si4 0.709204 0.821106 0.771358
Si Si5 0.313624 0.961598 0.737859
Si Si6 0.727923 0.212952 0.450208
Si Si7 0.034571 0.213483 0.847535
O O1 0.055117 0.462235 0.292069
O O2 0.691950 0.367598 0.342665
O O3 0.793632 0.655686 0.220391
O O4 0.000000 0.500000 0.000000
O O5 0.574046 0.451738 0.713375
O O6 0.829378 0.266739 0.800914
O O7 0.600055 0.202000 0.670640
O O8 0.351632 0.229302 0.013322
O O9 0.616619 0.712689 0.721289
O O10 0.500000 0.500000 0.000000
O O11 0.996006 0.841317 0.632408
O O12 0.551811 0.954570 0.750776
O O13 0.393078 0.903987 0.560417
O O14 0.213730 0.114421 0.719559
O O15 0.094927 0.861546 0.927854
#
# Coordination Sequence:
#
# PCOD8039165 Si02
#       7
#     2   2   2   2   2   2   2
#     4  10  18  32  59  92 118 156 211 255 305 372
#     4   9  19  38  60  92 126 164 201 268 314 363
#     4   8  16  31  58  78 119 159 190 246 316 350
#     4   9  20  39  62  89 128 164 209 257 311 375
#     4  10  20  39  63  88 125 173 204 254 317 374
#     4  11  22  37  69  94 119 165 217 252 316 376
#     4   9  19  37  61  86 129 168 200 257 322 360
#
# _framework density 29.300549
#
# number of rings (size 3 to 8) (size 9 to 14) (size 15 to 20)
#    0.000    2.571    1.429    0.857    0.000    5.714 
#    0.000   10.714    6.286    0.000    0.000    0.000 
#    0.000    0.000    0.000    0.000    0.000    0.000 
#
# Total GULP energy -173510.476618 kJ/mol
# GULP energy per Si atom -12393.605473 kJ/mol
# Density = 2.923386 g / cm^3
# Si number density = 29.300549 Si / 1000 Ang^3
#
#
#
# Elastic Constant Matrix: (Units=GPa)
#
#
# Indices 1 2 3 4 5 6 
#
# 1 64.9321 48.3562 16.2697 2.3498 -21.1718 22.8218
# 2 48.3562 218.5746 58.5649 9.3164 -3.4362 22.0520
# 3 16.2697 58.5649 101.6936 24.1493 0.5478 18.4428
# 4 2.3498 9.3164 24.1493 50.2295 0.1447 -0.2100
# 5 -21.1718 -3.4362 0.5478 0.1447 28.6144 6.1211
# 6 22.8218 22.0520 18.4428 -0.2100 6.1211 62.2800
#
#
#
# Elastic Compliance Matrix: (Units=1/GPa)
#
#
# Indices 1 2 3 4 5 6 
#
# 1 0.032332 -0.005537 0.000333 -0.000773 0.025937 -0.012538
# 2 -0.005537 0.006459 -0.003138 0.000584 -0.003481 0.001015
# 3 0.000333 -0.003138 0.013560 -0.005967 0.000299 -0.003076
# 4 -0.000773 0.000584 -0.005967 0.022716 -0.000933 0.002012
# 5 0.025937 -0.003481 0.000299 -0.000933 0.056701 -0.013936
# 6 -0.012538 0.001015 -0.003076 0.002012 -0.013936 0.022579
#
#
# Mechanical properties :
#
#
# Convention : Reuss Voigt Hill
#
# Bulk Modulus (GPa) = 28.03523 70.17576 49.10549
# Shear Modulus (GPa) = 27.33451 45.69208 36.51329
#
# Velocity S-wave (km/s) = 3.05766 3.95324 3.53393
# Velocity P-wave (km/s) = 4.69623 6.69625 5.78336
#
# Compressibility (1/GPa) = 0.03566940
#
# Stress axis : x y z
#
# Youngs Moduli (GPa) = 30.92885 154.83005 73.74429
#
# Poissons Ratio (x) = 0.85725 -0.02459
# Poissons Ratio (y) = 0.17124 0.23139
# Poissons Ratio (z) = -0.01031 0.48582
#
# Static dielectric constant tensor:
#      x y z
#    x 5.432720 0.220500 -0.066700 
#    y 0.220500 6.087190 -0.075040 
#    z -0.066700 -0.075040 5.133480 
# 
# 
# High freq. dielectric constant tensor:
#      x y z
#    x 2.212030 0.001450 -0.009850 
#    y 0.001450 2.220610 -0.006330 
#    z -0.009850 -0.006330 2.176500 
# 
# From -- ./inp_files/167572.got.cif
#   From: 2010.06.25/outbox.cif.g09.slc.cpg/sg2_84_cif.got.tgz:167572.got - 2010.06.27 13:26:56.
