data_PCOD8039942
_publ_section_title
;
Structure prediction by ZEFSAII (Michael W. Deem and Ramdas Pophale) SiO2 
 PCOD8039942
Probable space group: P -1
;
_chemical_formula_sum "Si O2"
_cell_formula_units_Z 16
_cell_length_a 9.443312
_cell_length_b 15.078915
_cell_length_c 12.762567
_cell_angle_alpha 83.125656
_cell_angle_beta 44.528839
_cell_angle_gamma 113.521536
_cell_volume 908.783953
_symmetry_space_group_name_H-M "P -1"
_symmetry_group_IT_number 2
_symmetry_cell_setting 'triclinic'
loop_
_space_group_symop_operation_xyz
x,y,z
-x,-y,-z
loop_
_atom_site_type_symbol
_atom_site_label
_atom_site_fract_x
_atom_site_fract_y
_atom_site_fract_z
Si Si1 0.239752 0.089811 0.214528
Si Si2 0.349896 0.464436 0.694170
Si Si3 0.731910 0.292579 0.041882
Si Si4 0.619589 0.987339 0.338279
Si Si5 0.891183 0.893482 0.266159
Si Si6 0.848917 0.087912 0.545398
Si Si7 0.345061 0.289552 0.390959
Si Si8 0.996000 0.200510 0.969398
O O1 0.541852 0.233624 0.043551
O O2 0.988324 0.081143 0.373369
O O3 0.254445 0.017663 0.304101
O O4 0.172385 0.027838 0.145378
O O5 0.500000 0.500000 0.500000
O O6 0.538703 0.577310 0.659812
O O7 0.051845 0.423818 0.833521
O O8 0.287715 0.347773 0.796542
O O9 0.589530 0.308855 0.203306
O O10 0.741651 0.192785 0.090406
O O11 0.664594 0.896626 0.347683
O O12 0.404093 0.929165 0.362172
O O13 0.500000 0.000000 0.500000
O O14 0.921378 0.124038 0.125964
O O15 0.741391 0.787566 0.447186
O O16 0.996828 0.866466 0.119835
O O17 0.080257 0.221252 0.463003
#
# Coordination Sequence:
#
# PCOD8039942 Si02
#       8
#     2   2   2   2   2   2   2   2
#     4   9  16  32  52  83 108 135 176 232 268 321
#     4  10  19  36  55  81 113 136 186 229 272 311
#     4   9  18  31  55  80 109 130 184 219 269 309
#     4  12  21  37  55  81 111 151 178 216 274 333
#     4  11  21  32  57  79 119 141 173 220 285 328
#     4   9  17  31  54  81 109 134 185 225 267 313
#     4  10  18  35  59  85 102 145 180 234 266 311
#     4  10  22  35  51  83 111 145 177 225 267 328
#
# _framework density 17.605944999999998
#
# number of rings (size 3 to 8) (size 9 to 14) (size 15 to 20)
#    0.750    1.250    3.750    2.250    0.000    0.500 
#    2.250    0.000    0.000    3.000    0.000    0.000 
#    0.000    0.000    0.000    0.000    0.000    0.000 
#
# Total GULP energy -198232.333364 kJ/mol
# GULP energy per Si atom -12389.520835 kJ/mol
# Density = 1.756587 g / cm^3
# Si number density = 17.605945 Si / 1000 Ang^3
#
#
#
# Elastic Constant Matrix: (Units=GPa)
#
#
# Indices 1 2 3 4 5 6 
#
# 1 57.9216 24.5314 12.7209 -4.8265 0.3712 0.7696
# 2 24.5314 122.9004 38.1533 5.7784 7.8795 17.6820
# 3 12.7209 38.1533 94.4378 2.3661 11.0376 11.5658
# 4 -4.8265 5.7784 2.3661 29.8486 2.7729 -4.7787
# 5 0.3712 7.8795 11.0376 2.7729 18.5692 -5.2813
# 6 0.7696 17.6820 11.5658 -4.7787 -5.2813 16.9931
#
#
#
# Elastic Compliance Matrix: (Units=1/GPa)
#
#
# Indices 1 2 3 4 5 6 
#
# 1 0.020328 -0.005212 -0.002519 0.005518 0.005143 0.009368
# 2 -0.005212 0.012664 -0.001368 -0.004977 -0.008257 -0.015976
# 3 -0.002519 -0.001368 0.014331 -0.002217 -0.011047 -0.012273
# 4 0.005518 -0.004977 -0.002217 0.038164 0.002747 0.018023
# 5 0.005143 -0.008257 -0.011047 0.002747 0.074753 0.039883
# 6 0.009368 -0.015976 -0.012273 0.018023 0.039883 0.100864
#
#
# Mechanical properties :
#
#
# Convention : Reuss Voigt Hill
#
# Bulk Modulus (GPa) = 34.33616 47.34123 40.83870
# Shear Modulus (GPa) = 17.30045 26.40578 21.85312
#
# Velocity S-wave (km/s) = 3.13812 3.87695 3.52694
# Velocity P-wave (km/s) = 5.71624 6.85483 6.31126
#
# Compressibility (1/GPa) = 0.02912381
#
# Stress axis : x y z
#
# Youngs Moduli (GPa) = 49.19339 78.96692 69.78028
#
# Poissons Ratio (x) = 0.41161 0.17577
# Poissons Ratio (y) = 0.25642 0.09544
# Poissons Ratio (z) = 0.12392 0.10800
#
# Static dielectric constant tensor:
#      x y z
#    x 3.182820 0.085420 -0.076040 
#    y 0.085420 3.367000 -0.080910 
#    z -0.076040 -0.080910 3.315590 
# 
# 
# High freq. dielectric constant tensor:
#      x y z
#    x 1.654750 0.012160 -0.013740 
#    y 0.012160 1.679540 0.009010 
#    z -0.013740 0.009010 1.676390 
# 
# From -- ./inp_files/268680.got.cif
#   From: 2010.06.25/outbox.cif.g09.slc.cpg/sg2_135_cif.got.tgz:268680.got - 2010.06.27 13:26:56.
