data_PCOD8039839
_publ_section_title
;
Structure prediction by ZEFSAII (Michael W. Deem and Ramdas Pophale) SiO2 
 PCOD8039839
Probable space group: P -1
;
_chemical_formula_sum "Si O2"
_cell_formula_units_Z 10
_cell_length_a 5.182067
_cell_length_b 25.871730
_cell_length_c 16.048847
_cell_angle_alpha 163.214296
_cell_angle_beta 55.214820
_cell_angle_gamma 119.854166
_cell_volume 499.601387
_symmetry_space_group_name_H-M "P -1"
_symmetry_group_IT_number 2
_symmetry_cell_setting 'triclinic'
loop_
_space_group_symop_operation_xyz
x,y,z
-x,-y,-z
loop_
_atom_site_type_symbol
_atom_site_label
_atom_site_fract_x
_atom_site_fract_y
_atom_site_fract_z
Si Si1 0.628742 0.220510 0.257773
Si Si2 0.378807 0.948940 0.355203
Si Si3 0.378005 0.464934 0.377132
Si Si4 0.452711 0.147629 0.349361
Si Si5 0.198685 0.925221 0.662979
O O1 0.509935 0.397435 0.496395
O O2 0.551153 0.271778 0.448377
O O3 0.427648 0.066549 0.029867
O O4 0.010219 0.133250 0.040379
O O5 0.500000 0.000000 0.500000
O O6 0.528619 0.066184 0.441142
O O7 0.477419 0.735965 0.990694
O O8 0.000000 0.000000 0.500000
O O9 0.500000 0.500000 0.500000
O O10 0.000000 0.500000 0.500000
O O11 0.629346 0.182776 0.455470
O O12 0.064309 0.188259 0.497042
#
# Coordination Sequence:
#
# PCOD8039839 Si02
#       5
#     2   2   2   2   2
#     4   9  20  31  60  87 117 140 197 253 293 336
#     4  12  25  41  59  86 126 167 194 238 309 363
#     4  12  23  39  63  91 119 155 205 256 290 341
#     4   9  18  31  56  92 111 144 187 257 299 331
#     4  10  18  35  56  81 114 152 194 236 287 354
#
# _framework density 20.015958999999999
#
# number of rings (size 3 to 8) (size 9 to 14) (size 15 to 20)
#    1.200    0.400    2.000    4.200    0.000    0.000 
#    0.000    0.000    0.000    7.200    0.000    0.000 
#    0.000    0.000    0.000    0.000    0.000    0.000 
#
# Total GULP energy -123945.180827 kJ/mol
# GULP energy per Si atom -12394.518083 kJ/mol
# Density = 1.997040 g / cm^3
# Si number density = 20.015959 Si / 1000 Ang^3
#
#
#
# Elastic Constant Matrix: (Units=GPa)
#
#
# Indices 1 2 3 4 5 6 
#
# 1 154.9392 51.9570 46.9993 -11.3661 -12.8065 -22.3537
# 2 51.9570 164.3594 37.9378 -7.8238 -9.7092 -24.7431
# 3 46.9993 37.9378 86.5168 -5.9949 -3.3354 -3.8652
# 4 -11.3661 -7.8238 -5.9949 29.4368 4.8467 -7.1316
# 5 -12.8065 -9.7092 -3.3354 4.8467 29.3021 -10.1699
# 6 -22.3537 -24.7431 -3.8652 -7.1316 -10.1699 39.7285
#
#
#
# Elastic Compliance Matrix: (Units=1/GPa)
#
#
# Indices 1 2 3 4 5 6 
#
# 1 0.009550 -0.000597 -0.004198 0.003401 0.005204 0.006536
# 2 -0.000597 0.008086 -0.002668 0.002158 0.003768 0.005793
# 3 -0.004198 -0.002668 0.014809 0.000293 -0.002151 -0.003081
# 4 0.003401 0.002158 0.000293 0.038452 -0.000647 0.010023
# 5 0.005204 0.003768 -0.002151 -0.000647 0.043056 0.015972
# 6 0.006536 0.005793 -0.003081 0.010023 0.015972 0.038044
#
#
# Mechanical properties :
#
#
# Convention : Reuss Voigt Hill
#
# Bulk Modulus (GPa) = 57.07937 75.51152 66.29544
# Shear Modulus (GPa) = 28.94133 37.62156 33.28145
#
# Velocity S-wave (km/s) = 3.80664 4.34011 4.08210
# Velocity P-wave (km/s) = 6.92095 7.93240 7.44387
#
# Compressibility (1/GPa) = 0.01751947
#
# Stress axis : x y z
#
# Youngs Moduli (GPa) = 104.70787 123.66891 67.52765
#
# Poissons Ratio (x) = 0.07379 0.28349
# Poissons Ratio (y) = 0.06248 0.18016
# Poissons Ratio (z) = 0.43958 0.32995
#
# Static dielectric constant tensor:
#      x y z
#    x 3.923150 -0.225040 -0.975490 
#    y -0.225040 3.911960 0.400060 
#    z -0.975490 0.400060 5.550340 
# 
# 
# High freq. dielectric constant tensor:
#      x y z
#    x 1.789220 -0.005500 -0.011800 
#    y -0.005500 1.800900 -0.007450 
#    z -0.011800 -0.007450 1.725870 
# 
# From -- ./inp_files/21462.got.cif
#   From: 2010.06.25/outbox.cif.g09.slc.cpg/sg2_11_cif.got.tgz:21462.got - 2010.06.27 13:26:56.
