data_PCOD8039109
_publ_section_title
;
Structure prediction by ZEFSAII (Michael W. Deem and Ramdas Pophale) SiO2 
 PCOD8039109
Probable space group: P -1
;
_chemical_formula_sum "Si O2"
_cell_formula_units_Z 16
_cell_length_a 12.245137
_cell_length_b 19.604847
_cell_length_c 11.681429
_cell_angle_alpha 141.090424
_cell_angle_beta 47.399039
_cell_angle_gamma 151.106827
_cell_volume 850.959529
_symmetry_space_group_name_H-M "P -1"
_symmetry_group_IT_number 2
_symmetry_cell_setting 'triclinic'
loop_
_space_group_symop_operation_xyz
x,y,z
-x,-y,-z
loop_
_atom_site_type_symbol
_atom_site_label
_atom_site_fract_x
_atom_site_fract_y
_atom_site_fract_z
Si Si1 0.377827 0.745499 0.889159
Si Si2 0.584036 0.520965 0.595331
Si Si3 0.161173 0.995955 0.503461
Si Si4 0.422957 0.649209 0.957436
Si Si5 0.008684 0.387353 0.623554
Si Si6 0.476747 0.863214 0.378693
Si Si7 0.292168 0.151035 0.373934
Si Si8 0.948989 0.299496 0.812556
O O1 0.451485 0.698979 0.870819
O O2 0.168602 0.579969 0.750468
O O3 0.592587 0.878989 0.826928
O O4 0.287938 0.804621 0.090801
O O5 0.500000 0.500000 0.500000
O O6 0.556975 0.608543 0.815043
O O7 0.851759 0.639978 0.557205
O O8 0.440069 0.341455 0.511527
O O9 0.340249 0.066966 0.566109
O O10 0.297730 0.113266 0.450566
O O11 0.013782 0.807132 0.334406
O O12 0.967597 0.975899 0.650002
O O13 0.158576 0.481783 0.955594
O O14 0.518692 0.795652 0.162573
O O15 0.778605 0.284129 0.581160
O O16 0.922114 0.317999 0.723902
O O17 0.500000 0.000000 0.500000
#
# Coordination Sequence:
#
# PCOD8039109 Si02
#       8
#     2   2   2   2   2   2   2   2
#     4  10  18  32  60  89 109 143 204 248 267 338
#     4  11  18  34  65  89 108 149 206 244 269 335
#     4  11  23  39  58  81 121 161 185 237 300 345
#     4  11  19  33  61  91 111 150 197 241 285 341
#     4  10  18  32  56  87 115 143 189 239 285 337
#     4  12  23  37  57  89 127 152 182 239 310 345
#     4  10  22  39  59  84 114 154 202 236 285 342
#     4  11  17  34  60  86 112 151 197 234 281 347
#
# _framework density 18.802303999999999
#
# number of rings (size 3 to 8) (size 9 to 14) (size 15 to 20)
#    0.000    1.250    8.750    0.750    0.000    0.500 
#    0.000    6.875    0.000    0.000    0.000    0.000 
#    0.000    0.000    0.000    0.000    0.000    0.000 
#
# Total GULP energy -198257.032702 kJ/mol
# GULP energy per Si atom -12391.064544 kJ/mol
# Density = 1.875951 g / cm^3
# Si number density = 18.802304 Si / 1000 Ang^3
#
#
#
# Elastic Constant Matrix: (Units=GPa)
#
#
# Indices 1 2 3 4 5 6 
#
# 1 92.6927 44.4880 32.2536 -3.7477 7.7992 18.8034
# 2 44.4880 104.9324 36.0240 -24.5008 7.7355 9.8131
# 3 32.2536 36.0240 93.2677 -14.8372 -5.3591 9.6517
# 4 -3.7477 -24.5008 -14.8372 38.5521 9.6783 -15.5462
# 5 7.7992 7.7355 -5.3591 9.6783 15.6280 -3.4955
# 6 18.8034 9.8131 9.6517 -15.5462 -3.4955 32.1415
#
#
#
# Elastic Compliance Matrix: (Units=1/GPa)
#
#
# Indices 1 2 3 4 5 6 
#
# 1 0.017595 -0.006346 -0.003893 -0.007031 -0.005113 -0.011144
# 2 -0.006346 0.017565 -0.003590 0.014928 -0.014878 0.005030
# 3 -0.003893 -0.003590 0.014012 0.000898 0.008076 0.000478
# 4 -0.007031 0.014928 0.000898 0.051108 -0.030598 0.020678
# 5 -0.005113 -0.014878 0.008076 -0.030598 0.095785 0.000726
# 6 -0.011144 0.005030 0.000478 0.020678 0.000726 0.046033
#
#
# Mechanical properties :
#
#
# Convention : Reuss Voigt Hill
#
# Bulk Modulus (GPa) = 46.48149 57.38046 51.93097
# Shear Modulus (GPa) = 18.05528 29.13946 23.59737
#
# Velocity S-wave (km/s) = 3.10218 3.94100 3.54648
# Velocity P-wave (km/s) = 6.13239 7.16189 6.66704
#
# Compressibility (1/GPa) = 0.02151394
#
# Stress axis : x y z
#
# Youngs Moduli (GPa) = 56.83383 56.93173 71.36663
#
# Poissons Ratio (x) = 0.36129 0.27781
# Poissons Ratio (y) = 0.36066 0.25624
# Poissons Ratio (z) = 0.22124 0.20441
#
# Static dielectric constant tensor:
#      x y z
#    x 3.352860 0.237270 -0.337050 
#    y 0.237270 3.628540 -0.132880 
#    z -0.337050 -0.132880 3.571320 
# 
# 
# High freq. dielectric constant tensor:
#      x y z
#    x 1.702680 0.019420 -0.030960 
#    y 0.019420 1.729190 -0.013330 
#    z -0.030960 -0.013330 1.722750 
# 
# From -- ./inp_files/436947.got.cif
#   From: 2010.06.25/outbox.cif.g09.slc.cpg/sg2_219_cif.got.tgz:436947.got - 2010.06.27 13:26:56.
