data_PCOD8039112
_publ_section_title
;
Structure prediction by ZEFSAII (Michael W. Deem and Ramdas Pophale) SiO2 
 PCOD8039112
Probable space group: P -1
;
_chemical_formula_sum "Si O2"
_cell_formula_units_Z 14
_cell_length_a 12.279332
_cell_length_b 12.018035
_cell_length_c 11.585153
_cell_angle_alpha 129.196049
_cell_angle_beta 149.046645
_cell_angle_gamma 50.767741
_cell_volume 663.690134
_symmetry_space_group_name_H-M "P -1"
_symmetry_group_IT_number 2
_symmetry_cell_setting 'triclinic'
loop_
_space_group_symop_operation_xyz
x,y,z
-x,-y,-z
loop_
_atom_site_type_symbol
_atom_site_label
_atom_site_fract_x
_atom_site_fract_y
_atom_site_fract_z
Si Si1 0.550055 0.254759 0.906495
Si Si2 0.912481 0.749028 0.958022
Si Si3 0.543852 0.033575 0.329006
Si Si4 0.275686 0.724581 0.433585
Si Si5 0.767496 0.486306 0.319498
Si Si6 0.655407 0.532425 0.510666
Si Si7 0.199519 0.892614 0.172564
O O1 0.373127 0.405799 0.831125
O O2 0.612722 0.171885 0.788953
O O3 0.458379 0.134893 0.821133
O O4 0.750983 0.314006 0.183005
O O5 0.708086 0.882875 0.832950
O O6 0.846132 0.593581 0.785750
O O7 0.020716 0.754346 0.186734
O O8 0.102772 0.759824 0.048304
O O9 0.653280 0.118811 0.386263
O O10 0.685642 0.030511 0.572861
O O11 0.422170 0.630942 0.402264
O O12 0.319014 0.636510 0.535585
O O13 0.690346 0.543978 0.414217
O O14 0.000000 0.500000 0.500000
O O15 0.000000 0.000000 0.000000
#
# Coordination Sequence:
#
# PCOD8039112 Si02
#       7
#     2   2   2   2   2   2   2
#     4  11  23  38  54  86 120 154 198 231 294 357
#     4  10  18  32  56  88 115 147 185 248 302 337
#     4  10  21  34  56  87 118 142 192 247 294 346
#     4   9  20  36  61  88 113 149 194 256 294 332
#     4  11  25  39  58  81 122 166 191 231 286 359
#     4  10  20  38  58  85 118 151 203 240 286 349
#     4  11  21  32  59  90 116 151 187 247 301 339
#
# _framework density 21.094180999999999
#
# number of rings (size 3 to 8) (size 9 to 14) (size 15 to 20)
#    0.000    1.714    1.429    4.286    4.000    1.143 
#    0.000    0.714    0.000    1.714    0.000    0.000 
#    0.000    0.000    0.000    0.000    0.000    0.000 
#
# Total GULP energy -173451.043964 kJ/mol
# GULP energy per Si atom -12389.360283 kJ/mol
# Density = 2.104617 g / cm^3
# Si number density = 21.094181 Si / 1000 Ang^3
#
#
#
# Elastic Constant Matrix: (Units=GPa)
#
#
# Indices 1 2 3 4 5 6 
#
# 1 51.8221 18.5663 16.2627 3.3512 9.5651 12.9411
# 2 18.5663 114.9043 54.4762 21.5288 13.4292 31.2541
# 3 16.2627 54.4762 122.2335 12.3596 23.9056 16.7812
# 4 3.3512 21.5288 12.3596 48.1461 8.2569 8.3149
# 5 9.5651 13.4292 23.9056 8.2569 20.8625 5.8377
# 6 12.9411 31.2541 16.7812 8.3149 5.8377 29.6103
#
#
#
# Elastic Compliance Matrix: (Units=1/GPa)
#
#
# Indices 1 2 3 4 5 6 
#
# 1 0.023044 -0.000826 -0.000153 0.001592 -0.008270 -0.007930
# 2 -0.000826 0.014828 -0.004700 -0.003479 0.000906 -0.011828
# 3 -0.000153 -0.004700 0.012464 0.000893 -0.011536 -0.000012
# 4 0.001592 -0.003479 0.000893 0.023846 -0.008223 -0.002605
# 5 -0.008270 0.000906 -0.011536 -0.008223 0.068155 -0.001932
# 6 -0.007930 -0.011828 -0.000012 -0.002605 -0.001932 0.050842
#
#
# Mechanical properties :
#
#
# Convention : Reuss Voigt Hill
#
# Bulk Modulus (GPa) = 25.65546 51.95227 38.80387
# Shear Modulus (GPa) = 22.98546 33.03409 28.00977
#
# Velocity S-wave (km/s) = 3.30458 3.96160 3.64791
# Velocity P-wave (km/s) = 5.17195 6.75336 6.01486
#
# Compressibility (1/GPa) = 0.03897805
#
# Stress axis : x y z
#
# Youngs Moduli (GPa) = 43.39460 67.44086 80.23345
#
# Poissons Ratio (x) = 0.05570 0.01226
# Poissons Ratio (y) = 0.03584 0.37710
# Poissons Ratio (z) = 0.00663 0.31698
#
# Static dielectric constant tensor:
#      x y z
#    x 3.508680 0.394530 0.302610 
#    y 0.394530 4.010300 0.017000 
#    z 0.302610 0.017000 4.141780 
# 
# 
# High freq. dielectric constant tensor:
#      x y z
#    x 1.786290 0.034450 0.029700 
#    y 0.034450 1.825390 -0.003420 
#    z 0.029700 -0.003420 1.839690 
# 
# From -- ./inp_files/46148.got.cif
#   From: 2010.06.25/outbox.cif.g09.slc.cpg/sg2_24_cif.got.tgz:46148.got - 2010.06.27 13:26:56.
