data_PCOD8039828
_publ_section_title
;
Structure prediction by ZEFSAII (Michael W. Deem and Ramdas Pophale) SiO2 
 PCOD8039828
Probable space group: P -1
;
_chemical_formula_sum "Si O2"
_cell_formula_units_Z 16
_cell_length_a 9.986537
_cell_length_b 30.881917
_cell_length_c 9.818181
_cell_angle_alpha 144.796892
_cell_angle_beta 119.711893
_cell_angle_gamma 33.176815
_cell_volume 766.435704
_symmetry_space_group_name_H-M "P -1"
_symmetry_group_IT_number 2
_symmetry_cell_setting 'triclinic'
loop_
_space_group_symop_operation_xyz
x,y,z
-x,-y,-z
loop_
_atom_site_type_symbol
_atom_site_label
_atom_site_fract_x
_atom_site_fract_y
_atom_site_fract_z
Si Si1 0.739838 0.356023 0.657844
Si Si2 0.637184 0.629485 0.494252
Si Si3 0.685090 0.700254 0.960033
Si Si4 0.588228 0.286008 0.920628
Si Si5 0.119223 0.616633 0.473115
Si Si6 0.901901 0.817809 0.107630
Si Si7 0.269278 0.150044 0.602599
Si Si8 0.704993 0.666134 0.333787
O O1 0.630141 0.317503 0.474718
O O2 0.759498 0.386769 0.600675
O O3 0.065538 0.219031 0.544977
O O4 0.500000 0.500000 0.000000
O O5 0.631282 0.702626 0.781286
O O6 0.582817 0.683548 0.456329
O O7 0.962009 0.452120 0.211071
O O8 0.482324 0.725570 0.003883
O O9 0.589098 0.825776 0.263929
O O10 0.560038 0.235107 0.656637
O O11 0.931731 0.171932 0.798919
O O12 0.359468 0.451619 0.209147
O O13 0.793734 0.716106 0.524722
O O14 0.074610 0.685723 0.760981
O O15 0.927929 0.778999 0.177008
O O16 0.550889 0.973845 0.287221
O O17 0.000000 0.500000 0.000000
#
# Coordination Sequence:
#
# PCOD8039828 Si02
#       8
#     2   2   2   2   2   2   2   2
#     4  12  22  38  64  92 121 158 199 253 303 357
#     4  11  21  34  58  92 120 149 194 251 303 347
#     4  11  22  37  60  91 120 155 197 251 300 355
#     4  11  22  38  63  92 120 154 201 250 302 355
#     4  11  22  38  63  93 123 153 204 255 300 354
#     4  11  25  43  60  87 124 168 201 245 301 361
#     4  11  25  43  62  85 125 165 204 244 302 364
#     4  10  18  35  55  87 119 150 188 246 301 345
#
# _framework density 20.875854
#
# number of rings (size 3 to 8) (size 9 to 14) (size 15 to 20)
#    0.000    1.000    3.750    5.625    1.750    1.000 
#    0.000    1.250    0.000    4.500    0.000    0.000 
#    0.000    0.000    0.000    0.000    0.000    0.000 
#
# Total GULP energy -198444.068069 kJ/mol
# GULP energy per Si atom -12402.754254 kJ/mol
# Density = 2.082834 g / cm^3
# Si number density = 20.875854 Si / 1000 Ang^3
#
#
#
# Elastic Constant Matrix: (Units=GPa)
#
#
# Indices 1 2 3 4 5 6 
#
# 1 143.5142 9.0393 16.2873 -7.4346 -9.3956 1.4038
# 2 9.0393 43.8194 13.4429 -5.8851 -10.0980 -4.0482
# 3 16.2873 13.4429 38.9717 -8.2649 -8.6911 5.4986
# 4 -7.4346 -5.8851 -8.2649 24.9753 1.5248 -0.5111
# 5 -9.3956 -10.0980 -8.6911 1.5248 23.9485 -12.8254
# 6 1.4038 -4.0482 5.4986 -0.5111 -12.8254 43.3393
#
#
#
# Elastic Compliance Matrix: (Units=1/GPa)
#
#
# Indices 1 2 3 4 5 6 
#
# 1 0.007458 0.000001 -0.002423 0.001289 0.002387 0.000787
# 2 0.000001 0.029474 -0.007408 0.003819 0.013664 0.007781
# 3 -0.002423 -0.007408 0.032586 0.007911 0.005651 -0.002982
# 4 0.001289 0.003819 0.007911 0.043800 0.002503 0.000568
# 5 0.002387 0.013664 0.005651 0.002503 0.060153 0.018312
# 6 0.000787 0.007781 -0.002982 0.000568 0.018312 0.029579
#
#
# Mechanical properties :
#
#
# Convention : Reuss Voigt Hill
#
# Bulk Modulus (GPa) = 20.05679 33.76046 26.90862
# Shear Modulus (GPa) = 20.89173 30.95501 25.92337
#
# Velocity S-wave (km/s) = 3.16691 3.85491 3.52772
# Velocity P-wave (km/s) = 4.79593 6.00174 5.43240
#
# Compressibility (1/GPa) = 0.04985844
#
# Stress axis : x y z
#
# Youngs Moduli (GPa) = 134.08098 33.92828 30.68796
#
# Poissons Ratio (x) = -0.00002 0.07435
# Poissons Ratio (y) = -0.00007 0.22733
# Poissons Ratio (z) = 0.32483 0.25133
#
# Static dielectric constant tensor:
#      x y z
#    x 4.450860 -0.494320 0.092840 
#    y -0.494320 4.194730 -0.348890 
#    z 0.092840 -0.348890 3.576250 
# 
# 
# High freq. dielectric constant tensor:
#      x y z
#    x 1.838480 -0.005420 -0.001490 
#    y -0.005420 1.818100 -0.028690 
#    z -0.001490 -0.028690 1.786730 
# 
# From -- ./inp_files/227768.got.cif
#   From: 2010.06.25/outbox.cif.g09.slc.cpg/sg2_114_cif.got.tgz:227768.got - 2010.06.27 13:26:56.
