data_PCOD8039137
_publ_section_title
;
Structure prediction by ZEFSAII (Michael W. Deem and Ramdas Pophale) SiO2 
 PCOD8039137
Probable space group: P -1
;
_chemical_formula_sum "Si O2"
_cell_formula_units_Z 14
_cell_length_a 8.980528
_cell_length_b 18.269419
_cell_length_c 11.002296
_cell_angle_alpha 140.241712
_cell_angle_beta 95.680291
_cell_angle_gamma 111.381677
_cell_volume 828.848948
_symmetry_space_group_name_H-M "P -1"
_symmetry_group_IT_number 2
_symmetry_cell_setting 'triclinic'
loop_
_space_group_symop_operation_xyz
x,y,z
-x,-y,-z
loop_
_atom_site_type_symbol
_atom_site_label
_atom_site_fract_x
_atom_site_fract_y
_atom_site_fract_z
Si Si1 0.386009 0.535705 0.387445
Si Si2 0.236048 0.887358 0.932210
Si Si3 0.196982 0.279526 0.226249
Si Si4 0.275218 0.025125 0.542510
Si Si5 0.633960 0.223268 0.376012
Si Si6 0.515931 0.048670 0.373415
Si Si7 0.188978 0.217448 0.885516
O O1 0.268407 0.442090 0.385703
O O2 0.631144 0.675415 0.609258
O O3 0.307617 0.613848 0.427920
O O4 0.333059 0.406898 0.121446
O O5 0.213929 0.768423 0.688006
O O6 0.012028 0.824381 0.846819
O O7 0.395154 0.066365 0.117283
O O8 0.326093 0.895646 0.082267
O O9 0.167405 0.178712 0.979286
O O10 0.347723 0.981766 0.601825
O O11 0.035619 0.872537 0.301969
O O12 0.421174 0.080529 0.509475
O O13 0.299850 0.170394 0.768178
O O14 0.663304 0.203706 0.495323
#
# Coordination Sequence:
#
# PCOD8039137 Si02
#       7
#     2   2   2   2   2   2   2
#     4   9  19  34  52  77 112 132 167 222 263 302
#     4   9  18  33  52  77 107 135 175 206 261 309
#     4   9  18  33  52  77 107 135 175 206 261 309
#     4  10  18  32  58  72 102 138 184 206 246 306
#     4   9  19  34  52  77 112 132 167 222 263 302
#     4   9  18  33  50  78  99 136 176 215 246 303
#     4   9  18  33  50  78  99 136 176 215 246 303
#
# _framework density 16.890893999999999
#
# number of rings (size 3 to 8) (size 9 to 14) (size 15 to 20)
#    1.714    1.143    1.429    0.000    2.000    1.143 
#    0.000    7.143    0.000    0.000    0.000    0.000 
#    0.000    0.000    0.000    0.000    0.000    0.000 
#
# Total GULP energy -173441.497760 kJ/mol
# GULP energy per Si atom -12388.678411 kJ/mol
# Density = 1.685245 g / cm^3
# Si number density = 16.890894 Si / 1000 Ang^3
#
#
#
# Elastic Constant Matrix: (Units=GPa)
#
#
# Indices 1 2 3 4 5 6 
#
# 1 68.9756 15.3287 36.7793 -10.8471 -17.2514 8.5586
# 2 15.3287 51.4202 14.5838 -11.2059 -20.1382 -0.5679
# 3 36.7793 14.5838 75.7047 -9.2904 -17.2577 -2.1045
# 4 -10.8471 -11.2059 -9.2904 19.5554 -1.6476 -2.8499
# 5 -17.2514 -20.1382 -17.2577 -1.6476 30.6148 2.7965
# 6 8.5586 -0.5679 -2.1045 -2.8499 2.7965 26.8757
#
#
#
# Elastic Compliance Matrix: (Units=1/GPa)
#
#
# Indices 1 2 3 4 5 6 
#
# 1 0.024052 0.001716 -0.008461 0.010027 0.011218 -0.008390
# 2 0.001716 0.033199 0.001175 0.022625 0.024678 0.000079
# 3 -0.008461 0.001175 0.019610 0.006502 0.007024 0.004213
# 4 0.010027 0.022625 0.006502 0.075533 0.027999 0.002890
# 5 0.011218 0.024678 0.007024 0.027999 0.061224 -0.005903
# 6 -0.008390 0.000079 0.004213 0.002890 -0.005903 0.041132
#
#
# Mechanical properties :
#
#
# Convention : Reuss Voigt Hill
#
# Bulk Modulus (GPa) = 15.21583 36.60934 25.91259
# Shear Modulus (GPa) = 17.37334 24.03641 20.70488
#
# Velocity S-wave (km/s) = 3.21060 3.77641 3.50494
# Velocity P-wave (km/s) = 4.77198 6.38249 5.63507
#
# Compressibility (1/GPa) = 0.06572102
#
# Stress axis : x y z
#
# Youngs Moduli (GPa) = 41.57689 30.12128 50.99507
#
# Poissons Ratio (x) = -0.05168 0.43146
# Poissons Ratio (y) = -0.07134 -0.05993
# Poissons Ratio (z) = 0.35178 -0.03540
#
# Static dielectric constant tensor:
#      x y z
#    x 2.970130 0.039910 -0.006050 
#    y 0.039910 2.908400 -0.145170 
#    z -0.006050 -0.145170 3.039680 
# 
# 
# High freq. dielectric constant tensor:
#      x y z
#    x 1.645930 0.002800 -0.002320 
#    y 0.002800 1.628670 -0.012060 
#    z -0.002320 -0.012060 1.637440 
# 
# From -- ./inp_files/405104.got.cif
#   From: 2010.06.25/outbox.cif.g09.slc.cpg/sg2_203_cif.got.tgz:405104.got - 2010.06.27 13:26:56.
