data_PCOD8039259
_publ_section_title
;
Structure prediction by ZEFSAII (Michael W. Deem and Ramdas Pophale) SiO2 
 PCOD8039259
Probable space group: P -1
;
_chemical_formula_sum "Si O2"
_cell_formula_units_Z 16
_cell_length_a 9.636329
_cell_length_b 14.600544
_cell_length_c 11.252375
_cell_angle_alpha 131.903560
_cell_angle_beta 113.457128
_cell_angle_gamma 44.305906
_cell_volume 813.253586
_symmetry_space_group_name_H-M "P -1"
_symmetry_group_IT_number 2
_symmetry_cell_setting 'triclinic'
loop_
_space_group_symop_operation_xyz
x,y,z
-x,-y,-z
loop_
_atom_site_type_symbol
_atom_site_label
_atom_site_fract_x
_atom_site_fract_y
_atom_site_fract_z
Si Si1 0.828940 0.600230 0.209665
Si Si2 0.233449 0.509355 0.527876
Si Si3 0.451736 0.551177 0.830727
Si Si4 0.213208 0.271183 0.430851
Si Si5 0.782694 0.464006 0.723958
Si Si6 0.577609 0.945838 0.347349
Si Si7 0.033648 0.123908 0.639338
Si Si8 0.221844 0.661546 0.063202
O O1 0.784996 0.661125 0.382813
O O2 0.682187 0.756016 0.205658
O O3 0.061871 0.507337 0.177941
O O4 0.792316 0.477841 0.071698
O O5 0.381041 0.500500 0.658178
O O6 0.254861 0.351027 0.414155
O O7 0.292298 0.508404 0.412419
O O8 0.003451 0.674814 0.618312
O O9 0.584698 0.588674 0.847957
O O10 0.594103 0.398914 0.839052
O O11 0.264780 0.697072 0.977066
O O12 0.382485 0.073401 0.307814
O O13 0.890060 0.278830 0.637265
O O14 0.736119 0.967719 0.388637
O O15 0.500000 0.000000 0.500000
O O16 0.982552 0.178731 0.808892
O O17 0.000000 0.000000 0.500000
#
# Coordination Sequence:
#
# PCOD8039259 Si02
#       8
#     2   2   2   2   2   2   2   2
#     4   9  17  36  55  85 114 138 187 230 276 328
#     4  10  18  33  54  85 116 144 192 227 261 330
#     4  10  20  33  52  86 109 145 184 227 276 322
#     4   9  18  31  57  85 106 153 184 225 272 319
#     4   9  20  33  56  89 109 144 184 232 272 320
#     4   9  19  32  56  82 110 139 181 234 274 316
#     4  10  22  37  55  83 113 142 181 236 288 329
#     4  10  21  35  58  82 112 148 183 230 282 332
#
# _framework density 19.674059
#
# number of rings (size 3 to 8) (size 9 to 14) (size 15 to 20)
#    0.000    2.500    1.250    1.125    3.500    5.500 
#    0.000    0.000    0.000    3.750    0.000    0.000 
#    0.000    0.000    0.000    0.000    0.000    0.000 
#
# Total GULP energy -198251.579174 kJ/mol
# GULP energy per Si atom -12390.723698 kJ/mol
# Density = 1.962928 g / cm^3
# Si number density = 19.674059 Si / 1000 Ang^3
#
#
#
# Elastic Constant Matrix: (Units=GPa)
#
#
# Indices 1 2 3 4 5 6 
#
# 1 143.8433 39.7348 52.1237 1.6742 -27.9991 -3.9178
# 2 39.7348 75.1197 26.0025 -7.4787 -0.0617 -2.5274
# 3 52.1237 26.0025 73.7771 -2.3987 -8.2685 -4.1980
# 4 1.6742 -7.4787 -2.3987 25.4539 4.0713 -1.9061
# 5 -27.9991 -0.0617 -8.2685 4.0713 38.4019 -6.2674
# 6 -3.9178 -2.5274 -4.1980 -1.9061 -6.2674 26.3894
#
#
#
# Elastic Compliance Matrix: (Units=1/GPa)
#
#
# Indices 1 2 3 4 5 6 
#
# 1 0.012131 -0.004648 -0.006011 -0.003901 0.008298 0.002089
# 2 -0.004648 0.017458 -0.003220 0.005868 -0.004713 -0.000226
# 3 -0.006011 -0.003220 0.019077 0.001409 -0.000118 0.001908
# 4 -0.003901 0.005868 0.001409 0.042609 -0.006775 0.001676
# 5 0.008298 -0.004713 -0.000118 -0.006775 0.034143 0.008381
# 6 0.002089 -0.000226 0.001908 0.001676 0.008381 0.040598
#
#
# Mechanical properties :
#
#
# Convention : Reuss Voigt Hill
#
# Bulk Modulus (GPa) = 47.82416 58.71800 53.27108
# Shear Modulus (GPa) = 24.90753 29.70766 27.30760
#
# Velocity S-wave (km/s) = 3.56196 3.89008 3.72963
# Velocity P-wave (km/s) = 6.42478 7.07722 6.75888
#
# Compressibility (1/GPa) = 0.02090993
#
# Stress axis : x y z
#
# Youngs Moduli (GPa) = 82.43053 57.28137 52.41945
#
# Poissons Ratio (x) = 0.26622 0.31509
# Poissons Ratio (y) = 0.38310 0.16877
# Poissons Ratio (z) = 0.49548 0.18442
#
# Static dielectric constant tensor:
#      x y z
#    x 4.098610 -0.070100 -0.406140 
#    y -0.070100 3.763030 -0.102110 
#    z -0.406140 -0.102110 3.394440 
# 
# 
# High freq. dielectric constant tensor:
#      x y z
#    x 1.793570 -0.004800 -0.018340 
#    y -0.004800 1.740400 -0.015820 
#    z -0.018340 -0.015820 1.731730 
# 
# From -- ./inp_files/395511.got.cif
#   From: 2010.06.25/outbox.cif.g09.slc.cpg/sg2_198_cif.got.tgz:395511.got - 2010.06.27 13:26:56.
