data_PCOD8039014
_publ_section_title
;
Structure prediction by ZEFSAII (Michael W. Deem and Ramdas Pophale) SiO2 
 PCOD8039014
Probable space group: P -1
;
_chemical_formula_sum "Si O2"
_cell_formula_units_Z 16
_cell_length_a 9.104265
_cell_length_b 9.312413
_cell_length_c 27.102538
_cell_angle_alpha 54.026624
_cell_angle_beta 140.292271
_cell_angle_gamma 95.417762
_cell_volume 858.314325
_symmetry_space_group_name_H-M "P -1"
_symmetry_group_IT_number 2
_symmetry_cell_setting 'triclinic'
loop_
_space_group_symop_operation_xyz
x,y,z
-x,-y,-z
loop_
_atom_site_type_symbol
_atom_site_label
_atom_site_fract_x
_atom_site_fract_y
_atom_site_fract_z
Si Si1 0.245124 0.762629 0.854479
Si Si2 0.742812 0.586113 0.804167
Si Si3 0.184275 0.090843 0.958728
Si Si4 0.535016 0.417434 0.859694
Si Si5 0.150442 0.368226 0.358823
Si Si6 0.864348 0.888224 0.168615
Si Si7 0.365823 0.109069 0.367597
Si Si8 0.800104 0.503373 0.988576
O O1 0.457353 0.761184 0.868765
O O2 0.974677 0.797536 0.749378
O O3 0.070616 0.980426 0.805395
O O4 0.500000 0.500000 0.000000
O O5 0.539179 0.589022 0.791413
O O6 0.530454 0.809379 0.665495
O O7 0.940487 0.325585 0.881880
O O8 0.964106 0.622701 0.878111
O O9 0.032876 0.131774 0.857445
O O10 0.281028 0.854194 0.058489
O O11 0.489276 0.052293 0.039028
O O12 0.705777 0.365817 0.967222
O O13 0.168461 0.574109 0.741516
O O14 0.348550 0.238743 0.385936
O O15 0.072109 0.614871 0.298795
O O16 0.359428 0.185258 0.495765
O O17 0.000000 0.500000 0.000000
#
# Coordination Sequence:
#
# PCOD8039014 Si02
#       8
#     2   2   2   2   2   2   2   2
#     4  12  20  34  59  85 105 142 176 224 281 321
#     4  11  20  35  54  84 108 142 176 227 273 323
#     4  10  18  32  52  85 110 135 171 226 277 323
#     4  10  21  34  56  79 112 142 177 220 278 324
#     4  10  22  39  53  79 106 151 185 225 262 316
#     4  10  20  32  56  80 113 136 179 227 268 321
#     4  11  22  36  58  76 110 144 192 221 261 323
#     4  10  20  33  51  83 113 135 171 219 275 322
#
# _framework density 18.641189000000001
#
# number of rings (size 3 to 8) (size 9 to 14) (size 15 to 20)
#    0.000    1.500    5.000    1.125    1.750    1.000 
#    0.000    0.000    0.000    0.000    0.000    2.625 
#    0.000    0.000    0.000    0.000    0.000    0.000 
#
# Total GULP energy -198218.755198 kJ/mol
# GULP energy per Si atom -12388.672200 kJ/mol
# Density = 1.859876 g / cm^3
# Si number density = 18.641189 Si / 1000 Ang^3
#
#
#
# Elastic Constant Matrix: (Units=GPa)
#
#
# Indices 1 2 3 4 5 6 
#
# 1 63.4603 14.2498 20.0582 -3.2188 -14.3383 0.1148
# 2 14.2498 81.2863 33.6632 -4.1260 -8.1302 -6.4726
# 3 20.0582 33.6632 89.3549 -11.7069 -18.9243 5.6577
# 4 -3.2188 -4.1260 -11.7069 22.1417 0.4974 0.6189
# 5 -14.3383 -8.1302 -18.9243 0.4974 25.0263 -1.5621
# 6 0.1148 -6.4726 5.6577 0.6189 -1.5621 27.4824
#
#
#
# Elastic Compliance Matrix: (Units=1/GPa)
#
#
# Indices 1 2 3 4 5 6 
#
# 1 0.018718 -0.001660 -0.001497 0.001408 0.009045 0.000321
# 2 -0.001660 0.015345 -0.005798 -0.000581 -0.000037 0.004826
# 3 -0.001497 -0.005798 0.017054 0.007626 0.009723 -0.004489
# 4 0.001408 -0.000581 0.007626 0.049245 0.005248 -0.002523
# 5 0.009045 -0.000037 0.009723 0.005248 0.052427 0.000813
# 6 0.000321 0.004826 -0.004489 -0.002523 0.000813 0.038549
#
#
# Mechanical properties :
#
#
# Convention : Reuss Voigt Hill
#
# Bulk Modulus (GPa) = 30.11271 41.11600 35.61435
# Shear Modulus (GPa) = 22.69445 26.00542 24.34993
#
# Velocity S-wave (km/s) = 3.49296 3.73909 3.61812
# Velocity P-wave (km/s) = 5.69707 6.38322 6.04988
#
# Compressibility (1/GPa) = 0.03320857
#
# Stress axis : x y z
#
# Youngs Moduli (GPa) = 53.42394 65.16619 58.63605
#
# Poissons Ratio (x) = 0.10816 0.08776
# Poissons Ratio (y) = 0.08867 0.33999
# Poissons Ratio (z) = 0.07996 0.37785
#
# Static dielectric constant tensor:
#      x y z
#    x 3.610480 -0.154240 -0.147240 
#    y -0.154240 3.558290 0.090430 
#    z -0.147240 0.090430 3.311000 
# 
# 
# High freq. dielectric constant tensor:
#      x y z
#    x 1.725010 -0.006880 -0.010980 
#    y -0.006880 1.726790 0.003920 
#    z -0.010980 0.003920 1.693260 
# 
# From -- ./inp_files/190088.got.cif
#   From: 2010.06.25/outbox.cif.g09.slc.cpg/sg2_96_cif.got.tgz:190088.got - 2010.06.27 13:26:56.
