data_PCOD8039301
_publ_section_title
;
Structure prediction by ZEFSAII (Michael W. Deem and Ramdas Pophale) SiO2 
 PCOD8039301
Probable space group: P -1
;
_chemical_formula_sum "Si O2"
_cell_formula_units_Z 16
_cell_length_a 17.304213
_cell_length_b 11.274365
_cell_length_c 9.349990
_cell_angle_alpha 47.484309
_cell_angle_beta 50.807314
_cell_angle_gamma 40.142239
_cell_volume 840.900601
_symmetry_space_group_name_H-M "P -1"
_symmetry_group_IT_number 2
_symmetry_cell_setting 'triclinic'
loop_
_space_group_symop_operation_xyz
x,y,z
-x,-y,-z
loop_
_atom_site_type_symbol
_atom_site_label
_atom_site_fract_x
_atom_site_fract_y
_atom_site_fract_z
Si Si1 0.793114 0.610404 0.691033
Si Si2 0.199463 0.046368 0.550705
Si Si3 0.855969 0.503582 0.398745
Si Si4 0.078962 0.078362 0.390147
Si Si5 0.641056 0.545627 0.749594
Si Si6 0.175603 0.129072 0.959199
Si Si7 0.997659 0.190841 0.882957
Si Si8 0.638670 0.210394 0.174599
O O1 0.763334 0.803648 0.654144
O O2 0.871250 0.568089 0.486655
O O3 0.660262 0.662724 0.754960
O O4 0.864039 0.405454 0.867274
O O5 0.170030 0.964486 0.512850
O O6 0.075297 0.195687 0.661953
O O7 0.302395 0.857799 0.680203
O O8 0.743864 0.478189 0.558589
O O9 0.983099 0.306863 0.359275
O O10 0.829783 0.672846 0.180424
O O11 0.172429 0.050350 0.181850
O O12 0.000000 0.000000 0.500000
O O13 0.506333 0.684945 0.724779
O O14 0.667459 0.352408 0.952747
O O15 0.058234 0.163097 0.988329
O O16 0.301988 0.975890 0.849953
O O17 0.000000 0.000000 0.000000
#
# Coordination Sequence:
#
# PCOD8039301 Si02
#       8
#     2   2   2   2   2   2   2   2
#     4  10  18  33  56  82 109 138 180 239 270 318
#     4  11  20  34  55  79 112 143 187 228 277 325
#     4  10  20  37  55  83 111 147 180 231 275 330
#     4  12  24  37  53  81 119 153 179 223 280 344
#     4   9  19  34  59  87 110 137 187 242 275 319
#     4  11  22  34  54  81 113 148 183 223 281 334
#     4  11  18  30  53  79 106 141 185 227 270 324
#     4  10  19  36  60  87 107 143 188 236 275 325
#
# _framework density 19.02722
#
# number of rings (size 3 to 8) (size 9 to 14) (size 15 to 20)
#    0.750    0.750    3.750    4.500    0.000    2.000 
#    0.000    0.000    0.000   11.250    0.000    0.000 
#    0.000    0.000    0.000    0.000    0.000    0.000 
#
# Total GULP energy -198231.757953 kJ/mol
# GULP energy per Si atom -12389.484872 kJ/mol
# Density = 1.898391 g / cm^3
# Si number density = 19.027220 Si / 1000 Ang^3
#
#
#
# Elastic Constant Matrix: (Units=GPa)
#
#
# Indices 1 2 3 4 5 6 
#
# 1 100.2718 23.9408 43.7073 -14.7275 10.3657 -2.9574
# 2 23.9408 44.5743 31.4728 -15.1128 10.6547 -6.5761
# 3 43.7073 31.4728 84.9899 -15.1252 7.4209 -7.8956
# 4 -14.7275 -15.1128 -15.1252 32.7732 4.1743 -0.8155
# 5 10.3657 10.6547 7.4209 4.1743 33.6814 -4.2771
# 6 -2.9574 -6.5761 -7.8956 -0.8155 -4.2771 28.5044
#
#
#
# Elastic Compliance Matrix: (Units=1/GPa)
#
#
# Indices 1 2 3 4 5 6 
#
# 1 0.013553 -0.001720 -0.005622 0.003047 -0.002879 -0.000893
# 2 -0.001720 0.037833 -0.009301 0.013836 -0.010495 0.004794
# 3 -0.005622 -0.009301 0.018591 0.001741 0.000688 0.002573
# 4 0.003047 0.013836 0.001741 0.040462 -0.010255 0.003609
# 5 -0.002879 -0.010495 0.000688 -0.010255 0.035330 0.002478
# 6 -0.000893 0.004794 0.002573 0.003609 0.002478 0.037284
#
#
# Mechanical properties :
#
#
# Convention : Reuss Voigt Hill
#
# Bulk Modulus (GPa) = 27.25570 47.56420 37.40995
# Shear Modulus (GPa) = 21.87526 27.70616 24.79071
#
# Velocity S-wave (km/s) = 3.39438 3.82007 3.61350
# Velocity P-wave (km/s) = 5.45143 6.67154 6.09211
#
# Compressibility (1/GPa) = 0.03668958
#
# Stress axis : x y z
#
# Youngs Moduli (GPa) = 73.78409 26.43207 53.79078
#
# Poissons Ratio (x) = 0.04546 0.30242
# Poissons Ratio (y) = 0.12691 0.50032
# Poissons Ratio (z) = 0.41483 0.24585
#
# Static dielectric constant tensor:
#      x y z
#    x 3.643920 0.044720 -0.066220 
#    y 0.044720 3.197880 -0.170230 
#    z -0.066220 -0.170230 3.469400 
# 
# 
# High freq. dielectric constant tensor:
#      x y z
#    x 1.736340 0.001750 -0.011700 
#    y 0.001750 1.707730 -0.027360 
#    z -0.011700 -0.027360 1.735520 
# 
# From -- ./inp_files/330683.got.cif
#   From: 2010.06.25/outbox.cif.g09.slc.cpg/sg2_166_cif.got.tgz:330683.got - 2010.06.27 13:26:56.
