data_PCOD8039479
_publ_section_title
;
Structure prediction by ZEFSAII (Michael W. Deem and Ramdas Pophale) SiO2 
 PCOD8039479
Probable space group: P -1
;
_chemical_formula_sum "Si O2"
_cell_formula_units_Z 16
_cell_length_a 15.666488
_cell_length_b 15.040056
_cell_length_c 8.327092
_cell_angle_alpha 92.941457
_cell_angle_beta 65.528146
_cell_angle_gamma 38.526336
_cell_volume 833.542924
_symmetry_space_group_name_H-M "P -1"
_symmetry_group_IT_number 2
_symmetry_cell_setting 'triclinic'
loop_
_space_group_symop_operation_xyz
x,y,z
-x,-y,-z
loop_
_atom_site_type_symbol
_atom_site_label
_atom_site_fract_x
_atom_site_fract_y
_atom_site_fract_z
Si Si1 0.242761 0.541610 0.374080
Si Si2 0.844898 0.836813 0.839606
Si Si3 0.775923 0.706358 0.740225
Si Si4 0.376688 0.867735 0.541390
Si Si5 0.678477 0.617398 0.012921
Si Si6 0.552901 0.794920 0.687749
Si Si7 0.410813 0.479836 0.530598
Si Si8 0.036596 0.711883 0.005092
O O1 0.278342 0.420582 0.434046
O O2 0.354861 0.524552 0.386791
O O3 0.999113 0.755783 0.589293
O O4 0.320287 0.465507 0.124904
O O5 0.754636 0.820665 0.842594
O O6 0.950113 0.732647 0.920567
O O7 0.649608 0.062418 0.041150
O O8 0.642753 0.812214 0.689036
O O9 0.000000 0.500000 0.500000
O O10 0.700034 0.694731 0.921309
O O11 0.464226 0.795014 0.286562
O O12 0.494803 0.845897 0.549332
O O13 0.421973 0.735028 0.579016
O O14 0.138379 0.086490 0.746691
O O15 0.865549 0.444420 0.970298
O O16 0.500000 0.500000 0.500000
O O17 0.210291 0.634686 0.807342
#
# Coordination Sequence:
#
# PCOD8039479 Si02
#       8
#     2   2   2   2   2   2   2   2
#     4   9  18  34  52  77 102 131 171 206 256 298
#     4  10  18  34  51  70  99 137 177 216 249 293
#     4  11  20  33  49  75 101 134 181 223 247 283
#     4   9  19  37  52  74 107 135 168 203 256 312
#     4  10  20  33  51  72 104 140 167 207 256 300
#     4   9  18  33  51  68  98 137 171 214 251 294
#     4   9  18  35  62  82  98 127 168 211 249 303
#     4   9  20  36  53  74 105 139 165 204 260 307
#
# _framework density 19.195171999999999
#
# number of rings (size 3 to 8) (size 9 to 14) (size 15 to 20)
#    0.000    2.500    2.500    1.125    0.000    3.000 
#    2.250    3.750    0.000    1.500    0.000    0.000 
#    0.000    0.000    0.000    0.000    0.000    0.000 
#
# Total GULP energy -198243.698703 kJ/mol
# GULP energy per Si atom -12390.231169 kJ/mol
# Density = 1.915148 g / cm^3
# Si number density = 19.195172 Si / 1000 Ang^3
#
#
#
# Elastic Constant Matrix: (Units=GPa)
#
#
# Indices 1 2 3 4 5 6 
#
# 1 128.7102 12.4517 24.2574 -11.3951 8.9800 -7.3855
# 2 12.4517 26.2995 9.1870 0.9176 2.5659 -1.2316
# 3 24.2574 9.1870 124.8563 7.3629 14.6423 -6.4847
# 4 -11.3951 0.9176 7.3629 32.0546 -6.7613 3.5472
# 5 8.9800 2.5659 14.6423 -6.7613 20.9136 -2.1148
# 6 -7.3855 -1.2316 -6.4847 3.5472 -2.1148 19.7647
#
#
#
# Elastic Compliance Matrix: (Units=1/GPa)
#
#
# Indices 1 2 3 4 5 6 
#
# 1 0.008850 -0.003604 -0.001399 0.003107 -0.001178 0.001940
# 2 -0.003604 0.040769 -0.001735 -0.002783 -0.003058 0.000797
# 3 -0.001399 -0.001735 0.009638 -0.004446 -0.007112 0.002568
# 4 0.003107 -0.002783 -0.004446 0.036868 0.013468 -0.005647
# 5 -0.001178 -0.003058 -0.007112 0.013468 0.058115 0.000837
# 6 0.001940 0.000797 0.002568 -0.005647 0.000837 0.053315
#
#
# Mechanical properties :
#
#
# Convention : Reuss Voigt Hill
#
# Bulk Modulus (GPa) = 21.84312 41.29533 31.56923
# Shear Modulus (GPa) = 21.16017 30.14459 25.65238
#
# Velocity S-wave (km/s) = 3.32380 3.96716 3.65964
# Velocity P-wave (km/s) = 5.11218 6.52262 5.85999
#
# Compressibility (1/GPa) = 0.04578100
#
# Stress axis : x y z
#
# Youngs Moduli (GPa) = 112.99076 24.52841 103.75316
#
# Poissons Ratio (x) = 0.08841 0.14511
# Poissons Ratio (y) = 0.40725 0.18005
# Poissons Ratio (z) = 0.15803 0.04257
#
# Static dielectric constant tensor:
#      x y z
#    x 6.638520 1.127040 1.036060 
#    y 1.127040 4.102730 0.566130 
#    z 1.036060 0.566130 4.008830 
# 
# 
# High freq. dielectric constant tensor:
#      x y z
#    x 1.724820 -0.037210 0.019490 
#    y -0.037210 1.715950 0.022170 
#    z 0.019490 0.022170 1.766420 
# 
# From -- ./inp_files/264781.got.cif
#   From: 2010.06.25/outbox.cif.g09.slc.cpg/sg2_133_cif.got.tgz:264781.got - 2010.06.27 13:26:56.
