data_PCOD8039133
_publ_section_title
;
Structure prediction by ZEFSAII (Michael W. Deem and Ramdas Pophale) SiO2 
 PCOD8039133
Probable space group: P -1
;
_chemical_formula_sum "Si O2"
_cell_formula_units_Z 16
_cell_length_a 5.101828
_cell_length_b 8.700953
_cell_length_c 27.638962
_cell_angle_alpha 41.599130
_cell_angle_beta 77.427236
_cell_angle_gamma 90.572061
_cell_volume 766.255593
_symmetry_space_group_name_H-M "P -1"
_symmetry_group_IT_number 2
_symmetry_cell_setting 'triclinic'
loop_
_space_group_symop_operation_xyz
x,y,z
-x,-y,-z
loop_
_atom_site_type_symbol
_atom_site_label
_atom_site_fract_x
_atom_site_fract_y
_atom_site_fract_z
Si Si1 0.609019 0.743156 0.882092
Si Si2 0.736667 0.754661 0.979374
Si Si3 0.344215 0.011799 0.898240
Si Si4 0.955714 0.172757 0.329833
Si Si5 0.473655 0.374687 0.658863
Si Si6 0.250310 0.101996 0.502453
Si Si7 0.906157 0.072997 0.712517
Si Si8 0.459853 0.517685 0.735033
O O1 0.768266 0.686506 0.937293
O O2 0.418996 0.920842 0.863637
O O3 0.838717 0.864993 0.804733
O O4 0.415164 0.490655 0.928527
O O5 0.556742 0.951997 0.943289
O O6 0.038043 0.870800 0.962036
O O7 0.364784 0.293067 0.828119
O O8 0.723590 0.297975 0.290197
O O9 0.213864 0.367265 0.297150
O O10 0.829026 0.974130 0.421682
O O11 0.058130 0.041468 0.312842
O O12 0.655585 0.610700 0.569213
O O13 0.639325 0.175196 0.695412
O O14 0.407240 0.433391 0.702099
O O15 0.178540 0.281285 0.666050
O O16 0.500000 0.000000 0.500000
O O17 0.000000 0.000000 0.500000
#
# Coordination Sequence:
#
# PCOD8039133 Si02
#       8
#     2   2   2   2   2   2   2   2
#     4   9  20  32  58  86 123 155 196 259 303 350
#     4   9  18  31  55  91 117 151 204 258 295 342
#     4  10  18  32  57  89 110 152 209 257 277 352
#     4  12  26  43  61  94 129 166 195 258 326 367
#     4  12  23  41  68  92 117 168 212 257 291 371
#     4  12  23  42  68  91 122 161 211 255 298 368
#     4  12  26  40  62  97 132 155 205 260 320 359
#     4  12  22  41  67  89 124 166 216 247 301 371
#
# _framework density 20.880761
#
# number of rings (size 3 to 8) (size 9 to 14) (size 15 to 20)
#    0.750    0.250    3.750    4.125    0.000    1.000 
#    0.000    0.000    0.000    4.500    0.000    0.000 
#    0.000    0.000    0.000    0.000    0.000    0.000 
#
# Total GULP energy -198410.480125 kJ/mol
# GULP energy per Si atom -12400.655008 kJ/mol
# Density = 2.083324 g / cm^3
# Si number density = 20.880761 Si / 1000 Ang^3
#
#
#
# Elastic Constant Matrix: (Units=GPa)
#
#
# Indices 1 2 3 4 5 6 
#
# 1 99.8110 10.4650 13.5072 1.6179 -13.1696 -5.3606
# 2 10.4650 63.1812 15.6642 4.8551 3.6568 -8.4509
# 3 13.5072 15.6642 117.7484 -13.5180 -10.0518 -0.1467
# 4 1.6179 4.8551 -13.5180 21.6987 -0.2479 -1.4339
# 5 -13.1696 3.6568 -10.0518 -0.2479 27.3828 -4.6220
# 6 -5.3606 -8.4509 -0.1467 -1.4339 -4.6220 21.8474
#
#
#
# Elastic Compliance Matrix: (Units=1/GPa)
#
#
# Indices 1 2 3 4 5 6 
#
# 1 0.011243 -0.001550 -0.000641 -0.000600 0.005943 0.003373
# 2 -0.001550 0.018250 -0.003184 -0.005624 -0.003465 0.005555
# 3 -0.000641 -0.003184 0.010140 0.007120 0.003899 -0.000029
# 4 -0.000600 -0.005624 0.007120 0.051998 0.003877 0.001958
# 5 0.005943 -0.003465 0.003899 0.003877 0.042906 0.009476
# 6 0.003373 0.005555 -0.000029 0.001958 0.009476 0.050881
#
#
# Mechanical properties :
#
#
# Convention : Reuss Voigt Hill
#
# Bulk Modulus (GPa) = 34.62379 40.00147 37.31263
# Shear Modulus (GPa) = 24.29584 30.25940 27.27762
#
# Velocity S-wave (km/s) = 3.41479 3.81090 3.61827
# Velocity P-wave (km/s) = 5.67145 6.20988 5.94677
#
# Compressibility (1/GPa) = 0.02888187
#
# Stress axis : x y z
#
# Youngs Moduli (GPa) = 88.94269 54.79589 98.61899
#
# Poissons Ratio (x) = 0.08494 0.06320
# Poissons Ratio (y) = 0.13787 0.31405
# Poissons Ratio (z) = 0.05700 0.17450
#
# Static dielectric constant tensor:
#      x y z
#    x 3.794720 -0.053500 0.021150 
#    y -0.053500 3.386930 -0.023090 
#    z 0.021150 -0.023090 3.233110 
# 
# 
# High freq. dielectric constant tensor:
#      x y z
#    x 1.827670 -0.006720 -0.005650 
#    y -0.006720 1.782750 -0.016860 
#    z -0.005650 -0.016860 1.829530 
# 
# From -- ./inp_files/621736.got.cif
#   From: 2010.06.25/outbox.cif.g09.slc.cpg/sg2_311_cif.got.tgz:621736.got - 2010.06.27 13:26:56.
