data_PCOD8039126
_publ_section_title
;
Structure prediction by ZEFSAII (Michael W. Deem and Ramdas Pophale) SiO2 
 PCOD8039126
Probable space group: P -1
;
_chemical_formula_sum "Si O2"
_cell_formula_units_Z 16
_cell_length_a 18.325328
_cell_length_b 8.744945
_cell_length_c 9.537006
_cell_angle_alpha 78.248200
_cell_angle_beta 136.285101
_cell_angle_gamma 77.636654
_cell_volume 874.251408
_symmetry_space_group_name_H-M "P -1"
_symmetry_group_IT_number 2
_symmetry_cell_setting 'triclinic'
loop_
_space_group_symop_operation_xyz
x,y,z
-x,-y,-z
loop_
_atom_site_type_symbol
_atom_site_label
_atom_site_fract_x
_atom_site_fract_y
_atom_site_fract_z
Si Si1 0.186910 0.767708 0.367866
Si Si2 0.184620 0.156094 0.910275
Si Si3 0.842788 0.583491 0.955636
Si Si4 0.989963 0.770329 0.589646
Si Si5 0.348010 0.507443 0.407110
Si Si6 0.923616 0.843170 0.965359
Si Si7 0.827180 0.187802 0.344684
Si Si8 0.635155 0.242633 0.846594
O O1 0.306324 0.613500 0.477217
O O2 0.210692 0.717367 0.573801
O O3 0.067090 0.767183 0.144032
O O4 0.167236 0.968019 0.279168
O O5 0.109067 0.240045 0.645489
O O6 0.099419 0.118091 0.905436
O O7 0.211211 0.302490 0.993040
O O8 0.314112 0.963332 0.100262
O O9 0.733999 0.578654 0.726900
O O10 0.889742 0.691256 0.903340
O O11 0.962786 0.380769 0.193572
O O12 0.110765 0.724796 0.676609
O O13 0.926217 0.968532 0.538645
O O14 0.489023 0.338887 0.651403
O O15 0.332788 0.647515 0.239485
O O16 0.700920 0.231689 0.086264
#
# Coordination Sequence:
#
# PCOD8039126 Si02
#       8
#     2   2   2   2   2   2   2   2
#     4  11  21  37  55  83 117 151 173 228 281 341
#     4   9  18  36  53  81 112 138 179 229 275 326
#     4  10  20  34  56  88 110 143 180 237 276 325
#     4  10  18  32  57  87 112 141 182 228 281 332
#     4  11  22  35  59  80 112 146 195 228 263 327
#     4   9  21  33  55  82 116 140 176 221 292 330
#     4  10  20  33  59  81 113 147 183 225 279 327
#     4  10  21  39  56  81 105 154 196 224 261 329
#
# _framework density 18.301372000000001
#
# number of rings (size 3 to 8) (size 9 to 14) (size 15 to 20)
#    0.750    1.250    3.750    0.375    3.500    1.500 
#    0.000    0.000    0.000    0.750    0.000    0.000 
#    0.000    0.000    0.000    0.000    0.000    0.000 
#
# Total GULP energy -198375.084572 kJ/mol
# GULP energy per Si atom -12398.442786 kJ/mol
# Density = 1.825972 g / cm^3
# Si number density = 18.301372 Si / 1000 Ang^3
#
#
#
# Elastic Constant Matrix: (Units=GPa)
#
#
# Indices 1 2 3 4 5 6 
#
# 1 72.3235 29.8433 30.4757 -6.4301 4.0481 0.3548
# 2 29.8433 74.9564 33.1795 -5.9208 6.3597 7.9268
# 3 30.4757 33.1795 84.0058 -10.6405 12.0701 5.1937
# 4 -6.4301 -5.9208 -10.6405 25.8851 -6.8243 -1.2722
# 5 4.0481 6.3597 12.0701 -6.8243 16.3000 -2.0633
# 6 0.3548 7.9268 5.1937 -1.2722 -2.0633 32.0313
#
#
#
# Elastic Compliance Matrix: (Units=1/GPa)
#
#
# Indices 1 2 3 4 5 6 
#
# 1 0.018038 -0.005391 -0.004595 0.002026 0.002140 0.002098
# 2 -0.005391 0.018162 -0.004568 -0.000007 -0.002859 -0.003878
# 3 -0.004595 -0.004568 0.017098 0.002364 -0.009010 -0.002077
# 4 0.002026 -0.000007 0.002364 0.044642 0.016749 0.002448
# 5 0.002140 -0.002859 -0.009010 0.016749 0.076598 0.007744
# 6 0.002098 -0.003878 -0.002077 0.002448 0.007744 0.033089
#
#
# Mechanical properties :
#
#
# Convention : Reuss Voigt Hill
#
# Bulk Modulus (GPa) = 41.34075 46.47584 43.90830
# Shear Modulus (GPa) = 20.42517 24.02910 22.22714
#
# Velocity S-wave (km/s) = 3.34435 3.62742 3.48876
# Velocity P-wave (km/s) = 6.12787 6.55699 6.34606
#
# Compressibility (1/GPa) = 0.02418921
#
# Stress axis : x y z
#
# Youngs Moduli (GPa) = 55.43995 55.06137 58.48768
#
# Poissons Ratio (x) = 0.29683 0.26875
# Poissons Ratio (y) = 0.29887 0.26716
# Poissons Ratio (z) = 0.25475 0.25151
#
# Static dielectric constant tensor:
#      x y z
#    x 3.162070 -0.030250 -0.047520 
#    y -0.030250 3.300880 -0.057290 
#    z -0.047520 -0.057290 3.165990 
# 
# 
# High freq. dielectric constant tensor:
#      x y z
#    x 1.688290 -0.003960 -0.008080 
#    y -0.003960 1.711540 -0.001700 
#    z -0.008080 -0.001700 1.697080 
# 
# From -- ./inp_files/276958.got.cif
#   From: 2010.06.25/outbox.cif.g09.slc.cpg/sg2_139_cif.got.tgz:276958.got - 2010.06.27 13:26:56.
