data_PCOD8039528
_publ_section_title
;
Structure prediction by ZEFSAII (Michael W. Deem and Ramdas Pophale) SiO2 
 PCOD8039528
Probable space group: P -1
;
_chemical_formula_sum "Si O2"
_cell_formula_units_Z 16
_cell_length_a 11.204433
_cell_length_b 8.497761
_cell_length_c 16.326980
_cell_angle_alpha 125.489786
_cell_angle_beta 33.711168
_cell_angle_gamma 122.786395
_cell_volume 696.562987
_symmetry_space_group_name_H-M "P -1"
_symmetry_group_IT_number 2
_symmetry_cell_setting 'triclinic'
loop_
_space_group_symop_operation_xyz
x,y,z
-x,-y,-z
loop_
_atom_site_type_symbol
_atom_site_label
_atom_site_fract_x
_atom_site_fract_y
_atom_site_fract_z
Si Si1 0.398878 0.211994 0.862703
Si Si2 0.242215 0.323066 0.369626
Si Si3 0.353569 0.078742 0.676374
Si Si4 0.303326 0.508540 0.789536
Si Si5 0.111629 0.536315 0.075564
Si Si6 0.256479 0.953221 0.156288
Si Si7 0.813033 0.475607 0.709343
Si Si8 0.098779 0.122654 0.140844
O O1 0.468318 0.105610 0.708299
O O2 0.617520 0.323794 0.809972
O O3 0.218685 0.353422 0.989959
O O4 0.282066 0.065934 0.954724
O O5 0.447118 0.392721 0.333146
O O6 0.269058 0.443618 0.305573
O O7 0.024370 0.367586 0.550491
O O8 0.226031 0.090539 0.293348
O O9 0.290245 0.279637 0.741179
O O10 0.500000 0.000000 0.500000
O O11 0.141906 0.927927 0.771318
O O12 0.149497 0.530533 0.804592
O O13 0.204559 0.607604 0.954601
O O14 0.179238 0.725314 0.152951
O O15 0.100432 0.009165 0.190458
O O16 0.500000 0.000000 0.000000
O O17 0.858523 0.645321 0.800617
#
# Coordination Sequence:
#
# PCOD8039528 Si02
#       8
#     2   2   2   2   2   2   2   2
#     4  11  23  40  60  90 124 157 194 254 314 350
#     4  10  19  33  57  87 115 152 201 248 289 348
#     4  11  22  37  61  91 119 156 207 250 292 361
#     4  10  18  34  55  84 114 150 200 243 292 338
#     4  10  19  34  56  85 116 155 197 248 285 362
#     4  11  20  34  59  94 115 153 209 246 285 360
#     4  10  20  35  57  84 120 155 194 245 303 358
#     4  11  23  38  60  92 121 157 199 252 304 350
#
# _framework density 22.969925
#
# number of rings (size 3 to 8) (size 9 to 14) (size 15 to 20)
#    0.000    1.500    5.000    2.250    3.500    0.000 
#    0.000    0.000    0.000    7.500    0.000    0.000 
#    0.000    0.000    0.000    0.000    0.000    0.000 
#
# Total GULP energy -198370.158234 kJ/mol
# GULP energy per Si atom -12398.134890 kJ/mol
# Density = 2.291764 g / cm^3
# Si number density = 22.969925 Si / 1000 Ang^3
#
#
#
# Elastic Constant Matrix: (Units=GPa)
#
#
# Indices 1 2 3 4 5 6 
#
# 1 57.4018 30.2327 25.9444 -1.4664 -13.0301 31.3007
# 2 30.2327 77.9571 33.9350 -5.5005 -1.1092 39.3576
# 3 25.9444 33.9350 114.2423 2.7317 -2.0681 20.6701
# 4 -1.4664 -5.5005 2.7317 34.4025 8.6831 -0.5189
# 5 -13.0301 -1.1092 -2.0681 8.6831 39.0361 -7.1266
# 6 31.3007 39.3576 20.6701 -0.5189 -7.1266 32.1730
#
#
#
# Elastic Compliance Matrix: (Units=1/GPa)
#
#
# Indices 1 2 3 4 5 6 
#
# 1 0.042459 0.011784 -0.003634 0.002112 0.004277 -0.052408
# 2 0.011784 0.041473 -0.004292 0.008620 -0.008191 -0.061117
# 3 -0.003634 -0.004292 0.010533 -0.001635 -0.000052 0.001980
# 4 0.002112 0.008620 -0.001635 0.032685 -0.008774 -0.012966
# 5 0.004277 -0.008191 -0.000052 -0.008774 0.031067 0.012632
# 6 -0.052408 -0.061117 0.001980 -0.012966 0.012632 0.158151
#
#
# Mechanical properties :
#
#
# Convention : Reuss Voigt Hill
#
# Bulk Modulus (GPa) = 9.78638 47.75837 28.77238
# Shear Modulus (GPa) = 14.58949 31.75493 23.17221
#
# Velocity S-wave (km/s) = 2.52296 3.72217 3.17962
# Velocity P-wave (km/s) = 3.57168 6.26974 5.10228
#
# Compressibility (1/GPa) = 0.10218282
#
# Stress axis : x y z
#
# Youngs Moduli (GPa) = 23.55204 24.11188 94.93751
#
# Poissons Ratio (x) = -0.28414 0.34498
# Poissons Ratio (y) = -0.27754 0.40746
# Poissons Ratio (z) = 0.08558 0.10349
#
# Static dielectric constant tensor:
#      x y z
#    x 4.167880 0.356070 -0.010360 
#    y 0.356070 4.035200 0.213370 
#    z -0.010360 0.213370 4.132260 
# 
# 
# High freq. dielectric constant tensor:
#      x y z
#    x 1.895700 0.031710 -0.014940 
#    y 0.031710 1.901790 0.008160 
#    z -0.014940 0.008160 1.891890 
# 
# From -- ./inp_files/295424.got.cif
#   From: 2010.06.25/outbox.cif.g09.slc.cpg/sg2_148_cif.got.tgz:295424.got - 2010.06.27 13:26:56.
