data_PCOD8039325
_publ_section_title
;
Structure prediction by ZEFSAII (Michael W. Deem and Ramdas Pophale) SiO2 
 PCOD8039325
Probable space group: P -1
;
_chemical_formula_sum "Si O2"
_cell_formula_units_Z 14
_cell_length_a 24.358085
_cell_length_b 30.061699
_cell_length_c 12.662813
_cell_angle_alpha 152.041923
_cell_angle_beta 27.584894
_cell_angle_gamma 169.985456
_cell_volume 740.319715
_symmetry_space_group_name_H-M "P -1"
_symmetry_group_IT_number 2
_symmetry_cell_setting 'triclinic'
loop_
_space_group_symop_operation_xyz
x,y,z
-x,-y,-z
loop_
_atom_site_type_symbol
_atom_site_label
_atom_site_fract_x
_atom_site_fract_y
_atom_site_fract_z
Si Si1 0.893174 0.745664 0.483404
Si Si2 0.211667 0.785985 0.282433
Si Si3 0.748656 0.162031 0.004970
Si Si4 0.713878 0.829389 0.696960
Si Si5 0.823538 0.670948 0.693152
Si Si6 0.224317 0.607829 0.994477
Si Si7 0.886356 0.885706 0.193176
O O1 0.541953 0.445225 0.419867
O O2 0.919711 0.755050 0.583899
O O3 0.159688 0.880509 0.251067
O O4 0.960323 0.901925 0.661500
O O5 0.083437 0.791415 0.554634
O O6 0.965618 0.574179 0.164419
O O7 0.227039 0.723172 0.221211
O O8 0.583178 0.064128 0.192895
O O9 0.058428 0.458529 0.076400
O O10 0.500000 0.000000 0.000000
O O11 0.570299 0.813124 0.843589
O O12 0.000000 0.000000 0.500000
O O13 0.864963 0.975776 0.857523
O O14 0.463306 0.361213 0.673423
O O15 0.855780 0.795980 0.955990
#
# Coordination Sequence:
#
# PCOD8039325 Si02
#       7
#     2   2   2   2   2   2   2
#     4  11  21  37  60  86 110 149 192 234 279 330
#     4  10  18  33  57  83 108 145 183 239 276 321
#     4   9  17  29  52  85 109 128 186 239 272 315
#     4  11  20  39  58  83 118 144 191 238 274 336
#     4  11  22  40  56  87 116 149 192 228 279 347
#     4   9  19  31  54  83 108 139 190 232 277 317
#     4  11  25  37  58  83 120 154 182 230 289 335
#
# _framework density 18.910748999999999
#
# number of rings (size 3 to 8) (size 9 to 14) (size 15 to 20)
#    0.000    1.714    5.714    0.857    8.000    0.000 
#    0.000    0.714    0.000    3.429    0.000    0.000 
#    0.000    0.000    0.000    0.000    0.000    0.000 
#
# Total GULP energy -173488.051327 kJ/mol
# GULP energy per Si atom -12392.003666 kJ/mol
# Density = 1.886771 g / cm^3
# Si number density = 18.910749 Si / 1000 Ang^3
#
#
#
# Elastic Constant Matrix: (Units=GPa)
#
#
# Indices 1 2 3 4 5 6 
#
# 1 92.6290 34.7086 36.2205 -4.3481 -24.4323 -2.5630
# 2 34.7086 85.0695 44.5333 -14.1369 -10.9451 6.1556
# 3 36.2205 44.5333 74.3502 -18.1260 -18.9796 -0.7998
# 4 -4.3481 -14.1369 -18.1260 30.1324 4.8075 -4.5447
# 5 -24.4323 -10.9451 -18.9796 4.8075 28.9186 0.3179
# 6 -2.5630 6.1556 -0.7998 -4.5447 0.3179 23.1024
#
#
#
# Elastic Compliance Matrix: (Units=1/GPa)
#
#
# Indices 1 2 3 4 5 6 
#
# 1 0.016413 -0.004139 -0.003581 -0.003084 0.010440 0.002049
# 2 -0.004139 0.018795 -0.009521 0.002157 -0.002932 -0.005332
# 3 -0.003581 -0.009521 0.025467 0.009720 0.008416 0.004818
# 4 -0.003084 0.002157 0.009720 0.041109 -0.002327 0.007539
# 5 0.010440 -0.002932 0.008416 -0.002327 0.048189 0.001110
# 6 0.002049 -0.005332 0.004818 0.007539 0.001110 0.046568
#
#
# Mechanical properties :
#
#
# Convention : Reuss Voigt Hill
#
# Bulk Modulus (GPa) = 38.18038 53.66373 45.92206
# Shear Modulus (GPa) = 20.85458 25.53642 23.19550
#
# Velocity S-wave (km/s) = 3.32443 3.67872 3.50605
# Velocity P-wave (km/s) = 5.91349 6.81784 6.38171
#
# Compressibility (1/GPa) = 0.02619146
#
# Stress axis : x y z
#
# Youngs Moduli (GPa) = 60.92843 53.20479 39.26590
#
# Poissons Ratio (x) = 0.22024 0.14062
# Poissons Ratio (y) = 0.25221 0.37386
# Poissons Ratio (z) = 0.21820 0.50658
#
# Static dielectric constant tensor:
#      x y z
#    x 3.661060 -0.229160 -0.126620 
#    y -0.229160 4.931110 -0.876290 
#    z -0.126620 -0.876290 3.668980 
# 
# 
# High freq. dielectric constant tensor:
#      x y z
#    x 1.730730 -0.010860 -0.019950 
#    y -0.010860 1.734260 -0.027180 
#    z -0.019950 -0.027180 1.714550 
# 
# From -- ./inp_files/270626.got.cif
#   From: 2010.06.25/outbox.cif.g09.slc.cpg/sg2_136_cif.got.tgz:270626.got - 2010.06.27 13:26:56.
