data_PCOD8039033
_publ_section_title
;
Structure prediction by ZEFSAII (Michael W. Deem and Ramdas Pophale) SiO2 
 PCOD8039033
Probable space group: P -1
;
_chemical_formula_sum "Si O2"
_cell_formula_units_Z 14
_cell_length_a 12.704205
_cell_length_b 14.949563
_cell_length_c 11.727442
_cell_angle_alpha 123.691710
_cell_angle_beta 34.070673
_cell_angle_gamma 143.136616
_cell_volume 708.836416
_symmetry_space_group_name_H-M "P -1"
_symmetry_group_IT_number 2
_symmetry_cell_setting 'triclinic'
loop_
_space_group_symop_operation_xyz
x,y,z
-x,-y,-z
loop_
_atom_site_type_symbol
_atom_site_label
_atom_site_fract_x
_atom_site_fract_y
_atom_site_fract_z
Si Si1 0.346573 0.826219 0.973044
Si Si2 0.927949 0.144465 0.918959
Si Si3 0.324975 0.371360 0.913461
Si Si4 0.225386 0.310284 0.365153
Si Si5 0.767548 0.834363 0.534628
Si Si6 0.682424 0.203646 0.774769
Si Si7 0.546699 0.360384 0.916819
O O1 0.509177 0.806045 0.738985
O O2 0.097631 0.758358 0.066759
O O3 0.254448 0.730906 0.105602
O O4 0.500000 0.000000 0.000000
O O5 0.137924 0.154628 0.670243
O O6 0.053657 0.224026 0.984970
O O7 0.625455 0.969882 0.088161
O O8 0.262674 0.453777 0.102346
O O9 0.578867 0.502471 0.691835
O O10 0.406121 0.309012 0.882431
O O11 0.273261 0.286954 0.433877
O O12 0.909114 0.207670 0.547044
O O13 0.313562 0.258334 0.154388
O O14 0.000000 0.000000 0.500000
O O15 0.721570 0.323566 0.742479
#
# Coordination Sequence:
#
# PCOD8039033 Si02
#       7
#     2   2   2   2   2   2   2
#     4  10  18  32  53  85 117 147 179 226 286 343
#     4  11  22  36  57  92 119 142 195 240 278 338
#     4   9  22  43  57  80 120 154 188 245 280 338
#     4  10  20  37  60  83 111 155 195 223 294 346
#     4  12  18  34  59  84 121 153 184 228 293 345
#     4  11  19  35  63  85 110 153 195 233 281 346
#     4   9  20  43  61  75 117 158 195 226 297 336
#
# _framework density 19.750679000000002
#
# number of rings (size 3 to 8) (size 9 to 14) (size 15 to 20)
#    0.857    0.857    5.714    0.857    0.000    1.714 
#    2.571    2.143    0.000    0.000    0.000    0.000 
#    0.000    0.000    0.000    0.000    0.000    0.000 
#
# Total GULP energy -173448.445341 kJ/mol
# GULP energy per Si atom -12389.174667 kJ/mol
# Density = 1.970573 g / cm^3
# Si number density = 19.750679 Si / 1000 Ang^3
#
#
#
# Elastic Constant Matrix: (Units=GPa)
#
#
# Indices 1 2 3 4 5 6 
#
# 1 114.3662 34.7652 -2.2444 16.3181 -13.1830 -0.3856
# 2 34.7652 43.0173 8.7245 5.1405 -6.3543 6.2464
# 3 -2.2444 8.7245 60.2934 9.0860 -21.0816 -0.0029
# 4 16.3181 5.1405 9.0860 18.7546 -8.7352 2.3798
# 5 -13.1830 -6.3543 -21.0816 -8.7352 27.3408 3.7018
# 6 -0.3856 6.2464 -0.0029 2.3798 3.7018 36.1195
#
#
#
# Elastic Compliance Matrix: (Units=1/GPa)
#
#
# Indices 1 2 3 4 5 6 
#
# 1 0.014156 -0.010928 0.005324 -0.009878 0.004939 0.002186
# 2 -0.010928 0.033717 -0.005816 0.003964 0.000192 -0.006229
# 3 0.005324 -0.005816 0.025087 -0.006507 0.018535 -0.000406
# 4 -0.009878 0.003964 -0.006507 0.071897 0.015069 -0.007073
# 5 0.004939 0.000192 0.018535 0.015069 0.059059 -0.007025
# 6 0.002186 -0.006229 -0.000406 -0.007073 -0.007025 0.029972
#
#
# Mechanical properties :
#
#
# Convention : Reuss Voigt Hill
#
# Bulk Modulus (GPa) = 19.95229 33.35196 26.65212
# Shear Modulus (GPa) = 18.28590 28.20507 23.24549
#
# Velocity S-wave (km/s) = 3.04606 3.78306 3.43439
# Velocity P-wave (km/s) = 4.74292 6.00044 5.40835
#
# Compressibility (1/GPa) = 0.05011957
#
# Stress axis : x y z
#
# Youngs Moduli (GPa) = 70.63960 29.65877 39.86197
#
# Poissons Ratio (x) = 0.32411 -0.21222
# Poissons Ratio (y) = 0.77194 0.23184
# Poissons Ratio (z) = -0.37608 0.17250
#
# Static dielectric constant tensor:
#      x y z
#    x 3.485400 -0.144840 -0.565200 
#    y -0.144840 3.106630 0.025960 
#    z -0.565200 0.025960 2.071560 
# 
# 
# High freq. dielectric constant tensor:
#      x y z
#    x 1.779570 -0.020090 -0.003100 
#    y -0.020090 1.724910 0.003320 
#    z -0.003100 0.003320 1.756990 
# 
# From -- ./inp_files/456757.got.cif
#   From: 2010.06.25/outbox.cif.g09.slc.cpg/sg2_229_cif.got.tgz:456757.got - 2010.06.27 13:26:56.
