data_PCOD8039959
_publ_section_title
;
Structure prediction by ZEFSAII (Michael W. Deem and Ramdas Pophale) SiO2 
 PCOD8039959
Probable space group: P -1
;
_chemical_formula_sum "Si O2"
_cell_formula_units_Z 14
_cell_length_a 9.877129
_cell_length_b 19.772375
_cell_length_c 5.147679
_cell_angle_alpha 81.503174
_cell_angle_beta 105.992922
_cell_angle_gamma 135.087161
_cell_volume 680.646039
_symmetry_space_group_name_H-M "P -1"
_symmetry_group_IT_number 2
_symmetry_cell_setting 'triclinic'
loop_
_space_group_symop_operation_xyz
x,y,z
-x,-y,-z
loop_
_atom_site_type_symbol
_atom_site_label
_atom_site_fract_x
_atom_site_fract_y
_atom_site_fract_z
Si Si1 0.974213 0.078340 0.657482
Si Si2 0.210109 0.604690 0.081041
Si Si3 0.206048 0.120364 0.257081
Si Si4 0.323413 0.390285 0.051002
Si Si5 0.453204 0.664425 0.674207
Si Si6 0.928003 0.291662 0.108558
Si Si7 0.956528 0.225198 0.672598
O O1 0.058670 0.104892 0.395515
O O2 0.893217 0.126163 0.639082
O O3 0.143526 0.117845 0.932878
O O4 0.796255 0.962613 0.658176
O O5 0.286420 0.607744 0.400092
O O6 0.356062 0.626193 0.927134
O O7 0.000000 0.500000 0.000000
O O8 0.188773 0.678356 0.004909
O O9 0.424380 0.223768 0.357585
O O10 0.407455 0.354376 0.276348
O O11 0.168371 0.380551 0.153695
O O12 0.500000 0.500000 0.000000
O O13 0.196267 0.316745 0.780556
O O14 0.875967 0.245043 0.388828
O O15 0.850006 0.212933 0.889295
#
# Coordination Sequence:
#
# PCOD8039959 Si02
#       7
#     2   2   2   2   2   2   2
#     4  10  18  35  59  91 126 152 193 244 321 360
#     4  12  27  43  61  84 126 172 203 244 305 363
#     4  10  20  34  58  92 125 155 188 256 309 355
#     4  10  23  36  61  91 117 151 201 259 294 352
#     4  12  24  40  65  91 124 152 214 255 295 352
#     4  10  23  40  58  81 122 160 199 234 310 358
#     4  10  20  36  61  82 119 151 199 235 302 357
#
# _framework density 20.568693
#
# number of rings (size 3 to 8) (size 9 to 14) (size 15 to 20)
#    0.857    0.571    1.429    4.714    4.000    0.571 
#    0.000    0.000    0.000    5.143    0.000    0.000 
#    0.000    0.000    0.000    0.000    0.000    0.000 
#
# Total GULP energy -173566.529794 kJ/mol
# GULP energy per Si atom -12397.609271 kJ/mol
# Density = 2.052188 g / cm^3
# Si number density = 20.568693 Si / 1000 Ang^3
#
#
#
# Elastic Constant Matrix: (Units=GPa)
#
#
# Indices 1 2 3 4 5 6 
#
# 1 49.5552 -10.9527 24.3239 1.6291 10.1226 -10.4962
# 2 -10.9527 85.2094 21.3195 3.3499 -0.8879 -7.2216
# 3 24.3239 21.3195 104.4961 3.7024 5.4650 -14.4276
# 4 1.6291 3.3499 3.7024 25.3127 -3.6339 -2.3096
# 5 10.1226 -0.8879 5.4650 -3.6339 26.6054 -7.9123
# 6 -10.4962 -7.2216 -14.4276 -2.3096 -7.9123 30.4419
#
#
#
# Elastic Compliance Matrix: (Units=1/GPa)
#
#
# Indices 1 2 3 4 5 6 
#
# 1 0.027267 0.005548 -0.006230 -0.002143 -0.007523 0.005647
# 2 0.005548 0.013676 -0.003567 -0.001358 -0.000116 0.003334
# 3 -0.006230 -0.003567 0.012134 -0.000566 0.000529 0.002851
# 4 -0.002143 -0.001358 -0.000566 0.041353 0.007665 0.003801
# 5 -0.007523 -0.000116 0.000529 0.007665 0.044273 0.009718
# 6 0.005647 0.003334 0.002851 0.003801 0.009718 0.039753
#
#
# Mechanical properties :
#
#
# Convention : Reuss Voigt Hill
#
# Bulk Modulus (GPa) = 22.43240 34.29357 28.36299
# Shear Modulus (GPa) = 24.77535 30.10999 27.44267
#
# Velocity S-wave (km/s) = 3.47438 3.83021 3.65663
# Velocity P-wave (km/s) = 5.19854 6.02243 5.62559
#
# Compressibility (1/GPa) = 0.04457838
#
# Stress axis : x y z
#
# Youngs Moduli (GPa) = 36.67461 73.12007 82.41530
#
# Poissons Ratio (x) = -0.40567 0.51344
# Poissons Ratio (y) = -0.20347 0.29400
# Poissons Ratio (z) = 0.22848 0.26084
#
# Static dielectric constant tensor:
#      x y z
#    x 3.324930 -0.229810 -0.052870 
#    y -0.229810 3.756040 -0.009220 
#    z -0.052870 -0.009220 3.803610 
# 
# 
# High freq. dielectric constant tensor:
#      x y z
#    x 1.782140 -0.023630 -0.004800 
#    y -0.023630 1.797850 -0.002830 
#    z -0.004800 -0.002830 1.816480 
# 
# From -- ./inp_files/47501.got.cif
#   From: 2010.06.25/outbox.cif.g09.slc.cpg/sg2_24_cif.got.tgz:47501.got - 2010.06.27 13:26:56.
