data_PCOD8039059
_publ_section_title
;
Structure prediction by ZEFSAII (Michael W. Deem and Ramdas Pophale) SiO2 
 PCOD8039059
Probable space group: P -1
;
_chemical_formula_sum "Si O2"
_cell_formula_units_Z 16
_cell_length_a 18.086503
_cell_length_b 8.422464
_cell_length_c 14.481264
_cell_angle_alpha 113.606071
_cell_angle_beta 30.742193
_cell_angle_gamma 94.709983
_cell_volume 856.426581
_symmetry_space_group_name_H-M "P -1"
_symmetry_group_IT_number 2
_symmetry_cell_setting 'triclinic'
loop_
_space_group_symop_operation_xyz
x,y,z
-x,-y,-z
loop_
_atom_site_type_symbol
_atom_site_label
_atom_site_fract_x
_atom_site_fract_y
_atom_site_fract_z
Si Si1 0.039894 0.827026 0.726180
Si Si2 0.496180 0.497201 0.716505
Si Si3 0.880694 0.885617 0.176206
Si Si4 0.598302 0.347479 0.775198
Si Si5 0.416421 0.870002 0.575767
Si Si6 0.665056 0.102313 0.123974
Si Si7 0.842741 0.470559 0.315145
Si Si8 0.636393 0.935617 0.605535
O O1 0.206270 0.709171 0.452598
O O2 0.045648 0.651745 0.742722
O O3 0.044279 0.999430 0.823088
O O4 0.869208 0.924618 0.869361
O O5 0.491359 0.463824 0.823456
O O6 0.464451 0.338896 0.660797
O O7 0.349204 0.728475 0.892970
O O8 0.682840 0.445352 0.472882
O O9 0.720264 0.906832 0.408215
O O10 0.787400 0.003966 0.207994
O O11 0.035418 0.644625 0.932797
O O12 0.614568 0.131210 0.727411
O O13 0.500000 0.500000 0.000000
O O14 0.418200 0.804414 0.664437
O O15 0.500000 0.000000 0.500000
O O16 0.557665 0.012325 0.177924
O O17 0.772591 0.713555 0.457694
#
# Coordination Sequence:
#
# PCOD8039059 Si02
#       8
#     2   2   2   2   2   2   2   2
#     4  10  20  36  56  81 110 147 189 223 274 331
#     4  10  21  37  53  82 113 148 191 226 271 335
#     4  11  18  33  51  79 120 155 187 215 256 333
#     4  10  21  44  65  75 102 148 189 240 287 321
#     4  12  19  32  52  82 122 162 179 209 276 334
#     4  11  21  34  56  84 118 149 176 223 279 335
#     4  10  18  32  55  77 113 149 180 227 263 321
#     4  10  21  36  53  84 114 142 189 228 269 333
#
# _framework density 18.682278
#
# number of rings (size 3 to 8) (size 9 to 14) (size 15 to 20)
#    0.000    1.500    6.250    1.875    0.000    1.000 
#    4.500    6.875    0.000    0.000    0.000    0.000 
#    0.000    0.000    0.000    0.000    0.000    0.000 
#
# Total GULP energy -198324.305518 kJ/mol
# GULP energy per Si atom -12395.269095 kJ/mol
# Density = 1.863976 g / cm^3
# Si number density = 18.682278 Si / 1000 Ang^3
#
#
#
# Elastic Constant Matrix: (Units=GPa)
#
#
# Indices 1 2 3 4 5 6 
#
# 1 57.1815 41.7295 51.7582 12.6381 2.1572 -10.1433
# 2 41.7295 124.3092 50.5770 18.7644 4.3722 -7.3499
# 3 51.7582 50.5770 114.3391 16.3367 5.0974 1.5663
# 4 12.6381 18.7644 16.3367 24.7345 -0.3212 -5.1581
# 5 2.1572 4.3722 5.0974 -0.3212 37.1648 7.6109
# 6 -10.1433 -7.3499 1.5663 -5.1581 7.6109 22.6407
#
#
#
# Elastic Compliance Matrix: (Units=1/GPa)
#
#
# Indices 1 2 3 4 5 6 
#
# 1 0.038473 -0.005448 -0.014780 -0.002256 -0.003068 0.017007
# 2 -0.005448 0.011397 -0.001903 -0.004474 -0.000943 0.000689
# 3 -0.014780 -0.001903 0.016982 -0.004214 0.000683 -0.009604
# 4 -0.002256 -0.004474 -0.004214 0.049680 -0.000224 0.009222
# 5 -0.003068 -0.000943 0.000683 -0.000224 0.029495 -0.011694
# 6 0.017007 0.000689 -0.009604 0.009222 -0.011694 0.058708
#
#
# Mechanical properties :
#
#
# Convention : Reuss Voigt Hill
#
# Bulk Modulus (GPa) = 44.26806 64.88435 54.57620
# Shear Modulus (GPa) = 19.49119 27.02568 23.25844
#
# Velocity S-wave (km/s) = 3.23352 3.80754 3.53221
# Velocity P-wave (km/s) = 6.13901 7.35769 6.77581
#
# Compressibility (1/GPa) = 0.02258965
#
# Stress axis : x y z
#
# Youngs Moduli (GPa) = 25.99221 87.74333 58.88751
#
# Poissons Ratio (x) = 0.47799 0.87035
# Poissons Ratio (y) = 0.14160 0.11209
# Poissons Ratio (z) = 0.38416 0.16702
#
# Static dielectric constant tensor:
#      x y z
#    x 3.231290 -0.226060 -0.268600 
#    y -0.226060 3.738310 0.060880 
#    z -0.268600 0.060880 3.308370 
# 
# 
# High freq. dielectric constant tensor:
#      x y z
#    x 1.695230 -0.010220 -0.022700 
#    y -0.010220 1.735460 -0.001060 
#    z -0.022700 -0.001060 1.707150 
# 
# From -- ./inp_files/178085.got.cif
#   From: 2010.06.25/outbox.cif.g09.slc.cpg/sg2_90_cif.got.tgz:178085.got - 2010.06.27 13:26:56.
