data_PCOD8039616
_publ_section_title
;
Structure prediction by ZEFSAII (Michael W. Deem and Ramdas Pophale) SiO2 
 PCOD8039616
Probable space group: P -1
;
_chemical_formula_sum "Si O2"
_cell_formula_units_Z 16
_cell_length_a 8.028526
_cell_length_b 14.010748
_cell_length_c 8.573855
_cell_angle_alpha 54.485219
_cell_angle_beta 68.639681
_cell_angle_gamma 91.869282
_cell_volume 692.117914
_symmetry_space_group_name_H-M "P -1"
_symmetry_group_IT_number 2
_symmetry_cell_setting 'triclinic'
loop_
_space_group_symop_operation_xyz
x,y,z
-x,-y,-z
loop_
_atom_site_type_symbol
_atom_site_label
_atom_site_fract_x
_atom_site_fract_y
_atom_site_fract_z
Si Si1 0.754379 0.618515 0.127229
Si Si2 0.071053 0.173700 0.913753
Si Si3 0.718901 0.255136 0.923343
Si Si4 0.592900 0.380384 0.279645
Si Si5 0.910667 0.477951 0.836388
Si Si6 0.018687 0.083919 0.676955
Si Si7 0.796866 0.261833 0.546178
Si Si8 0.350886 0.230492 0.246119
O O1 0.767900 0.699933 0.203691
O O2 0.578100 0.486723 0.308753
O O3 0.946509 0.585444 0.077301
O O4 0.743140 0.702110 0.906518
O O5 0.111353 0.149595 0.744715
O O6 0.859888 0.180928 0.994888
O O7 0.082870 0.061836 0.126087
O O8 0.810066 0.401125 0.791568
O O9 0.676982 0.244412 0.763732
O O10 0.526172 0.197405 0.142246
O O11 0.659885 0.274695 0.441671
O O12 0.409381 0.316435 0.300265
O O13 0.752738 0.467382 0.028849
O O14 0.014783 0.619022 0.616415
O O15 0.188822 0.105684 0.474147
O O16 0.862589 0.142191 0.610009
#
# Coordination Sequence:
#
# PCOD8039616 Si02
#       8
#     2   2   2   2   2   2   2   2
#     4  10  19  35  57  82 110 145 185 224 266 323
#     4   9  21  41  60  79 106 145 192 229 263 322
#     4   9  20  35  54  82 113 141 178 229 279 325
#     4  10  20  34  55  85 119 144 175 226 281 328
#     4   9  17  33  55  80 111 146 184 224 268 326
#     4  10  21  39  61  81 106 145 189 229 269 322
#     4  10  18  34  58  80 106 148 189 219 266 329
#     4  11  22  35  54  84 118 144 175 226 283 326
#
# _framework density 23.117448
#
# number of rings (size 3 to 8) (size 9 to 14) (size 15 to 20)
#    0.000    2.250    0.000    3.750    0.000    4.000 
#    0.000    4.375    0.000    4.500    0.000    0.000 
#    0.000    0.000    0.000    0.000    0.000    0.000 
#
# Total GULP energy -198313.199759 kJ/mol
# GULP energy per Si atom -12394.574985 kJ/mol
# Density = 2.306483 g / cm^3
# Si number density = 23.117448 Si / 1000 Ang^3
#
#
#
# Elastic Constant Matrix: (Units=GPa)
#
#
# Indices 1 2 3 4 5 6 
#
# 1 43.1790 7.2375 20.0110 0.7657 9.7338 -4.1551
# 2 7.2375 57.1287 11.1422 -5.0295 1.4606 -6.0408
# 3 20.0110 11.1422 76.7649 -3.3011 9.3510 -16.5183
# 4 0.7657 -5.0295 -3.3011 25.1921 -8.5126 7.3007
# 5 9.7338 1.4606 9.3510 -8.5126 29.5928 0.6011
# 6 -4.1551 -6.0408 -16.5183 7.3007 0.6011 28.5941
#
#
#
# Elastic Compliance Matrix: (Units=1/GPa)
#
#
# Indices 1 2 3 4 5 6 
#
# 1 0.028637 -0.002567 -0.005809 -0.005803 -0.009166 0.001938
# 2 -0.002567 0.018613 -0.001707 0.003595 0.001466 0.001624
# 3 -0.005809 -0.001707 0.017230 -0.002048 -0.004229 0.009361
# 4 -0.005803 0.003595 -0.002048 0.050308 0.017144 -0.014472
# 5 -0.009166 0.001466 -0.004229 0.017144 0.043180 -0.008750
# 6 0.001938 0.001624 0.009361 -0.014472 -0.008750 0.044883
#
#
# Mechanical properties :
#
#
# Convention : Reuss Voigt Hill
#
# Bulk Modulus (GPa) = 22.56525 28.20597 25.38561
# Shear Modulus (GPa) = 21.02707 25.92126 23.47417
#
# Velocity S-wave (km/s) = 3.01919 3.35219 3.19004
# Velocity P-wave (km/s) = 4.68362 5.21638 4.95716
#
# Compressibility (1/GPa) = 0.04431593
#
# Stress axis : x y z
#
# Youngs Moduli (GPa) = 34.91953 53.72520 58.03830
#
# Poissons Ratio (x) = 0.13790 0.33712
# Poissons Ratio (y) = 0.08963 0.09907
# Poissons Ratio (z) = 0.20283 0.09171
#
# Static dielectric constant tensor:
#      x y z
#    x 4.011370 0.127010 0.166260 
#    y 0.127010 4.445610 0.082070 
#    z 0.166260 0.082070 3.886390 
# 
# 
# High freq. dielectric constant tensor:
#      x y z
#    x 1.902900 0.001690 0.019510 
#    y 0.001690 1.908780 0.008920 
#    z 0.019510 0.008920 1.897690 
# 
# From -- ./inp_files/199429.got.cif
#   From: 2010.06.25/outbox.cif.g09.slc.cpg/sg2_100_cif.got.tgz:199429.got - 2010.06.27 13:26:56.
