data_PCOD8039424
_publ_section_title
;
Structure prediction by ZEFSAII (Michael W. Deem and Ramdas Pophale) SiO2 
 PCOD8039424
Probable space group: P -1
;
_chemical_formula_sum "Si O2"
_cell_formula_units_Z 16
_cell_length_a 14.824746
_cell_length_b 8.675578
_cell_length_c 11.729411
_cell_angle_alpha 49.532469
_cell_angle_beta 137.825413
_cell_angle_gamma 127.486540
_cell_volume 746.111257
_symmetry_space_group_name_H-M "P -1"
_symmetry_group_IT_number 2
_symmetry_cell_setting 'triclinic'
loop_
_space_group_symop_operation_xyz
x,y,z
-x,-y,-z
loop_
_atom_site_type_symbol
_atom_site_label
_atom_site_fract_x
_atom_site_fract_y
_atom_site_fract_z
Si Si1 0.340126 0.886015 0.296196
Si Si2 0.832849 0.650488 0.830091
Si Si3 0.000830 0.363173 0.219912
Si Si4 0.005446 0.917777 0.172878
Si Si5 0.574289 0.704428 0.683585
Si Si6 0.783638 0.994736 0.083983
Si Si7 0.602239 0.566961 0.170220
Si Si8 0.843827 0.414688 0.553431
O O1 0.485874 0.823170 0.464945
O O2 0.227918 0.737057 0.340243
O O3 0.351661 0.124878 0.234768
O O4 0.292200 0.860284 0.131452
O O5 0.673645 0.607068 0.742301
O O6 0.867380 0.574717 0.773483
O O7 0.883720 0.899406 0.749135
O O8 0.918658 0.546683 0.050641
O O9 0.067348 0.370648 0.405437
O O10 0.891764 0.139745 0.202985
O O11 0.050178 0.704493 0.344929
O O12 0.858414 0.880746 0.115521
O O13 0.000000 0.000000 0.000000
O O14 0.479825 0.504397 0.755902
O O15 0.665905 0.816531 0.121230
O O16 0.732464 0.458490 0.337786
O O17 0.500000 0.500000 0.000000
#
# Coordination Sequence:
#
# PCOD8039424 Si02
#       8
#     2   2   2   2   2   2   2   2
#     4  10  18  33  60  90 119 150 199 255 295 350
#     4  10  18  35  61  96 119 152 201 257 308 351
#     4  10  22  36  60  91 126 155 196 254 308 363
#     4  11  18  32  64  94 118 150 199 263 305 341
#     4  10  20  35  61  90 120 158 200 254 300 350
#     4  11  22  39  59  88 126 164 197 247 306 360
#     4  11  25  40  59  86 126 166 203 248 299 354
#     4  11  21  38  62  96 120 153 204 253 310 360
#
# _framework density 21.444523
#
# number of rings (size 3 to 8) (size 9 to 14) (size 15 to 20)
#    0.000    1.500    5.000    1.500    0.000    1.000 
#    0.000    6.250    0.000    0.000    0.000    0.000 
#    0.000    0.000    0.000    0.000    0.000    0.000 
#
# Total GULP energy -198273.523905 kJ/mol
# GULP energy per Si atom -12392.095244 kJ/mol
# Density = 2.139571 g / cm^3
# Si number density = 21.444523 Si / 1000 Ang^3
#
#
#
# Elastic Constant Matrix: (Units=GPa)
#
#
# Indices 1 2 3 4 5 6 
#
# 1 83.9636 34.3471 35.6856 0.1036 27.5922 -0.5046
# 2 34.3471 111.7690 41.5309 5.4900 -1.7212 13.3812
# 3 35.6856 41.5309 124.2406 9.8070 17.1299 -11.3728
# 4 0.1036 5.4900 9.8070 29.6354 2.8188 -1.4092
# 5 27.5922 -1.7212 17.1299 2.8188 28.5474 -7.4176
# 6 -0.5046 13.3812 -11.3728 -1.4092 -7.4176 28.2852
#
#
#
# Elastic Compliance Matrix: (Units=1/GPa)
#
#
# Indices 1 2 3 4 5 6 
#
# 1 0.022629 -0.006445 -0.001834 0.003702 -0.022291 -0.002946
# 2 -0.006445 0.013434 -0.004153 -0.002158 0.008157 -0.006108
# 3 -0.001834 -0.004153 0.011124 -0.002315 -0.003531 0.005363
# 4 0.003702 -0.002158 -0.002315 0.035460 -0.005710 0.000426
# 5 -0.022291 0.008157 -0.003531 -0.005710 0.062455 0.010418
# 6 -0.002946 -0.006108 0.005363 0.000426 0.010418 0.043101
#
#
# Mechanical properties :
#
#
# Convention : Reuss Voigt Hill
#
# Bulk Modulus (GPa) = 44.79572 60.34449 52.57010
# Shear Modulus (GPa) = 22.67505 31.18756 26.93131
#
# Velocity S-wave (km/s) = 3.25527 3.81771 3.54766
# Velocity P-wave (km/s) = 5.92144 6.90175 6.43031
#
# Compressibility (1/GPa) = 0.02232356
#
# Stress axis : x y z
#
# Youngs Moduli (GPa) = 44.19191 74.44029 89.89317
#
# Poissons Ratio (x) = 0.47976 0.16484
# Poissons Ratio (y) = 0.28481 0.37331
# Poissons Ratio (z) = 0.08104 0.30914
#
# Static dielectric constant tensor:
#      x y z
#    x 3.800680 -0.016710 0.248390 
#    y -0.016710 3.947300 -0.005260 
#    z 0.248390 -0.005260 3.915710 
# 
# 
# High freq. dielectric constant tensor:
#      x y z
#    x 1.813990 0.008800 0.018390 
#    y 0.008800 1.841640 0.004610 
#    z 0.018390 0.004610 1.836810 
# 
# From -- ./inp_files/446852.got.cif
#   From: 2010.06.25/outbox.cif.g09.slc.cpg/sg2_224_cif.got.tgz:446852.got - 2010.06.27 13:26:56.
