data_PCOD8039398
_publ_section_title
;
Structure prediction by ZEFSAII (Michael W. Deem and Ramdas Pophale) SiO2 
 PCOD8039398
Probable space group: P -1
;
_chemical_formula_sum "Si O2"
_cell_formula_units_Z 16
_cell_length_a 25.262547
_cell_length_b 10.417129
_cell_length_c 23.172232
_cell_angle_alpha 45.339132
_cell_angle_beta 169.155500
_cell_angle_gamma 135.880088
_cell_volume 798.611474
_symmetry_space_group_name_H-M "P -1"
_symmetry_group_IT_number 2
_symmetry_cell_setting 'triclinic'
loop_
_space_group_symop_operation_xyz
x,y,z
-x,-y,-z
loop_
_atom_site_type_symbol
_atom_site_label
_atom_site_fract_x
_atom_site_fract_y
_atom_site_fract_z
Si Si1 0.730445 0.889509 0.531781
Si Si2 0.683703 0.888091 0.195787
Si Si3 0.246310 0.307570 0.562581
Si Si4 0.849126 0.287059 0.835940
Si Si5 0.223354 0.676218 0.125104
Si Si6 0.390153 0.916107 0.049483
Si Si7 0.964554 0.085214 0.829928
Si Si8 0.410006 0.706129 0.564383
O O1 0.506102 0.726403 0.373643
O O2 0.579048 0.973302 0.290588
O O3 0.832676 0.054868 0.634011
O O4 0.990710 0.796673 0.818439
O O5 0.681745 0.698023 0.288993
O O6 0.000000 0.000000 0.500000
O O7 0.500000 0.000000 0.000000
O O8 0.584734 0.891174 0.021567
O O9 0.487646 0.235527 0.807679
O O10 0.260958 0.517333 0.495274
O O11 0.937975 0.179750 0.256686
O O12 0.687139 0.280377 0.726060
O O13 0.636906 0.306266 0.550595
O O14 0.114565 0.460157 0.066191
O O15 0.966207 0.101392 0.011070
O O16 0.733417 0.138101 0.609496
O O17 0.248024 0.245727 0.076424
#
# Coordination Sequence:
#
# PCOD8039398 Si02
#       8
#     2   2   2   2   2   2   2   2
#     4  11  21  38  54  78 107 136 176 213 264 310
#     4   8  16  30  51  82 110 129 157 208 268 312
#     4  10  20  34  55  84 109 131 170 216 260 311
#     4  10  22  39  56  77 103 134 179 220 268 308
#     4  10  23  36  57  80 104 131 167 231 272 301
#     4  10  18  33  59  83 106 134 165 213 270 315
#     4  11  25  37  51  73 105 145 181 217 247 300
#     4  12  23  37  55  74 104 146 180 209 252 308
#
# _framework density 20.034773999999999
#
# number of rings (size 3 to 8) (size 9 to 14) (size 15 to 20)
#    0.000    1.750    0.000    5.250    0.000    8.500 
#    0.000    0.000    0.000    1.500    0.000    0.000 
#    0.000    0.000    0.000    0.000    0.000    0.000 
#
# Total GULP energy -198318.567503 kJ/mol
# GULP energy per Si atom -12394.910469 kJ/mol
# Density = 1.998917 g / cm^3
# Si number density = 20.034774 Si / 1000 Ang^3
#
#
#
# Elastic Constant Matrix: (Units=GPa)
#
#
# Indices 1 2 3 4 5 6 
#
# 1 86.6905 31.9971 41.1740 -1.8258 -29.8694 16.7853
# 2 31.9971 40.9688 26.3891 -3.9685 -29.5493 5.3117
# 3 41.1740 26.3891 86.0702 1.1716 -15.6633 14.8081
# 4 -1.8258 -3.9685 1.1716 23.5673 8.9000 -0.8081
# 5 -29.8694 -29.5493 -15.6633 8.9000 53.5181 -13.6745
# 6 16.7853 5.3117 14.8081 -0.8081 -13.6745 23.8227
#
#
#
# Elastic Compliance Matrix: (Units=1/GPa)
#
#
# Indices 1 2 3 4 5 6 
#
# 1 0.019573 -0.009553 -0.004693 -0.001088 0.002594 -0.007292
# 2 -0.009553 0.055502 -0.010383 -0.000301 0.026401 0.015954
# 3 -0.004693 -0.010383 0.017559 -0.001342 -0.005102 -0.008267
# 4 -0.001088 -0.000301 -0.001342 0.045814 -0.009330 -0.002134
# 5 0.002594 0.026401 -0.005102 -0.009330 0.039289 0.017693
# 6 -0.007292 0.015954 -0.008267 -0.002134 0.017693 0.058780
#
#
# Mechanical properties :
#
#
# Convention : Reuss Voigt Hill
#
# Bulk Modulus (GPa) = 23.05444 45.87219 34.46331
# Shear Modulus (GPa) = 16.65373 27.79290 22.22331
#
# Velocity S-wave (km/s) = 2.88625 3.72860 3.33413
# Velocity P-wave (km/s) = 4.75810 6.44070 5.66225
#
# Compressibility (1/GPa) = 0.04337560
#
# Stress axis : x y z
#
# Youngs Moduli (GPa) = 51.09138 18.01733 56.95110
#
# Poissons Ratio (x) = 0.17212 0.26726
# Poissons Ratio (y) = 0.48808 0.59134
# Poissons Ratio (z) = 0.23976 0.18708
#
# Static dielectric constant tensor:
#      x y z
#    x 4.248130 0.483680 -0.446510 
#    y 0.483680 3.630550 -0.270960 
#    z -0.446510 -0.270960 4.042190 
# 
# 
# High freq. dielectric constant tensor:
#      x y z
#    x 1.789160 0.019400 0.003890 
#    y 0.019400 1.746100 -0.004340 
#    z 0.003890 -0.004340 1.798500 
# 
# From -- ./inp_files/57005.got.cif
#   From: 2010.06.25/outbox.cif.g09.slc.cpg/sg2_29_cif.got.tgz:57005.got - 2010.06.27 13:26:56.
