data_PCOD8039343
_publ_section_title
;
Structure prediction by ZEFSAII (Michael W. Deem and Ramdas Pophale) SiO2 
 PCOD8039343
Probable space group: P -1
;
_chemical_formula_sum "Si O2"
_cell_formula_units_Z 14
_cell_length_a 9.315065
_cell_length_b 21.266143
_cell_length_c 15.306076
_cell_angle_alpha 150.708271
_cell_angle_beta 29.094523
_cell_angle_gamma 133.394873
_cell_volume 684.480573
_symmetry_space_group_name_H-M "P -1"
_symmetry_group_IT_number 2
_symmetry_cell_setting 'triclinic'
loop_
_space_group_symop_operation_xyz
x,y,z
-x,-y,-z
loop_
_atom_site_type_symbol
_atom_site_label
_atom_site_fract_x
_atom_site_fract_y
_atom_site_fract_z
Si Si1 0.213683 0.760689 0.281344
Si Si2 0.153835 0.350847 0.271736
Si Si3 0.364258 0.777692 0.639433
Si Si4 0.805702 0.585721 0.313178
Si Si5 0.989179 0.728456 0.183433
Si Si6 0.237859 0.051042 0.129141
Si Si7 0.562265 0.713918 0.771376
O O1 0.116641 0.630030 0.204457
O O2 0.050773 0.810093 0.334112
O O3 0.089447 0.878411 0.562096
O O4 0.584134 0.724018 0.029516
O O5 0.302529 0.356500 0.294181
O O6 0.000000 0.500000 0.500000
O O7 0.902259 0.273320 0.320908
O O8 0.544863 0.682721 0.506832
O O9 0.614910 0.776264 0.426887
O O10 0.200472 0.929586 0.944087
O O11 0.666074 0.602305 0.505241
O O12 0.892458 0.431816 0.049689
O O13 0.182216 0.758705 0.035589
O O14 0.329386 0.156293 0.145480
O O15 0.500000 0.000000 0.000000
#
# Coordination Sequence:
#
# PCOD8039343 Si02
#       7
#     2   2   2   2   2   2   2
#     4   9  19  36  59  85 116 158 186 240 293 340
#     4  11  23  41  59  88 124 153 187 240 303 348
#     4  11  21  36  63  84 115 161 192 237 290 343
#     4  10  18  36  61  86 114 151 202 245 280 340
#     4  10  18  33  57  90 112 149 203 239 286 340
#     4  11  20  41  62  84 118 151 204 242 281 339
#     4  10  22  37  59  85 120 153 189 247 290 341
#
# _framework density 20.453465999999999
#
# number of rings (size 3 to 8) (size 9 to 14) (size 15 to 20)
#    0.000    1.714    4.286    4.714    0.000    1.714 
#    0.000    9.286    0.000    0.000    0.000    0.000 
#    0.000    0.000    0.000    0.000    0.000    0.000 
#
# Total GULP energy -173553.160368 kJ/mol
# GULP energy per Si atom -12396.654312 kJ/mol
# Density = 2.040691 g / cm^3
# Si number density = 20.453466 Si / 1000 Ang^3
#
#
#
# Elastic Constant Matrix: (Units=GPa)
#
#
# Indices 1 2 3 4 5 6 
#
# 1 47.4524 14.3926 27.2297 -13.4807 3.2825 0.1400
# 2 14.3926 56.1298 37.6826 -29.0891 -3.2185 4.0345
# 3 27.2297 37.6826 130.4064 -29.8852 11.5357 5.0953
# 4 -13.4807 -29.0891 -29.8852 52.7863 2.2783 -2.5319
# 5 3.2825 -3.2185 11.5357 2.2783 27.2253 -1.9233
# 6 0.1400 4.0345 5.0953 -2.5319 -1.9233 34.6818
#
#
#
# Elastic Compliance Matrix: (Units=1/GPa)
#
#
# Indices 1 2 3 4 5 6 
#
# 1 0.024926 -0.002559 -0.003631 0.003025 -0.001963 0.000843
# 2 -0.002559 0.028574 -0.005408 0.011753 0.004896 -0.001390
# 3 -0.003631 -0.005408 0.011070 0.002531 -0.005180 -0.001085
# 4 0.003025 0.011753 0.002531 0.027735 -0.002359 0.000143
# 5 -0.001963 0.004896 -0.005180 -0.002359 0.040098 0.002251
# 6 0.000843 -0.001390 -0.001085 0.000143 0.002251 0.029286
#
#
# Mechanical properties :
#
#
# Convention : Reuss Voigt Hill
#
# Bulk Modulus (GPa) = 24.16983 43.62204 33.89593
# Shear Modulus (GPa) = 25.16628 33.25092 29.20860
#
# Velocity S-wave (km/s) = 3.51153 4.03635 3.78306
# Velocity P-wave (km/s) = 5.31825 6.56480 5.97413
#
# Compressibility (1/GPa) = 0.04137389
#
# Stress axis : x y z
#
# Youngs Moduli (GPa) = 40.11816 34.99633 90.33384
#
# Poissons Ratio (x) = 0.08956 0.32804
# Poissons Ratio (y) = 0.10267 0.48851
# Poissons Ratio (z) = 0.14569 0.18926
#
# Static dielectric constant tensor:
#      x y z
#    x 3.347020 0.025200 0.225870 
#    y 0.025200 3.952340 -0.236960 
#    z 0.225870 -0.236960 4.096740 
# 
# 
# High freq. dielectric constant tensor:
#      x y z
#    x 1.760120 0.003280 0.022180 
#    y 0.003280 1.805960 -0.017840 
#    z 0.022180 -0.017840 1.808930 
# 
# From -- ./inp_files/181138.got.cif
#   From: 2010.06.25/outbox.cif.g09.slc.cpg/sg2_91_cif.got.tgz:181138.got - 2010.06.27 13:26:56.
