data_PCOD8039774
_publ_section_title
;
Structure prediction by ZEFSAII (Michael W. Deem and Ramdas Pophale) SiO2 
 PCOD8039774
Probable space group: P -1
;
_chemical_formula_sum "Si O2"
_cell_formula_units_Z 12
_cell_length_a 12.324443
_cell_length_b 9.140761
_cell_length_c 9.506485
_cell_angle_alpha 81.504049
_cell_angle_beta 116.379245
_cell_angle_gamma 51.788438
_cell_volume 602.906169
_symmetry_space_group_name_H-M "P -1"
_symmetry_group_IT_number 2
_symmetry_cell_setting 'triclinic'
loop_
_space_group_symop_operation_xyz
x,y,z
-x,-y,-z
loop_
_atom_site_type_symbol
_atom_site_label
_atom_site_fract_x
_atom_site_fract_y
_atom_site_fract_z
Si Si1 0.055837 0.796796 0.986854
Si Si2 0.315152 0.850223 0.740535
Si Si3 0.717310 0.471220 0.588665
Si Si4 0.951940 0.374902 0.490901
Si Si5 0.313713 0.848481 0.417477
Si Si6 0.721871 0.432565 0.129572
O O1 0.208872 0.682558 0.968233
O O2 0.865897 0.901224 0.796873
O O3 0.155500 0.603077 0.191445
O O4 0.000000 0.000000 0.000000
O O5 0.330868 0.884644 0.582730
O O6 0.278050 0.709895 0.748610
O O7 0.141627 0.102698 0.675766
O O8 0.511000 0.702381 0.956700
O O9 0.499589 0.722097 0.456817
O O10 0.725282 0.289739 0.587788
O O11 0.790410 0.495600 0.495967
O O12 0.000000 0.500000 0.500000
O O13 0.866345 0.413770 0.283562
#
# Coordination Sequence:
#
# PCOD8039774 Si02
#       6
#     2   2   2   2   2   2
#     4  10  19  32  60  94 122 150 194 259 317 354
#     4  11  21  38  67  95 120 159 210 263 308 355
#     4  10  21  36  57  94 122 150 203 256 308 363
#     4  12  26  43  61  88 131 174 203 245 309 378
#     4  10  18  34  64  92 120 149 199 267 310 346
#     4  11  22  38  67  96 123 157 212 260 308 363
#
# _framework density 19.903593999999998
#
# number of rings (size 3 to 8) (size 9 to 14) (size 15 to 20)
#    0.000    1.333    5.000    2.500    0.000    2.000 
#    0.000    1.667    0.000    0.000    0.000    0.000 
#    0.000    0.000    0.000    0.000    0.000    0.000 
#
# Total GULP energy -148803.136282 kJ/mol
# GULP energy per Si atom -12400.261357 kJ/mol
# Density = 1.985829 g / cm^3
# Si number density = 19.903594 Si / 1000 Ang^3
#
#
#
# Elastic Constant Matrix: (Units=GPa)
#
#
# Indices 1 2 3 4 5 6 
#
# 1 98.7707 45.7868 35.6250 0.0381 6.8096 -19.0729
# 2 45.7868 59.3895 43.3205 -4.4830 10.4948 -16.1095
# 3 35.6250 43.3205 124.1450 -15.2377 11.9305 -1.1728
# 4 0.0381 -4.4830 -15.2377 33.4345 -14.6818 2.8927
# 5 6.8096 10.4948 11.9305 -14.6818 26.4471 6.2060
# 6 -19.0729 -16.1095 -1.1728 2.8927 6.2060 34.0395
#
#
#
# Elastic Compliance Matrix: (Units=1/GPa)
#
#
# Indices 1 2 3 4 5 6 
#
# 1 0.016505 -0.010059 -0.001350 -0.003747 -0.002973 0.005301
# 2 -0.010059 0.038202 -0.009691 -0.007753 -0.016190 0.015720
# 3 -0.001350 -0.009691 0.012199 0.006414 0.003692 -0.006141
# 4 -0.003747 -0.007753 0.006414 0.046488 0.030488 -0.015056
# 5 -0.002973 -0.016190 0.003692 0.030488 0.065845 -0.023796
# 6 0.005301 0.015720 -0.006141 -0.015056 -0.023796 0.045194
#
#
# Mechanical properties :
#
#
# Convention : Reuss Voigt Hill
#
# Bulk Modulus (GPa) = 40.47855 59.08555 49.78205
# Shear Modulus (GPa) = 18.19060 29.28906 23.73983
#
# Velocity S-wave (km/s) = 3.02642 3.84024 3.45735
# Velocity P-wave (km/s) = 5.70909 7.02948 6.40341
#
# Compressibility (1/GPa) = 0.02470444
#
# Stress axis : x y z
#
# Youngs Moduli (GPa) = 60.58942 26.17677 81.97536
#
# Poissons Ratio (x) = 0.26331 0.11069
# Poissons Ratio (y) = 0.60946 0.79444
# Poissons Ratio (z) = 0.08181 0.25368
#
# Static dielectric constant tensor:
#      x y z
#    x 3.300070 -0.400630 0.099020 
#    y -0.400630 3.446670 -0.124890 
#    z 0.099020 -0.124890 4.193180 
# 
# 
# High freq. dielectric constant tensor:
#      x y z
#    x 1.742220 -0.046600 0.005340 
#    y -0.046600 1.755400 -0.003720 
#    z 0.005340 -0.003720 1.799870 
# 
# From -- ./inp_files/146123.got.cif
#   From: 2010.06.25/outbox.cif.g09.slc.cpg/sg2_74_cif.got.tgz:146123.got - 2010.06.27 13:26:56.
