data_PCOD8039590
_publ_section_title
;
Structure prediction by ZEFSAII (Michael W. Deem and Ramdas Pophale) SiO2 
 PCOD8039590
Probable space group: P -1
;
_chemical_formula_sum "Si O2"
_cell_formula_units_Z 16
_cell_length_a 22.256263
_cell_length_b 9.366350
_cell_length_c 28.697652
_cell_angle_alpha 34.372119
_cell_angle_beta 17.729020
_cell_angle_gamma 27.314227
_cell_volume 826.507595
_symmetry_space_group_name_H-M "P -1"
_symmetry_group_IT_number 2
_symmetry_cell_setting 'triclinic'
loop_
_space_group_symop_operation_xyz
x,y,z
-x,-y,-z
loop_
_atom_site_type_symbol
_atom_site_label
_atom_site_fract_x
_atom_site_fract_y
_atom_site_fract_z
Si Si1 0.248784 0.375474 0.824231
Si Si2 0.407040 0.692217 0.682782
Si Si3 0.379706 0.593918 0.306780
Si Si4 0.627382 0.675644 0.707143
Si Si5 0.128907 0.278369 0.322836
Si Si6 0.254165 0.759320 0.638082
Si Si7 0.810431 0.789624 0.358917
Si Si8 0.944901 0.313311 0.652861
O O1 0.421783 0.416748 0.718320
O O2 0.178060 0.576301 0.774763
O O3 0.388051 0.007067 0.811507
O O4 0.000000 0.500000 0.000000
O O5 0.400755 0.650303 0.754165
O O6 0.644717 0.676318 0.497471
O O7 0.170780 0.033970 0.746874
O O8 0.454732 0.456915 0.236556
O O9 0.128393 0.659595 0.491720
O O10 0.346504 0.921260 0.246205
O O11 0.752171 0.411321 0.727089
O O12 0.814960 0.737161 0.531780
O O13 0.202604 0.393501 0.281284
O O14 0.079911 0.486668 0.256668
O O15 0.500000 0.500000 0.500000
O O16 0.302201 0.970160 0.578074
O O17 0.038503 0.988587 0.697847
#
# Coordination Sequence:
#
# PCOD8039590 Si02
#       8
#     2   2   2   2   2   2   2   2
#     4  11  23  37  54  79 114 152 180 217 275 336
#     4   9  17  31  49  72 102 138 178 214 266 317
#     4   9  16  27  46  70 103 138 170 217 264 315
#     4  10  19  32  50  80 112 137 184 227 270 322
#     4   8  14  26  42  70 105 128 165 212 277 319
#     4  10  18  34  57  84 112 138 180 235 269 316
#     4   8  16  28  49  77 103 134 173 222 271 313
#     4   9  17  30  53  82 104 137 176 233 279 304
#
# _framework density 19.358564999999999
#
# number of rings (size 3 to 8) (size 9 to 14) (size 15 to 20)
#    0.000    2.750    1.250    1.500    0.000    3.000 
#    2.250    1.250    0.000    0.000    0.000    8.750 
#    0.000    0.000    0.000    0.000    0.000    0.000 
#
# Total GULP energy -198253.936637 kJ/mol
# GULP energy per Si atom -12390.871040 kJ/mol
# Density = 1.931450 g / cm^3
# Si number density = 19.358565 Si / 1000 Ang^3
#
#
#
# Elastic Constant Matrix: (Units=GPa)
#
#
# Indices 1 2 3 4 5 6 
#
# 1 163.7037 86.2431 23.4708 9.6599 8.6437 -27.1032
# 2 86.2431 134.1020 33.9196 15.6404 11.4310 -16.3822
# 3 23.4708 33.9196 42.5151 6.8181 14.2683 -0.4705
# 4 9.6599 15.6404 6.8181 14.6923 1.4736 3.3319
# 5 8.6437 11.4310 14.2683 1.4736 12.1575 -2.5556
# 6 -27.1032 -16.3822 -0.4705 3.3319 -2.5556 43.1312
#
#
#
# Elastic Compliance Matrix: (Units=1/GPa)
#
#
# Indices 1 2 3 4 5 6 
#
# 1 0.009893 -0.005492 -0.000921 -0.001214 0.000248 0.004229
# 2 -0.005492 0.014011 -0.006828 -0.008733 0.000326 0.002490
# 3 -0.000921 -0.006828 0.046757 -0.007915 -0.047868 -0.004887
# 4 -0.001214 -0.008733 -0.007915 0.083548 0.006080 -0.010260
# 5 0.000248 0.000326 -0.047868 0.006080 0.138792 0.007511
# 6 0.004229 0.002490 -0.004887 -0.010260 0.007511 0.027973
#
#
# Mechanical properties :
#
#
# Convention : Reuss Voigt Hill
#
# Bulk Modulus (GPa) = 22.63542 69.73200 46.18371
# Shear Modulus (GPa) = 13.80524 27.10869 20.45696
#
# Velocity S-wave (km/s) = 2.67335 3.74618 3.25428
# Velocity P-wave (km/s) = 4.60947 7.40346 6.16678
#
# Compressibility (1/GPa) = 0.04417855
#
# Stress axis : x y z
#
# Youngs Moduli (GPa) = 101.08417 71.37277 21.38716
#
# Poissons Ratio (x) = 0.39198 0.01970
# Poissons Ratio (y) = 0.55516 0.14603
# Poissons Ratio (z) = 0.09313 0.48731
#
# Static dielectric constant tensor:
#      x y z
#    x 3.933450 -0.295330 0.059620 
#    y -0.295330 3.945700 -0.097630 
#    z 0.059620 -0.097630 2.740210 
# 
# 
# High freq. dielectric constant tensor:
#      x y z
#    x 1.770830 -0.016960 0.001600 
#    y -0.016960 1.768280 -0.001410 
#    z 0.001600 -0.001410 1.663580 
# 
# From -- ./inp_files/282166.got.cif
#   From: 2010.06.25/outbox.cif.g09.slc.cpg/sg2_142_cif.got.tgz:282166.got - 2010.06.27 13:26:56.
