data_PCOD8039932
_publ_section_title
;
Structure prediction by ZEFSAII (Michael W. Deem and Ramdas Pophale) SiO2 
 PCOD8039932
Probable space group: P -1
;
_chemical_formula_sum "Si O2"
_cell_formula_units_Z 14
_cell_length_a 12.014430
_cell_length_b 17.234418
_cell_length_c 13.081351
_cell_angle_alpha 155.936008
_cell_angle_beta 133.290196
_cell_angle_gamma 39.672196
_cell_volume 703.560083
_symmetry_space_group_name_H-M "P -1"
_symmetry_group_IT_number 2
_symmetry_cell_setting 'triclinic'
loop_
_space_group_symop_operation_xyz
x,y,z
-x,-y,-z
loop_
_atom_site_type_symbol
_atom_site_label
_atom_site_fract_x
_atom_site_fract_y
_atom_site_fract_z
Si Si1 0.837865 0.238020 0.170626
Si Si2 0.168509 0.310790 0.931285
Si Si3 0.502992 0.180118 0.864371
Si Si4 0.151313 0.626691 0.881746
Si Si5 0.539633 0.754128 0.307721
Si Si6 0.855888 0.978692 0.583840
Si Si7 0.950885 0.434702 0.645101
O O1 0.875759 0.338165 0.213728
O O2 0.820991 0.391244 0.440100
O O3 0.655104 0.238154 0.051514
O O4 0.000000 0.000000 0.000000
O O5 0.351405 0.293738 0.990632
O O6 0.161721 0.092008 0.628052
O O7 0.157192 0.351714 0.095096
O O8 0.000000 0.500000 0.000000
O O9 0.397946 0.273419 0.804114
O O10 0.585107 0.918705 0.598548
O O11 0.360752 0.482034 0.860321
O O12 0.074984 0.477341 0.698951
O O13 0.057724 0.863003 0.165620
O O14 0.332570 0.854966 0.289755
O O15 0.943406 0.775320 0.469896
#
# Coordination Sequence:
#
# PCOD8039932 Si02
#       7
#     2   2   2   2   2   2   2
#     4  12  23  39  60  90 121 158 200 243 302 352
#     4   9  20  39  62  87 119 162 197 239 297 352
#     4  10  20  36  65  88 124 158 190 249 298 349
#     4  12  22  35  65  89 116 155 197 255 302 345
#     4  10  18  35  58  96 118 140 200 258 302 340
#     4  10  20  38  62  90 119 151 197 251 299 346
#     4  11  23  40  57  86 124 161 199 234 290 364
#
# _framework density 19.898799
#
# number of rings (size 3 to 8) (size 9 to 14) (size 15 to 20)
#    0.000    1.429    2.857    5.143    0.000    1.143 
#    0.000    0.000    0.000    4.286    0.000    0.000 
#    0.000    0.000    0.000    0.000    0.000    0.000 
#
# Total GULP energy -173471.447387 kJ/mol
# GULP energy per Si atom -12390.817671 kJ/mol
# Density = 1.985351 g / cm^3
# Si number density = 19.898799 Si / 1000 Ang^3
#
#
#
# Elastic Constant Matrix: (Units=GPa)
#
#
# Indices 1 2 3 4 5 6 
#
# 1 77.6153 42.3585 37.2588 -6.3826 -12.6334 -4.7246
# 2 42.3585 95.3267 50.6536 0.8851 -4.9832 9.6450
# 3 37.2588 50.6536 130.8099 -19.8778 -7.7987 9.2298
# 4 -6.3826 0.8851 -19.8778 38.7254 6.0166 4.6342
# 5 -12.6334 -4.9832 -7.7987 6.0166 35.2986 -6.1097
# 6 -4.7246 9.6450 9.2298 4.6342 -6.1097 26.0459
#
#
#
# Elastic Compliance Matrix: (Units=1/GPa)
#
#
# Indices 1 2 3 4 5 6 
#
# 1 0.020458 -0.008096 -0.002965 -0.000220 0.007204 0.009489
# 2 -0.008096 0.016967 -0.004396 -0.002926 -0.002040 -0.006152
# 3 -0.002965 -0.004396 0.011361 0.006098 -0.000946 -0.004243
# 4 -0.000220 -0.002926 0.006098 0.030834 -0.005778 -0.007959
# 5 0.007204 -0.002040 -0.000946 -0.005778 0.033342 0.011246
# 6 0.009489 -0.006152 -0.004243 -0.007959 0.011246 0.047951
#
#
# Mechanical properties :
#
#
# Convention : Reuss Voigt Hill
#
# Bulk Modulus (GPa) = 55.95819 62.69930 59.32875
# Shear Modulus (GPa) = 25.27987 31.57938 28.42963
#
# Velocity S-wave (km/s) = 3.56816 3.98804 3.78393
# Velocity P-wave (km/s) = 6.71998 7.26522 6.99791
#
# Compressibility (1/GPa) = 0.01787048
#
# Stress axis : x y z
#
# Youngs Moduli (GPa) = 48.88000 58.93881 88.01801
#
# Poissons Ratio (x) = 0.47719 0.26102
# Poissons Ratio (y) = 0.39575 0.38694
# Poissons Ratio (z) = 0.14495 0.25910
#
# Static dielectric constant tensor:
#      x y z
#    x 3.551210 0.069900 -0.151040 
#    y 0.069900 3.564910 -0.084870 
#    z -0.151040 -0.084870 4.245080 
# 
# 
# High freq. dielectric constant tensor:
#      x y z
#    x 1.756970 -0.001710 0.003320 
#    y -0.001710 1.759600 -0.003840 
#    z 0.003320 -0.003840 1.794380 
# 
# From -- ./inp_files/433552.got.cif
#   From: 2010.06.25/outbox.cif.g09.slc.cpg/sg2_217_cif.got.tgz:433552.got - 2010.06.27 13:26:56.
