data_PCOD8039141
_publ_section_title
;
Structure prediction by ZEFSAII (Michael W. Deem and Ramdas Pophale) SiO2 
 PCOD8039141
Probable space group: P -1
;
_chemical_formula_sum "Si O2"
_cell_formula_units_Z 14
_cell_length_a 21.971250
_cell_length_b 8.491866
_cell_length_c 19.065745
_cell_angle_alpha 142.849297
_cell_angle_beta 18.471539
_cell_angle_gamma 139.470489
_cell_volume 680.485134
_symmetry_space_group_name_H-M "P -1"
_symmetry_group_IT_number 2
_symmetry_cell_setting 'triclinic'
loop_
_space_group_symop_operation_xyz
x,y,z
-x,-y,-z
loop_
_atom_site_type_symbol
_atom_site_label
_atom_site_fract_x
_atom_site_fract_y
_atom_site_fract_z
Si Si1 0.085919 0.424375 0.178598
Si Si2 0.316448 0.539200 0.167947
Si Si3 0.018477 0.151459 0.303043
Si Si4 0.265169 0.599131 0.547878
Si Si5 0.584801 0.280626 0.023531
Si Si6 0.019731 0.545613 0.076559
Si Si7 0.203522 0.147223 0.824718
O O1 0.037290 0.252075 0.238621
O O2 0.891208 0.481364 0.369730
O O3 0.197683 0.697267 0.174345
O O4 0.237140 0.273198 0.909373
O O5 0.196988 0.790546 0.413031
O O6 0.170540 0.290173 0.239067
O O7 0.500000 0.500000 0.000000
O O8 0.408779 0.562820 0.999513
O O9 0.062264 0.848170 0.152365
O O10 0.445530 0.419310 0.279097
O O11 0.177060 0.542559 0.700980
O O12 0.340786 0.905564 0.569446
O O13 0.500000 0.000000 0.000000
O O14 0.195485 0.372463 0.853528
O O15 0.000000 0.500000 0.000000
O O16 0.000000 0.000000 0.000000
#
# Coordination Sequence:
#
# PCOD8039141 Si02
#       7
#     2   2   2   2   2   2   2
#     4   9  19  36  56  77 108 140 173 217 262 316
#     4  10  22  36  54  78 109 142 177 219 262 312
#     4  10  19  35  56  79 106 142 176 215 268 307
#     4  10  20  36  57  78 108 142 172 217 268 310
#     4  11  23  36  54  81 106 140 184 216 256 315
#     4  10  18  32  58  83 106 136 176 220 263 317
#     4   8  17  33  54  79 103 137 173 210 265 315
#
# _framework density 20.573554999999999
#
# number of rings (size 3 to 8) (size 9 to 14) (size 15 to 20)
#    0.000    2.571    0.000    4.286    0.000    3.429 
#    0.000    0.000    0.000    7.714    0.000    0.000 
#    0.000    0.000    0.000    0.000    0.000    0.000 
#
# Total GULP energy -173441.776313 kJ/mol
# GULP energy per Si atom -12388.698308 kJ/mol
# Density = 2.052673 g / cm^3
# Si number density = 20.573555 Si / 1000 Ang^3
#
#
#
# Elastic Constant Matrix: (Units=GPa)
#
#
# Indices 1 2 3 4 5 6 
#
# 1 94.3076 14.7014 27.2561 -11.6805 12.9401 4.2615
# 2 14.7014 115.7380 27.8992 11.4866 -0.1178 1.1896
# 3 27.2561 27.8992 81.3860 6.8526 7.7699 -5.5643
# 4 -11.6805 11.4866 6.8526 27.1401 5.5913 0.5473
# 5 12.9401 -0.1178 7.7699 5.5913 30.6326 -5.8789
# 6 4.2615 1.1896 -5.5643 0.5473 -5.8789 30.8866
#
#
#
# Elastic Compliance Matrix: (Units=1/GPa)
#
#
# Indices 1 2 3 4 5 6 
#
# 1 0.014726 -0.001668 -0.004767 0.009921 -0.007686 -0.004465
# 2 -0.001668 0.009972 -0.002687 -0.004724 0.002263 -0.000124
# 3 -0.004767 -0.002687 0.015489 -0.004823 -0.000360 0.003568
# 4 0.009921 -0.004724 -0.004823 0.047032 -0.012584 -0.005284
# 5 -0.007686 0.002263 -0.000360 -0.012584 0.039966 0.008738
# 6 -0.004465 -0.000124 0.003568 -0.005284 0.008738 0.035397
#
#
# Mechanical properties :
#
#
# Convention : Reuss Voigt Hill
#
# Bulk Modulus (GPa) = 45.56954 47.90498 46.73726
# Shear Modulus (GPa) = 26.57596 32.50352 29.53974
#
# Velocity S-wave (km/s) = 3.59800 3.97907 3.79332
# Velocity P-wave (km/s) = 6.28159 6.66678 6.47705
#
# Compressibility (1/GPa) = 0.02194448
#
# Stress axis : x y z
#
# Youngs Moduli (GPa) = 67.90507 100.27990 64.56209
#
# Poissons Ratio (x) = 0.16727 0.30776
# Poissons Ratio (y) = 0.11327 0.17345
# Poissons Ratio (z) = 0.32370 0.26941
#
# Static dielectric constant tensor:
#      x y z
#    x 4.058410 0.418070 0.363620 
#    y 0.418070 4.476060 0.603210 
#    z 0.363620 0.603210 3.849160 
# 
# 
# High freq. dielectric constant tensor:
#      x y z
#    x 1.807020 0.012340 0.016070 
#    y 0.012340 1.804710 0.007690 
#    z 0.016070 0.007690 1.789120 
# 
# From -- ./inp_files/577611.got.cif
#   From: 2010.06.25/outbox.cif.g09.slc.cpg/sg2_289_cif.got.tgz:577611.got - 2010.06.27 13:26:56.
