data_PCOD8039087
_publ_section_title
;
Structure prediction by ZEFSAII (Michael W. Deem and Ramdas Pophale) SiO2 
 PCOD8039087
Probable space group: P -1
;
_chemical_formula_sum "Si O2"
_cell_formula_units_Z 10
_cell_length_a 9.860465
_cell_length_b 13.850454
_cell_length_c 9.684975
_cell_angle_alpha 149.188118
_cell_angle_beta 45.374765
_cell_angle_gamma 128.937336
_cell_volume 481.047730
_symmetry_space_group_name_H-M "P -1"
_symmetry_group_IT_number 2
_symmetry_cell_setting 'triclinic'
loop_
_space_group_symop_operation_xyz
x,y,z
-x,-y,-z
loop_
_atom_site_type_symbol
_atom_site_label
_atom_site_fract_x
_atom_site_fract_y
_atom_site_fract_z
Si Si1 0.188864 0.729479 0.734067
Si Si2 0.154886 0.302801 0.247327
Si Si3 0.823914 0.259159 0.921497
Si Si4 0.836790 0.686502 0.442095
Si Si5 0.570803 0.916319 0.067547
O O1 0.230024 0.514004 0.405423
O O2 0.000002 0.788126 0.860172
O O3 0.149473 0.768116 0.969162
O O4 0.369849 0.861233 0.712892
O O5 0.059082 0.317419 0.486643
O O6 0.334847 0.171594 0.970025
O O7 0.020501 0.214024 0.650054
O O8 0.771901 0.472160 0.181216
O O9 0.656630 0.115333 0.804856
O O10 0.650293 0.808044 0.741181
#
# Coordination Sequence:
#
# PCOD8039087 Si02
#       5
#     2   2   2   2   2
#     4  10  18  32  56  77 100 134 170 209 249 297
#     4   8  19  35  53  73 105 136 163 207 258 295
#     4  10  18  34  54  77 102 132 170 211 246 297
#     4   8  19  33  54  73 105 134 164 207 257 293
#     4  10  19  33  58  73 100 138 170 200 256 301
#
# _framework density 20.787956999999999
#
# number of rings (size 3 to 8) (size 9 to 14) (size 15 to 20)
#    1.200    1.600    0.000    1.800    0.000    0.800 
#    0.000    1.000    4.400    4.800    0.000    0.000 
#    0.000    0.000    0.000    0.000    0.000    0.000 
#
# Total GULP energy -123929.073832 kJ/mol
# GULP energy per Si atom -12392.907383 kJ/mol
# Density = 2.074064 g / cm^3
# Si number density = 20.787957 Si / 1000 Ang^3
#
#
#
# Elastic Constant Matrix: (Units=GPa)
#
#
# Indices 1 2 3 4 5 6 
#
# 1 92.7525 48.1693 -9.0777 -4.4712 19.7716 6.3082
# 2 48.1693 123.2079 14.7807 9.6727 9.2506 19.1119
# 3 -9.0777 14.7807 16.8446 4.6066 -2.1998 5.6800
# 4 -4.4712 9.6727 4.6066 18.2973 8.1404 0.8505
# 5 19.7716 9.2506 -2.1998 8.1404 13.6418 3.7140
# 6 6.3082 19.1119 5.6800 0.8505 3.7140 30.9776
#
#
#
# Elastic Compliance Matrix: (Units=1/GPa)
#
#
# Indices 1 2 3 4 5 6 
#
# 1 0.035026 -0.014079 0.007930 0.043975 -0.068101 0.007057
# 2 -0.014079 0.015974 -0.012012 -0.017368 0.019820 -0.006685
# 3 0.007930 -0.012012 0.090674 -0.028034 0.031778 -0.013870
# 4 0.043975 -0.017368 -0.028034 0.147473 -0.150157 0.020855
# 5 -0.068101 0.019820 0.031778 -0.150157 0.261857 -0.031460
# 6 0.007057 -0.006685 -0.013870 0.020855 -0.031460 0.040711
#
#
# Mechanical properties :
#
#
# Convention : Reuss Voigt Hill
#
# Bulk Modulus (GPa) = 9.49193 37.83884 23.66539
# Shear Modulus (GPa) = 7.53974 24.51221 16.02597
#
# Velocity S-wave (km/s) = 1.90653 3.43761 2.77957
# Velocity P-wave (km/s) = 3.06960 5.83078 4.65942
#
# Compressibility (1/GPa) = 0.10535262
#
# Stress axis : x y z
#
# Youngs Moduli (GPa) = 28.55048 62.60169 11.02857
#
# Poissons Ratio (x) = 0.88136 -0.08746
# Poissons Ratio (y) = 0.40196 0.13247
# Poissons Ratio (z) = -0.22641 0.75194
#
# Static dielectric constant tensor:
#      x y z
#    x 3.548380 -0.102780 0.112570 
#    y -0.102780 3.760480 0.246080 
#    z 0.112570 0.246080 3.306700 
# 
# 
# High freq. dielectric constant tensor:
#      x y z
#    x 1.801270 -0.005570 0.006460 
#    y -0.005570 1.816660 0.029050 
#    z 0.006460 0.029050 1.770590 
# 
# From -- ./inp_files/28908.got.cif
#   From: 2010.06.25/outbox.cif.g09.slc.cpg/sg2_15_cif.got.tgz:28908.got - 2010.06.27 13:26:56.
