data_PCOD8039529
_publ_section_title
;
Structure prediction by ZEFSAII (Michael W. Deem and Ramdas Pophale) SiO2 
 PCOD8039529
Probable space group: P -1
;
_chemical_formula_sum "Si O2"
_cell_formula_units_Z 14
_cell_length_a 9.197768
_cell_length_b 26.708410
_cell_length_c 8.539328
_cell_angle_alpha 29.075675
_cell_angle_beta 135.906770
_cell_angle_gamma 150.327136
_cell_volume 497.225606
_symmetry_space_group_name_H-M "P -1"
_symmetry_group_IT_number 2
_symmetry_cell_setting 'triclinic'
loop_
_space_group_symop_operation_xyz
x,y,z
-x,-y,-z
loop_
_atom_site_type_symbol
_atom_site_label
_atom_site_fract_x
_atom_site_fract_y
_atom_site_fract_z
Si Si1 0.816106 0.516181 0.033650
Si Si2 0.913517 0.881799 0.950996
Si Si3 0.832078 0.207138 0.283177
Si Si4 0.455422 0.861927 0.232764
Si Si5 0.486492 0.252925 0.704254
Si Si6 0.803637 0.075632 0.334503
Si Si7 0.385242 0.646747 0.974594
O O1 0.632745 0.411561 0.327845
O O2 0.618503 0.441171 0.925555
O O3 0.920633 0.670336 0.732053
O O4 0.098607 0.537599 0.164784
O O5 0.694029 0.743624 0.042008
O O6 0.929660 0.009550 0.566297
O O7 0.810754 0.830493 0.192950
O O8 0.256788 0.966201 0.962119
O O9 0.972343 0.179823 0.334950
O O10 0.553561 0.051386 0.569365
O O11 0.717009 0.273648 0.937426
O O12 0.588318 0.841025 0.248705
O O13 0.350101 0.750181 0.594757
O O14 0.174056 0.832936 0.038799
#
# Coordination Sequence:
#
# PCOD8039529 Si02
#       7
#     2   2   2   2   2   2   2
#     4  10  18  34  55  84 115 145 196 226 265 347
#     4  11  20  37  59  87 113 142 188 236 279 329
#     4   9  16  31  54  83 110 139 185 237 270 325
#     4  10  21  36  56  85 117 145 184 231 281 334
#     4   9  18  31  56  85 105 146 190 227 276 323
#     4   9  19  34  56  87 110 143 187 229 288 321
#     4  10  21  33  54  86 112 154 187 221 281 336
#
# _framework density 28.156234000000001
#
# number of rings (size 3 to 8) (size 9 to 14) (size 15 to 20)
#    0.000    2.286    2.857    2.143    0.000    0.571 
#    0.000    0.000    0.000    8.571    0.000    0.000 
#    0.000    0.000    0.000    0.000    0.000    0.000 
#
# Total GULP energy -173556.122568 kJ/mol
# GULP energy per Si atom -12396.865898 kJ/mol
# Density = 2.809215 g / cm^3
# Si number density = 28.156234 Si / 1000 Ang^3
#
#
#
# Elastic Constant Matrix: (Units=GPa)
#
#
# Indices 1 2 3 4 5 6 
#
# 1 61.5944 7.5963 3.1091 -6.2593 -7.6137 -10.3303
# 2 7.5963 116.7870 0.7695 -18.2384 2.0420 -31.6672
# 3 3.1091 0.7695 58.1410 -4.9472 -18.4475 -6.9614
# 4 -6.2593 -18.2384 -4.9472 38.5707 -7.3205 7.5497
# 5 -7.6137 2.0420 -18.4475 -7.3205 25.1671 -13.5581
# 6 -10.3303 -31.6672 -6.9614 7.5497 -13.5581 50.7785
#
#
#
# Elastic Compliance Matrix: (Units=1/GPa)
#
#
# Indices 1 2 3 4 5 6 
#
# 1 0.020234 0.002087 0.006350 0.006512 0.017949 0.010113
# 2 0.002087 0.012142 0.005093 0.006752 0.011081 0.010650
# 3 0.006350 0.005093 0.031537 0.011184 0.037047 0.017020
# 4 0.006512 0.006752 0.011184 0.034560 0.024192 0.008390
# 5 0.017949 0.011081 0.037047 0.024192 0.099217 0.038535
# 6 0.010113 0.010650 0.017020 0.008390 0.038535 0.039767
#
#
# Mechanical properties :
#
#
# Convention : Reuss Voigt Hill
#
# Bulk Modulus (GPa) = 10.99214 28.83022 19.91118
# Shear Modulus (GPa) = 20.77109 37.90643 29.33876
#
# Velocity S-wave (km/s) = 2.71903 3.67316 3.23150
# Velocity P-wave (km/s) = 3.71078 5.31518 4.58372
#
# Compressibility (1/GPa) = 0.09097408
#
# Stress axis : x y z
#
# Youngs Moduli (GPa) = 49.42201 82.36148 31.70922
#
# Poissons Ratio (x) = -0.17193 -0.20137
# Poissons Ratio (y) = -0.10317 -0.16150
# Poissons Ratio (z) = -0.31385 -0.41947
#
# Static dielectric constant tensor:
#      x y z
#    x 4.761520 -0.457560 -0.259270 
#    y -0.457560 5.294020 -0.009830 
#    z -0.259270 -0.009830 5.027870 
# 
# 
# High freq. dielectric constant tensor:
#      x y z
#    x 2.132020 -0.024820 -0.014440 
#    y -0.024820 2.145670 0.000040 
#    z -0.014440 0.000040 2.120750 
# 
# From -- ./inp_files/154817.got.cif
#   From: 2010.06.25/outbox.cif.g09.slc.cpg/sg2_78_cif.got.tgz:154817.got - 2010.06.27 13:26:56.
