data_PCOD8039427
_publ_section_title
;
Structure prediction by ZEFSAII (Michael W. Deem and Ramdas Pophale) SiO2 
 PCOD8039427
Probable space group: P -1
;
_chemical_formula_sum "Si O2"
_cell_formula_units_Z 16
_cell_length_a 12.033911
_cell_length_b 14.135050
_cell_length_c 12.265856
_cell_angle_alpha 136.330347
_cell_angle_beta 127.285646
_cell_angle_gamma 86.967941
_cell_volume 817.085594
_symmetry_space_group_name_H-M "P -1"
_symmetry_group_IT_number 2
_symmetry_cell_setting 'triclinic'
loop_
_space_group_symop_operation_xyz
x,y,z
-x,-y,-z
loop_
_atom_site_type_symbol
_atom_site_label
_atom_site_fract_x
_atom_site_fract_y
_atom_site_fract_z
Si Si1 0.157389 0.653336 0.366039
Si Si2 0.087946 0.828092 0.651828
Si Si3 0.637718 0.927802 0.572690
Si Si4 0.237161 0.771310 0.268421
Si Si5 0.503225 0.838328 0.859844
Si Si6 0.678944 0.646909 0.309471
Si Si7 0.283441 0.579295 0.706466
Si Si8 0.135166 0.738274 0.842424
O O1 0.096144 0.733025 0.475273
O O2 0.230937 0.772768 0.396544
O O3 0.339595 0.686986 0.546541
O O4 0.973757 0.426271 0.059763
O O5 0.103850 0.755363 0.712076
O O6 0.887092 0.774307 0.478200
O O7 0.277410 0.059669 0.956414
O O8 0.405649 0.787138 0.335213
O O9 0.677228 0.794665 0.484824
O O10 0.715627 0.047635 0.605524
O O11 0.752069 0.071867 0.862873
O O12 0.461930 0.742968 0.872201
O O13 0.500000 0.000000 0.000000
O O14 0.659776 0.524650 0.292636
O O15 0.500000 0.500000 0.000000
O O16 0.253293 0.675418 0.862604
O O17 0.088224 0.434552 0.392936
#
# Coordination Sequence:
#
# PCOD8039427 Si02
#       8
#     2   2   2   2   2   2   2   2
#     4  10  19  38  59  94 120 154 203 258 300 354
#     4  10  21  37  64  91 120 156 207 253 300 364
#     4  11  24  39  60  91 123 164 205 255 295 363
#     4  10  23  36  62  87 125 163 205 246 301 362
#     4  10  18  33  60  93 114 146 208 260 292 344
#     4  11  26  42  58  86 133 166 200 243 316 367
#     4  10  21  36  63  93 117 160 201 255 301 357
#     4  10  20  37  65  93 116 155 213 255 298 344
#
# _framework density 19.581790999999999
#
# number of rings (size 3 to 8) (size 9 to 14) (size 15 to 20)
#    0.000    1.750    2.500    2.250    8.750    2.000 
#    0.000    5.000    0.000    3.000    0.000    0.000 
#    0.000    0.000    0.000    0.000    0.000    0.000 
#
# Total GULP energy -198326.198425 kJ/mol
# GULP energy per Si atom -12395.387402 kJ/mol
# Density = 1.953722 g / cm^3
# Si number density = 19.581791 Si / 1000 Ang^3
#
#
#
# Elastic Constant Matrix: (Units=GPa)
#
#
# Indices 1 2 3 4 5 6 
#
# 1 97.9022 63.1683 54.9542 7.8224 13.9820 -2.0568
# 2 63.1683 116.0034 45.7843 10.5412 0.9868 -3.0520
# 3 54.9542 45.7843 121.2996 0.7254 13.5275 -2.8790
# 4 7.8224 10.5412 0.7254 28.2131 0.9932 0.3914
# 5 13.9820 0.9868 13.5275 0.9932 44.0990 6.5753
# 6 -2.0568 -3.0520 -2.8790 0.3914 6.5753 35.8034
#
#
#
# Elastic Compliance Matrix: (Units=1/GPa)
#
#
# Indices 1 2 3 4 5 6 
#
# 1 0.019142 -0.008189 -0.005058 -0.001974 -0.004413 0.000827
# 2 -0.008189 0.014089 -0.001914 -0.003048 0.002926 0.000073
# 3 -0.005058 -0.001914 0.011494 0.001883 -0.002045 0.000825
# 4 -0.001974 -0.003048 0.001883 0.037112 -0.000643 -0.000509
# 5 -0.004413 0.002926 -0.002045 -0.000643 0.025371 -0.004821
# 6 0.000827 0.000073 0.000825 -0.000509 -0.004821 0.028941
#
#
# Mechanical properties :
#
#
# Convention : Reuss Voigt Hill
#
# Bulk Modulus (GPa) = 69.42615 73.66875 71.54745
# Shear Modulus (GPa) = 29.19308 33.04298 31.11803
#
# Velocity S-wave (km/s) = 3.86531 4.11230 3.99072
# Velocity P-wave (km/s) = 7.44663 7.76213 7.60602
#
# Compressibility (1/GPa) = 0.01440379
#
# Stress axis : x y z
#
# Youngs Moduli (GPa) = 52.24037 70.97647 86.99842
#
# Poissons Ratio (x) = 0.58121 0.44002
# Poissons Ratio (y) = 0.42779 0.16655
# Poissons Ratio (z) = 0.26422 0.13588
#
# Static dielectric constant tensor:
#      x y z
#    x 3.660810 0.200800 0.496130 
#    y 0.200800 3.540470 -0.003150 
#    z 0.496130 -0.003150 4.018360 
# 
# 
# High freq. dielectric constant tensor:
#      x y z
#    x 1.744480 0.022720 0.024570 
#    y 0.022720 1.756640 -0.001520 
#    z 0.024570 -0.001520 1.779550 
# 
# From -- ./inp_files/434333.got.cif
#   From: 2010.06.25/outbox.cif.g09.slc.cpg/sg2_218_cif.got.tgz:434333.got - 2010.06.27 13:26:56.
