data_PCOD8039336
_publ_section_title
;
Structure prediction by ZEFSAII (Michael W. Deem and Ramdas Pophale) SiO2 
 PCOD8039336
Probable space group: P -1
;
_chemical_formula_sum "Si O2"
_cell_formula_units_Z 16
_cell_length_a 14.360375
_cell_length_b 12.639998
_cell_length_c 11.922142
_cell_angle_alpha 144.088194
_cell_angle_beta 41.910989
_cell_angle_gamma 118.104751
_cell_volume 798.566378
_symmetry_space_group_name_H-M "P -1"
_symmetry_group_IT_number 2
_symmetry_cell_setting 'triclinic'
loop_
_space_group_symop_operation_xyz
x,y,z
-x,-y,-z
loop_
_atom_site_type_symbol
_atom_site_label
_atom_site_fract_x
_atom_site_fract_y
_atom_site_fract_z
Si Si1 0.748301 0.653487 0.062082
Si Si2 0.166069 0.959399 0.351950
Si Si3 0.847080 0.665313 0.406348
Si Si4 0.201558 0.396240 0.349803
Si Si5 0.936111 0.305394 0.439343
Si Si6 0.806531 0.446668 0.047831
Si Si7 0.522802 0.698928 0.125221
Si Si8 0.202596 0.983210 0.602334
O O1 0.707933 0.590358 0.166134
O O2 0.595981 0.753987 0.218005
O O3 0.833746 0.805606 0.132391
O O4 0.850094 0.466728 0.745284
O O5 0.228070 0.106296 0.354834
O O6 0.173112 0.999794 0.511349
O O7 0.250050 0.736749 0.054571
O O8 0.000000 0.000000 0.500000
O O9 0.799821 0.611258 0.522185
O O10 0.783274 0.546898 0.275031
O O11 0.023290 0.608478 0.191325
O O12 0.122154 0.614244 0.563093
O O13 0.111027 0.267483 0.264925
O O14 0.370680 0.316200 0.089852
O O15 0.907853 0.108116 0.317149
O O16 0.370924 0.860221 0.371000
O O17 0.500000 0.500000 0.000000
#
# Coordination Sequence:
#
# PCOD8039336 Si02
#       8
#     2   2   2   2   2   2   2   2
#     4  11  20  36  64  91 119 154 210 246 294 359
#     4  10  19  32  58  88 116 153 200 244 289 352
#     4  10  19  33  55  86 119 153 191 245 303 347
#     4  10  20  38  62  86 126 157 196 251 313 347
#     4  10  20  38  61  89 122 154 195 264 300 348
#     4  10  18  33  57  87 117 153 196 246 293 352
#     4  11  22  41  64  85 120 170 199 246 303 365
#     4  12  21  38  64  92 119 162 207 242 300 365
#
# _framework density 20.035906000000001
#
# number of rings (size 3 to 8) (size 9 to 14) (size 15 to 20)
#    0.000    1.500    6.250    1.125    0.000    0.000 
#    0.000    8.750    0.000    1.500    0.000    0.000 
#    0.000    0.000    0.000    0.000    0.000    0.000 
#
# Total GULP energy -198352.129178 kJ/mol
# GULP energy per Si atom -12397.008074 kJ/mol
# Density = 1.999030 g / cm^3
# Si number density = 20.035906 Si / 1000 Ang^3
#
#
#
# Elastic Constant Matrix: (Units=GPa)
#
#
# Indices 1 2 3 4 5 6 
#
# 1 105.2487 54.0912 17.0900 2.5819 22.6839 -18.3153
# 2 54.0912 144.9406 39.2609 10.3531 29.0534 -14.9331
# 3 17.0900 39.2609 36.5942 3.3509 8.8969 1.0874
# 4 2.5819 10.3531 3.3509 34.1375 7.8855 7.5967
# 5 22.6839 29.0534 8.8969 7.8855 33.2041 -2.4725
# 6 -18.3153 -14.9331 1.0874 7.5967 -2.4725 43.8073
#
#
#
# Elastic Compliance Matrix: (Units=1/GPa)
#
#
# Indices 1 2 3 4 5 6 
#
# 1 0.013259 -0.002875 -0.001854 0.000467 -0.005843 0.004198
# 2 -0.002875 0.012389 -0.010571 -0.002016 -0.005317 0.003333
# 3 -0.001854 -0.010571 0.039807 0.000852 -0.000767 -0.005558
# 4 0.000467 -0.002016 0.000852 0.032896 -0.007089 -0.006618
# 5 -0.005843 -0.005317 -0.000767 -0.007089 0.040596 -0.000716
# 6 0.004198 0.003333 -0.005558 -0.006618 -0.000716 0.026964
#
#
# Mechanical properties :
#
#
# Convention : Reuss Voigt Hill
#
# Bulk Modulus (GPa) = 28.69064 56.40753 42.54908
# Shear Modulus (GPa) = 24.02363 33.98589 29.00476
#
# Velocity S-wave (km/s) = 3.46646 4.12302 3.80891
# Velocity P-wave (km/s) = 5.51112 7.13303 6.37387
#
# Compressibility (1/GPa) = 0.03485458
#
# Stress axis : x y z
#
# Youngs Moduli (GPa) = 75.42245 80.71755 25.12121
#
# Poissons Ratio (x) = 0.23209 0.04657
# Poissons Ratio (y) = 0.21687 0.26555
# Poissons Ratio (z) = 0.13982 0.85324
#
# Static dielectric constant tensor:
#      x y z
#    x 3.881150 -0.124730 0.033970 
#    y -0.124730 4.053390 0.360580 
#    z 0.033970 0.360580 3.383700 
# 
# 
# High freq. dielectric constant tensor:
#      x y z
#    x 1.795030 -0.011470 0.012100 
#    y -0.011470 1.791080 0.019820 
#    z 0.012100 0.019820 1.734750 
# 
# From -- ./inp_files/223021.got.cif
#   From: 2010.06.25/outbox.cif.g09.slc.cpg/sg2_112_cif.got.tgz:223021.got - 2010.06.27 13:26:56.
