data_PCOD8039349
_publ_section_title
;
Structure prediction by ZEFSAII (Michael W. Deem and Ramdas Pophale) SiO2 
 PCOD8039349
Probable space group: P -1
;
_chemical_formula_sum "Si O2"
_cell_formula_units_Z 16
_cell_length_a 23.250750
_cell_length_b 14.223197
_cell_length_c 9.164665
_cell_angle_alpha 114.990775
_cell_angle_beta 114.078166
_cell_angle_gamma 19.227551
_cell_volume 904.226578
_symmetry_space_group_name_H-M "P -1"
_symmetry_group_IT_number 2
_symmetry_cell_setting 'triclinic'
loop_
_space_group_symop_operation_xyz
x,y,z
-x,-y,-z
loop_
_atom_site_type_symbol
_atom_site_label
_atom_site_fract_x
_atom_site_fract_y
_atom_site_fract_z
Si Si1 0.815267 0.821997 0.572691
Si Si2 0.833664 0.177628 0.721500
Si Si3 0.061209 0.765146 0.149847
Si Si4 0.006186 0.254927 0.213254
Si Si5 0.219732 0.735298 0.596448
Si Si6 0.706845 0.771849 0.458706
Si Si7 0.695325 0.625073 0.587578
Si Si8 0.503641 0.612964 0.537597
O O1 0.725954 0.862659 0.592599
O O2 0.000000 0.500000 0.500000
O O3 0.849211 0.874916 0.735236
O O4 0.691341 0.041481 0.449606
O O5 0.886758 0.207672 0.861809
O O6 0.900703 0.074482 0.552378
O O7 0.620828 0.493619 0.702108
O O8 0.914810 0.961686 0.757024
O O9 0.214330 0.498222 0.243742
O O10 0.039847 0.707572 0.973051
O O11 0.877276 0.061025 0.237089
O O12 0.830787 0.563626 0.311438
O O13 0.262332 0.550555 0.556882
O O14 0.400424 0.519604 0.608157
O O15 0.764824 0.608522 0.542956
O O16 0.511489 0.046915 0.385593
O O17 0.500000 0.500000 0.500000
#
# Coordination Sequence:
#
# PCOD8039349 Si02
#       8
#     2   2   2   2   2   2   2   2
#     4  10  19  35  54  78 105 140 181 223 253 316
#     4   9  18  32  57  76 106 136 179 222 253 322
#     4  11  20  33  51  83 111 136 167 222 285 309
#     4  11  21  32  53  80 111 139 172 219 273 323
#     4   9  18  32  56  77 103 132 177 221 257 315
#     4  10  20  35  56  77  99 144 190 217 255 310
#     4  10  19  34  57  76 104 138 182 223 256 315
#     4  10  18  33  58  80 102 134 188 220 257 303
#
# _framework density 17.694680000000002
#
# number of rings (size 3 to 8) (size 9 to 14) (size 15 to 20)
#    0.750    1.250    2.500    3.375    0.000    0.500 
#    0.000    1.250    0.000    0.000    0.000    0.000 
#    0.000    0.000    0.000    0.000    0.000    0.000 
#
# Total GULP energy -198255.290077 kJ/mol
# GULP energy per Si atom -12390.955630 kJ/mol
# Density = 1.765441 g / cm^3
# Si number density = 17.694680 Si / 1000 Ang^3
#
#
#
# Elastic Constant Matrix: (Units=GPa)
#
#
# Indices 1 2 3 4 5 6 
#
# 1 139.0856 33.4657 40.6765 -4.5254 12.5342 17.2739
# 2 33.4657 98.3947 26.4801 -7.6101 -1.7144 6.6064
# 3 40.6765 26.4801 85.2985 -3.6673 10.6234 3.0887
# 4 -4.5254 -7.6101 -3.6673 13.2477 -1.1249 -0.2316
# 5 12.5342 -1.7144 10.6234 -1.1249 19.3667 -3.6835
# 6 17.2739 6.6064 3.0887 -0.2316 -3.6835 27.7037
#
#
#
# Elastic Compliance Matrix: (Units=1/GPa)
#
#
# Indices 1 2 3 4 5 6 
#
# 1 0.009945 -0.002204 -0.003049 0.000662 -0.006088 -0.006139
# 2 -0.002204 0.012300 -0.003045 0.005834 0.004414 -0.000583
# 3 -0.003049 -0.003045 0.014954 0.000805 -0.006431 0.000112
# 4 0.000662 0.005834 0.000805 0.079625 0.004142 -0.000678
# 5 -0.006088 0.004414 -0.006431 0.004142 0.061966 0.011734
# 6 -0.006139 -0.000583 0.000112 -0.000678 0.011734 0.041605
#
#
# Mechanical properties :
#
#
# Convention : Reuss Voigt Hill
#
# Bulk Modulus (GPa) = 48.53870 58.22480 53.38175
# Shear Modulus (GPa) = 20.50364 26.87405 23.68885
#
# Velocity S-wave (km/s) = 3.40773 3.90136 3.66287
# Velocity P-wave (km/s) = 6.55548 7.29869 6.93704
#
# Compressibility (1/GPa) = 0.02060212
#
# Stress axis : x y z
#
# Youngs Moduli (GPa) = 100.55769 81.30319 66.87053
#
# Poissons Ratio (x) = 0.17923 0.20388
# Poissons Ratio (y) = 0.22167 0.20361
# Poissons Ratio (z) = 0.30659 0.24755
#
# Static dielectric constant tensor:
#      x y z
#    x 3.724180 -0.040770 0.251410 
#    y -0.040770 3.403210 -0.136970 
#    z 0.251410 -0.136970 2.890940 
# 
# 
# High freq. dielectric constant tensor:
#      x y z
#    x 1.703760 0.002210 0.014580 
#    y 0.002210 1.696940 -0.013020 
#    z 0.014580 -0.013020 1.627420 
# 
# From -- ./inp_files/354402.got.cif
#   From: 2010.06.25/outbox.cif.g09.slc.cpg/sg2_178_cif.got.tgz:354402.got - 2010.06.27 13:26:56.
