data_PCOD8039587
_publ_section_title
;
Structure prediction by ZEFSAII (Michael W. Deem and Ramdas Pophale) SiO2 
 PCOD8039587
Probable space group: P -1
;
_chemical_formula_sum "Si O2"
_cell_formula_units_Z 16
_cell_length_a 26.020014
_cell_length_b 20.815875
_cell_length_c 14.814326
_cell_angle_alpha 20.506721
_cell_angle_beta 158.585165
_cell_angle_gamma 160.265784
_cell_volume 862.612654
_symmetry_space_group_name_H-M "P -1"
_symmetry_group_IT_number 2
_symmetry_cell_setting 'triclinic'
loop_
_space_group_symop_operation_xyz
x,y,z
-x,-y,-z
loop_
_atom_site_type_symbol
_atom_site_label
_atom_site_fract_x
_atom_site_fract_y
_atom_site_fract_z
Si Si1 0.099383 0.666586 0.318600
Si Si2 0.797698 0.036508 0.174945
Si Si3 0.547988 0.166083 0.606492
Si Si4 0.081350 0.022082 0.731270
Si Si5 0.486394 0.562706 0.293946
Si Si6 0.243120 0.695507 0.708837
Si Si7 0.573470 0.532476 0.289926
Si Si8 0.584603 0.238627 0.366546
O O1 0.199674 0.723857 0.500165
O O2 0.215754 0.657149 0.444749
O O3 0.926875 0.429533 0.345684
O O4 0.072575 0.866596 0.000796
O O5 0.912307 0.027061 0.453031
O O6 0.908644 0.097140 0.185804
O O7 0.627387 0.809891 0.178572
O O8 0.729011 0.191594 0.881068
O O9 0.544575 0.330387 0.452674
O O10 0.527960 0.226693 0.392391
O O11 0.385176 0.927219 0.678898
O O12 0.234273 0.270320 0.663838
O O13 0.500000 0.500000 0.500000
O O14 0.516955 0.441477 0.420751
O O15 0.307483 0.531517 0.030236
O O16 0.458194 0.614115 0.956029
O O17 0.500000 0.000000 0.500000
#
# Coordination Sequence:
#
# PCOD8039587 Si02
#       8
#     2   2   2   2   2   2   2   2
#     4  11  19  33  62  84 108 140 198 239 268 317
#     4   9  19  33  56  81 107 145 193 232 266 333
#     4  11  21  37  56  85 122 148 178 228 295 338
#     4  10  18  34  57  84 106 143 194 235 273 318
#     4  10  19  37  58  79 107 152 196 229 273 333
#     4  10  21  35  57  84 112 147 187 235 276 332
#     4  11  22  34  58  87 115 147 184 234 285 341
#     4  12  18  37  61  85 109 149 194 231 273 332
#
# _framework density 18.548302
#
# number of rings (size 3 to 8) (size 9 to 14) (size 15 to 20)
#    0.000    1.500    5.000    1.875    0.000    0.500 
#    0.000    3.125    5.500    0.000    0.000    0.000 
#    0.000    0.000    0.000    0.000    0.000    0.000 
#
# Total GULP energy -198289.937439 kJ/mol
# GULP energy per Si atom -12393.121090 kJ/mol
# Density = 1.850609 g / cm^3
# Si number density = 18.548302 Si / 1000 Ang^3
#
#
#
# Elastic Constant Matrix: (Units=GPa)
#
#
# Indices 1 2 3 4 5 6 
#
# 1 110.8084 40.3130 45.6613 -9.2532 -0.1631 -10.2665
# 2 40.3130 82.5319 40.2010 5.1742 17.1840 1.2976
# 3 45.6613 40.2010 126.9374 13.6541 -1.5376 -8.9033
# 4 -9.2532 5.1742 13.6541 29.7157 -1.2510 6.6188
# 5 -0.1631 17.1840 -1.5376 -1.2510 30.7760 -0.3985
# 6 -10.2665 1.2976 -8.9033 6.6188 -0.3985 28.9860
#
#
#
# Elastic Compliance Matrix: (Units=1/GPa)
#
#
# Indices 1 2 3 4 5 6 
#
# 1 0.013399 -0.006105 -0.003343 0.006346 0.003604 0.002593
# 2 -0.006105 0.019743 -0.004127 -0.003085 -0.011436 -0.003767
# 3 -0.003343 -0.004127 0.011379 -0.006325 0.002650 0.003977
# 4 0.006346 -0.003085 -0.006325 0.041185 0.002999 -0.008920
# 5 0.003604 -0.011436 0.002650 0.002999 0.039184 0.002456
# 6 0.002593 -0.003767 0.003977 -0.008920 0.002456 0.038878
#
#
# Mechanical properties :
#
#
# Convention : Reuss Voigt Hill
#
# Bulk Modulus (GPa) = 57.57408 63.62537 60.59972
# Shear Modulus (GPa) = 25.41826 30.83571 28.12698
#
# Velocity S-wave (km/s) = 3.70588 4.08174 3.89835
# Velocity P-wave (km/s) = 7.02986 7.52271 7.28046
#
# Compressibility (1/GPa) = 0.01736893
#
# Stress axis : x y z
#
# Youngs Moduli (GPa) = 74.63315 50.65129 87.88097
#
# Poissons Ratio (x) = 0.30924 0.29382
# Poissons Ratio (y) = 0.45566 0.36271
# Poissons Ratio (z) = 0.24952 0.20905
#
# Static dielectric constant tensor:
#      x y z
#    x 3.504900 0.276730 0.028850 
#    y 0.276730 3.307620 0.261000 
#    z 0.028850 0.261000 3.643280 
# 
# 
# High freq. dielectric constant tensor:
#      x y z
#    x 1.703920 0.021350 -0.007700 
#    y 0.021350 1.702040 0.021100 
#    z -0.007700 0.021100 1.729820 
# 
# From -- ./inp_files/190081.got.cif
#   From: 2010.06.25/outbox.cif.g09.slc.cpg/sg2_96_cif.got.tgz:190081.got - 2010.06.27 13:26:56.
