data_PCOD8039023
_publ_section_title
;
Structure prediction by ZEFSAII (Michael W. Deem and Ramdas Pophale) SiO2 
 PCOD8039023
Probable space group: P -1
;
_chemical_formula_sum "Si O2"
_cell_formula_units_Z 16
_cell_length_a 15.275922
_cell_length_b 11.415823
_cell_length_c 13.991452
_cell_angle_alpha 51.717941
_cell_angle_beta 29.505173
_cell_angle_gamma 41.540191
_cell_volume 793.075361
_symmetry_space_group_name_H-M "P -1"
_symmetry_group_IT_number 2
_symmetry_cell_setting 'triclinic'
loop_
_space_group_symop_operation_xyz
x,y,z
-x,-y,-z
loop_
_atom_site_type_symbol
_atom_site_label
_atom_site_fract_x
_atom_site_fract_y
_atom_site_fract_z
Si Si1 0.693996 0.808800 0.944734
Si Si2 0.803533 0.713616 0.689151
Si Si3 0.002525 0.918781 0.639941
Si Si4 0.565656 0.168773 0.265990
Si Si5 0.683889 0.018606 0.430270
Si Si6 0.724063 0.503860 0.722963
Si Si7 0.851271 0.146976 0.851000
Si Si8 0.404524 0.865720 0.348440
O O1 0.761920 0.675963 0.856940
O O2 0.903492 0.801241 0.781912
O O3 0.613511 0.751826 0.142209
O O4 0.500000 0.000000 0.000000
O O5 0.687679 0.654062 0.757733
O O6 0.049476 0.603044 0.488405
O O7 0.713437 0.921743 0.662112
O O8 0.863466 0.066722 0.776400
O O9 0.000000 0.000000 0.500000
O O10 0.245154 0.803664 0.503346
O O11 0.669816 0.121877 0.295362
O O12 0.442522 0.382181 0.260563
O O13 0.400269 0.109165 0.442815
O O14 0.751829 0.075398 0.057054
O O15 0.543886 0.165026 0.571679
O O16 0.924939 0.896785 0.298981
O O17 0.692331 0.360722 0.880081
#
# Coordination Sequence:
#
# PCOD8039023 Si02
#       8
#     2   2   2   2   2   2   2   2
#     4  10  19  30  52  79 108 133 181 227 266 312
#     4  10  18  32  53  79 114 143 171 221 280 314
#     4  11  18  29  50  79 106 137 171 224 275 305
#     4  11  22  33  56  78 106 153 184 212 271 325
#     4  10  20  38  53  77 111 143 185 228 260 315
#     4  11  19  34  53  81 118 144 168 220 275 333
#     4  11  22  36  54  82 115 141 180 223 272 322
#     4  10  18  34  52  75 107 136 177 225 267 306
#
# _framework density 20.174627000000001
#
# number of rings (size 3 to 8) (size 9 to 14) (size 15 to 20)
#    0.000    1.500    6.250    2.250    1.750    0.000 
#    0.000    0.000    0.000    0.750    0.000   20.125 
#    0.000    0.000    0.000    0.000    0.000    0.000 
#
# Total GULP energy -198297.028256 kJ/mol
# GULP energy per Si atom -12393.564266 kJ/mol
# Density = 2.012871 g / cm^3
# Si number density = 20.174627 Si / 1000 Ang^3
#
#
#
# Elastic Constant Matrix: (Units=GPa)
#
#
# Indices 1 2 3 4 5 6 
#
# 1 126.8611 35.0228 47.4188 1.7958 34.7834 -7.2569
# 2 35.0228 44.3065 21.0297 -1.8889 10.2600 -8.4095
# 3 47.4188 21.0297 106.8490 -6.8302 28.2373 0.5779
# 4 1.7958 -1.8889 -6.8302 13.9883 1.1142 8.0399
# 5 34.7834 10.2600 28.2373 1.1142 45.5592 -1.7717
# 6 -7.2569 -8.4095 0.5779 8.0399 -1.7717 24.8326
#
#
#
# Elastic Compliance Matrix: (Units=1/GPa)
#
#
# Indices 1 2 3 4 5 6 
#
# 1 0.012865 -0.007011 -0.003056 -0.005147 -0.006119 0.002686
# 2 -0.007011 0.031228 -0.003440 -0.001982 0.000863 0.009309
# 3 -0.003056 -0.003440 0.013655 0.010649 -0.005859 -0.006241
# 4 -0.005147 -0.001982 0.010649 0.097296 -0.005940 -0.034348
# 5 -0.006119 0.000863 -0.005859 -0.005940 0.030309 0.002726
# 6 0.002686 0.009309 -0.006241 -0.034348 0.002726 0.055668
#
#
# Mechanical properties :
#
#
# Convention : Reuss Voigt Hill
#
# Bulk Modulus (GPa) = 32.53782 53.88435 43.21109
# Shear Modulus (GPa) = 17.96766 28.51239 23.24003
#
# Velocity S-wave (km/s) = 2.98754 3.76344 3.39771
# Velocity P-wave (km/s) = 5.29751 6.75660 6.07105
#
# Compressibility (1/GPa) = 0.03073346
#
# Stress axis : x y z
#
# Youngs Moduli (GPa) = 77.73250 32.02303 73.23367
#
# Poissons Ratio (x) = 0.22453 0.22379
# Poissons Ratio (y) = 0.54501 0.25189
# Poissons Ratio (z) = 0.23754 0.11015
#
# Static dielectric constant tensor:
#      x y z
#    x 4.227250 0.083800 0.368210 
#    y 0.083800 3.150710 0.022900 
#    z 0.368210 0.022900 4.258610 
# 
# 
# High freq. dielectric constant tensor:
#      x y z
#    x 1.799650 0.006010 0.010820 
#    y 0.006010 1.714800 0.005590 
#    z 0.010820 0.005590 1.816110 
# 
# From -- ./inp_files/531706.got.cif
#   From: 2010.06.25/outbox.cif.g09.slc.cpg/sg2_266_cif.got.tgz:531706.got - 2010.06.27 13:26:56.
