data_PCOD8039568
_publ_section_title
;
Structure prediction by ZEFSAII (Michael W. Deem and Ramdas Pophale) SiO2 
 PCOD8039568
Probable space group: P -1
;
_chemical_formula_sum "Si O2"
_cell_formula_units_Z 14
_cell_length_a 10.387044
_cell_length_b 13.435493
_cell_length_c 20.063945
_cell_angle_alpha 24.925324
_cell_angle_beta 44.593611
_cell_angle_gamma 37.184390
_cell_volume 712.597963
_symmetry_space_group_name_H-M "P -1"
_symmetry_group_IT_number 2
_symmetry_cell_setting 'triclinic'
loop_
_space_group_symop_operation_xyz
x,y,z
-x,-y,-z
loop_
_atom_site_type_symbol
_atom_site_label
_atom_site_fract_x
_atom_site_fract_y
_atom_site_fract_z
Si Si1 0.061372 0.813024 0.763560
Si Si2 0.743251 0.213236 0.425286
Si Si3 0.736977 0.443161 0.649805
Si Si4 0.228721 0.098969 0.987366
Si Si5 0.039514 0.332591 0.487380
Si Si6 0.312555 0.203663 0.036254
Si Si7 0.981375 0.381664 0.325855
O O1 0.077434 0.822328 0.672529
O O2 0.811931 0.934257 0.800644
O O3 0.139872 0.004171 0.652761
O O4 0.212977 0.505851 0.922119
O O5 0.513645 0.411349 0.358406
O O6 0.782975 0.345552 0.395968
O O7 0.796119 0.897593 0.607108
O O8 0.781233 0.597274 0.599741
O O9 0.841070 0.474449 0.525077
O O10 0.828598 0.128625 0.830176
O O11 0.034115 0.350237 0.866491
O O12 0.433947 0.970527 0.939918
O O13 0.274194 0.232814 0.953177
O O14 0.957981 0.440509 0.377579
#
# Coordination Sequence:
#
# PCOD8039568 Si02
#       7
#     2   2   2   2   2   2   2
#     4  10  18  34  56  90 113 151 196 244 277 346
#     4  10  20  39  59  88 120 154 193 243 294 350
#     4  11  22  42  63  81 118 164 205 224 284 366
#     4  11  19  37  60  87 115 158 190 247 287 351
#     4  10  24  39  60  86 119 158 199 240 284 353
#     4  10  19  32  59  89 119 147 201 241 291 340
#     4  10  22  37  57  93 121 143 193 252 307 321
#
# _framework density 19.646421
#
# number of rings (size 3 to 8) (size 9 to 14) (size 15 to 20)
#    0.000    1.714    4.286    0.857    0.000    3.429 
#    5.143    0.000    0.000    1.714    0.000    0.000 
#    0.000    0.000    0.000    0.000    0.000    0.000 
#
# Total GULP energy -173509.665962 kJ/mol
# GULP energy per Si atom -12393.547569 kJ/mol
# Density = 1.960170 g / cm^3
# Si number density = 19.646421 Si / 1000 Ang^3
#
#
#
# Elastic Constant Matrix: (Units=GPa)
#
#
# Indices 1 2 3 4 5 6 
#
# 1 113.7965 28.1287 44.9291 -0.1178 -1.4285 18.1888
# 2 28.1287 56.9799 18.8800 4.4996 5.1919 5.0738
# 3 44.9291 18.8800 109.4534 -22.7261 3.7290 0.8295
# 4 -0.1178 4.4996 -22.7261 30.7963 3.0485 -1.9720
# 5 -1.4285 5.1919 3.7290 3.0485 28.9126 -2.3522
# 6 18.1888 5.0738 0.8295 -1.9720 -2.3522 23.2944
#
#
#
# Elastic Compliance Matrix: (Units=1/GPa)
#
#
# Indices 1 2 3 4 5 6 
#
# 1 0.013610 -0.003699 -0.005880 -0.004551 0.001776 -0.009818
# 2 -0.003699 0.021341 -0.003129 -0.005275 -0.003253 -0.002424
# 3 -0.005880 -0.003129 0.014576 0.011782 -0.002403 0.005508
# 4 -0.004551 -0.005275 0.011782 0.042861 -0.004712 0.007436
# 5 0.001776 -0.003253 -0.002403 -0.004712 0.036283 0.002672
# 6 -0.009818 -0.002424 0.005508 0.007436 0.002672 0.051826
#
#
# Mechanical properties :
#
#
# Convention : Reuss Voigt Hill
#
# Bulk Modulus (GPa) = 41.47221 51.56726 46.51974
# Shear Modulus (GPa) = 23.36986 29.15346 26.26166
#
# Velocity S-wave (km/s) = 3.45269 3.85633 3.66008
# Velocity P-wave (km/s) = 6.08686 6.79213 6.44914
#
# Compressibility (1/GPa) = 0.02411253
#
# Stress axis : x y z
#
# Youngs Moduli (GPa) = 73.47406 46.85713 68.60597
#
# Poissons Ratio (x) = 0.17331 0.40339
# Poissons Ratio (y) = 0.27176 0.21467
# Poissons Ratio (z) = 0.43202 0.14661
#
# Static dielectric constant tensor:
#      x y z
#    x 3.303580 0.188490 -0.082130 
#    y 0.188490 3.670900 -0.155150 
#    z -0.082130 -0.155150 3.732160 
# 
# 
# High freq. dielectric constant tensor:
#      x y z
#    x 1.727420 0.020200 -0.006000 
#    y 0.020200 1.761900 -0.012560 
#    z -0.006000 -0.012560 1.772190 
# 
# From -- ./inp_files/207340.got.cif
#   From: 2010.06.25/outbox.cif.g09.slc.cpg/sg2_104_cif.got.tgz:207340.got - 2010.06.27 13:26:56.
