data_PCOD8039090
_publ_section_title
;
Structure prediction by ZEFSAII (Michael W. Deem and Ramdas Pophale) SiO2 
 PCOD8039090
Probable space group: P -1
;
_chemical_formula_sum "Si O2"
_cell_formula_units_Z 16
_cell_length_a 20.758784
_cell_length_b 20.150364
_cell_length_c 8.718158
_cell_angle_alpha 149.643730
_cell_angle_beta 31.422185
_cell_angle_gamma 151.160695
_cell_volume 814.821222
_symmetry_space_group_name_H-M "P -1"
_symmetry_group_IT_number 2
_symmetry_cell_setting 'triclinic'
loop_
_space_group_symop_operation_xyz
x,y,z
-x,-y,-z
loop_
_atom_site_type_symbol
_atom_site_label
_atom_site_fract_x
_atom_site_fract_y
_atom_site_fract_z
Si Si1 0.560791 0.295172 0.214848
Si Si2 0.943774 0.716753 0.321837
Si Si3 0.290945 0.499767 0.404566
Si Si4 0.206720 0.498775 0.068124
Si Si5 0.178256 0.647651 0.701243
Si Si6 0.620685 0.023716 0.178781
Si Si7 0.331987 0.364711 0.761864
Si Si8 0.116627 0.023175 0.437366
O O1 0.588256 0.353904 0.451313
O O2 0.472955 0.357826 0.425677
O O3 0.710255 0.363284 0.950749
O O4 0.466719 0.109240 0.036928
O O5 0.807387 0.642369 0.563731
O O6 0.901939 0.658539 0.114527
O O7 0.024317 0.902376 0.520863
O O8 0.053079 0.668169 0.064457
O O9 0.202238 0.557666 0.606655
O O10 0.358442 0.434782 0.019441
O O11 0.123276 0.543997 0.450228
O O12 0.322868 0.477550 0.885099
O O13 0.321142 0.813038 0.697421
O O14 0.500000 0.000000 0.500000
O O15 0.756038 0.009957 0.943142
O O16 0.186866 0.193440 0.705536
O O17 0.000000 0.000000 0.500000
#
# Coordination Sequence:
#
# PCOD8039090 Si02
#       8
#     2   2   2   2   2   2   2   2
#     4  10  20  35  55  79 111 145 184 228 274 328
#     4  10  20  35  55  79 111 145 184 228 274 328
#     4  10  22  36  52  80 112 148 186 218 276 330
#     4  10  18  32  56  80 108 140 186 226 278 324
#     4  10  20  35  55  79 111 145 184 228 274 328
#     4  10  20  37  58  84 112 144 184 233 280 328
#     4  10  20  35  55  79 111 145 184 228 274 328
#     4  10  20  37  58  84 112 144 184 233 280 328
#
# _framework density 19.636209999999998
#
# number of rings (size 3 to 8) (size 9 to 14) (size 15 to 20)
#    0.000    2.000    2.500    1.500    0.000    1.000 
#    0.000    2.500    0.000    0.000    0.000    0.000 
#    0.000    0.000    0.000    0.000    0.000    0.000 
#
# Total GULP energy -198291.448853 kJ/mol
# GULP energy per Si atom -12393.215553 kJ/mol
# Density = 1.959152 g / cm^3
# Si number density = 19.636210 Si / 1000 Ang^3
#
#
#
# Elastic Constant Matrix: (Units=GPa)
#
#
# Indices 1 2 3 4 5 6 
#
# 1 67.3677 21.3789 15.0246 6.6680 11.8911 4.2796
# 2 21.3789 71.8740 17.8603 2.9602 19.0355 2.5078
# 3 15.0246 17.8603 49.6487 6.8126 5.0305 0.4136
# 4 6.6680 2.9602 6.8126 24.7371 9.2945 -0.4004
# 5 11.8911 19.0355 5.0305 9.2945 24.4923 6.0774
# 6 4.2796 2.5078 0.4136 -0.4004 6.0774 28.1796
#
#
#
# Elastic Compliance Matrix: (Units=1/GPa)
#
#
# Indices 1 2 3 4 5 6 
#
# 1 0.017656 -0.003080 -0.003531 -0.001779 -0.004424 -0.001427
# 2 -0.003080 0.020050 -0.005513 0.005905 -0.015753 0.002246
# 3 -0.003531 -0.005513 0.023693 -0.006249 0.003548 -0.000175
# 4 -0.001779 0.005905 -0.006249 0.050665 -0.023040 0.005525
# 5 -0.004424 -0.015753 0.003548 -0.023040 0.066366 -0.012619
# 6 -0.001427 0.002246 -0.000175 0.005525 -0.012619 0.038306
#
#
# Mechanical properties :
#
#
# Convention : Reuss Voigt Hill
#
# Bulk Modulus (GPa) = 26.91711 33.04645 29.98178
# Shear Modulus (GPa) = 19.73409 24.45691 22.09550
#
# Velocity S-wave (km/s) = 3.17359 3.53299 3.35810
# Velocity P-wave (km/s) = 5.21215 5.78866 5.50795
#
# Compressibility (1/GPa) = 0.03715109
#
# Stress axis : x y z
#
# Youngs Moduli (GPa) = 56.63671 49.87533 42.20676
#
# Poissons Ratio (x) = 0.15360 0.14903
# Poissons Ratio (y) = 0.17442 0.23270
# Poissons Ratio (z) = 0.19998 0.27499
#
# Static dielectric constant tensor:
#      x y z
#    x 3.441510 0.169140 -0.028520 
#    y 0.169140 3.621520 0.170040 
#    z -0.028520 0.170040 3.566940 
# 
# 
# High freq. dielectric constant tensor:
#      x y z
#    x 1.753240 0.008230 -0.006680 
#    y 0.008230 1.769350 0.009430 
#    z -0.006680 0.009430 1.759750 
# 
# From -- ./inp_files/269064.got.cif
#   From: 2010.06.25/outbox.cif.g09.slc.cpg/sg2_135_cif.got.tgz:269064.got - 2010.06.27 13:26:56.
