data_PCOD8039081
_publ_section_title
;
Structure prediction by ZEFSAII (Michael W. Deem and Ramdas Pophale) SiO2 
 PCOD8039081
Probable space group: P -1
;
_chemical_formula_sum "Si O2"
_cell_formula_units_Z 16
_cell_length_a 12.180175
_cell_length_b 13.361465
_cell_length_c 15.965622
_cell_angle_alpha 122.652238
_cell_angle_beta 155.988802
_cell_angle_gamma 46.464958
_cell_volume 730.234379
_symmetry_space_group_name_H-M "P -1"
_symmetry_group_IT_number 2
_symmetry_cell_setting 'triclinic'
loop_
_space_group_symop_operation_xyz
x,y,z
-x,-y,-z
loop_
_atom_site_type_symbol
_atom_site_label
_atom_site_fract_x
_atom_site_fract_y
_atom_site_fract_z
Si Si1 0.708571 0.230578 0.381030
Si Si2 0.150539 0.650226 0.314250
Si Si3 0.534897 0.314229 0.900098
Si Si4 0.094602 0.105402 0.082998
Si Si5 0.232234 0.603273 0.746074
Si Si6 0.247078 0.470019 0.052794
Si Si7 0.243152 0.149290 0.583790
Si Si8 0.866348 0.772987 0.995955
O O1 0.885767 0.236947 0.590369
O O2 0.406442 0.393419 0.218514
O O3 0.531952 0.144722 0.230322
O O4 0.964434 0.156322 0.448468
O O5 0.500000 0.500000 0.500000
O O6 0.880196 0.615163 0.123412
O O7 0.081992 0.729009 0.211229
O O8 0.226074 0.470438 0.719030
O O9 0.430234 0.204524 0.792139
O O10 0.618024 0.341897 0.060507
O O11 0.859731 0.251852 0.038951
O O12 0.053618 0.135113 0.967034
O O13 0.490370 0.017069 0.335893
O O14 0.000000 0.000000 0.000000
O O15 0.469755 0.535483 0.802127
O O16 0.884744 0.745412 0.539186
O O17 0.954513 0.634315 0.940251
#
# Coordination Sequence:
#
# PCOD8039081 Si02
#       8
#     2   2   2   2   2   2   2   2
#     4  10  20  35  57  87 118 146 189 242 292 352
#     4  11  18  31  56  90 119 148 186 239 299 348
#     4  10  20  38  60  85 115 150 199 249 292 339
#     4  10  23  43  61  80 121 164 198 239 288 345
#     4  10  20  35  61  89 111 150 197 249 295 337
#     4  10  18  32  55  88 123 143 182 243 298 346
#     4  10  22  39  58  83 118 158 193 238 292 348
#     4  11  20  36  57  85 118 155 192 237 291 344
#
# _framework density 21.910774
#
# number of rings (size 3 to 8) (size 9 to 14) (size 15 to 20)
#    0.000    1.750    3.750    1.875    0.000    1.000 
#    0.000    8.125    0.000    0.000    0.000    0.000 
#    0.000    0.000    0.000    0.000    0.000    0.000 
#
# Total GULP energy -198218.668356 kJ/mol
# GULP energy per Si atom -12388.666772 kJ/mol
# Density = 2.186090 g / cm^3
# Si number density = 21.910774 Si / 1000 Ang^3
#
#
#
# Elastic Constant Matrix: (Units=GPa)
#
#
# Indices 1 2 3 4 5 6 
#
# 1 95.4492 17.1828 31.0313 -5.8765 -0.4101 18.5856
# 2 17.1828 39.8022 21.4109 -14.0317 -8.8819 8.6107
# 3 31.0313 21.4109 79.4507 -13.1553 -8.8914 3.1540
# 4 -5.8765 -14.0317 -13.1553 33.9975 -2.2744 4.5919
# 5 -0.4101 -8.8819 -8.8914 -2.2744 36.1364 0.3823
# 6 18.5856 8.6107 3.1540 4.5919 0.3823 24.7581
#
#
#
# Elastic Compliance Matrix: (Units=1/GPa)
#
#
# Indices 1 2 3 4 5 6 
#
# 1 0.014246 -0.001215 -0.004737 0.001392 -0.001110 -0.009909
# 2 -0.001215 0.040325 -0.005887 0.016916 0.009679 -0.015649
# 3 -0.004737 -0.005887 0.016719 0.003019 0.002773 0.002871
# 4 0.001392 0.016916 0.003019 0.040327 0.007612 -0.014910
# 5 -0.001110 0.009679 0.002773 0.007612 0.031251 -0.004781
# 6 -0.009909 -0.015649 0.002871 -0.014910 -0.004781 0.055746
#
#
# Mechanical properties :
#
#
# Convention : Reuss Voigt Hill
#
# Bulk Modulus (GPa) = 21.00327 39.32801 30.16564
# Shear Modulus (GPa) = 20.99403 28.65022 24.82212
#
# Velocity S-wave (km/s) = 3.09877 3.61998 3.36947
# Velocity P-wave (km/s) = 4.73390 5.95487 5.37914
#
# Compressibility (1/GPa) = 0.04761163
#
# Stress axis : x y z
#
# Youngs Moduli (GPa) = 70.19511 24.79874 59.81151
#
# Poissons Ratio (x) = 0.03013 0.28333
# Poissons Ratio (y) = 0.08530 0.35211
# Poissons Ratio (z) = 0.33251 0.14599
#
# Static dielectric constant tensor:
#      x y z
#    x 4.152750 0.029860 0.111580 
#    y 0.029860 3.896200 -0.343390 
#    z 0.111580 -0.343390 4.148380 
# 
# 
# High freq. dielectric constant tensor:
#      x y z
#    x 1.868750 0.008710 0.003340 
#    y 0.008710 1.837550 -0.020570 
#    z 0.003340 -0.020570 1.853020 
# 
# From -- ./inp_files/436813.got.cif
#   From: 2010.06.25/outbox.cif.g09.slc.cpg/sg2_219_cif.got.tgz:436813.got - 2010.06.27 13:26:56.
