data_PCOD8039509
_publ_section_title
;
Structure prediction by ZEFSAII (Michael W. Deem and Ramdas Pophale) SiO2 
 PCOD8039509
Probable space group: P -1
;
_chemical_formula_sum "Si O2"
_cell_formula_units_Z 14
_cell_length_a 9.157739
_cell_length_b 17.881293
_cell_length_c 21.351232
_cell_angle_alpha 26.621300
_cell_angle_beta 27.612484
_cell_angle_gamma 35.604700
_cell_volume 722.451324
_symmetry_space_group_name_H-M "P -1"
_symmetry_group_IT_number 2
_symmetry_cell_setting 'triclinic'
loop_
_space_group_symop_operation_xyz
x,y,z
-x,-y,-z
loop_
_atom_site_type_symbol
_atom_site_label
_atom_site_fract_x
_atom_site_fract_y
_atom_site_fract_z
Si Si1 0.463066 0.899377 0.434116
Si Si2 0.613718 0.749780 0.117733
Si Si3 0.158116 0.979005 0.362253
Si Si4 0.658684 0.664466 0.956114
Si Si5 0.531697 0.087418 0.827844
Si Si6 0.127925 0.812585 0.962097
Si Si7 0.626151 0.457025 0.243933
O O1 0.567433 0.706789 0.558198
O O2 0.219947 0.985770 0.513750
O O3 0.290177 0.881964 0.446246
O O4 0.752361 0.010559 0.236987
O O5 0.519536 0.578243 0.251799
O O6 0.380628 0.807037 0.222308
O O7 0.589186 0.890398 0.968293
O O8 0.978515 0.729298 0.020189
O O9 0.320774 0.150234 0.163731
O O10 0.253017 0.870293 0.345047
O O11 0.399671 0.680586 0.986684
O O12 0.997493 0.591637 0.854994
O O13 0.543569 0.546471 0.142301
O O14 0.157940 0.138045 0.916500
#
# Coordination Sequence:
#
# PCOD8039509 Si02
#       7
#     2   2   2   2   2   2   2
#     4   9  19  31  56  85 106 130 180 236 265 291
#     4   9  19  35  58  75 107 149 181 208 265 332
#     4   9  16  34  55  78 104 147 178 209 266 333
#     4   9  18  30  57  79 105 142 186 210 264 319
#     4   9  18  35  59  72 107 150 186 198 265 339
#     4   9  19  36  56  84 102 137 192 219 252 318
#     4  10  18  34  54  80 113 139 172 223 278 312
#
# _framework density 19.37847
#
# number of rings (size 3 to 8) (size 9 to 14) (size 15 to 20)
#    0.857    2.000    1.429    0.857    0.000    2.857 
#    0.000    2.143    3.143    0.000    3.714    0.000 
#    0.000    0.000    0.000    0.000    0.000    0.000 
#
# Total GULP energy -173456.687137 kJ/mol
# GULP energy per Si atom -12389.763367 kJ/mol
# Density = 1.933436 g / cm^3
# Si number density = 19.378470 Si / 1000 Ang^3
#
#
#
# Elastic Constant Matrix: (Units=GPa)
#
#
# Indices 1 2 3 4 5 6 
#
# 1 38.9989 12.7727 15.8049 4.4694 12.0420 -8.2839
# 2 12.7727 58.9230 30.4739 5.0432 12.9069 5.6078
# 3 15.8049 30.4739 71.6850 -5.8166 18.0977 11.4461
# 4 4.4694 5.0432 -5.8166 33.2083 0.8161 10.1772
# 5 12.0420 12.9069 18.0977 0.8161 25.4516 2.5401
# 6 -8.2839 5.6078 11.4461 10.1772 2.5401 38.7831
#
#
#
# Elastic Compliance Matrix: (Units=1/GPa)
#
#
# Indices 1 2 3 4 5 6 
#
# 1 0.037115 -0.002087 -0.007134 -0.009829 -0.012484 0.013732
# 2 -0.002087 0.023314 -0.008756 -0.004780 -0.004488 0.000316
# 3 -0.007134 -0.008756 0.023575 0.009426 -0.008337 -0.009143
# 4 -0.009829 -0.004780 0.009426 0.038163 0.000570 -0.014242
# 5 -0.012484 -0.004488 -0.008337 0.000570 0.053705 -0.003224
# 6 0.013732 0.000316 -0.009143 -0.014242 -0.003224 0.035319
#
#
# Mechanical properties :
#
#
# Convention : Reuss Voigt Hill
#
# Bulk Modulus (GPa) = 20.81193 31.96777 26.38985
# Shear Modulus (GPa) = 18.99979 26.85895 22.92937
#
# Velocity S-wave (km/s) = 3.13462 3.72697 3.44356
# Velocity P-wave (km/s) = 4.88510 5.92054 5.42757
#
# Compressibility (1/GPa) = 0.04804936
#
# Stress axis : x y z
#
# Youngs Moduli (GPa) = 26.94364 42.89203 42.41836
#
# Poissons Ratio (x) = 0.08950 0.30262
# Poissons Ratio (y) = 0.05622 0.37143
# Poissons Ratio (z) = 0.19222 0.37558
#
# Static dielectric constant tensor:
#      x y z
#    x 3.301680 -0.116510 0.215070 
#    y -0.116510 3.445680 -0.025630 
#    z 0.215070 -0.025630 3.288740 
# 
# 
# High freq. dielectric constant tensor:
#      x y z
#    x 1.737730 -0.005930 0.020020 
#    y -0.005930 1.746900 0.001260 
#    z 0.020020 0.001260 1.727280 
# 
# From -- ./inp_files/277917.got.cif
#   From: 2010.06.25/outbox.cif.g09.slc.cpg/sg2_139_cif.got.tgz:277917.got - 2010.06.27 13:26:56.
