data_PCOD8039084
_publ_section_title
;
Structure prediction by ZEFSAII (Michael W. Deem and Ramdas Pophale) SiO2 
 PCOD8039084
Probable space group: P -1
;
_chemical_formula_sum "Si O2"
_cell_formula_units_Z 14
_cell_length_a 5.460306
_cell_length_b 20.838741
_cell_length_c 7.734594
_cell_angle_alpha 137.464375
_cell_angle_beta 117.407149
_cell_angle_gamma 74.462413
_cell_volume 524.458063
_symmetry_space_group_name_H-M "P -1"
_symmetry_group_IT_number 2
_symmetry_cell_setting 'triclinic'
loop_
_space_group_symop_operation_xyz
x,y,z
-x,-y,-z
loop_
_atom_site_type_symbol
_atom_site_label
_atom_site_fract_x
_atom_site_fract_y
_atom_site_fract_z
Si Si1 0.123908 0.357386 0.542978
Si Si2 0.094603 0.961836 0.272978
Si Si3 0.433357 0.139412 0.626533
Si Si4 0.611153 0.655195 0.023759
Si Si5 0.455779 0.109186 0.195544
Si Si6 0.878108 0.421577 0.075617
Si Si7 0.616846 0.288599 0.420426
O O1 0.249226 0.327797 0.708310
O O2 0.163896 0.470221 0.759822
O O3 0.292235 0.309200 0.349003
O O4 0.793164 0.315812 0.355940
O O5 0.350268 0.900206 0.251941
O O6 0.167475 0.058329 0.374466
O O7 0.000000 0.000000 0.500000
O O8 0.865193 0.889979 0.958796
O O9 0.369475 0.243781 0.874456
O O10 0.543048 0.155795 0.499963
O O11 0.287965 0.608995 0.859011
O O12 0.791211 0.589864 0.833049
O O13 0.634955 0.176517 0.248377
O O14 0.500000 0.000000 0.000000
O O15 0.750384 0.358473 0.751532
#
# Coordination Sequence:
#
# PCOD8039084 Si02
#       7
#     2   2   2   2   2   2   2
#     4  10  18  32  56  92 132 159 215 274 322 391
#     4  11  26  43  64  93 130 173 230 274 330 388
#     4  11  24  44  63  94 129 176 223 276 324 401
#     4  10  19  31  59  85 128 163 213 263 327 389
#     4  12  24  41  69  94 133 178 221 278 330 393
#     4  10  18  32  55  95 128 162 213 273 325 389
#     4  10  20  33  54  92 125 168 213 262 329 387
#
# _framework density 26.694222
#
# number of rings (size 3 to 8) (size 9 to 14) (size 15 to 20)
#    0.000    1.429    4.286    4.714    6.000    1.143 
#    0.000    0.000    0.000    0.000    0.000   11.000 
#    0.000    0.000    0.000    0.000    0.000    0.000 
#
# Total GULP energy -173512.747993 kJ/mol
# GULP energy per Si atom -12393.767714 kJ/mol
# Density = 2.663346 g / cm^3
# Si number density = 26.694222 Si / 1000 Ang^3
#
#
#
# Elastic Constant Matrix: (Units=GPa)
#
#
# Indices 1 2 3 4 5 6 
#
# 1 202.1397 39.9387 13.5466 21.8946 16.6852 1.2392
# 2 39.9387 126.9519 36.5825 58.3796 5.7937 5.6605
# 3 13.5466 36.5825 54.7249 25.3981 13.5901 1.8714
# 4 21.8946 58.3796 25.3981 47.8750 9.0384 -3.1098
# 5 16.6852 5.7937 13.5901 9.0384 32.5944 18.6172
# 6 1.2392 5.6605 1.8714 -3.1098 18.6172 34.8771
#
#
#
# Elastic Compliance Matrix: (Units=1/GPa)
#
#
# Indices 1 2 3 4 5 6 
#
# 1 0.005613 -0.002277 0.000786 0.000814 -0.004512 0.002609
# 2 -0.002277 0.022643 -0.004929 -0.027596 0.014610 -0.013589
# 3 0.000786 -0.004929 0.027009 -0.006052 -0.012105 0.005245
# 4 0.000814 -0.027596 -0.006052 0.063363 -0.023755 0.023105
# 5 -0.004512 0.014610 -0.012105 -0.023755 0.063485 -0.037567
# 6 0.002609 -0.013589 0.005245 0.023105 -0.037567 0.052617
#
#
# Mechanical properties :
#
#
# Convention : Reuss Voigt Hill
#
# Bulk Modulus (GPa) = 23.57078 62.66133 43.11606
# Shear Modulus (GPa) = 19.10515 42.65254 30.87885
#
# Velocity S-wave (km/s) = 2.67817 4.00161 3.40481
# Velocity P-wave (km/s) = 4.29098 6.69890 5.62529
#
# Compressibility (1/GPa) = 0.04242541
#
# Stress axis : x y z
#
# Youngs Moduli (GPa) = 178.17190 44.16387 37.02508
#
# Poissons Ratio (x) = 0.10056 -0.02911
# Poissons Ratio (y) = 0.40571 0.18248
# Poissons Ratio (z) = -0.14010 0.21767
#
# Static dielectric constant tensor:
#      x y z
#    x 5.880860 0.006560 1.881600 
#    y 0.006560 4.785690 -0.052640 
#    z 1.881600 -0.052640 0.678100 
# 
# 
# High freq. dielectric constant tensor:
#      x y z
#    x 2.084020 0.000540 0.008270 
#    y 0.000540 2.073250 0.025780 
#    z 0.008270 0.025780 2.052110 
# 
# From -- ./inp_files/37688.got.cif
#   From: 2010.06.25/outbox.cif.g09.slc.cpg/sg2_19_cif.got.tgz:37688.got - 2010.06.27 13:26:56.
