data_PCOD8039290
_publ_section_title
;
Structure prediction by ZEFSAII (Michael W. Deem and Ramdas Pophale) SiO2 
 PCOD8039290
Probable space group: P -1
;
_chemical_formula_sum "Si O2"
_cell_formula_units_Z 14
_cell_length_a 23.142493
_cell_length_b 9.128773
_cell_length_c 15.741059
_cell_angle_alpha 28.309771
_cell_angle_beta 28.033420
_cell_angle_gamma 39.221482
_cell_volume 741.162558
_symmetry_space_group_name_H-M "P -1"
_symmetry_group_IT_number 2
_symmetry_cell_setting 'triclinic'
loop_
_space_group_symop_operation_xyz
x,y,z
-x,-y,-z
loop_
_atom_site_type_symbol
_atom_site_label
_atom_site_fract_x
_atom_site_fract_y
_atom_site_fract_z
Si Si1 0.081938 0.958508 0.646988
Si Si2 0.234508 0.381095 0.496700
Si Si3 0.721429 0.765693 0.137992
Si Si4 0.694209 0.049359 0.525684
Si Si5 0.058549 0.859416 0.413099
Si Si6 0.854468 0.707082 0.159223
Si Si7 0.554418 0.210936 0.030328
O O1 0.205232 0.075325 0.474342
O O2 0.107289 0.644887 0.723420
O O3 0.040581 0.198980 0.504521
O O4 0.974646 0.918386 0.877077
O O5 0.119403 0.531484 0.520827
O O6 0.192012 0.233970 0.715453
O O7 0.287291 0.108890 0.509112
O O8 0.336961 0.655978 0.239521
O O9 0.701431 0.413511 0.315492
O O10 0.741122 0.790061 0.201543
O O11 0.607100 0.971798 0.153456
O O12 0.846121 0.879688 0.874416
O O13 0.558581 0.958886 0.785184
O O14 0.000000 0.000000 0.500000
O O15 0.500000 0.500000 0.000000
#
# Coordination Sequence:
#
# PCOD8039290 Si02
#       7
#     2   2   2   2   2   2   2
#     4   9  18  32  52  77 108 141 169 214 268 308
#     4  10  20  33  57  79 105 140 180 217 256 308
#     4   9  19  35  58  75 102 141 177 213 265 309
#     4  10  20  34  54  79 109 137 176 220 260 306
#     4  10  18  33  56  76 105 142 175 208 261 321
#     4   9  17  33  53  78 104 139 176 211 261 321
#     4   9  19  37  57  75 104 143 177 213 263 312
#
# _framework density 18.889243
#
# number of rings (size 3 to 8) (size 9 to 14) (size 15 to 20)
#    0.000    2.571    1.429    1.286    0.000    1.143 
#    0.000    5.714    3.143    0.000    0.000    0.000 
#    0.000    0.000    0.000    0.000    0.000    0.000 
#
# Total GULP energy -173532.686655 kJ/mol
# GULP energy per Si atom -12395.191904 kJ/mol
# Density = 1.884625 g / cm^3
# Si number density = 18.889243 Si / 1000 Ang^3
#
#
#
# Elastic Constant Matrix: (Units=GPa)
#
#
# Indices 1 2 3 4 5 6 
#
# 1 136.8724 45.3102 71.2417 12.4830 -0.3066 -20.5867
# 2 45.3102 77.8640 29.3908 -0.2754 1.0598 -15.3814
# 3 71.2417 29.3908 61.5720 3.4812 0.8427 -14.9065
# 4 12.4830 -0.2754 3.4812 25.3362 0.9917 -2.2480
# 5 -0.3066 1.0598 0.8427 0.9917 32.8657 7.2602
# 6 -20.5867 -15.3814 -14.9065 -2.2480 7.2602 29.2450
#
#
#
# Elastic Compliance Matrix: (Units=1/GPa)
#
#
# Indices 1 2 3 4 5 6 
#
# 1 0.020314 -0.003719 -0.021146 -0.007107 0.000890 0.000798
# 2 -0.003719 0.017180 -0.002644 0.002968 -0.001884 0.005766
# 3 -0.021146 -0.002644 0.043406 0.005158 -0.002920 0.006970
# 4 -0.007107 0.002968 0.005158 0.042651 -0.002249 0.003024
# 5 0.000890 -0.001884 -0.002920 -0.002249 0.032890 -0.010191
# 6 0.000798 0.005766 0.006970 0.003024 -0.010191 0.044104
#
#
# Mechanical properties :
#
#
# Convention : Reuss Voigt Hill
#
# Bulk Modulus (GPa) = 38.63650 63.13266 50.88458
# Shear Modulus (GPa) = 18.92585 26.18044 22.55314
#
# Velocity S-wave (km/s) = 3.16877 3.72694 3.45913
# Velocity P-wave (km/s) = 5.82124 7.21216 6.55370
#
# Compressibility (1/GPa) = 0.02588226
#
# Stress axis : x y z
#
# Youngs Moduli (GPa) = 49.22766 58.20686 23.03837
#
# Poissons Ratio (x) = 0.21645 0.48717
# Poissons Ratio (y) = 0.18306 0.06092
# Poissons Ratio (z) = 1.04097 0.15391
#
# Static dielectric constant tensor:
#      x y z
#    x 3.638540 -0.421120 -0.187810 
#    y -0.421120 3.441090 0.142540 
#    z -0.187810 0.142540 3.765470 
# 
# 
# High freq. dielectric constant tensor:
#      x y z
#    x 1.726820 -0.021770 -0.005410 
#    y -0.021770 1.727350 0.003250 
#    z -0.005410 0.003250 1.725590 
# 
# From -- ./inp_files/162612.got.cif
#   From: 2010.06.25/outbox.cif.g09.slc.cpg/sg2_82_cif.got.tgz:162612.got - 2010.06.27 13:26:56.
