data_PCOD8039956
_publ_section_title
;
Structure prediction by ZEFSAII (Michael W. Deem and Ramdas Pophale) SiO2 
 PCOD8039956
Probable space group: P -1
;
_chemical_formula_sum "Si O2"
_cell_formula_units_Z 16
_cell_length_a 15.161430
_cell_length_b 11.576357
_cell_length_c 8.590175
_cell_angle_alpha 106.463849
_cell_angle_beta 40.187348
_cell_angle_gamma 84.660339
_cell_volume 807.878007
_symmetry_space_group_name_H-M "P -1"
_symmetry_group_IT_number 2
_symmetry_cell_setting 'triclinic'
loop_
_space_group_symop_operation_xyz
x,y,z
-x,-y,-z
loop_
_atom_site_type_symbol
_atom_site_label
_atom_site_fract_x
_atom_site_fract_y
_atom_site_fract_z
Si Si1 0.681916 0.656741 0.125080
Si Si2 0.337567 0.501907 0.196896
Si Si3 0.572288 0.160633 0.250578
Si Si4 0.067426 0.777102 0.800082
Si Si5 0.799607 0.056297 0.152591
Si Si6 0.884263 0.640966 0.123772
Si Si7 0.402119 0.249492 0.223898
Si Si8 0.491244 0.085728 0.738768
O O1 0.533469 0.698315 0.454822
O O2 0.837279 0.605651 0.004179
O O3 0.653395 0.790767 0.114447
O O4 0.690091 0.538813 0.954011
O O5 0.191547 0.654298 0.477337
O O6 0.338929 0.396902 0.283755
O O7 0.500000 0.500000 0.000000
O O8 0.749972 0.087578 0.049005
O O9 0.558696 0.201139 0.102494
O O10 0.503020 0.058850 0.349520
O O11 0.159126 0.827767 0.806995
O O12 0.972419 0.727824 0.017985
O O13 0.948357 0.902557 0.898227
O O14 0.656973 0.071828 0.459634
O O15 0.731981 0.737905 0.471739
O O16 0.000000 0.500000 0.000000
O O17 0.454476 0.125107 0.984668
#
# Coordination Sequence:
#
# PCOD8039956 Si02
#       8
#     2   2   2   2   2   2   2   2
#     4   9  20  35  59  85 111 154 200 232 285 351
#     4  11  22  41  61  86 114 153 196 246 292 347
#     4  10  18  35  59  89 118 147 196 245 290 345
#     4  11  22  38  62  81 123 157 193 242 289 351
#     4  10  21  38  61  88 113 158 198 233 298 347
#     4  11  21  40  55  87 124 154 192 238 295 344
#     4  10  21  36  60  88 115 150 196 242 293 342
#     4  10  18  36  63  87 115 151 200 243 282 346
#
# _framework density 19.804971999999999
#
# number of rings (size 3 to 8) (size 9 to 14) (size 15 to 20)
#    0.000    1.750    1.250    6.375    0.000    0.500 
#    4.500    1.875    0.000    3.000    0.000    0.000 
#    0.000    0.000    0.000    0.000    0.000    0.000 
#
# Total GULP energy -198343.472827 kJ/mol
# GULP energy per Si atom -12396.467052 kJ/mol
# Density = 1.975989 g / cm^3
# Si number density = 19.804972 Si / 1000 Ang^3
#
#
#
# Elastic Constant Matrix: (Units=GPa)
#
#
# Indices 1 2 3 4 5 6 
#
# 1 178.9950 57.0127 59.3172 9.1152 1.3876 -7.5931
# 2 57.0127 74.1929 31.4236 13.4510 -0.8193 13.7982
# 3 59.3172 31.4236 97.2061 12.5451 6.2349 11.1273
# 4 9.1152 13.4510 12.5451 30.4748 1.5543 -4.8216
# 5 1.3876 -0.8193 6.2349 1.5543 30.4478 -0.7115
# 6 -7.5931 13.7982 11.1273 -4.8216 -0.7115 34.9078
#
#
#
# Elastic Compliance Matrix: (Units=1/GPa)
#
#
# Indices 1 2 3 4 5 6 
#
# 1 0.009597 -0.007258 -0.004762 0.003376 0.000333 0.006948
# 2 -0.007258 0.023312 -0.000551 -0.009849 0.001294 -0.011952
# 3 -0.004762 -0.000551 0.014971 -0.005366 -0.002739 -0.006387
# 4 0.003376 -0.009849 -0.005366 0.040296 -0.001099 0.011881
# 5 0.000333 0.001294 -0.002739 -0.001099 0.033502 0.000965
# 6 0.006948 -0.011952 -0.006387 0.011881 0.000965 0.038579
#
#
# Mechanical properties :
#
#
# Convention : Reuss Voigt Hill
#
# Bulk Modulus (GPa) = 43.98062 71.76680 57.87371
# Shear Modulus (GPa) = 25.90967 32.67544 29.29255
#
# Velocity S-wave (km/s) = 3.62088 4.06625 3.85001
# Velocity P-wave (km/s) = 6.30366 7.63946 7.00348
#
# Compressibility (1/GPa) = 0.02273729
#
# Stress axis : x y z
#
# Youngs Moduli (GPa) = 104.19964 42.89704 66.79653
#
# Poissons Ratio (x) = 0.31135 0.31810
# Poissons Ratio (y) = 0.75629 0.03679
# Poissons Ratio (z) = 0.49622 0.02362
#
# Static dielectric constant tensor:
#      x y z
#    x 4.009480 -0.139110 -0.030420 
#    y -0.139110 3.590150 0.152380 
#    z -0.030420 0.152380 3.507410 
# 
# 
# High freq. dielectric constant tensor:
#      x y z
#    x 1.788670 -0.007740 0.000950 
#    y -0.007740 1.765810 0.017820 
#    z 0.000950 0.017820 1.758020 
# 
# From -- ./inp_files/262762.got.cif
#   From: 2010.06.25/outbox.cif.g09.slc.cpg/sg2_132_cif.got.tgz:262762.got - 2010.06.27 13:26:56.
