data_PCOD8039613
_publ_section_title
;
Structure prediction by ZEFSAII (Michael W. Deem and Ramdas Pophale) SiO2 
 PCOD8039613
Probable space group: P -1
;
_chemical_formula_sum "Si O2"
_cell_formula_units_Z 16
_cell_length_a 18.054394
_cell_length_b 12.087695
_cell_length_c 11.833766
_cell_angle_alpha 122.074341
_cell_angle_beta 131.420810
_cell_angle_gamma 26.544582
_cell_volume 851.071402
_symmetry_space_group_name_H-M "P -1"
_symmetry_group_IT_number 2
_symmetry_cell_setting 'triclinic'
loop_
_space_group_symop_operation_xyz
x,y,z
-x,-y,-z
loop_
_atom_site_type_symbol
_atom_site_label
_atom_site_fract_x
_atom_site_fract_y
_atom_site_fract_z
Si Si1 0.163055 0.025392 0.579808
Si Si2 0.473728 0.421233 0.024587
Si Si3 0.824588 0.837177 0.113819
Si Si4 0.788871 0.612545 0.861870
Si Si5 0.765535 0.450742 0.309336
Si Si6 0.481625 0.764980 0.597257
Si Si7 0.533846 0.963197 0.383797
Si Si8 0.387707 0.553965 0.647986
O O1 0.114890 0.189206 0.713366
O O2 0.991638 0.202103 0.414920
O O3 0.351845 0.851866 0.609571
O O4 0.198586 0.848223 0.583062
O O5 0.460376 0.513938 0.180760
O O6 0.645848 0.122079 0.041634
O O7 0.500000 0.500000 0.000000
O O8 0.282032 0.564177 0.867463
O O9 0.999194 0.666965 0.112292
O O10 0.788361 0.720785 0.021127
O O11 0.671035 0.611770 0.767783
O O12 0.678313 0.816634 0.761731
O O13 0.682523 0.688316 0.345102
O O14 0.671174 0.488433 0.343723
O O15 0.528657 0.600243 0.464983
O O16 0.378296 0.998477 0.550776
O O17 0.500000 0.000000 0.500000
#
# Coordination Sequence:
#
# PCOD8039613 Si02
#       8
#     2   2   2   2   2   2   2   2
#     4  11  23  34  56  82 115 146 182 226 271 335
#     4   9  19  32  55  83 108 138 181 234 269 312
#     4  10  18  37  56  84 107 142 188 224 273 319
#     4   9  20  34  59  80 108 143 184 229 263 332
#     4  11  19  37  57  83 108 143 186 228 277 320
#     4  10  21  36  53  85 109 148 181 224 281 321
#     4  10  18  34  58  79 108 142 175 229 269 328
#     4  10  20  37  58  76 108 150 189 224 267 325
#
# _framework density 18.799833
#
# number of rings (size 3 to 8) (size 9 to 14) (size 15 to 20)
#    0.750    1.250    2.500    2.250    0.000    3.000 
#    0.000    0.625    0.000    7.500    0.000    0.000 
#    0.000    0.000    0.000    0.000    0.000    0.000 
#
# Total GULP energy -198212.326842 kJ/mol
# GULP energy per Si atom -12388.270428 kJ/mol
# Density = 1.875704 g / cm^3
# Si number density = 18.799833 Si / 1000 Ang^3
#
#
#
# Elastic Constant Matrix: (Units=GPa)
#
#
# Indices 1 2 3 4 5 6 
#
# 1 39.6944 18.9289 17.1487 5.4153 6.5440 -4.8262
# 2 18.9289 77.7114 62.5863 11.8189 9.6289 3.3255
# 3 17.1487 62.5863 135.1773 8.0630 23.3136 -1.8280
# 4 5.4153 11.8189 8.0630 41.3662 1.2082 0.4933
# 5 6.5440 9.6289 23.3136 1.2082 18.0890 -4.9772
# 6 -4.8262 3.3255 -1.8280 0.4933 -4.9772 21.5941
#
#
#
# Elastic Compliance Matrix: (Units=1/GPa)
#
#
# Indices 1 2 3 4 5 6 
#
# 1 0.030403 -0.007243 0.000770 -0.001959 -0.006191 0.006593
# 2 -0.007243 0.023292 -0.010044 -0.003738 0.001893 -0.005534
# 3 0.000770 -0.010044 0.014225 0.000387 -0.013335 -0.000160
# 4 -0.001959 -0.003738 0.000387 0.025415 0.000415 -0.000314
# 5 -0.006191 0.001893 -0.013335 0.000415 0.077835 0.015126
# 6 0.006593 -0.005534 -0.000160 -0.000314 0.015126 0.052115
#
#
# Mechanical properties :
#
#
# Convention : Reuss Voigt Hill
#
# Bulk Modulus (GPa) = 28.66389 49.99012 39.32700
# Shear Modulus (GPa) = 18.66040 26.47114 22.56577
#
# Velocity S-wave (km/s) = 3.15395 3.75647 3.46832
# Velocity P-wave (km/s) = 5.34258 6.74264 6.08303
#
# Compressibility (1/GPa) = 0.03488711
#
# Stress axis : x y z
#
# Youngs Moduli (GPa) = 32.89126 42.93331 70.30008
#
# Poissons Ratio (x) = 0.31097 -0.05415
# Poissons Ratio (y) = 0.23824 0.70606
# Poissons Ratio (z) = -0.02534 0.43120
#
# Static dielectric constant tensor:
#      x y z
#    x 2.969300 0.418730 0.164630 
#    y 0.418730 3.437140 0.262330 
#    z 0.164630 0.262330 4.145980 
# 
# 
# High freq. dielectric constant tensor:
#      x y z
#    x 1.692450 0.022070 0.008470 
#    y 0.022070 1.728160 0.010240 
#    z 0.008470 0.010240 1.748210 
# 
# From -- ./inp_files/464743.got.cif
#   From: 2010.06.25/outbox.cif.g09.slc.cpg/sg2_233_cif.got.tgz:464743.got - 2010.06.27 13:26:56.
