data_PCOD8039890
_publ_section_title
;
Structure prediction by ZEFSAII (Michael W. Deem and Ramdas Pophale) SiO2 
 PCOD8039890
Probable space group: P -1
;
_chemical_formula_sum "Si O2"
_cell_formula_units_Z 10
_cell_length_a 14.423157
_cell_length_b 12.130682
_cell_length_c 9.053349
_cell_angle_alpha 47.881030
_cell_angle_beta 128.515261
_cell_angle_gamma 150.629102
_cell_volume 573.065899
_symmetry_space_group_name_H-M "P -1"
_symmetry_group_IT_number 2
_symmetry_cell_setting 'triclinic'
loop_
_space_group_symop_operation_xyz
x,y,z
-x,-y,-z
loop_
_atom_site_type_symbol
_atom_site_label
_atom_site_fract_x
_atom_site_fract_y
_atom_site_fract_z
Si Si1 0.239499 0.130700 0.021241
Si Si2 0.953768 0.832493 0.421522
Si Si3 0.965543 0.639362 0.342968
Si Si4 0.289633 0.345958 0.394273
Si Si5 0.347359 0.501617 0.997275
O O1 0.428431 0.255992 0.018104
O O2 0.111292 0.094199 0.811271
O O3 0.285788 0.279838 0.073460
O O4 0.125777 0.876823 0.191903
O O5 0.972230 0.700699 0.463804
O O6 0.797016 0.648430 0.558469
O O7 0.156537 0.071395 0.480438
O O8 0.759175 0.471885 0.219453
O O9 0.000000 0.500000 0.500000
O O10 0.500000 0.500000 0.500000
O O11 0.295339 0.458868 0.156506
#
# Coordination Sequence:
#
# PCOD8039890 Si02
#       5
#     2   2   2   2   2
#     4  10  18  35  58  80 105 137 187 231 261 302
#     4  10  20  34  57  84 106 137 182 223 269 317
#     4  11  22  37  55  78 114 147 178 218 264 322
#     4  11  19  32  58  87 107 132 175 233 275 307
#     4  10  19  34  58  82 105 138 183 229 263 310
#
# _framework density 17.450001
#
# number of rings (size 3 to 8) (size 9 to 14) (size 15 to 20)
#    0.000    1.600    6.000    1.200    0.000    0.800 
#    0.000    1.000    0.000    2.400    0.000    0.000 
#    0.000    0.000    0.000    0.000    0.000    0.000 
#
# Total GULP energy -124025.404460 kJ/mol
# GULP energy per Si atom -12402.540446 kJ/mol
# Density = 1.741028 g / cm^3
# Si number density = 17.450001 Si / 1000 Ang^3
#
#
#
# Elastic Constant Matrix: (Units=GPa)
#
#
# Indices 1 2 3 4 5 6 
#
# 1 130.6821 52.7206 63.1652 -11.0422 -11.4923 -0.7645
# 2 52.7206 93.2120 27.0576 3.1945 3.0489 15.8796
# 3 63.1652 27.0576 73.0117 -11.1551 -4.5098 -9.0199
# 4 -11.0422 3.1945 -11.1551 20.8300 -3.2149 -4.0053
# 5 -11.4923 3.0489 -4.5098 -3.2149 40.5814 1.5724
# 6 -0.7645 15.8796 -9.0199 -4.0053 1.5724 29.7391
#
#
#
# Elastic Compliance Matrix: (Units=1/GPa)
#
#
# Indices 1 2 3 4 5 6 
#
# 1 0.016114 -0.006653 -0.010296 0.004954 0.004262 0.001286
# 2 -0.006653 0.018705 -0.004921 -0.012207 -0.004297 -0.013068
# 3 -0.010296 -0.004921 0.028012 0.012878 0.001101 0.012535
# 4 0.004954 -0.012207 0.012878 0.064265 0.008115 0.018777
# 5 0.004262 -0.004297 0.001101 0.008115 0.026843 0.002412
# 6 0.001286 -0.013068 0.012535 0.018777 0.002412 0.046840
#
#
# Mechanical properties :
#
#
# Convention : Reuss Voigt Hill
#
# Bulk Modulus (GPa) = 52.38293 64.75472 58.56883
# Shear Modulus (GPa) = 19.92968 28.49428 24.21198
#
# Velocity S-wave (km/s) = 3.38317 4.04531 3.72897
# Velocity P-wave (km/s) = 6.73388 7.68171 7.22336
#
# Compressibility (1/GPa) = 0.01909019
#
# Stress axis : x y z
#
# Youngs Moduli (GPa) = 62.05886 53.46180 35.69955
#
# Poissons Ratio (x) = 0.35570 0.36756
# Poissons Ratio (y) = 0.41290 0.17566
# Poissons Ratio (z) = 0.63896 0.26307
#
# Static dielectric constant tensor:
#      x y z
#    x 3.352940 0.170550 -0.360260 
#    y 0.170550 3.384330 0.221430 
#    z -0.360260 0.221430 3.048680 
# 
# 
# High freq. dielectric constant tensor:
#      x y z
#    x 1.671100 0.023300 -0.034500 
#    y 0.023300 1.680280 0.019470 
#    z -0.034500 0.019470 1.651340 
# 
# From -- ./inp_files/57579.got.cif
#   From: 2010.06.25/outbox.cif.g09.slc.cpg/sg2_29_cif.got.tgz:57579.got - 2010.06.27 13:26:56.
