data_PCOD8039521
_publ_section_title
;
Structure prediction by ZEFSAII (Michael W. Deem and Ramdas Pophale) SiO2 
 PCOD8039521
Probable space group: P -1
;
_chemical_formula_sum "Si O2"
_cell_formula_units_Z 14
_cell_length_a 16.825228
_cell_length_b 9.252087
_cell_length_c 5.110272
_cell_angle_alpha 106.417966
_cell_angle_beta 87.116150
_cell_angle_gamma 131.685282
_cell_volume 559.248368
_symmetry_space_group_name_H-M "P -1"
_symmetry_group_IT_number 2
_symmetry_cell_setting 'triclinic'
loop_
_space_group_symop_operation_xyz
x,y,z
-x,-y,-z
loop_
_atom_site_type_symbol
_atom_site_label
_atom_site_fract_x
_atom_site_fract_y
_atom_site_fract_z
Si Si1 0.380700 0.945305 0.544216
Si Si2 0.248928 0.065345 0.633681
Si Si3 0.994446 0.173396 0.551901
Si Si4 0.501255 0.797108 0.834265
Si Si5 0.363860 0.316004 0.256831
Si Si6 0.327514 0.565403 0.147720
Si Si7 0.916327 0.754342 0.925495
O O1 0.323255 0.712097 0.390548
O O2 0.290048 0.951823 0.491024
O O3 0.421671 0.019486 0.872609
O O4 0.482091 0.094819 0.393737
O O5 0.282154 0.148142 0.964582
O O6 0.303189 0.248938 0.510234
O O7 0.120994 0.908690 0.545878
O O8 0.079013 0.330994 0.390846
O O9 0.039298 0.299085 0.880357
O O10 0.000000 0.000000 0.500000
O O11 0.530564 0.656594 0.731749
O O12 0.378964 0.651134 0.892833
O O13 0.398382 0.531403 0.281960
O O14 0.204601 0.344631 0.031461
O O15 0.000000 0.000000 0.000000
#
# Coordination Sequence:
#
# PCOD8039521 Si02
#       7
#     2   2   2   2   2   2   2
#     4  10  24  41  62  90 124 160 196 240 306 367
#     4  10  20  40  61  85 123 161 193 249 305 349
#     4  10  18  34  55  80 110 151 196 240 287 342
#     4  10  23  42  61  89 126 160 195 242 301 364
#     4  10  21  36  62  92 118 154 202 245 296 359
#     4  12  23  40  64  92 121 160 202 250 295 354
#     4  10  22  35  55  86 116 150 198 246 293 341
#
# _framework density 25.0336
#
# number of rings (size 3 to 8) (size 9 to 14) (size 15 to 20)
#    0.000    1.714    0.000    5.571    0.000    4.571 
#    0.000    5.714    0.000    0.000    0.000    0.000 
#    0.000    0.000    0.000    0.000    0.000    0.000 
#
# Total GULP energy -173575.807688 kJ/mol
# GULP energy per Si atom -12398.271978 kJ/mol
# Density = 2.497662 g / cm^3
# Si number density = 25.033600 Si / 1000 Ang^3
#
#
#
# Elastic Constant Matrix: (Units=GPa)
#
#
# Indices 1 2 3 4 5 6 
#
# 1 73.8390 34.9068 6.2807 -2.9484 -3.9536 19.0928
# 2 34.9068 96.3639 25.1531 -5.0552 -6.3173 5.3913
# 3 6.2807 25.1531 113.2219 -37.5235 14.2027 0.0719
# 4 -2.9484 -5.0552 -37.5235 39.3729 -7.3573 -16.8438
# 5 -3.9536 -6.3173 14.2027 -7.3573 40.0561 0.6866
# 6 19.0928 5.3913 0.0719 -16.8438 0.6866 51.9872
#
#
#
# Elastic Compliance Matrix: (Units=1/GPa)
#
#
# Indices 1 2 3 4 5 6 
#
# 1 0.018244 -0.006141 -0.000719 -0.002997 0.000657 -0.007042
# 2 -0.006141 0.013571 -0.003442 -0.001370 0.002496 0.000376
# 3 -0.000719 -0.003442 0.015347 0.016027 -0.003212 0.005835
# 4 -0.002997 -0.001370 0.016027 0.047844 0.002307 0.016692
# 5 0.000657 0.002496 -0.003212 0.002307 0.026988 -0.000105
# 6 -0.007042 0.000376 0.005835 0.016692 -0.000105 0.027184
#
#
# Mechanical properties :
#
#
# Convention : Reuss Voigt Hill
#
# Bulk Modulus (GPa) = 37.65307 46.23397 41.94352
# Shear Modulus (GPa) = 27.99013 40.75552 34.37282
#
# Velocity S-wave (km/s) = 3.34743 4.03927 3.70951
# Velocity P-wave (km/s) = 5.47851 6.34532 5.92778
#
# Compressibility (1/GPa) = 0.02655826
#
# Stress axis : x y z
#
# Youngs Moduli (GPa) = 54.81343 73.68673 65.15746
#
# Poissons Ratio (x) = 0.45251 0.04686
# Poissons Ratio (y) = 0.33661 0.22426
# Poissons Ratio (z) = 0.03942 0.25361
#
# Static dielectric constant tensor:
#      x y z
#    x 4.788370 -0.119000 0.053550 
#    y -0.119000 4.072450 0.227000 
#    z 0.053550 0.227000 2.007510 
# 
# 
# High freq. dielectric constant tensor:
#      x y z
#    x 2.003270 0.001680 0.005020 
#    y 0.001680 1.962980 -0.012360 
#    z 0.005020 -0.012360 2.031290 
# 
# From -- ./inp_files/107164.got.cif
#   From: 2010.06.25/outbox.cif.g09.slc.cpg/sg2_54_cif.got.tgz:107164.got - 2010.06.27 13:26:56.
