data_PCOD8039931
_publ_section_title
;
Structure prediction by ZEFSAII (Michael W. Deem and Ramdas Pophale) SiO2 
 PCOD8039931
Probable space group: P -1
;
_chemical_formula_sum "Si O2"
_cell_formula_units_Z 14
_cell_length_a 12.081612
_cell_length_b 10.414623
_cell_length_c 10.000271
_cell_angle_alpha 57.530864
_cell_angle_beta 117.291154
_cell_angle_gamma 141.352366
_cell_volume 661.155515
_symmetry_space_group_name_H-M "P -1"
_symmetry_group_IT_number 2
_symmetry_cell_setting 'triclinic'
loop_
_space_group_symop_operation_xyz
x,y,z
-x,-y,-z
loop_
_atom_site_type_symbol
_atom_site_label
_atom_site_fract_x
_atom_site_fract_y
_atom_site_fract_z
Si Si1 0.992969 0.953912 0.221481
Si Si2 0.244991 0.804327 0.221675
Si Si3 0.659511 0.726186 0.304711
Si Si4 0.507527 0.722256 0.962945
Si Si5 0.659701 0.900020 0.675737
Si Si6 0.895783 0.664889 0.100495
Si Si7 0.448227 0.690604 0.421365
O O1 0.871249 0.912150 0.296819
O O2 0.893873 0.725549 0.218701
O O3 0.180972 0.059437 0.323384
O O4 0.025749 0.124061 0.050537
O O5 0.289936 0.666091 0.303132
O O6 0.037084 0.651591 0.158975
O O7 0.385267 0.026756 0.085714
O O8 0.271427 0.880096 0.348709
O O9 0.593949 0.807032 0.317822
O O10 0.625044 0.539125 0.464791
O O11 0.558093 0.646232 0.149531
O O12 0.574058 0.725442 0.849733
O O13 0.294895 0.560559 0.929562
O O14 0.528124 0.828573 0.524350
#
# Coordination Sequence:
#
# PCOD8039931 Si02
#       7
#     2   2   2   2   2   2   2
#     4  10  18  35  58  92 120 146 208 241 290 343
#     4   9  21  40  61  91 117 151 199 250 292 346
#     4  11  23  38  59  90 115 170 190 240 294 358
#     4  10  20  39  66  88 111 154 210 233 298 337
#     4   9  20  38  63  87 114 156 194 249 290 344
#     4  10  18  35  63  93 115 148 199 261 279 342
#     4  11  23  40  58  82 133 154 193 239 308 349
#
# _framework density 21.175049999999999
#
# number of rings (size 3 to 8) (size 9 to 14) (size 15 to 20)
#    0.857    1.143    1.429    3.000    0.000    2.857 
#    2.571    2.857    0.000    0.000    0.000    0.000 
#    0.000    0.000    0.000    0.000    0.000    0.000 
#
# Total GULP energy -173435.535974 kJ/mol
# GULP energy per Si atom -12388.252570 kJ/mol
# Density = 2.112685 g / cm^3
# Si number density = 21.175050 Si / 1000 Ang^3
#
#
#
# Elastic Constant Matrix: (Units=GPa)
#
#
# Indices 1 2 3 4 5 6 
#
# 1 149.3471 40.8121 47.6166 -2.8537 16.9631 36.8704
# 2 40.8121 91.1400 27.9668 4.6479 9.5154 38.7261
# 3 47.6166 27.9668 63.5937 2.5675 9.2062 15.8528
# 4 -2.8537 4.6479 2.5675 13.2320 7.2433 3.3485
# 5 16.9631 9.5154 9.2062 7.2433 39.9105 4.7162
# 6 36.8704 38.7261 15.8528 3.3485 4.7162 38.8290
#
#
#
# Elastic Compliance Matrix: (Units=1/GPa)
#
#
# Indices 1 2 3 4 5 6 
#
# 1 0.011354 0.000746 -0.006300 0.007858 -0.003894 -0.009158
# 2 0.000746 0.020197 -0.004485 -0.000315 -0.001822 -0.018773
# 3 -0.006300 -0.004485 0.022248 -0.004093 -0.000858 0.001829
# 4 0.007858 -0.000315 -0.004093 0.090543 -0.017434 -0.011167
# 5 -0.003894 -0.001822 -0.000858 -0.017434 0.030069 0.003717
# 6 -0.009158 -0.018773 0.001829 -0.011167 0.003717 0.052937
#
#
# Mechanical properties :
#
#
# Convention : Reuss Voigt Hill
#
# Bulk Modulus (GPa) = 29.65449 59.65240 44.65345
# Shear Modulus (GPa) = 19.32995 30.90666 25.11830
#
# Velocity S-wave (km/s) = 3.02464 3.82459 3.44789
# Velocity P-wave (km/s) = 5.12180 6.90909 6.08146
#
# Compressibility (1/GPa) = 0.03372170
#
# Stress axis : x y z
#
# Youngs Moduli (GPa) = 88.07505 49.51197 44.94813
#
# Poissons Ratio (x) = -0.03694 0.28318
# Poissons Ratio (y) = -0.06571 0.20157
# Poissons Ratio (z) = 0.55488 0.22204
#
# Static dielectric constant tensor:
#      x y z
#    x 3.984280 0.275130 -0.107750 
#    y 0.275130 3.468390 0.046870 
#    z -0.107750 0.046870 3.643760 
# 
# 
# High freq. dielectric constant tensor:
#      x y z
#    x 1.828540 0.027290 0.005650 
#    y 0.027290 1.800270 0.002570 
#    z 0.005650 0.002570 1.813390 
# 
# From -- ./inp_files/425306.got.cif
#   From: 2010.06.25/outbox.cif.g09.slc.cpg/sg2_213_cif.got.tgz:425306.got - 2010.06.27 13:26:56.
