data_PCOD8039832
_publ_section_title
;
Structure prediction by ZEFSAII (Michael W. Deem and Ramdas Pophale) SiO2 
 PCOD8039832
Probable space group: P -1
;
_chemical_formula_sum "Si O2"
_cell_formula_units_Z 12
_cell_length_a 12.143033
_cell_length_b 11.565541
_cell_length_c 11.647748
_cell_angle_alpha 39.581083
_cell_angle_beta 67.346596
_cell_angle_gamma 98.480701
_cell_volume 630.023044
_symmetry_space_group_name_H-M "P -1"
_symmetry_group_IT_number 2
_symmetry_cell_setting 'triclinic'
loop_
_space_group_symop_operation_xyz
x,y,z
-x,-y,-z
loop_
_atom_site_type_symbol
_atom_site_label
_atom_site_fract_x
_atom_site_fract_y
_atom_site_fract_z
Si Si1 0.069508 0.929372 0.673277
Si Si2 0.299380 0.403003 0.843247
Si Si3 0.914997 0.120046 0.548808
Si Si4 0.009134 0.443105 0.668755
Si Si5 0.200064 0.307705 0.702496
Si Si6 0.699232 0.871951 0.353676
O O1 0.108129 0.868070 0.586534
O O2 0.218940 0.036016 0.622361
O O3 0.078185 0.158814 0.473403
O O4 0.865738 0.647752 0.018586
O O5 0.289408 0.347416 0.755052
O O6 0.493510 0.713318 0.562425
O O7 0.269961 0.179308 0.095146
O O8 0.960133 0.358573 0.408444
O O9 0.000000 0.500000 0.500000
O O10 0.182421 0.505606 0.555727
O O11 0.820117 0.130684 0.020424
O O12 0.317671 0.354005 0.516831
O O13 0.000000 0.000000 0.000000
#
# Coordination Sequence:
#
# PCOD8039832 Si02
#       6
#     2   2   2   2   2   2
#     4   9  19  39  59  76 115 147 181 218 278 327
#     4  10  19  38  58  82 107 148 187 216 274 332
#     4   9  19  37  59  81 110 148 180 226 271 323
#     4  11  20  35  59  83 110 144 182 229 278 315
#     4  10  18  35  56  78 111 146 176 223 275 325
#     4  11  21  35  60  82 108 150 182 222 275 328
#
# _framework density 19.046921000000001
#
# number of rings (size 3 to 8) (size 9 to 14) (size 15 to 20)
#    1.000    1.000    3.333    3.500    0.000    1.333 
#    0.000    5.833    0.000    0.000    0.000    0.000 
#    0.000    0.000    0.000    0.000    0.000    0.000 
#
# Total GULP energy -148686.954720 kJ/mol
# GULP energy per Si atom -12390.579560 kJ/mol
# Density = 1.900357 g / cm^3
# Si number density = 19.046921 Si / 1000 Ang^3
#
#
#
# Elastic Constant Matrix: (Units=GPa)
#
#
# Indices 1 2 3 4 5 6 
#
# 1 71.8622 59.4165 40.6423 -0.3800 -6.1549 25.3060
# 2 59.4165 160.7518 46.4380 12.1624 8.1576 16.7871
# 3 40.6423 46.4380 80.0282 -3.0296 -7.1573 18.0148
# 4 -0.3800 12.1624 -3.0296 22.4089 5.0137 9.7187
# 5 -6.1549 8.1576 -7.1573 5.0137 26.7906 -6.8513
# 6 25.3060 16.7871 18.0148 9.7187 -6.8513 43.6016
#
#
#
# Elastic Compliance Matrix: (Units=1/GPa)
#
#
# Indices 1 2 3 4 5 6 
#
# 1 0.029361 -0.008451 -0.006571 0.009118 0.002610 -0.012695
# 2 -0.008451 0.010668 -0.003187 -0.006764 -0.004010 0.002992
# 3 -0.006571 -0.003187 0.018897 0.005086 0.002667 -0.003481
# 4 0.009118 -0.006764 0.005086 0.060201 -0.010845 -0.019912
# 5 0.002610 -0.004010 0.002667 -0.010845 0.044001 0.008259
# 6 -0.012695 0.002992 -0.003481 -0.019912 0.008259 0.036325
#
#
# Mechanical properties :
#
#
# Convention : Reuss Voigt Hill
#
# Bulk Modulus (GPa) = 44.42772 67.29286 55.86029
# Shear Modulus (GPa) = 20.54460 29.63656 25.09058
#
# Velocity S-wave (km/s) = 3.28781 3.94887 3.63341
# Velocity P-wave (km/s) = 6.14728 7.49654 6.85519
#
# Compressibility (1/GPa) = 0.02250847
#
# Stress axis : x y z
#
# Youngs Moduli (GPa) = 34.05861 93.74071 52.91962
#
# Poissons Ratio (x) = 0.79218 0.34774
# Poissons Ratio (y) = 0.28782 0.16864
# Poissons Ratio (z) = 0.22380 0.29872
#
# Static dielectric constant tensor:
#      x y z
#    x 3.537200 -0.160280 0.038430 
#    y -0.160280 3.792680 0.232810 
#    z 0.038430 0.232810 3.319000 
# 
# 
# High freq. dielectric constant tensor:
#      x y z
#    x 1.725160 0.011450 0.004980 
#    y 0.011450 1.746850 0.017520 
#    z 0.004980 0.017520 1.712100 
# 
# From -- ./inp_files/224460.got.cif
#   From: 2010.06.25/outbox.cif.g09.slc.cpg/sg2_113_cif.got.tgz:224460.got - 2010.06.27 13:26:56.
