data_PCOD8039217
_publ_section_title
;
Structure prediction by ZEFSAII (Michael W. Deem and Ramdas Pophale) SiO2 
 PCOD8039217
Probable space group: P -1
;
_chemical_formula_sum "Si O2"
_cell_formula_units_Z 16
_cell_length_a 11.911742
_cell_length_b 16.028705
_cell_length_c 11.845694
_cell_angle_alpha 86.426650
_cell_angle_beta 117.627109
_cell_angle_gamma 40.474676
_cell_volume 900.311957
_symmetry_space_group_name_H-M "P -1"
_symmetry_group_IT_number 2
_symmetry_cell_setting 'triclinic'
loop_
_space_group_symop_operation_xyz
x,y,z
-x,-y,-z
loop_
_atom_site_type_symbol
_atom_site_label
_atom_site_fract_x
_atom_site_fract_y
_atom_site_fract_z
Si Si1 0.059412 0.292489 0.302239
Si Si2 0.810126 0.073129 0.236526
Si Si3 0.294206 0.735427 0.633092
Si Si4 0.212122 0.396615 0.965465
Si Si5 0.549768 0.512686 0.143542
Si Si6 0.609942 0.059372 0.598466
Si Si7 0.653404 0.662185 0.714372
Si Si8 0.980772 0.062188 0.099546
O O1 0.315963 0.191281 0.490606
O O2 0.909978 0.437756 0.125094
O O3 0.831546 0.402947 0.281138
O O4 0.167265 0.144392 0.306981
O O5 0.751294 0.189066 0.276844
O O6 0.975215 0.001603 0.207078
O O7 0.506251 0.210670 0.050097
O O8 0.002047 0.897157 0.414455
O O9 0.417009 0.573375 0.733616
O O10 0.513971 0.653218 0.659247
O O11 0.959079 0.480760 0.807232
O O12 0.292228 0.333319 0.137135
O O13 0.500000 0.500000 0.000000
O O14 0.298532 0.718976 0.046783
O O15 0.561300 0.145964 0.458721
O O16 0.745290 0.038919 0.758725
O O17 0.000000 0.000000 0.000000
#
# Coordination Sequence:
#
# PCOD8039217 Si02
#       8
#     2   2   2   2   2   2   2   2
#     4  10  19  32  55  85 114 137 187 240 283 316
#     4  10  18  33  52  81 107 142 189 225 283 324
#     4  10  19  30  56  83 110 138 184 241 277 323
#     4   9  17  28  49  81 113 138 170 231 285 336
#     4  12  20  35  58  86 113 144 192 238 274 329
#     4  10  20  34  53  82 116 144 179 239 282 329
#     4   9  17  29  47  80 116 138 172 223 294 326
#     4  12  24  39  56  81 118 156 190 228 283 344
#
# _framework density 17.771618
#
# number of rings (size 3 to 8) (size 9 to 14) (size 15 to 20)
#    0.000    1.750    5.000    0.750    3.500    0.000 
#    0.000    1.250    0.000    0.000    0.000    1.750 
#    0.000    0.000    0.000    0.000    0.000    0.000 
#
# Total GULP energy -198275.923896 kJ/mol
# GULP energy per Si atom -12392.245244 kJ/mol
# Density = 1.773117 g / cm^3
# Si number density = 17.771618 Si / 1000 Ang^3
#
#
#
# Elastic Constant Matrix: (Units=GPa)
#
#
# Indices 1 2 3 4 5 6 
#
# 1 121.6800 35.5247 56.7933 -5.3918 9.3629 -0.7396
# 2 35.5247 70.9586 47.9787 -0.3947 5.2820 -0.2280
# 3 56.7933 47.9787 106.7000 -13.9937 8.6151 3.3485
# 4 -5.3918 -0.3947 -13.9937 21.2480 3.2555 -0.4597
# 5 9.3629 5.2820 8.6151 3.2555 39.7958 -9.3584
# 6 -0.7396 -0.2280 3.3485 -0.4597 -9.3584 16.4575
#
#
#
# Elastic Compliance Matrix: (Units=1/GPa)
#
#
# Indices 1 2 3 4 5 6 
#
# 1 0.011259 -0.002181 -0.004994 -0.000293 -0.001045 0.000889
# 2 -0.002181 0.021527 -0.009512 -0.006490 0.000814 0.002417
# 3 -0.004994 -0.009512 0.018247 0.011029 -0.003809 -0.005927
# 4 -0.000293 -0.006490 0.011029 0.055116 -0.007106 -0.004848
# 5 -0.001045 0.000814 -0.003809 -0.007106 0.030936 0.018132
# 6 0.000889 0.002417 -0.005927 -0.004848 0.018132 0.072217
#
#
# Mechanical properties :
#
#
# Convention : Reuss Voigt Hill
#
# Bulk Modulus (GPa) = 56.62651 64.43688 60.53170
# Shear Modulus (GPa) = 20.11572 26.10305 23.10939
#
# Velocity S-wave (km/s) = 3.36802 3.83666 3.60995
# Velocity P-wave (km/s) = 6.85984 7.48088 7.17708
#
# Compressibility (1/GPa) = 0.01765957
#
# Stress axis : x y z
#
# Youngs Moduli (GPa) = 88.81985 46.45322 54.80263
#
# Poissons Ratio (x) = 0.10131 0.27369
# Poissons Ratio (y) = 0.19370 0.52128
# Poissons Ratio (z) = 0.44357 0.44186
#
# Static dielectric constant tensor:
#      x y z
#    x 3.538810 0.720590 0.251770 
#    y 0.720590 -0.170240 -0.273980 
#    z 0.251770 -0.273980 3.643010 
# 
# 
# High freq. dielectric constant tensor:
#      x y z
#    x 1.707640 -0.005610 0.006730 
#    y -0.005610 1.604040 -0.038930 
#    z 0.006730 -0.038930 1.707550 
# 
# From -- ./inp_files/281630.got.cif
#   From: 2010.06.25/outbox.cif.g09.slc.cpg/sg2_141_cif.got.tgz:281630.got - 2010.06.27 13:26:56.
