data_PCOD8039172
_publ_section_title
;
Structure prediction by ZEFSAII (Michael W. Deem and Ramdas Pophale) SiO2 
 PCOD8039172
Probable space group: P -1
;
_chemical_formula_sum "Si O2"
_cell_formula_units_Z 14
_cell_length_a 11.000598
_cell_length_b 11.765096
_cell_length_c 13.583282
_cell_angle_alpha 34.050984
_cell_angle_beta 119.658530
_cell_angle_gamma 136.208605
_cell_volume 656.571638
_symmetry_space_group_name_H-M "P -1"
_symmetry_group_IT_number 2
_symmetry_cell_setting 'triclinic'
loop_
_space_group_symop_operation_xyz
x,y,z
-x,-y,-z
loop_
_atom_site_type_symbol
_atom_site_label
_atom_site_fract_x
_atom_site_fract_y
_atom_site_fract_z
Si Si1 0.424909 0.968645 0.694677
Si Si2 0.690767 0.767379 0.671455
Si Si3 0.684884 0.432633 0.751616
Si Si4 0.180070 0.534904 0.551410
Si Si5 0.088625 0.149608 0.626311
Si Si6 0.310402 0.968246 0.858819
Si Si7 0.606728 0.304285 0.294897
O O1 0.336840 0.088480 0.526851
O O2 0.645720 0.183634 0.625057
O O3 0.356827 0.888660 0.835530
O O4 0.351651 0.695376 0.804445
O O5 0.693492 0.554331 0.771956
O O6 0.525330 0.626980 0.785334
O O7 0.873152 0.972149 0.659052
O O8 0.827356 0.657364 0.571710
O O9 0.482482 0.265303 0.746354
O O10 0.735331 0.243072 0.925540
O O11 0.153352 0.305533 0.642978
O O12 0.214204 0.508244 0.699168
O O13 0.000000 0.500000 0.500000
O O14 0.141004 0.960967 0.781782
O O15 0.500000 0.000000 0.500000
#
# Coordination Sequence:
#
# PCOD8039172 Si02
#       7
#     2   2   2   2   2   2   2
#     4  10  18  36  56  85 119 148 190 236 286 336
#     4  10  20  36  57  86 117 150 191 234 283 340
#     4  11  23  38  56  87 116 153 194 234 281 345
#     4  10  18  32  60  89 107 151 196 231 284 340
#     4  12  21  37  62  86 118 151 189 236 286 340
#     4  11  23  38  59  86 116 154 191 234 288 337
#     4   8  17  32  55  84 114 145 193 233 277 342
#
# _framework density 21.322883999999998
#
# number of rings (size 3 to 8) (size 9 to 14) (size 15 to 20)
#    0.000    2.000    2.857    5.143    0.000    0.571 
#    0.000    0.714    0.000    0.857    3.714    0.000 
#    0.000    0.000    0.000    0.000    0.000    0.000 
#
# Total GULP energy -173563.651040 kJ/mol
# GULP energy per Si atom -12397.403646 kJ/mol
# Density = 2.127435 g / cm^3
# Si number density = 21.322884 Si / 1000 Ang^3
#
#
#
# Elastic Constant Matrix: (Units=GPa)
#
#
# Indices 1 2 3 4 5 6 
#
# 1 103.0122 64.0781 27.4079 1.9582 22.6498 1.5127
# 2 64.0781 153.7779 15.3074 0.1524 11.5766 -8.1630
# 3 27.4079 15.3074 56.0857 10.1700 13.8554 8.3269
# 4 1.9582 0.1524 10.1700 17.3391 -2.2994 13.9600
# 5 22.6498 11.5766 13.8554 -2.2994 10.8936 5.7192
# 6 1.5127 -8.1630 8.3269 13.9600 5.7192 52.9448
#
#
#
# Elastic Compliance Matrix: (Units=1/GPa)
#
#
# Indices 1 2 3 4 5 6 
#
# 1 0.029131 -0.006307 0.011745 -0.032213 -0.082844 0.013791
# 2 -0.006307 0.008947 -0.000631 0.000696 0.004008 0.001042
# 3 0.011745 -0.000631 0.045032 -0.056100 -0.102500 0.018349
# 4 -0.032213 0.000696 -0.056100 0.165785 0.201804 -0.055661
# 5 -0.082844 0.004008 -0.102500 0.201804 0.477749 -0.085712
# 6 0.013791 0.001042 0.018349 -0.055661 -0.085712 0.039704
#
#
# Mechanical properties :
#
#
# Convention : Reuss Voigt Hill
#
# Bulk Modulus (GPa) = 10.78465 58.49585 34.64025
# Shear Modulus (GPa) = 6.34806 29.97432 18.16119
#
# Velocity S-wave (km/s) = 1.72730 3.75338 2.92160
# Velocity P-wave (km/s) = 3.00780 6.80270 5.25945
#
# Compressibility (1/GPa) = 0.09272440
#
# Stress axis : x y z
#
# Youngs Moduli (GPa) = 34.32741 111.77218 22.20621
#
# Poissons Ratio (x) = 0.70498 -0.26081
# Poissons Ratio (y) = 0.21651 0.01401
# Poissons Ratio (z) = -0.40318 0.07050
#
# Static dielectric constant tensor:
#      x y z
#    x 4.212410 -0.450550 0.156720 
#    y -0.450550 4.308120 0.053310 
#    z 0.156720 0.053310 3.316950 
# 
# 
# High freq. dielectric constant tensor:
#      x y z
#    x 1.838980 -0.014490 0.022330 
#    y -0.014490 1.856630 0.007420 
#    z 0.022330 0.007420 1.790570 
# 
# From -- ./inp_files/305774.got.cif
#   From: 2010.06.25/outbox.cif.g09.slc.cpg/sg2_153_cif.got.tgz:305774.got - 2010.06.27 13:26:56.
