data_PCOD8039237
_publ_section_title
;
Structure prediction by ZEFSAII (Michael W. Deem and Ramdas Pophale) SiO2 
 PCOD8039237
Probable space group: P -1
;
_chemical_formula_sum "Si O2"
_cell_formula_units_Z 14
_cell_length_a 13.651998
_cell_length_b 11.529977
_cell_length_c 11.760156
_cell_angle_alpha 57.195628
_cell_angle_beta 133.968761
_cell_angle_gamma 85.373423
_cell_volume 734.161006
_symmetry_space_group_name_H-M "P -1"
_symmetry_group_IT_number 2
_symmetry_cell_setting 'triclinic'
loop_
_space_group_symop_operation_xyz
x,y,z
-x,-y,-z
loop_
_atom_site_type_symbol
_atom_site_label
_atom_site_fract_x
_atom_site_fract_y
_atom_site_fract_z
Si Si1 0.169663 0.928341 0.335367
Si Si2 0.932567 0.097681 0.270555
Si Si3 0.875788 0.463294 0.048642
Si Si4 0.766726 0.286723 0.710872
Si Si5 0.470873 0.147324 0.314548
Si Si6 0.324584 0.206709 0.490880
Si Si7 0.579470 0.243276 0.768929
O O1 0.177392 0.787935 0.335599
O O2 0.383058 0.841138 0.534443
O O3 0.130363 0.925433 0.437901
O O4 0.975975 0.170352 0.008303
O O5 0.849032 0.319131 0.087848
O O6 0.755605 0.127741 0.067770
O O7 0.000000 0.000000 0.500000
O O8 0.119009 0.314119 0.334965
O O9 0.761653 0.609063 0.994122
O O10 0.755914 0.629326 0.760084
O O11 0.660893 0.237817 0.716234
O O12 0.621567 0.527464 0.467769
O O13 0.500000 0.000000 0.500000
O O14 0.549171 0.027692 0.320765
O O15 0.497309 0.150230 0.737758
#
# Coordination Sequence:
#
# PCOD8039237 Si02
#       7
#     2   2   2   2   2   2   2
#     4  10  18  33  53  86 114 146 189 238 284 344
#     4  11  23  40  58  77 115 165 202 231 270 340
#     4  10  20  35  57  85 118 149 188 233 291 346
#     4   9  18  30  56  83 117 139 181 247 300 334
#     4  10  19  30  55  87 119 145 175 228 302 354
#     4  10  19  33  58  89 115 145 178 243 305 340
#     4  10  19  34  54  84 113 149 188 236 295 340
#
# _framework density 19.069386000000002
#
# number of rings (size 3 to 8) (size 9 to 14) (size 15 to 20)
#    0.000    2.000    1.429    5.143    4.000    0.000 
#    0.000    3.571    0.000    0.857    0.000    0.000 
#    0.000    0.000    0.000    0.000    0.000    0.000 
#
# Total GULP energy -173468.997918 kJ/mol
# GULP energy per Si atom -12390.642708 kJ/mol
# Density = 1.902598 g / cm^3
# Si number density = 19.069386 Si / 1000 Ang^3
#
#
#
# Elastic Constant Matrix: (Units=GPa)
#
#
# Indices 1 2 3 4 5 6 
#
# 1 71.4169 44.9467 40.1829 0.0805 18.8484 -17.6090
# 2 44.9467 106.7652 48.4731 2.0409 15.6210 -10.5567
# 3 40.1829 48.4731 59.5880 0.1025 24.0704 -9.9223
# 4 0.0805 2.0409 0.1025 33.3001 -4.2857 15.3920
# 5 18.8484 15.6210 24.0704 -4.2857 36.7161 2.1769
# 6 -17.6090 -10.5567 -9.9223 15.3920 2.1769 35.8778
#
#
#
# Elastic Compliance Matrix: (Units=1/GPa)
#
#
# Indices 1 2 3 4 5 6 
#
# 1 0.027438 -0.004767 -0.009549 -0.006544 -0.007312 0.012674
# 2 -0.004767 0.015867 -0.011023 -0.000164 0.002953 -0.000828
# 3 -0.009549 -0.011023 0.040465 -0.004655 -0.017855 0.006341
# 4 -0.006544 -0.000164 -0.004655 0.042644 0.012859 -0.023622
# 5 -0.007312 0.002953 -0.017855 0.012859 0.043879 -0.015837
# 6 0.012674 -0.000828 0.006341 -0.023622 -0.015837 0.046698
#
#
# Mechanical properties :
#
#
# Convention : Reuss Voigt Hill
#
# Bulk Modulus (GPa) = 30.22018 56.10841 43.16429
# Shear Modulus (GPa) = 17.94048 28.12329 23.03189
#
# Velocity S-wave (km/s) = 3.07057 3.84446 3.47910
# Velocity P-wave (km/s) = 5.33415 7.01382 6.23084
#
# Compressibility (1/GPa) = 0.03309048
#
# Stress axis : x y z
#
# Youngs Moduli (GPa) = 36.44643 63.02299 24.71284
#
# Poissons Ratio (x) = 0.30045 0.23598
# Poissons Ratio (y) = 0.17375 0.27242
# Poissons Ratio (z) = 0.34802 0.69472
#
# Static dielectric constant tensor:
#      x y z
#    x 3.420030 -0.223760 0.549280 
#    y -0.223760 3.722410 -0.157710 
#    z 0.549280 -0.157710 3.321470 
# 
# 
# High freq. dielectric constant tensor:
#      x y z
#    x 1.715160 -0.009460 0.053350 
#    y -0.009460 1.754880 -0.005090 
#    z 0.053350 -0.005090 1.709510 
# 
# From -- ./inp_files/238249.got.cif
#   From: 2010.06.25/outbox.cif.g09.slc.cpg/sg2_120_cif.got.tgz:238249.got - 2010.06.27 13:26:56.
