data_PCOD8039163
_publ_section_title
;
Structure prediction by ZEFSAII (Michael W. Deem and Ramdas Pophale) SiO2 
 PCOD8039163
Probable space group: P -1
;
_chemical_formula_sum "Si O2"
_cell_formula_units_Z 16
_cell_length_a 17.294888
_cell_length_b 9.465212
_cell_length_c 5.327921
_cell_angle_alpha 92.799682
_cell_angle_beta 85.731601
_cell_angle_gamma 58.571973
_cell_volume 738.214908
_symmetry_space_group_name_H-M "P -1"
_symmetry_group_IT_number 2
_symmetry_cell_setting 'triclinic'
loop_
_space_group_symop_operation_xyz
x,y,z
-x,-y,-z
loop_
_atom_site_type_symbol
_atom_site_label
_atom_site_fract_x
_atom_site_fract_y
_atom_site_fract_z
Si Si1 0.640111 0.462511 0.842734
Si Si2 0.615517 0.170162 0.863573
Si Si3 0.259651 0.190809 0.073611
Si Si4 0.995156 0.334733 0.483145
Si Si5 0.358150 0.306053 0.750600
Si Si6 0.787751 0.498474 0.564690
Si Si7 0.932147 0.699094 0.037543
Si Si8 0.495900 0.739257 0.610866
O O1 0.647606 0.297879 0.935986
O O2 0.740099 0.419982 0.730495
O O3 0.563817 0.541326 0.644213
O O4 0.601961 0.606096 0.077983
O O5 0.571587 0.220285 0.602035
O O6 0.703834 0.984363 0.810858
O O7 0.555179 0.169369 0.111459
O O8 0.226642 0.333529 0.299468
O O9 0.343650 0.174110 0.890563
O O10 0.173884 0.240980 0.918723
O O11 0.894250 0.366636 0.500893
O O12 0.000000 0.500000 0.500000
O O13 0.045440 0.230284 0.713425
O O14 0.048523 0.228802 0.213666
O O15 0.258733 0.453112 0.692587
O O16 0.430707 0.210481 0.496811
O O17 0.000000 0.500000 0.000000
#
# Coordination Sequence:
#
# PCOD8039163 Si02
#       8
#     2   2   2   2   2   2   2   2
#     4  10  23  43  64  88 119 163 212 246 291 360
#     4  12  27  40  65  88 122 163 201 256 302 355
#     4  11  24  39  59  96 128 153 197 253 316 351
#     4  10  18  32  59  89 113 153 197 239 291 350
#     4  10  22  40  63  91 122 159 204 254 297 355
#     4  10  21  37  63  93 125 154 203 252 296 359
#     4  10  19  34  59  86 119 154 193 239 290 367
#     4  11  24  44  64  87 117 165 213 247 294 359
#
# _framework density 21.673905999999999
#
# number of rings (size 3 to 8) (size 9 to 14) (size 15 to 20)
#    0.000    1.500    3.750    2.250    7.000    1.000 
#    0.000    0.000    0.000    1.500    0.000    0.000 
#    0.000    0.000    0.000    0.000    0.000    0.000 
#
# Total GULP energy -198254.285648 kJ/mol
# GULP energy per Si atom -12390.892853 kJ/mol
# Density = 2.162457 g / cm^3
# Si number density = 21.673906 Si / 1000 Ang^3
#
#
#
# Elastic Constant Matrix: (Units=GPa)
#
#
# Indices 1 2 3 4 5 6 
#
# 1 107.9448 44.8133 40.1925 -8.3120 10.5850 -15.3078
# 2 44.8133 81.9936 24.3504 -12.8418 5.8061 -1.6287
# 3 40.1925 24.3504 140.0049 -22.9923 3.6877 -3.9363
# 4 -8.3120 -12.8418 -22.9923 16.8818 -8.9505 2.2090
# 5 10.5850 5.8061 3.6877 -8.9505 34.4474 -6.8750
# 6 -15.3078 -1.6287 -3.9363 2.2090 -6.8750 12.7036
#
#
#
# Elastic Compliance Matrix: (Units=1/GPa)
#
#
# Indices 1 2 3 4 5 6 
#
# 1 0.016283 -0.008352 -0.003750 -0.006475 -0.001325 0.017797
# 2 -0.008352 0.018215 0.001061 0.012863 0.000899 -0.009151
# 3 -0.003750 0.001061 0.010380 0.015162 0.003411 -0.001956
# 4 -0.006475 0.012863 0.015162 0.099379 0.022737 -0.006430
# 5 -0.001325 0.000899 0.003411 0.022737 0.038066 0.016223
# 6 0.017797 -0.009151 -0.001956 -0.006430 0.016223 0.108282
#
#
# Mechanical properties :
#
#
# Convention : Reuss Voigt Hill
#
# Bulk Modulus (GPa) = 43.86826 60.96173 52.41500
# Shear Modulus (GPa) = 15.61111 27.51236 21.56174
#
# Velocity S-wave (km/s) = 2.68670 3.56670 3.15751
# Velocity P-wave (km/s) = 5.46887 6.71935 6.12610
#
# Compressibility (1/GPa) = 0.02279553
#
# Stress axis : x y z
#
# Youngs Moduli (GPa) = 61.41414 54.89957 96.34163
#
# Poissons Ratio (x) = 0.45855 0.36126
# Poissons Ratio (y) = 0.51296 -0.10224
# Poissons Ratio (z) = 0.23029 -0.05826
#
# Static dielectric constant tensor:
#      x y z
#    x 4.175900 -0.165960 0.182380 
#    y -0.165960 3.374200 -0.538310 
#    z 0.182380 -0.538310 5.293830 
# 
# 
# High freq. dielectric constant tensor:
#      x y z
#    x 1.857260 -0.016660 -0.003890 
#    y -0.016660 1.787410 -0.030150 
#    z -0.003890 -0.030150 1.867780 
# 
# From -- ./inp_files/94493.got.cif
#   From: 2010.06.25/outbox.cif.g09.slc.cpg/sg2_48_cif.got.tgz:94493.got - 2010.06.27 13:26:56.
