data_PCOD8039405
_publ_section_title
;
Structure prediction by ZEFSAII (Michael W. Deem and Ramdas Pophale) SiO2 
 PCOD8039405
Probable space group: P -1
;
_chemical_formula_sum "Si O2"
_cell_formula_units_Z 16
_cell_length_a 11.678352
_cell_length_b 11.579542
_cell_length_c 8.448229
_cell_angle_alpha 125.177959
_cell_angle_beta 110.002696
_cell_angle_gamma 61.229088
_cell_volume 815.174539
_symmetry_space_group_name_H-M "P -1"
_symmetry_group_IT_number 2
_symmetry_cell_setting 'triclinic'
loop_
_space_group_symop_operation_xyz
x,y,z
-x,-y,-z
loop_
_atom_site_type_symbol
_atom_site_label
_atom_site_fract_x
_atom_site_fract_y
_atom_site_fract_z
Si Si1 0.352794 0.065938 0.551360
Si Si2 0.433589 0.647256 0.693689
Si Si3 0.796139 0.677579 0.519345
Si Si4 0.309505 0.779278 0.436438
Si Si5 0.575259 0.572597 0.256842
Si Si6 0.987445 0.541808 0.770354
Si Si7 0.120612 0.614552 0.167613
Si Si8 0.634562 0.665776 0.029221
O O1 0.242135 0.152762 0.435996
O O2 0.349958 0.182828 0.780919
O O3 0.500000 0.000000 0.500000
O O4 0.302055 0.940473 0.496649
O O5 0.500000 0.500000 0.500000
O O6 0.331872 0.774298 0.633976
O O7 0.366399 0.598081 0.775325
O O8 0.537677 0.711551 0.868912
O O9 0.654408 0.663818 0.452814
O O10 0.867864 0.660309 0.707176
O O11 0.884296 0.541714 0.339863
O O12 0.423636 0.646741 0.294899
O O13 0.175620 0.749756 0.316577
O O14 0.583408 0.580278 0.076304
O O15 0.948303 0.406413 0.719124
O O16 0.018659 0.648033 0.000198
O O17 0.227796 0.448177 0.056427
#
# Coordination Sequence:
#
# PCOD8039405 Si02
#       8
#     2   2   2   2   2   2   2   2
#     4  11  22  39  59  89 127 160 188 244 314 366
#     4  10  20  31  54  91 120 148 185 252 300 347
#     4  10  20  38  62  87 115 160 203 242 295 358
#     4  11  22  37  58  90 122 156 191 251 311 350
#     4  10  18  33  59  87 118 145 196 247 302 341
#     4  10  22  38  62  88 115 158 210 250 280 343
#     4  11  21  38  61  90 117 155 205 253 292 341
#     4  11  20  34  60  88 120 157 192 240 300 366
#
# _framework density 19.627699
#
# number of rings (size 3 to 8) (size 9 to 14) (size 15 to 20)
#    0.000    1.500    7.500    1.125    1.750    0.500 
#    0.000    1.250    0.000    0.000    0.000    0.000 
#    0.000    0.000    0.000    0.000    0.000    0.000 
#
# Total GULP energy -198296.095932 kJ/mol
# GULP energy per Si atom -12393.505996 kJ/mol
# Density = 1.958303 g / cm^3
# Si number density = 19.627699 Si / 1000 Ang^3
#
#
#
# Elastic Constant Matrix: (Units=GPa)
#
#
# Indices 1 2 3 4 5 6 
#
# 1 67.8465 22.8509 27.8428 -10.3060 21.4031 15.8618
# 2 22.8509 125.1768 51.3434 -27.3121 21.9828 15.0109
# 3 27.8428 51.3434 95.0151 -22.7505 23.9132 6.5470
# 4 -10.3060 -27.3121 -22.7505 39.1471 -3.8455 5.4741
# 5 21.4031 21.9828 23.9132 -3.8455 28.6212 3.5441
# 6 15.8618 15.0109 6.5470 5.4741 3.5441 31.0895
#
#
#
# Elastic Compliance Matrix: (Units=1/GPa)
#
#
# Indices 1 2 3 4 5 6 
#
# 1 0.023390 0.002004 -0.001646 0.006780 -0.015257 -0.012009
# 2 0.002004 0.012720 -0.003510 0.007717 -0.006426 -0.007051
# 3 -0.001646 -0.003510 0.016721 0.006084 -0.009100 -0.001020
# 4 0.006780 0.007717 0.006084 0.037285 -0.009342 -0.013966
# 5 -0.015257 -0.006426 -0.009100 -0.009342 0.056643 0.007991
# 6 -0.012009 -0.007051 -0.001020 -0.013966 0.007991 0.043460
#
#
# Mechanical properties :
#
#
# Convention : Reuss Voigt Hill
#
# Bulk Modulus (GPa) = 21.49268 54.67917 38.08593
# Shear Modulus (GPa) = 23.58123 32.17166 27.87644
#
# Velocity S-wave (km/s) = 3.46992 4.05297 3.77272
# Velocity P-wave (km/s) = 5.19882 7.05838 6.19873
#
# Compressibility (1/GPa) = 0.04652746
#
# Stress axis : x y z
#
# Youngs Moduli (GPa) = 42.75251 78.61338 59.80473
#
# Poissons Ratio (x) = -0.15756 0.09847
# Poissons Ratio (y) = -0.08569 0.20992
# Poissons Ratio (z) = 0.07039 0.27593
#
# Static dielectric constant tensor:
#      x y z
#    x 3.657970 0.189980 0.082380 
#    y 0.189980 3.797240 -0.415110 
#    z 0.082380 -0.415110 3.582370 
# 
# 
# High freq. dielectric constant tensor:
#      x y z
#    x 1.765430 0.014130 0.011520 
#    y 0.014130 1.747230 -0.032540 
#    z 0.011520 -0.032540 1.753850 
# 
# From -- ./inp_files/263524.got.cif
#   From: 2010.06.25/outbox.cif.g09.slc.cpg/sg2_132_cif.got.tgz:263524.got - 2010.06.27 13:26:56.
