data_PCOD8039919
_publ_section_title
;
Structure prediction by ZEFSAII (Michael W. Deem and Ramdas Pophale) SiO2 
 PCOD8039919
Probable space group: P -1
;
_chemical_formula_sum "Si O2"
_cell_formula_units_Z 14
_cell_length_a 8.690610
_cell_length_b 8.688646
_cell_length_c 11.978796
_cell_angle_alpha 96.115694
_cell_angle_beta 124.826304
_cell_angle_gamma 71.442282
_cell_volume 700.600886
_symmetry_space_group_name_H-M "P -1"
_symmetry_group_IT_number 2
_symmetry_cell_setting 'triclinic'
loop_
_space_group_symop_operation_xyz
x,y,z
-x,-y,-z
loop_
_atom_site_type_symbol
_atom_site_label
_atom_site_fract_x
_atom_site_fract_y
_atom_site_fract_z
Si Si1 0.528702 0.698407 0.813264
Si Si2 0.827720 0.701914 0.122517
Si Si3 0.906648 0.825158 0.555077
Si Si4 0.753238 0.488569 0.270151
Si Si5 0.726336 0.448472 0.687761
Si Si6 0.625882 0.660022 0.456261
Si Si7 0.819062 0.980368 0.296600
O O1 0.413948 0.597610 0.828005
O O2 0.609119 0.606153 0.724283
O O3 0.375551 0.875613 0.734735
O O4 0.709609 0.718059 0.960198
O O5 0.776277 0.573501 0.171343
O O6 0.058512 0.640683 0.181162
O O7 0.769297 0.881637 0.165702
O O8 0.694128 0.822367 0.518427
O O9 0.043763 0.641088 0.617284
O O10 0.002257 0.951010 0.663039
O O11 0.896332 0.858085 0.421336
O O12 0.685285 0.620194 0.349529
O O13 0.742211 0.510738 0.574036
O O14 0.607797 0.314819 0.625130
#
# Coordination Sequence:
#
# PCOD8039919 Si02
#       7
#     2   2   2   2   2   2   2
#     4  10  23  39  54  85 121 152 188 229 285 344
#     4  12  20  38  62  82 114 154 195 236 268 340
#     4  10  18  35  58  87 115 140 188 245 281 332
#     4  10  19  34  63  88 106 146 204 239 279 321
#     4  10  22  35  60  88 113 151 187 235 292 330
#     4  10  18  35  58  87 115 140 188 245 281 332
#     4  10  22  35  60  88 113 151 187 235 292 330
#
# _framework density 19.982845999999999
#
# number of rings (size 3 to 8) (size 9 to 14) (size 15 to 20)
#    0.000    1.714    2.857    2.571    0.000    3.429 
#    0.000    2.857    0.000    1.714    0.000    0.000 
#    0.000    0.000    0.000    0.000    0.000    0.000 
#
# Total GULP energy -173532.832801 kJ/mol
# GULP energy per Si atom -12395.202343 kJ/mol
# Density = 1.993736 g / cm^3
# Si number density = 19.982846 Si / 1000 Ang^3
#
#
#
# Elastic Constant Matrix: (Units=GPa)
#
#
# Indices 1 2 3 4 5 6 
#
# 1 87.9268 30.3147 22.6221 4.0039 21.9796 17.9232
# 2 30.3147 68.4381 13.1943 3.7301 12.3231 2.8141
# 3 22.6221 13.1943 91.2712 5.0773 23.2435 5.2849
# 4 4.0039 3.7301 5.0773 16.0566 7.0013 2.7931
# 5 21.9796 12.3231 23.2435 7.0013 32.7613 4.4256
# 6 17.9232 2.8141 5.2849 2.7931 4.4256 38.4179
#
#
#
# Elastic Compliance Matrix: (Units=1/GPa)
#
#
# Indices 1 2 3 4 5 6 
#
# 1 0.016823 -0.005657 -0.001060 0.002062 -0.007966 -0.006520
# 2 -0.005657 0.017666 -0.000569 -0.001827 -0.002301 0.001821
# 3 -0.001060 -0.000569 0.013515 -0.000068 -0.008605 -0.000327
# 4 0.002062 -0.001827 -0.000068 0.069442 -0.014928 -0.004148
# 5 -0.007966 -0.002301 -0.008605 -0.014928 0.045912 0.000865
# 6 -0.006520 0.001821 -0.000327 -0.004148 0.000865 0.029185
#
#
# Mechanical properties :
#
#
# Convention : Reuss Voigt Hill
#
# Bulk Modulus (GPa) = 29.91246 42.21095 36.06170
# Shear Modulus (GPa) = 22.90831 29.54752 26.22791
#
# Velocity S-wave (km/s) = 3.38952 3.84949 3.62680
# Velocity P-wave (km/s) = 5.50637 6.39746 5.96857
#
# Compressibility (1/GPa) = 0.03343088
#
# Stress axis : x y z
#
# Youngs Moduli (GPa) = 59.44268 56.60450 73.98913
#
# Poissons Ratio (x) = 0.32022 0.07845
# Poissons Ratio (y) = 0.33628 0.04214
# Poissons Ratio (z) = 0.06303 0.03224
#
# Static dielectric constant tensor:
#      x y z
#    x 3.744490 0.288850 0.346020 
#    y 0.288850 3.521390 0.168970 
#    z 0.346020 0.168970 3.531070 
# 
# 
# High freq. dielectric constant tensor:
#      x y z
#    x 1.778520 0.020550 0.023200 
#    y 0.020550 1.763550 0.009180 
#    z 0.023200 0.009180 1.777810 
# 
# From -- ./inp_files/152192.got.cif
#   From: 2010.06.25/outbox.cif.g09.slc.cpg/sg2_77_cif.got.tgz:152192.got - 2010.06.27 13:26:56.
