data_PCOD8039385
_publ_section_title
;
Structure prediction by ZEFSAII (Michael W. Deem and Ramdas Pophale) SiO2 
 PCOD8039385
Probable space group: P -1
;
_chemical_formula_sum "Si O2"
_cell_formula_units_Z 16
_cell_length_a 16.014667
_cell_length_b 8.526704
_cell_length_c 12.017134
_cell_angle_alpha 146.108348
_cell_angle_beta 45.849148
_cell_angle_gamma 117.605630
_cell_volume 628.935464
_symmetry_space_group_name_H-M "P -1"
_symmetry_group_IT_number 2
_symmetry_cell_setting 'triclinic'
loop_
_space_group_symop_operation_xyz
x,y,z
-x,-y,-z
loop_
_atom_site_type_symbol
_atom_site_label
_atom_site_fract_x
_atom_site_fract_y
_atom_site_fract_z
Si Si1 0.687476 0.264752 0.710728
Si Si2 0.966801 0.450826 0.335682
Si Si3 0.298550 0.259719 0.311174
Si Si4 0.950194 0.298424 0.793775
Si Si5 0.454855 0.598374 0.476898
Si Si6 0.046036 0.926713 0.684732
Si Si7 0.701339 0.342802 0.978635
Si Si8 0.548167 0.855275 0.098711
O O1 0.813697 0.077428 0.430602
O O2 0.715932 0.436507 0.893788
O O3 0.598226 0.068799 0.712371
O O4 0.613389 0.508126 0.837145
O O5 0.820263 0.574689 0.552863
O O6 0.004204 0.132477 0.179648
O O7 0.004774 0.446969 0.165093
O O8 0.030830 0.663350 0.465690
O O9 0.341089 0.488969 0.482761
O O10 0.266894 0.012260 0.268884
O O11 0.410006 0.068073 0.016983
O O12 0.803535 0.415421 0.003113
O O13 0.000000 0.000000 0.500000
O O14 0.987767 0.234261 0.852355
O O15 0.500000 0.500000 0.500000
O O16 0.408124 0.954240 0.735522
O O17 0.565061 0.505916 0.234784
#
# Coordination Sequence:
#
# PCOD8039385 Si02
#       8
#     2   2   2   2   2   2   2   2
#     4  11  21  40  66  93 131 170 214 270 333 392
#     4  10  19  33  62  99 125 167 222 266 324 393
#     4  12  21  41  69  93 131 171 218 267 327 397
#     4  10  18  33  58  99 122 165 226 264 316 396
#     4  12  26  41  65  99 130 173 219 270 328 392
#     4  10  18  33  62  99 124 170 221 262 331 395
#     4  12  21  39  64  94 128 172 215 266 326 390
#     4  11  25  42  63  99 129 167 220 270 326 394
#
# _framework density 25.439813000000001
#
# number of rings (size 3 to 8) (size 9 to 14) (size 15 to 20)
#    0.000    1.000    8.750    1.125    0.000    0.500 
#    0.000    0.000    0.000    5.250    0.000    0.000 
#    0.000    0.000    0.000    0.000    0.000    0.000 
#
# Total GULP energy -198233.202220 kJ/mol
# GULP energy per Si atom -12389.575139 kJ/mol
# Density = 2.538191 g / cm^3
# Si number density = 25.439813 Si / 1000 Ang^3
#
#
#
# Elastic Constant Matrix: (Units=GPa)
#
#
# Indices 1 2 3 4 5 6 
#
# 1 109.6705 47.8471 20.6325 -8.0027 -16.8427 10.5278
# 2 47.8471 156.1241 21.4506 -10.9728 -6.2269 -14.1668
# 3 20.6325 21.4506 16.6241 -5.4612 -3.8569 8.2562
# 4 -8.0027 -10.9728 -5.4612 34.6809 2.8849 -0.6828
# 5 -16.8427 -6.2269 -3.8569 2.8849 26.4708 -13.2618
# 6 10.5278 -14.1668 8.2562 -0.6828 -13.2618 51.7739
#
#
#
# Elastic Compliance Matrix: (Units=1/GPa)
#
#
# Indices 1 2 3 4 5 6 
#
# 1 0.013327 -0.002074 -0.012596 -0.000085 0.006343 0.000355
# 2 -0.002074 0.009162 -0.011212 0.000613 0.001723 0.005166
# 3 -0.012596 -0.011212 0.100958 0.009590 -0.006015 -0.018020
# 4 -0.000085 0.000613 0.009590 0.030709 -0.002673 -0.001624
# 5 0.006343 0.001723 -0.006015 -0.002673 0.047824 0.012356
# 6 0.000355 0.005166 -0.018020 -0.001624 0.012356 0.026673
#
#
# Mechanical properties :
#
#
# Convention : Reuss Voigt Hill
#
# Bulk Modulus (GPa) = 13.95043 51.36432 32.65738
# Shear Modulus (GPa) = 16.43048 35.41770 25.92409
#
# Velocity S-wave (km/s) = 2.54413 3.73529 3.19570
# Velocity P-wave (km/s) = 3.75842 6.23198 5.14603
#
# Compressibility (1/GPa) = 0.07168237
#
# Stress axis : x y z
#
# Youngs Moduli (GPa) = 75.03645 109.14697 9.90507
#
# Poissons Ratio (x) = 0.22642 0.12476
# Poissons Ratio (y) = 0.15566 0.11106
# Poissons Ratio (z) = 0.94516 1.22375
#
# Static dielectric constant tensor:
#      x y z
#    x 4.635260 -0.065140 -0.093860 
#    y -0.065140 5.193530 -0.023770 
#    z -0.093860 -0.023770 4.111340 
# 
# 
# High freq. dielectric constant tensor:
#      x y z
#    x 2.017780 -0.003430 -0.010090 
#    y -0.003430 2.037870 -0.010760 
#    z -0.010090 -0.010760 1.973770 
# 
# From -- ./inp_files/448299.got.cif
#   From: 2010.06.25/outbox.cif.g09.slc.cpg/sg2_225_cif.got.tgz:448299.got - 2010.06.27 13:26:56.
