data_PCOD8039410
_publ_section_title
;
Structure prediction by ZEFSAII (Michael W. Deem and Ramdas Pophale) SiO2 
 PCOD8039410
Probable space group: P -1
;
_chemical_formula_sum "Si O2"
_cell_formula_units_Z 16
_cell_length_a 18.151695
_cell_length_b 9.690200
_cell_length_c 9.496668
_cell_angle_alpha 150.239082
_cell_angle_beta 79.742770
_cell_angle_gamma 101.963069
_cell_volume 811.143545
_symmetry_space_group_name_H-M "P -1"
_symmetry_group_IT_number 2
_symmetry_cell_setting 'triclinic'
loop_
_space_group_symop_operation_xyz
x,y,z
-x,-y,-z
loop_
_atom_site_type_symbol
_atom_site_label
_atom_site_fract_x
_atom_site_fract_y
_atom_site_fract_z
Si Si1 0.609199 0.024472 0.758334
Si Si2 0.801578 0.587865 0.367590
Si Si3 0.272791 0.021539 0.097445
Si Si4 0.823927 0.954454 0.440957
Si Si5 0.513783 0.477502 0.310247
Si Si6 0.911461 0.490452 0.027307
Si Si7 0.318226 0.858325 0.456444
Si Si8 0.357727 0.287273 0.046413
O O1 0.663870 0.885753 0.725160
O O2 0.546037 0.782478 0.512984
O O3 0.652102 0.163710 0.731864
O O4 0.572868 0.259182 0.066872
O O5 0.797715 0.795787 0.686899
O O6 0.770827 0.760495 0.397856
O O7 0.885278 0.523131 0.230367
O O8 0.749505 0.307230 0.172474
O O9 0.304355 0.090535 0.993548
O O10 0.768656 0.068038 0.446145
O O11 0.872137 0.203181 0.726356
O O12 0.883365 0.750850 0.177158
O O13 0.500000 0.500000 0.500000
O O14 0.437895 0.382561 0.169603
O O15 0.000000 0.500000 0.000000
O O16 0.317146 0.557723 0.261668
O O17 0.368941 0.098159 0.737899
#
# Coordination Sequence:
#
# PCOD8039410 Si02
#       8
#     2   2   2   2   2   2   2   2
#     4  12  24  40  71  79 120 161 207 262 331 363
#     4  10  19  34  61  90 124 146 212 236 299 356
#     4  12  22  39  62  91 111 169 202 265 299 358
#     4  10  20  36  59  93 127 157 196 246 301 363
#     4  12  26  43  61  90 116 160 210 268 320 379
#     4  10  18  33  60 101 134 153 191 256 300 345
#     4  12  25  44  61  94 123 165 202 263 310 378
#     4  12  28  41  61  88 127 155 218 257 320 375
#
# _framework density 19.725238999999998
#
# number of rings (size 3 to 8) (size 9 to 14) (size 15 to 20)
#    0.750    0.000    3.750    4.500    3.500    3.000 
#    0.000    0.000    0.000    0.000    0.000   17.500 
#    0.000    0.000    0.000    0.000    0.000    0.000 
#
# Total GULP energy -198283.545467 kJ/mol
# GULP energy per Si atom -12392.721592 kJ/mol
# Density = 1.968034 g / cm^3
# Si number density = 19.725239 Si / 1000 Ang^3
#
#
#
# Elastic Constant Matrix: (Units=GPa)
#
#
# Indices 1 2 3 4 5 6 
#
# 1 92.4140 52.0460 39.0008 5.4507 -11.7818 3.7454
# 2 52.0460 85.3300 40.8976 10.9572 -0.6515 -6.0399
# 3 39.0008 40.8976 133.2110 17.6858 -5.5841 0.9869
# 4 5.4507 10.9572 17.6858 34.8080 3.3838 -2.8551
# 5 -11.7818 -0.6515 -5.5841 3.3838 29.2634 1.2479
# 6 3.7454 -6.0399 0.9869 -2.8551 1.2479 14.6463
#
#
#
# Elastic Compliance Matrix: (Units=1/GPa)
#
#
# Indices 1 2 3 4 5 6 
#
# 1 0.019612 -0.011816 -0.001698 -0.000101 0.007766 -0.010455
# 2 -0.011816 0.021523 -0.003221 -0.001781 -0.005208 0.012211
# 3 -0.001698 -0.003221 0.009606 -0.003962 0.001640 -0.002453
# 4 -0.000101 -0.001781 -0.003962 0.032303 -0.004839 0.006268
# 5 0.007766 -0.005208 0.001640 -0.004839 0.038417 -0.008461
# 6 -0.010455 0.012211 -0.002453 0.006268 -0.008461 0.078094
#
#
# Mechanical properties :
#
#
# Convention : Reuss Voigt Hill
#
# Bulk Modulus (GPa) = 57.89849 63.87155 60.88502
# Shear Modulus (GPa) = 20.93978 27.67760 24.30869
#
# Velocity S-wave (km/s) = 3.26171 3.74994 3.51431
# Velocity P-wave (km/s) = 6.60312 7.15544 6.88482
#
# Compressibility (1/GPa) = 0.01727161
#
# Stress axis : x y z
#
# Youngs Moduli (GPa) = 50.98979 46.46152 104.10531
#
# Poissons Ratio (x) = 0.54899 0.17674
# Poissons Ratio (y) = 0.60250 0.33531
# Poissons Ratio (z) = 0.08656 0.14964
#
# Static dielectric constant tensor:
#      x y z
#    x 3.474590 0.057030 -0.169440 
#    y 0.057030 3.522600 0.073110 
#    z -0.169440 0.073110 3.878120 
# 
# 
# High freq. dielectric constant tensor:
#      x y z
#    x 1.743380 0.011490 -0.014460 
#    y 0.011490 1.750350 0.017240 
#    z -0.014460 0.017240 1.796070 
# 
# From -- ./inp_files/329738.got.cif
#   From: 2010.06.25/outbox.cif.g09.slc.cpg/sg2_165_cif.got.tgz:329738.got - 2010.06.27 13:26:56.
