data_PCOD8039203
_publ_section_title
;
Structure prediction by ZEFSAII (Michael W. Deem and Ramdas Pophale) SiO2 
 PCOD8039203
Probable space group: P -1
;
_chemical_formula_sum "Si O2"
_cell_formula_units_Z 14
_cell_length_a 11.719022
_cell_length_b 14.210631
_cell_length_c 11.582648
_cell_angle_alpha 93.462127
_cell_angle_beta 106.600958
_cell_angle_gamma 147.579139
_cell_volume 802.385629
_symmetry_space_group_name_H-M "P -1"
_symmetry_group_IT_number 2
_symmetry_cell_setting 'triclinic'
loop_
_space_group_symop_operation_xyz
x,y,z
-x,-y,-z
loop_
_atom_site_type_symbol
_atom_site_label
_atom_site_fract_x
_atom_site_fract_y
_atom_site_fract_z
Si Si1 0.397280 0.321834 0.819593
Si Si2 0.680576 0.909244 0.729378
Si Si3 0.803577 0.624982 0.160778
Si Si4 0.829120 0.461510 0.577076
Si Si5 0.658473 0.511257 0.669947
Si Si6 0.152230 0.160372 0.330350
Si Si7 0.166567 0.526696 0.678230
O O1 0.282355 0.346759 0.784327
O O2 0.602259 0.450918 0.782969
O O3 0.558279 0.418119 0.992076
O O4 0.149462 0.070617 0.721272
O O5 0.489290 0.796234 0.553452
O O6 0.786098 0.877019 0.747883
O O7 0.493925 0.783132 0.782132
O O8 0.932807 0.160983 0.825539
O O9 0.888436 0.601612 0.267610
O O10 0.843495 0.558792 0.676287
O O11 0.946808 0.575699 0.492377
O O12 0.006398 0.502073 0.683261
O O13 0.368055 0.314327 0.508108
O O14 0.836468 0.732789 0.725419
#
# Coordination Sequence:
#
# PCOD8039203 Si02
#       7
#     2   2   2   2   2   2   2
#     4  10  21  33  47  78 103 128 162 200 233 307
#     4   8  16  32  50  77  95 123 165 203 239 291
#     4  10  20  32  52  72 101 135 161 191 252 284
#     4   8  18  34  52  76  96 122 170 205 244 279
#     4  10  18  33  51  73 102 127 159 204 246 289
#     4   9  18  31  52  75  97 131 159 196 257 280
#     4   9  17  35  51  73 100 124 163 212 235 287
#
# _framework density 17.447970000000002
#
# number of rings (size 3 to 8) (size 9 to 14) (size 15 to 20)
#    0.857    2.000    0.000    1.286    2.000    1.714 
#    0.000    5.000    0.000    1.714    0.000    0.000 
#    0.000    0.000    0.000    0.000    0.000    0.000 
#
# Total GULP energy -173526.444184 kJ/mol
# GULP energy per Si atom -12394.746013 kJ/mol
# Density = 1.740826 g / cm^3
# Si number density = 17.447970 Si / 1000 Ang^3
#
#
#
# Elastic Constant Matrix: (Units=GPa)
#
#
# Indices 1 2 3 4 5 6 
#
# 1 119.6863 65.5881 34.9174 -0.4798 11.2462 -2.4833
# 2 65.5881 102.1220 29.3439 5.9398 -3.0374 -12.8165
# 3 34.9174 29.3439 38.5237 0.7295 0.5060 -13.7676
# 4 -0.4798 5.9398 0.7295 19.1588 -0.7354 -1.2568
# 5 11.2462 -3.0374 0.5060 -0.7354 17.4826 -3.8791
# 6 -2.4833 -12.8165 -13.7676 -1.2568 -3.8791 24.9386
#
#
#
# Elastic Compliance Matrix: (Units=1/GPa)
#
#
# Indices 1 2 3 4 5 6 
#
# 1 0.020173 -0.011236 -0.014727 0.002924 -0.017594 -0.014485
# 2 -0.011236 0.019199 -0.000966 -0.005064 0.012579 0.009916
# 3 -0.014727 -0.000966 0.049752 0.000392 0.014030 0.027705
# 4 0.002924 -0.005064 0.000392 0.053846 -0.000383 0.000559
# 5 -0.017594 0.012579 0.014030 -0.000383 0.075652 0.024206
# 6 -0.014485 0.009916 0.027705 0.000559 0.024206 0.062841
#
#
# Mechanical properties :
#
#
# Convention : Reuss Voigt Hill
#
# Bulk Modulus (GPa) = 28.35534 57.78118 43.06826
# Shear Modulus (GPa) = 14.40605 21.01482 17.71044
#
# Velocity S-wave (km/s) = 2.87654 3.47425 3.18943
# Velocity P-wave (km/s) = 5.22679 7.02012 6.18876
#
# Compressibility (1/GPa) = 0.03526673
#
# Stress axis : x y z
#
# Youngs Moduli (GPa) = 49.57010 52.08574 20.09969
#
# Poissons Ratio (x) = 0.58523 0.29602
# Poissons Ratio (y) = 0.55697 0.01941
# Poissons Ratio (z) = 0.73004 0.05029
#
# Static dielectric constant tensor:
#      x y z
#    x 3.152720 0.044300 0.050440 
#    y 0.044300 3.123770 0.153000 
#    z 0.050440 0.153000 2.926300 
# 
# 
# High freq. dielectric constant tensor:
#      x y z
#    x 1.663450 0.002640 0.006120 
#    y 0.002640 1.667770 0.007810 
#    z 0.006120 0.007810 1.643000 
# 
# From -- ./inp_files/431478.got.cif
#   From: 2010.06.25/outbox.cif.g09.slc.cpg/sg2_216_cif.got.tgz:431478.got - 2010.06.27 13:26:56.
