data_PCOD8039004
_publ_section_title
;
Structure prediction by ZEFSAII (Michael W. Deem and Ramdas Pophale) SiO2 
 PCOD8039004
Probable space group: P -1
;
_chemical_formula_sum "Si O2"
_cell_formula_units_Z 16
_cell_length_a 12.017608
_cell_length_b 21.503634
_cell_length_c 14.006111
_cell_angle_alpha 132.766283
_cell_angle_beta 159.208064
_cell_angle_gamma 51.710304
_cell_volume 941.636166
_symmetry_space_group_name_H-M "P -1"
_symmetry_group_IT_number 2
_symmetry_cell_setting 'triclinic'
loop_
_space_group_symop_operation_xyz
x,y,z
-x,-y,-z
loop_
_atom_site_type_symbol
_atom_site_label
_atom_site_fract_x
_atom_site_fract_y
_atom_site_fract_z
Si Si1 0.262549 0.558810 0.821360
Si Si2 0.519044 0.278081 0.921871
Si Si3 0.904711 0.188817 0.293960
Si Si4 0.494051 0.811167 0.505655
Si Si5 0.106754 0.721907 0.953414
Si Si6 0.336184 0.901870 0.666570
Si Si7 0.378212 0.098124 0.904848
Si Si8 0.259717 0.059384 0.319101
O O1 0.000000 0.500000 0.500000
O O2 0.500000 0.500000 0.000000
O O3 0.443307 0.619203 0.949749
O O4 0.105044 0.619192 0.837002
O O5 0.626711 0.237982 0.864690
O O6 0.159520 0.245853 0.619933
O O7 0.757741 0.249772 0.163290
O O8 0.088255 0.113631 0.316845
O O9 0.625195 0.153393 0.098988
O O10 0.196872 0.754122 0.165560
O O11 0.413704 0.846589 0.580693
O O12 0.566901 0.886353 0.568210
O O13 0.774968 0.750217 0.680980
O O14 0.974250 0.880106 0.382063
O O15 0.410964 0.999998 0.803516
O O16 0.557410 0.880185 0.909882
O O17 0.500000 0.000000 0.500000
O O18 0.000000 0.000000 0.000000
#
# Coordination Sequence:
#
# PCOD8039004 Si02
#       8
#     2   2   2   2   2   2   2   2
#     4  10  18  32  52  78 116 146 164 194 246 330
#     4  10  20  33  52  77 109 142 160 206 260 317
#     4  12  20  37  51  73 109 138 174 220 271 308
#     4  12  20  37  51  73 109 138 174 220 271 308
#     4  10  20  33  52  77 109 142 160 206 260 317
#     4  10  22  38  54  72  98 140 191 235 269 296
#     4  10  22  38  54  72  98 140 191 235 269 296
#     4  12  22  30  46  72  98 134 174 206 260 318
#
# _framework density 16.991700999999999
#
# number of rings (size 3 to 8) (size 9 to 14) (size 15 to 20)
#    0.750    0.500    2.500    5.250    0.000    3.000 
#    0.000    0.000    0.000    0.000    0.000    0.000 
#    0.000   70.000    0.000    0.000    0.000    0.000 
#
# Total GULP energy -198339.659782 kJ/mol
# GULP energy per Si atom -12396.228736 kJ/mol
# Density = 1.695303 g / cm^3
# Si number density = 16.991701 Si / 1000 Ang^3
#
#
#
# Elastic Constant Matrix: (Units=GPa)
#
#
# Indices 1 2 3 4 5 6 
#
# 1 58.7683 35.5528 16.5746 6.8614 -4.0444 -6.3967
# 2 35.5528 121.9796 53.9873 -9.3990 -6.8999 3.1560
# 3 16.5746 53.9873 116.5267 1.2587 -17.4702 3.6908
# 4 6.8614 -9.3990 1.2587 36.4668 4.6666 -8.2246
# 5 -4.0444 -6.8999 -17.4702 4.6666 31.5876 3.9246
# 6 -6.3967 3.1560 3.6908 -8.2246 3.9246 14.5289
#
#
#
# Elastic Compliance Matrix: (Units=1/GPa)
#
#
# Indices 1 2 3 4 5 6 
#
# 1 0.022898 -0.007162 -0.000054 -0.004222 0.000839 0.009034
# 2 -0.007162 0.012894 -0.005173 0.004674 -0.001453 -0.001601
# 3 -0.000054 -0.005173 0.012279 -0.004046 0.007023 -0.006207
# 4 -0.004222 0.004674 -0.004046 0.035486 -0.009588 0.020832
# 5 0.000839 -0.001453 0.007023 -0.009588 0.038864 -0.017025
# 6 0.009034 -0.001601 -0.006207 0.020832 -0.017025 0.091122
#
#
# Mechanical properties :
#
#
# Convention : Reuss Voigt Hill
#
# Bulk Modulus (GPa) = 42.92807 56.61156 49.76982
# Shear Modulus (GPa) = 20.31814 29.26064 24.78939
#
# Velocity S-wave (km/s) = 3.46174 4.15427 3.82371
# Velocity P-wave (km/s) = 6.42629 7.51000 6.98918
#
# Compressibility (1/GPa) = 0.02329478
#
# Stress axis : x y z
#
# Youngs Moduli (GPa) = 43.67243 77.55277 81.43822
#
# Poissons Ratio (x) = 0.55542 0.00436
# Poissons Ratio (y) = 0.31277 0.42128
# Poissons Ratio (z) = 0.00234 0.40118
#
# Static dielectric constant tensor:
#      x y z
#    x 2.975460 0.009990 -0.129460 
#    y 0.009990 3.106890 -0.029890 
#    z -0.129460 -0.029890 3.321980 
# 
# 
# High freq. dielectric constant tensor:
#      x y z
#    x 1.631670 0.002810 -0.017200 
#    y 0.002810 1.643460 -0.008440 
#    z -0.017200 -0.008440 1.677660 
# 
# From -- ./inp_files/523277.got.cif
#   From: 2010.06.25/outbox.cif.g09.slc.cpg/sg2_262_cif.got.tgz:523277.got - 2010.06.27 13:26:56.
