data_PCOD8039898
_publ_section_title
;
Structure prediction by ZEFSAII (Michael W. Deem and Ramdas Pophale) SiO2 
 PCOD8039898
Probable space group: P -1
;
_chemical_formula_sum "Si O2"
_cell_formula_units_Z 14
_cell_length_a 9.322614
_cell_length_b 14.561310
_cell_length_c 11.478525
_cell_angle_alpha 129.856757
_cell_angle_beta 39.132086
_cell_angle_gamma 109.773130
_cell_volume 713.187465
_symmetry_space_group_name_H-M "P -1"
_symmetry_group_IT_number 2
_symmetry_cell_setting 'triclinic'
loop_
_space_group_symop_operation_xyz
x,y,z
-x,-y,-z
loop_
_atom_site_type_symbol
_atom_site_label
_atom_site_fract_x
_atom_site_fract_y
_atom_site_fract_z
Si Si1 0.386061 0.279616 0.995581
Si Si2 0.835090 0.523586 0.858947
Si Si3 0.262253 0.614617 0.740464
Si Si4 0.144409 0.614849 0.499686
Si Si5 0.630656 0.411202 0.094539
Si Si6 0.198052 0.827396 0.782086
Si Si7 0.661212 0.971068 0.259589
O O1 0.397614 0.350172 0.922056
O O2 0.594801 0.287717 0.956309
O O3 0.122361 0.380119 0.284288
O O4 0.409546 0.134121 0.854615
O O5 0.850021 0.413868 0.664875
O O6 0.058335 0.575843 0.771152
O O7 0.799933 0.468891 0.960559
O O8 0.500000 0.500000 0.500000
O O9 0.217575 0.643592 0.929487
O O10 0.310248 0.731346 0.738777
O O11 0.364268 0.517794 0.357857
O O12 0.155776 0.755266 0.633495
O O13 0.378074 0.904861 0.696037
O O14 0.944690 0.919899 0.068848
O O15 0.500000 0.000000 0.500000
#
# Coordination Sequence:
#
# PCOD8039898 Si02
#       7
#     2   2   2   2   2   2   2
#     4  10  19  37  57  85 111 153 203 241 282 342
#     4  11  21  33  56  90 117 150 193 243 292 350
#     4  12  21  38  56  85 126 155 181 232 308 367
#     4  10  18  35  58  82 119 146 195 239 290 343
#     4  11  22  32  56  88 122 152 184 241 304 350
#     4  10  22  38  60  90 116 154 197 244 290 345
#     4  10  22  38  63  86 112 154 207 249 279 328
#
# _framework density 19.630184
#
# number of rings (size 3 to 8) (size 9 to 14) (size 15 to 20)
#    0.000    1.429    4.286    4.714    4.000    0.000 
#    2.571    0.714    0.000    0.857    0.000    0.000 
#    0.000    0.000    0.000    0.000    0.000    0.000 
#
# Total GULP energy -173440.873146 kJ/mol
# GULP energy per Si atom -12388.633796 kJ/mol
# Density = 1.958550 g / cm^3
# Si number density = 19.630184 Si / 1000 Ang^3
#
#
#
# Elastic Constant Matrix: (Units=GPa)
#
#
# Indices 1 2 3 4 5 6 
#
# 1 113.3071 49.3812 17.9101 3.9589 14.1247 -11.9718
# 2 49.3812 158.9106 43.0211 1.0480 19.6711 -12.9785
# 3 17.9101 43.0211 60.3219 -2.6627 5.7413 -2.8237
# 4 3.9589 1.0480 -2.6627 23.1819 -2.0079 2.5340
# 5 14.1247 19.6711 5.7413 -2.0079 17.6368 -2.4729
# 6 -11.9718 -12.9785 -2.8237 2.5340 -2.4729 33.7766
#
#
#
# Elastic Compliance Matrix: (Units=1/GPa)
#
#
# Indices 1 2 3 4 5 6 
#
# 1 0.011084 -0.002130 -0.001189 -0.002760 -0.006039 0.002776
# 2 -0.002130 0.009462 -0.005424 -0.001513 -0.006969 0.002030
# 3 -0.001189 -0.005424 0.020846 0.002984 0.000421 -0.000956
# 4 -0.002760 -0.001513 0.002984 0.045121 0.007481 -0.004147
# 5 -0.006039 -0.006969 0.000421 0.007481 0.069993 -0.000220
# 6 0.002776 0.002030 -0.000956 -0.004147 -0.000220 0.031586
#
#
# Mechanical properties :
#
#
# Convention : Reuss Voigt Hill
#
# Bulk Modulus (GPa) = 41.83064 61.46273 51.64668
# Shear Modulus (GPa) = 23.41419 29.73418 26.57419
#
# Velocity S-wave (km/s) = 3.45739 3.89616 3.68331
# Velocity P-wave (km/s) = 6.10685 7.18459 6.66753
#
# Compressibility (1/GPa) = 0.02390592
#
# Stress axis : x y z
#
# Youngs Moduli (GPa) = 90.21691 105.68998 47.97098
#
# Poissons Ratio (x) = 0.22513 0.05704
# Poissons Ratio (y) = 0.19217 0.26019
# Poissons Ratio (z) = 0.10727 0.57326
#
# Static dielectric constant tensor:
#      x y z
#    x 9.275320 -2.076010 0.691930 
#    y -2.076010 4.489140 -0.214760 
#    z 0.691930 -0.214760 3.557360 
# 
# 
# High freq. dielectric constant tensor:
#      x y z
#    x 1.748700 0.012050 0.019270 
#    y 0.012050 1.773740 -0.013290 
#    z 0.019270 -0.013290 1.749250 
# 
# From -- ./inp_files/256059.got.cif
#   From: 2010.06.25/outbox.cif.g09.slc.cpg/sg2_129_cif.got.tgz:256059.got - 2010.06.27 13:26:56.
