data_PCOD8039459
_publ_section_title
;
Structure prediction by ZEFSAII (Michael W. Deem and Ramdas Pophale) SiO2 
 PCOD8039459
Probable space group: P -1
;
_chemical_formula_sum "Si O2"
_cell_formula_units_Z 14
_cell_length_a 9.406192
_cell_length_b 14.002119
_cell_length_c 14.205615
_cell_angle_alpha 146.277208
_cell_angle_beta 123.471352
_cell_angle_gamma 81.638033
_cell_volume 638.097333
_symmetry_space_group_name_H-M "P -1"
_symmetry_group_IT_number 2
_symmetry_cell_setting 'triclinic'
loop_
_space_group_symop_operation_xyz
x,y,z
-x,-y,-z
loop_
_atom_site_type_symbol
_atom_site_label
_atom_site_fract_x
_atom_site_fract_y
_atom_site_fract_z
Si Si1 0.661471 0.141017 0.087159
Si Si2 0.198656 0.130736 0.074164
Si Si3 0.348407 0.491066 0.569114
Si Si4 0.022997 0.321204 0.838268
Si Si5 0.507866 0.500543 0.166732
Si Si6 0.313875 0.026089 0.727023
Si Si7 0.041372 0.013041 0.314791
O O1 0.775486 0.411270 0.364617
O O2 0.500000 0.000000 0.000000
O O3 0.840433 0.102692 0.111289
O O4 0.499617 0.023673 0.838177
O O5 0.176086 0.234177 0.245070
O O6 0.452195 0.328854 0.285019
O O7 0.002317 0.058785 0.870049
O O8 0.450925 0.468405 0.680124
O O9 0.866613 0.189606 0.581880
O O10 0.931374 0.142702 0.744199
O O11 0.000000 0.500000 0.000000
O O12 0.289322 0.467805 0.032947
O O13 0.725270 0.719090 0.367762
O O14 0.453657 0.270219 0.922296
O O15 0.175878 0.024199 0.760002
#
# Coordination Sequence:
#
# PCOD8039459 Si02
#       7
#     2   2   2   2   2   2   2
#     4   9  16  33  59  87 114 153 202 236 295 361
#     4  10  18  33  64  86 121 164 195 249 300 354
#     4   9  18  33  57  88 121 159 200 242 298 357
#     4  11  25  40  63  87 118 157 201 250 307 358
#     4  10  21  40  61  88 120 156 203 247 298 365
#     4  10  21  40  62  87 116 159 200 249 299 355
#     4  11  21  40  62  88 119 159 201 244 307 355
#
# _framework density 21.940227
#
# number of rings (size 3 to 8) (size 9 to 14) (size 15 to 20)
#    0.000    2.000    5.714    1.714    2.000    4.571 
#    0.000    2.857    0.000    0.000    0.000    0.000 
#    0.000    0.000    0.000    0.000    0.000    0.000 
#
# Total GULP energy -173534.642208 kJ/mol
# GULP energy per Si atom -12395.331586 kJ/mol
# Density = 2.189029 g / cm^3
# Si number density = 21.940227 Si / 1000 Ang^3
#
#
#
# Elastic Constant Matrix: (Units=GPa)
#
#
# Indices 1 2 3 4 5 6 
#
# 1 44.6241 31.4845 23.9586 5.9650 -17.4281 -6.6846
# 2 31.4845 91.8682 27.7123 -4.1846 -16.2934 -15.9157
# 3 23.9586 27.7123 120.3935 4.2767 -27.1518 -0.0001
# 4 5.9650 -4.1846 4.2767 39.4643 11.9851 -5.4245
# 5 -17.4281 -16.2934 -27.1518 11.9851 34.6532 3.3897
# 6 -6.6846 -15.9157 -0.0001 -5.4245 3.3897 15.9846
#
#
#
# Elastic Compliance Matrix: (Units=1/GPa)
#
#
# Indices 1 2 3 4 5 6 
#
# 1 0.039212 -0.011065 -0.000495 -0.013257 0.019024 -0.003153
# 2 -0.011065 0.018197 -0.003051 0.007315 -0.003566 0.016729
# 3 -0.000495 -0.003051 0.011557 -0.005531 0.009993 -0.007241
# 4 -0.013257 0.007315 -0.005531 0.038308 -0.022724 0.019558
# 5 0.019024 -0.003566 0.009993 -0.022724 0.053879 -0.014732
# 6 -0.003153 0.016729 -0.007241 0.019558 -0.014732 0.087660
#
#
# Mechanical properties :
#
#
# Convention : Reuss Voigt Hill
#
# Bulk Modulus (GPa) = 25.16095 47.02187 36.09141
# Shear Modulus (GPa) = 17.16548 29.60244 23.38396
#
# Velocity S-wave (km/s) = 2.80013 3.67717 3.26821
# Velocity P-wave (km/s) = 4.68478 6.28547 5.54321
#
# Compressibility (1/GPa) = 0.03974412
#
# Stress axis : x y z
#
# Youngs Moduli (GPa) = 25.50240 54.95529 86.52779
#
# Poissons Ratio (x) = 0.60809 0.04283
# Poissons Ratio (y) = 0.28219 0.26396
# Poissons Ratio (z) = 0.01262 0.16764
#
# Static dielectric constant tensor:
#      x y z
#    x 3.790260 -0.122060 -0.257770 
#    y -0.122060 4.105740 0.208610 
#    z -0.257770 0.208610 4.145060 
# 
# 
# High freq. dielectric constant tensor:
#      x y z
#    x 1.830970 0.001590 0.001170 
#    y 0.001590 1.867520 0.001480 
#    z 0.001170 0.001480 1.878790 
# 
# From -- ./inp_files/331396.got.cif
#   From: 2010.06.25/outbox.cif.g09.slc.cpg/sg2_166_cif.got.tgz:331396.got - 2010.06.27 13:26:56.
