data_PCOD8039753
_publ_section_title
;
Structure prediction by ZEFSAII (Michael W. Deem and Ramdas Pophale) SiO2 
 PCOD8039753
Probable space group: P -1
;
_chemical_formula_sum "Si O2"
_cell_formula_units_Z 16
_cell_length_a 10.559330
_cell_length_b 6.635269
_cell_length_c 9.356388
_cell_angle_alpha 76.552126
_cell_angle_beta 105.258810
_cell_angle_gamma 102.580244
_cell_volume 606.468244
_symmetry_space_group_name_H-M "P -1"
_symmetry_group_IT_number 2
_symmetry_cell_setting 'triclinic'
loop_
_space_group_symop_operation_xyz
x,y,z
-x,-y,-z
loop_
_atom_site_type_symbol
_atom_site_label
_atom_site_fract_x
_atom_site_fract_y
_atom_site_fract_z
Si Si1 0.924969 0.980844 0.692503
Si Si2 0.428896 0.467525 0.167841
Si Si3 0.278253 0.465689 0.687255
Si Si4 0.191614 0.992838 0.644106
Si Si5 0.726540 0.961268 0.855187
Si Si6 0.720358 0.398947 0.646059
Si Si7 0.360653 0.860193 0.940282
Si Si8 0.994237 0.547118 0.325468
O O1 0.046764 0.872664 0.684136
O O2 0.985132 0.205804 0.738280
O O3 0.819271 0.010833 0.529918
O O4 0.847126 0.867672 0.827227
O O5 0.587209 0.532508 0.185428
O O6 0.398295 0.228307 0.144565
O O7 0.379287 0.482225 0.313816
O O8 0.360478 0.617971 0.019258
O O9 0.216610 0.231519 0.661874
O O10 0.311872 0.601292 0.531311
O O11 0.162711 0.549637 0.739651
O O12 0.314362 0.882240 0.757691
O O13 0.692713 0.154526 0.719650
O O14 0.751304 0.048056 0.010358
O O15 0.875180 0.523221 0.700876
O O16 0.500000 0.000000 0.000000
O O17 0.000000 0.500000 0.500000
#
# Coordination Sequence:
#
# PCOD8039753 Si02
#       8
#     2   2   2   2   2   2   2   2
#     4   9  19  38  66  97 120 161 214 274 320 369
#     4  11  22  39  63  90 127 173 217 255 316 396
#     4  10  18  34  62  92 125 171 207 264 325 373
#     4  10  20  39  67  94 129 163 215 269 318 377
#     4  10  23  42  63  93 134 164 216 262 318 390
#     4   9  19  36  60  90 129 164 207 275 325 366
#     4  11  24  46  62  89 133 178 209 259 324 387
#     4   8  16  33  54  89 126 157 203 260 323 370
#
# _framework density 26.382256999999999
#
# number of rings (size 3 to 8) (size 9 to 14) (size 15 to 20)
#    0.000    2.250    1.250    1.125    0.000    2.500 
#    6.750    1.875    0.000    0.000    0.000    0.000 
#    0.000    0.000    0.000    0.000    0.000    0.000 
#
# Total GULP energy -198209.502529 kJ/mol
# GULP energy per Si atom -12388.093908 kJ/mol
# Density = 2.632221 g / cm^3
# Si number density = 26.382257 Si / 1000 Ang^3
#
#
#
# Elastic Constant Matrix: (Units=GPa)
#
#
# Indices 1 2 3 4 5 6 
#
# 1 157.3777 14.5803 40.0240 11.4763 6.2917 4.5761
# 2 14.5803 75.4164 23.2657 -1.5034 4.3999 17.3652
# 3 40.0240 23.2657 90.4851 -7.9162 6.7427 1.8328
# 4 11.4763 -1.5034 -7.9162 27.0360 -1.8921 2.0570
# 5 6.2917 4.3999 6.7427 -1.8921 39.1376 -0.5310
# 6 4.5761 17.3652 1.8328 2.0570 -0.5310 35.3890
#
#
#
# Elastic Compliance Matrix: (Units=1/GPa)
#
#
# Indices 1 2 3 4 5 6 
#
# 1 0.007666 -0.000310 -0.003625 -0.004357 -0.000789 -0.000410
# 2 -0.000310 0.016373 -0.003784 0.000445 -0.001224 -0.007842
# 3 -0.003625 -0.003784 0.014152 0.005295 -0.001157 0.001267
# 4 -0.004357 0.000445 0.005295 0.040702 0.001675 -0.002270
# 5 -0.000789 -0.001224 -0.001157 0.001675 0.026110 0.001057
# 6 -0.000410 -0.007842 0.001267 -0.002270 0.001057 0.032241
#
#
# Mechanical properties :
#
#
# Convention : Reuss Voigt Hill
#
# Bulk Modulus (GPa) = 43.95094 53.22435 48.58765
# Shear Modulus (GPa) = 31.19818 36.67312 33.93565
#
# Velocity S-wave (km/s) = 3.44254 3.73241 3.59040
# Velocity P-wave (km/s) = 5.70061 6.22837 5.97032
#
# Compressibility (1/GPa) = 0.02275264
#
# Stress axis : x y z
#
# Youngs Moduli (GPa) = 130.44600 61.07636 70.66296
#
# Poissons Ratio (x) = 0.01894 0.25617
# Poissons Ratio (y) = 0.04045 0.26737
# Poissons Ratio (z) = 0.47289 0.23109
#
# Static dielectric constant tensor:
#      x y z
#    x 5.952370 0.370850 -0.200970 
#    y 0.370850 5.064500 -0.139400 
#    z -0.200970 -0.139400 4.557250 
# 
# 
# High freq. dielectric constant tensor:
#      x y z
#    x 2.073520 -0.000960 -0.011070 
#    y -0.000960 2.074220 -0.007400 
#    z -0.011070 -0.007400 2.021200 
# 
# From -- ./inp_files/416929.got.cif
#   From: 2010.06.25/outbox.cif.g09.slc.cpg/sg2_209_cif.got.tgz:416929.got - 2010.06.27 13:26:56.
