data_PCOD8039389
_publ_section_title
;
Structure prediction by ZEFSAII (Michael W. Deem and Ramdas Pophale) SiO2 
 PCOD8039389
Probable space group: P -1
;
_chemical_formula_sum "Si O2"
_cell_formula_units_Z 16
_cell_length_a 9.964610
_cell_length_b 11.332524
_cell_length_c 11.076071
_cell_angle_alpha 108.731176
_cell_angle_beta 55.881624
_cell_angle_gamma 125.202362
_cell_volume 846.105359
_symmetry_space_group_name_H-M "P -1"
_symmetry_group_IT_number 2
_symmetry_cell_setting 'triclinic'
loop_
_space_group_symop_operation_xyz
x,y,z
-x,-y,-z
loop_
_atom_site_type_symbol
_atom_site_label
_atom_site_fract_x
_atom_site_fract_y
_atom_site_fract_z
Si Si1 0.044939 0.328164 0.864077
Si Si2 0.119372 0.088250 0.853373
Si Si3 0.175147 0.834274 0.301489
Si Si4 0.717601 0.349550 0.164690
Si Si5 0.397201 0.088338 0.114484
Si Si6 0.610414 0.153496 0.359913
Si Si7 0.794764 0.065838 0.429345
Si Si8 0.425778 0.103889 0.847779
O O1 0.087682 0.216147 0.871941
O O2 0.231899 0.485411 0.820836
O O3 0.983484 0.289567 0.742227
O O4 0.883559 0.329815 0.022775
O O5 0.340656 0.158145 0.802951
O O6 0.076012 0.979264 0.726420
O O7 0.000000 0.000000 0.000000
O O8 0.096305 0.842907 0.476186
O O9 0.347048 0.801570 0.222682
O O10 0.235268 0.987808 0.256715
O O11 0.527234 0.247362 0.154387
O O12 0.685087 0.308834 0.310653
O O13 0.321635 0.103300 0.025973
O O14 0.500000 0.000000 0.000000
O O15 0.742273 0.166962 0.409590
O O16 0.395440 0.081412 0.486967
O O17 0.622897 0.057868 0.213405
#
# Coordination Sequence:
#
# PCOD8039389 Si02
#       8
#     2   2   2   2   2   2   2   2
#     4  11  23  33  52  84 116 142 169 223 278 314
#     4  11  22  35  52  82 114 137 171 228 279 315
#     4  10  17  33  57  82 101 136 192 220 245 314
#     4  11  19  34  55  80 112 142 181 218 266 312
#     4  10  14  28  58  81  96 135 190 221 243 299
#     4   9  15  31  54  83  99 135 184 226 248 308
#     4   9  18  30  56  80 102 135 188 221 258 311
#     4   9  16  30  56  79  99 134 184 220 251 301
#
# _framework density 18.910174000000001
#
# number of rings (size 3 to 8) (size 9 to 14) (size 15 to 20)
#    0.000    2.000    6.250    3.000    0.000    0.500 
#    0.000    1.875    0.000    0.000    0.000    0.000 
#    0.000    0.000    0.000    0.000    0.000    0.000 
#
# Total GULP energy -198258.027905 kJ/mol
# GULP energy per Si atom -12391.126744 kJ/mol
# Density = 1.886713 g / cm^3
# Si number density = 18.910174 Si / 1000 Ang^3
#
#
#
# Elastic Constant Matrix: (Units=GPa)
#
#
# Indices 1 2 3 4 5 6 
#
# 1 62.8307 28.5668 23.4580 12.3332 16.8161 -7.1595
# 2 28.5668 86.1295 32.8401 2.1781 11.0663 0.2859
# 3 23.4580 32.8401 119.1390 2.5177 25.3602 -4.8936
# 4 12.3332 2.1781 2.5177 18.8498 0.4215 5.0322
# 5 16.8161 11.0663 25.3602 0.4215 29.5283 3.3707
# 6 -7.1595 0.2859 -4.8936 5.0322 3.3707 26.0133
#
#
#
# Elastic Compliance Matrix: (Units=1/GPa)
#
#
# Indices 1 2 3 4 5 6 
#
# 1 0.029206 -0.007425 0.000722 -0.021874 -0.015817 0.014537
# 2 -0.007425 0.015001 -0.003326 0.004585 0.001850 -0.003961
# 3 0.000722 -0.003326 0.011382 -0.002486 -0.009370 0.004072
# 4 -0.021874 0.004585 -0.002486 0.072849 0.014402 -0.022497
# 5 -0.015817 0.001850 -0.009370 0.014402 0.051807 -0.015635
# 6 0.014537 -0.003961 0.004072 -0.022497 -0.015635 0.049630
#
#
# Mechanical properties :
#
#
# Convention : Reuss Voigt Hill
#
# Bulk Modulus (GPa) = 28.14433 48.64768 38.39600
# Shear Modulus (GPa) = 19.10025 27.09390 23.09708
#
# Velocity S-wave (km/s) = 3.18158 3.78930 3.49866
# Velocity P-wave (km/s) = 5.33030 6.70273 6.05552
#
# Compressibility (1/GPa) = 0.03553113
#
# Stress axis : x y z
#
# Youngs Moduli (GPa) = 34.24012 66.66280 87.85421
#
# Poissons Ratio (x) = 0.49497 -0.06347
# Poissons Ratio (y) = 0.25423 0.29224
# Poissons Ratio (z) = -0.02474 0.22175
#
# Static dielectric constant tensor:
#      x y z
#    x 3.710170 0.013180 0.420290 
#    y 0.013180 3.191940 -0.050950 
#    z 0.420290 -0.050950 3.782710 
# 
# 
# High freq. dielectric constant tensor:
#      x y z
#    x 1.727960 0.003090 0.028180 
#    y 0.003090 1.680660 -0.003380 
#    z 0.028180 -0.003380 1.742640 
# 
# From -- ./inp_files/423905.got.cif
#   From: 2010.06.25/outbox.cif.g09.slc.cpg/sg2_212_cif.got.tgz:423905.got - 2010.06.27 13:26:56.
