data_PCOD8039572
_publ_section_title
;
Structure prediction by ZEFSAII (Michael W. Deem and Ramdas Pophale) SiO2 
 PCOD8039572
Probable space group: P -1
;
_chemical_formula_sum "Si O2"
_cell_formula_units_Z 12
_cell_length_a 9.526744
_cell_length_b 27.343606
_cell_length_c 13.448793
_cell_angle_alpha 151.842452
_cell_angle_beta 147.844320
_cell_angle_gamma 25.913893
_cell_volume 697.661798
_symmetry_space_group_name_H-M "P -1"
_symmetry_group_IT_number 2
_symmetry_cell_setting 'triclinic'
loop_
_space_group_symop_operation_xyz
x,y,z
-x,-y,-z
loop_
_atom_site_type_symbol
_atom_site_label
_atom_site_fract_x
_atom_site_fract_y
_atom_site_fract_z
Si Si1 0.733635 0.925154 0.752054
Si Si2 0.321543 0.641193 0.100838
Si Si3 0.116027 0.354983 0.313034
Si Si4 0.958143 0.894430 0.444940
Si Si5 0.812307 0.127793 0.247769
Si Si6 0.637294 0.765597 0.547627
O O1 0.384544 0.991362 0.606252
O O2 0.808380 0.808333 0.656205
O O3 0.030464 0.860695 0.735753
O O4 0.731474 0.026227 0.001750
O O5 0.053853 0.751826 0.218676
O O6 0.597171 0.664366 0.285414
O O7 0.500000 0.500000 0.000000
O O8 0.142147 0.656646 0.918807
O O9 0.474232 0.268914 0.321131
O O10 0.132209 0.307015 0.348125
O O11 0.000000 0.500000 0.500000
O O12 0.929279 0.917720 0.587952
O O13 0.265168 0.892895 0.586393
#
# Coordination Sequence:
#
# PCOD8039572 Si02
#       6
#     2   2   2   2   2   2
#     4  11  20  35  51  80 117 134 174 212 269 310
#     4  10  18  34  57  77  99 134 185 217 256 299
#     4  11  19  37  59  76 101 139 184 216 258 313
#     4   9  19  33  54  77 104 145 173 215 255 311
#     4  10  21  34  54  79 107 148 167 213 265 316
#     4   9  21  31  54  83 101 140 175 223 251 308
#
# _framework density 17.200310999999999
#
# number of rings (size 3 to 8) (size 9 to 14) (size 15 to 20)
#    1.000    1.000    3.333    1.000    0.000    4.000 
#    0.000    0.833    0.000    2.000    0.000    0.000 
#    0.000    0.000    0.000    0.000    0.000    0.000 
#
# Total GULP energy -148731.505216 kJ/mol
# GULP energy per Si atom -12394.292101 kJ/mol
# Density = 1.716116 g / cm^3
# Si number density = 17.200311 Si / 1000 Ang^3
#
#
#
# Elastic Constant Matrix: (Units=GPa)
#
#
# Indices 1 2 3 4 5 6 
#
# 1 80.8594 46.6437 53.9156 8.2537 7.2060 23.5703
# 2 46.6437 112.3370 58.1477 -9.3293 1.1791 23.7407
# 3 53.9156 58.1477 124.7393 -15.2125 -4.3863 23.9344
# 4 8.2537 -9.3293 -15.2125 37.8213 6.8012 -3.5106
# 5 7.2060 1.1791 -4.3863 6.8012 26.9559 2.3067
# 6 23.5703 23.7407 23.9344 -3.5106 2.3067 20.5874
#
#
#
# Elastic Compliance Matrix: (Units=1/GPa)
#
#
# Indices 1 2 3 4 5 6 
#
# 1 0.026524 -0.004127 -0.007478 -0.010828 -0.003826 -0.018331
# 2 -0.004127 0.013940 -0.002982 0.002441 0.000032 -0.007470
# 3 -0.007478 -0.002982 0.014197 0.005640 0.003352 -0.003918
# 4 -0.010828 0.002441 0.005640 0.033543 -0.005559 0.009368
# 5 -0.003826 0.000032 0.003352 -0.005559 0.040498 -0.005038
# 6 -0.018331 -0.007470 -0.003918 0.009368 -0.005038 0.084892
#
#
# Mechanical properties :
#
#
# Convention : Reuss Voigt Hill
#
# Bulk Modulus (GPa) = 39.23783 70.59441 54.91612
# Shear Modulus (GPa) = 19.89936 27.68818 23.79377
#
# Velocity S-wave (km/s) = 3.40504 4.01652 3.72335
# Velocity P-wave (km/s) = 6.19039 7.91464 7.10501
#
# Compressibility (1/GPa) = 0.02548561
#
# Stress axis : x y z
#
# Youngs Moduli (GPa) = 37.70168 71.73469 70.43970
#
# Poissons Ratio (x) = 0.29607 0.52676
# Poissons Ratio (y) = 0.15561 0.21007
# Poissons Ratio (z) = 0.28194 0.21393
#
# Static dielectric constant tensor:
#      x y z
#    x 2.994860 0.072270 -0.167580 
#    y 0.072270 3.171710 -0.231510 
#    z -0.167580 -0.231510 3.407180 
# 
# 
# High freq. dielectric constant tensor:
#      x y z
#    x 1.633590 0.006650 -0.009800 
#    y 0.006650 1.663010 -0.016100 
#    z -0.009800 -0.016100 1.675870 
# 
# From -- ./inp_files/394151.got.cif
#   From: 2010.06.25/outbox.cif.g09.slc.cpg/sg2_198_cif.got.tgz:394151.got - 2010.06.27 13:26:56.
