data_PCOD8039518
_publ_section_title
;
Structure prediction by ZEFSAII (Michael W. Deem and Ramdas Pophale) SiO2 
 PCOD8039518
Probable space group: P -1
;
_chemical_formula_sum "Si O2"
_cell_formula_units_Z 14
_cell_length_a 8.938196
_cell_length_b 16.465899
_cell_length_c 13.973742
_cell_angle_alpha 47.343995
_cell_angle_beta 146.350329
_cell_angle_gamma 113.985834
_cell_volume 772.925181
_symmetry_space_group_name_H-M "P -1"
_symmetry_group_IT_number 2
_symmetry_cell_setting 'triclinic'
loop_
_space_group_symop_operation_xyz
x,y,z
-x,-y,-z
loop_
_atom_site_type_symbol
_atom_site_label
_atom_site_fract_x
_atom_site_fract_y
_atom_site_fract_z
Si Si1 0.590686 0.737497 0.930020
Si Si2 0.668793 0.608183 0.883996
Si Si3 0.445233 0.022548 0.341805
Si Si4 0.634510 0.767460 0.567714
Si Si5 0.703647 0.407701 0.757659
Si Si6 0.125766 0.782655 0.145591
Si Si7 0.685648 0.378417 0.983708
O O1 0.542092 0.658328 0.880606
O O2 0.426943 0.878982 0.703710
O O3 0.458719 0.708268 0.979640
O O4 0.937721 0.710872 0.150600
O O5 0.541979 0.716755 0.654187
O O6 0.578495 0.499244 0.893017
O O7 0.019020 0.557366 0.108346
O O8 0.500000 0.000000 0.500000
O O9 0.599893 0.903100 0.458601
O O10 0.090359 0.077448 0.091634
O O11 0.419154 0.763657 0.372445
O O12 0.964049 0.689121 0.774561
O O13 0.500000 0.500000 0.500000
O O14 0.790468 0.272984 0.871823
O O15 0.560643 0.412782 0.782018
#
# Coordination Sequence:
#
# PCOD8039518 Si02
#       7
#     2   2   2   2   2   2   2
#     4   9  21  36  54  81 112 141 176 222 280 310
#     4  10  19  35  55  79 109 148 182 212 271 332
#     4  10  18  37  61  77 106 144 188 214 261 331
#     4  11  19  35  60  82 102 146 185 224 257 323
#     4  10  18  34  55  78 110 147 182 216 261 327
#     4   9  20  35  54  81 107 143 187 209 268 326
#     4  11  21  34  56  84 112 137 179 231 272 308
#
# _framework density 18.113008000000001
#
# number of rings (size 3 to 8) (size 9 to 14) (size 15 to 20)
#    0.857    1.143    1.429    5.143    0.000    0.571 
#    0.000    9.286    0.000    1.714    0.000    0.000 
#    0.000    0.000    0.000    0.000    0.000    0.000 
#
# Total GULP energy -173498.775666 kJ/mol
# GULP energy per Si atom -12392.769690 kJ/mol
# Density = 1.807178 g / cm^3
# Si number density = 18.113008 Si / 1000 Ang^3
#
#
#
# Elastic Constant Matrix: (Units=GPa)
#
#
# Indices 1 2 3 4 5 6 
#
# 1 85.2442 37.0442 31.7336 3.3360 -24.3245 3.2905
# 2 37.0442 111.2306 35.2285 -8.4850 -8.2446 -5.6915
# 3 31.7336 35.2285 94.0105 2.7293 -13.6323 0.8208
# 4 3.3360 -8.4850 2.7293 35.2561 -1.6782 -1.1692
# 5 -24.3245 -8.2446 -13.6323 -1.6782 24.6633 -5.7643
# 6 3.2905 -5.6915 0.8208 -1.1692 -5.7643 21.9684
#
#
#
# Elastic Compliance Matrix: (Units=1/GPa)
#
#
# Indices 1 2 3 4 5 6 
#
# 1 0.019280 -0.004620 -0.002395 -0.001984 0.016037 0.000107
# 2 -0.004620 0.011930 -0.003227 0.003625 -0.001223 0.003775
# 3 -0.002395 -0.003227 0.013242 -0.001398 0.003771 -0.000057
# 4 -0.001984 0.003625 -0.001398 0.029698 0.001251 0.003197
# 5 0.016037 -0.001223 0.003771 0.001251 0.061225 0.013272
# 6 0.000107 0.003775 -0.000057 0.003197 0.013272 0.050137
#
#
# Mechanical properties :
#
#
# Convention : Reuss Voigt Hill
#
# Bulk Modulus (GPa) = 41.71854 55.38864 48.55359
# Shear Modulus (GPa) = 23.36631 28.80949 26.08790
#
# Velocity S-wave (km/s) = 3.59559 3.99249 3.79923
# Velocity P-wave (km/s) = 6.34981 7.20410 6.79041
#
# Compressibility (1/GPa) = 0.02397016
#
# Stress axis : x y z
#
# Youngs Moduli (GPa) = 51.86828 83.82335 75.51499
#
# Poissons Ratio (x) = 0.38723 0.18083
# Poissons Ratio (y) = 0.23961 0.24366
# Poissons Ratio (z) = 0.12421 0.27046
#
# Static dielectric constant tensor:
#      x y z
#    x 3.065180 -0.182880 -0.097110 
#    y -0.182880 3.498850 -0.099050 
#    z -0.097110 -0.099050 3.348930 
# 
# 
# High freq. dielectric constant tensor:
#      x y z
#    x 1.671310 -0.016640 -0.009820 
#    y -0.016640 1.709580 -0.004750 
#    z -0.009820 -0.004750 1.699620 
# 
# From -- ./inp_files/171819.got.cif
#   From: 2010.06.25/outbox.cif.g09.slc.cpg/sg2_86_cif.got.tgz:171819.got - 2010.06.27 13:26:56.
