data_PCOD8039120
_publ_section_title
;
Structure prediction by ZEFSAII (Michael W. Deem and Ramdas Pophale) SiO2 
 PCOD8039120
Probable space group: P -1
;
_chemical_formula_sum "Si O2"
_cell_formula_units_Z 16
_cell_length_a 8.947312
_cell_length_b 14.478297
_cell_length_c 17.639064
_cell_angle_alpha 21.076150
_cell_angle_beta 92.640485
_cell_angle_gamma 90.631075
_cell_volume 817.573959
_symmetry_space_group_name_H-M "P -1"
_symmetry_group_IT_number 2
_symmetry_cell_setting 'triclinic'
loop_
_space_group_symop_operation_xyz
x,y,z
-x,-y,-z
loop_
_atom_site_type_symbol
_atom_site_label
_atom_site_fract_x
_atom_site_fract_y
_atom_site_fract_z
Si Si1 0.173974 0.518405 0.012876
Si Si2 0.322929 0.394338 0.793988
Si Si3 0.071301 0.248407 0.343082
Si Si4 0.880190 0.194305 0.613499
Si Si5 0.685969 0.192727 0.744487
Si Si6 0.437820 0.388974 0.469118
Si Si7 0.186608 0.084374 0.631670
Si Si8 0.211481 0.363410 0.975268
O O1 0.203831 0.305999 0.242728
O O2 0.272944 0.461814 0.982254
O O3 0.000000 0.500000 0.000000
O O4 0.211819 0.783543 0.846869
O O5 0.181777 0.566692 0.623283
O O6 0.475508 0.484026 0.694492
O O7 0.324164 0.420265 0.865934
O O8 0.307615 0.096065 0.001042
O O9 0.141191 0.221352 0.447494
O O10 0.950173 0.493956 0.157293
O O11 0.000000 0.000000 0.500000
O O12 0.838812 0.242744 0.664187
O O13 0.058732 0.150688 0.641106
O O14 0.801739 0.939985 0.781730
O O15 0.547494 0.245337 0.642947
O O16 0.670570 0.385547 0.667120
O O17 0.341012 0.175089 0.595994
#
# Coordination Sequence:
#
# PCOD8039120 Si02
#       8
#     2   2   2   2   2   2   2   2
#     4  10  19  32  52  84 120 153 182 225 280 336
#     4  10  20  37  62  81 110 154 196 227 281 350
#     4  11  18  31  55  85 115 151 186 225 282 333
#     4  10  19  34  59  89 112 145 191 236 281 340
#     4   9  21  43  62  78 109 158 192 227 293 342
#     4  10  23  40  60  84 114 148 191 239 284 343
#     4  12  21  34  58  93 118 143 191 239 281 329
#     4  10  18  32  57  83 112 154 192 221 270 344
#
# _framework density 19.570095999999999
#
# number of rings (size 3 to 8) (size 9 to 14) (size 15 to 20)
#    0.000    1.750    6.250    0.375    0.000    1.500 
#    0.000    1.250    0.000    7.500    0.000    0.000 
#    0.000    0.000    0.000    0.000    0.000    0.000 
#
# Total GULP energy -198320.810203 kJ/mol
# GULP energy per Si atom -12395.050638 kJ/mol
# Density = 1.952555 g / cm^3
# Si number density = 19.570096 Si / 1000 Ang^3
#
#
#
# Elastic Constant Matrix: (Units=GPa)
#
#
# Indices 1 2 3 4 5 6 
#
# 1 24.7580 22.4122 9.5886 7.7396 -15.6675 -4.6286
# 2 22.4122 92.5888 32.9026 1.1620 -16.9402 -12.9943
# 3 9.5886 32.9026 127.3644 0.0332 -8.8275 -3.7238
# 4 7.7396 1.1620 0.0332 30.3502 -8.0489 -6.2097
# 5 -15.6675 -16.9402 -8.8275 -8.0489 26.8137 0.1093
# 6 -4.6286 -12.9943 -3.7238 -6.2097 0.1093 31.2413
#
#
#
# Elastic Compliance Matrix: (Units=1/GPa)
#
#
# Indices 1 2 3 4 5 6 
#
# 1 0.076290 -0.011241 -0.000294 -0.008858 0.034700 0.004710
# 2 -0.011241 0.015959 -0.002848 0.004412 0.003879 0.005496
# 3 -0.000294 -0.002848 0.008676 0.000419 0.001011 -0.000114
# 4 -0.008858 0.004412 0.000419 0.039265 0.009502 0.008344
# 5 0.034700 0.003879 0.001011 0.009502 0.063171 0.008542
# 6 0.004710 0.005496 -0.000114 0.008344 0.008542 0.036608
#
#
# Mechanical properties :
#
#
# Convention : Reuss Voigt Hill
#
# Bulk Modulus (GPa) = 13.85860 41.61310 27.73585
# Shear Modulus (GPa) = 17.07715 29.66824 23.37269
#
# Velocity S-wave (km/s) = 2.95721 3.89781 3.45962
# Velocity P-wave (km/s) = 4.33094 6.44725 5.49199
#
# Compressibility (1/GPa) = 0.07215737
#
# Stress axis : x y z
#
# Youngs Moduli (GPa) = 13.10795 62.65939 115.25953
#
# Poissons Ratio (x) = 0.70437 0.03394
# Poissons Ratio (y) = 0.14735 0.32828
# Poissons Ratio (z) = 0.00386 0.17846
#
# Static dielectric constant tensor:
#      x y z
#    x 3.178590 -0.602340 -0.098200 
#    y -0.602340 3.882680 0.159130 
#    z -0.098200 0.159130 3.828310 
# 
# 
# High freq. dielectric constant tensor:
#      x y z
#    x 1.716040 -0.035550 -0.005340 
#    y -0.035550 1.768680 0.004670 
#    z -0.005340 0.004670 1.782100 
# 
# From -- ./inp_files/323711.got.cif
#   From: 2010.06.25/outbox.cif.g09.slc.cpg/sg2_162_cif.got.tgz:323711.got - 2010.06.27 13:26:56.
