data_PCOD8039058
_publ_section_title
;
Structure prediction by ZEFSAII (Michael W. Deem and Ramdas Pophale) SiO2 
 PCOD8039058
Probable space group: P -1
;
_chemical_formula_sum "Si O2"
_cell_formula_units_Z 12
_cell_length_a 10.951027
_cell_length_b 7.814053
_cell_length_c 17.545529
_cell_angle_alpha 110.717758
_cell_angle_beta 137.982016
_cell_angle_gamma 39.326376
_cell_volume 543.698155
_symmetry_space_group_name_H-M "P -1"
_symmetry_group_IT_number 2
_symmetry_cell_setting 'triclinic'
loop_
_space_group_symop_operation_xyz
x,y,z
-x,-y,-z
loop_
_atom_site_type_symbol
_atom_site_label
_atom_site_fract_x
_atom_site_fract_y
_atom_site_fract_z
Si Si1 0.798518 0.231604 0.855748
Si Si2 0.861143 0.731898 0.905257
Si Si3 0.351045 0.884774 0.675697
Si Si4 0.309996 0.591248 0.806823
Si Si5 0.783181 0.439665 0.087409
Si Si6 0.182842 0.849251 0.438095
O O1 0.627982 0.511489 0.763487
O O2 0.529752 0.350545 0.800500
O O3 0.984088 0.925150 0.848312
O O4 0.058071 0.122093 0.013753
O O5 0.495670 0.972167 0.763738
O O6 0.041303 0.546796 0.878315
O O7 0.000000 0.500000 0.000000
O O8 0.242994 0.944989 0.548475
O O9 0.060588 0.104441 0.634593
O O10 0.290041 0.446480 0.840138
O O11 0.464457 0.644477 0.927411
O O12 0.967887 0.921905 0.667315
O O13 0.500000 0.500000 0.500000
#
# Coordination Sequence:
#
# PCOD8039058 Si02
#       6
#     2   2   2   2   2   2
#     4   9  17  33  56  76 100 132 163 202 252 300
#     4   9  17  31  51  77 104 127 159 209 256 290
#     4   9  19  34  53  76 101 129 167 210 246 290
#     4   9  18  30  50  77  98 128 171 203 238 295
#     4  10  18  32  55  77 101 131 163 203 253 302
#     4  10  19  34  53  71  99 138 173 201 241 297
#
# _framework density 22.071069999999999
#
# number of rings (size 3 to 8) (size 9 to 14) (size 15 to 20)
#    0.000    2.667    0.000    4.000    0.000    0.000 
#    0.000    7.500    0.000   55.000    0.000    0.000 
#    0.000    0.000    0.000    0.000    0.000    0.000 
#
# Total GULP energy -148669.272193 kJ/mol
# GULP energy per Si atom -12389.106016 kJ/mol
# Density = 2.202084 g / cm^3
# Si number density = 22.071070 Si / 1000 Ang^3
#
#
#
# Elastic Constant Matrix: (Units=GPa)
#
#
# Indices 1 2 3 4 5 6 
#
# 1 147.6311 7.0890 49.5404 8.9960 6.5261 -12.7258
# 2 7.0890 37.7319 18.8025 -11.9323 6.2063 -5.1210
# 3 49.5404 18.8025 131.8894 -13.4691 0.2005 -6.0634
# 4 8.9960 -11.9323 -13.4691 29.8563 1.7902 -1.3611
# 5 6.5261 6.2063 0.2005 1.7902 46.8358 -0.3988
# 6 -12.7258 -5.1210 -6.0634 -1.3611 -0.3988 19.3455
#
#
#
# Elastic Compliance Matrix: (Units=1/GPa)
#
#
# Indices 1 2 3 4 5 6 
#
# 1 0.008575 -0.000500 -0.003372 -0.004060 -0.000924 0.004147
# 2 -0.000500 0.034203 -0.002938 0.013181 -0.004880 0.008631
# 3 -0.003372 -0.002938 0.009712 0.004200 0.000660 0.000357
# 4 -0.004060 0.013181 0.004200 0.042276 -0.002772 0.005052
# 5 -0.000924 -0.004880 0.000660 -0.002772 0.022218 -0.001430
# 6 0.004147 0.008631 0.000357 0.005052 -0.001430 0.057142
#
#
# Mechanical properties :
#
#
# Convention : Reuss Voigt Hill
#
# Bulk Modulus (GPa) = 25.72697 52.01290 38.86993
# Shear Modulus (GPa) = 24.91241 35.32889 30.12065
#
# Velocity S-wave (km/s) = 3.36331 4.00520 3.69821
# Velocity P-wave (km/s) = 5.17341 6.70866 5.99042
#
# Compressibility (1/GPa) = 0.03886972
#
# Stress axis : x y z
#
# Youngs Moduli (GPa) = 116.61812 29.23702 102.96546
#
# Poissons Ratio (x) = 0.01462 0.34723
# Poissons Ratio (y) = 0.05830 0.30251
# Poissons Ratio (z) = 0.39327 0.08590
#
# Static dielectric constant tensor:
#      x y z
#    x 4.544160 -0.156990 0.087610 
#    y -0.156990 3.493680 -0.070150 
#    z 0.087610 -0.070150 4.255410 
# 
# 
# High freq. dielectric constant tensor:
#      x y z
#    x 1.887470 -0.025760 -0.012540 
#    y -0.025760 1.817700 -0.022490 
#    z -0.012540 -0.022490 1.867630 
# 
# From -- ./inp_files/246109.got.cif
#   From: 2010.06.25/outbox.cif.g09.slc.cpg/sg2_124_cif.got.tgz:246109.got - 2010.06.27 13:26:56.
