data_PCOD8039191
_publ_section_title
;
Structure prediction by ZEFSAII (Michael W. Deem and Ramdas Pophale) SiO2 
 PCOD8039191
Probable space group: P -1
;
_chemical_formula_sum "Si O2"
_cell_formula_units_Z 16
_cell_length_a 9.142416
_cell_length_b 11.640757
_cell_length_c 13.839460
_cell_angle_alpha 85.014869
_cell_angle_beta 137.897380
_cell_angle_gamma 64.757659
_cell_volume 667.060285
_symmetry_space_group_name_H-M "P -1"
_symmetry_group_IT_number 2
_symmetry_cell_setting 'triclinic'
loop_
_space_group_symop_operation_xyz
x,y,z
-x,-y,-z
loop_
_atom_site_type_symbol
_atom_site_label
_atom_site_fract_x
_atom_site_fract_y
_atom_site_fract_z
Si Si1 0.247748 0.327077 0.767566
Si Si2 0.310246 0.036443 0.058325
Si Si3 0.166865 0.606799 0.274989
Si Si4 0.693446 0.112549 0.269266
Si Si5 0.493256 0.346777 0.297562
Si Si6 0.219833 0.956758 0.417135
Si Si7 0.113263 0.605446 0.599289
Si Si8 0.526801 0.058666 0.649807
O O1 0.332721 0.428414 0.780365
O O2 0.088166 0.370237 0.791362
O O3 0.973606 0.405626 0.548982
O O4 0.559283 0.124264 0.925054
O O5 0.593689 0.022373 0.199563
O O6 0.241244 0.032084 0.136384
O O7 0.990066 0.207437 0.837437
O O8 0.500000 0.500000 0.500000
O O9 0.208533 0.525907 0.198133
O O10 0.399659 0.290346 0.170649
O O11 0.000000 0.000000 0.500000
O O12 0.835583 0.120717 0.241620
O O13 0.683601 0.209336 0.488138
O O14 0.702024 0.349314 0.332442
O O15 0.272015 0.947469 0.329494
O O16 0.448292 0.960200 0.583133
O O17 0.799871 0.747589 0.500600
#
# Coordination Sequence:
#
# PCOD8039191 Si02
#       8
#     2   2   2   2   2   2   2   2
#     4  10  21  41  63  94 125 174 220 270 324 387
#     4  11  23  43  66  95 135 172 223 271 328 392
#     4  12  26  42  66  95 130 175 227 278 324 389
#     4  10  18  37  65  96 127 173 209 264 330 389
#     4  11  20  38  63  94 130 173 218 263 331 389
#     4  10  18  32  65  99 128 171 212 260 320 406
#     4  10  19  36  66  91 132 173 212 266 331 388
#     4  10  18  34  61 101 134 168 214 260 328 387
#
# _framework density 23.98584
#
# number of rings (size 3 to 8) (size 9 to 14) (size 15 to 20)
#    0.000    1.500    5.000    3.375    0.000    0.500 
#    0.000    1.875    0.000    1.500    0.000    0.000 
#    0.000    0.000    0.000    0.000    0.000    0.000 
#
# Total GULP energy -198251.689533 kJ/mol
# GULP energy per Si atom -12390.730596 kJ/mol
# Density = 2.393125 g / cm^3
# Si number density = 23.985840 Si / 1000 Ang^3
#
#
#
# Elastic Constant Matrix: (Units=GPa)
#
#
# Indices 1 2 3 4 5 6 
#
# 1 189.3124 60.7170 38.8520 -21.7208 -22.0031 -25.2177
# 2 60.7170 84.6410 32.5535 -33.1230 -8.3040 -6.9898
# 3 38.8520 32.5535 100.5615 -30.3308 -9.7283 1.1199
# 4 -21.7208 -33.1230 -30.3308 35.0289 8.3768 -2.4213
# 5 -22.0031 -8.3040 -9.7283 8.3768 25.0780 -6.7842
# 6 -25.2177 -6.9898 1.1199 -2.4213 -6.7842 46.4335
#
#
#
# Elastic Compliance Matrix: (Units=1/GPa)
#
#
# Indices 1 2 3 4 5 6 
#
# 1 0.008540 -0.005427 -0.001717 -0.002722 0.007231 0.004777
# 2 -0.005427 0.022989 0.000170 0.019376 -0.003273 0.001041
# 3 -0.001717 0.000170 0.013907 0.011077 0.000067 -0.000655
# 4 -0.002722 0.019376 0.011077 0.057377 -0.010115 0.002685
# 5 0.007231 -0.003273 0.000067 -0.010115 0.051357 0.010409
# 6 0.004777 0.001041 -0.000655 0.002685 0.010409 0.025964
#
#
# Mechanical properties :
#
#
# Convention : Reuss Voigt Hill
#
# Bulk Modulus (GPa) = 31.75761 70.97332 51.36547
# Shear Modulus (GPa) = 24.44067 37.46758 30.95412
#
# Velocity S-wave (km/s) = 3.19558 3.95659 3.59627
# Velocity P-wave (km/s) = 5.18503 7.10822 6.22139
#
# Compressibility (1/GPa) = 0.03148851
#
# Stress axis : x y z
#
# Youngs Moduli (GPa) = 117.10140 43.49869 71.90501
#
# Poissons Ratio (x) = 0.23606 0.12348
# Poissons Ratio (y) = 0.63549 -0.01225
# Poissons Ratio (z) = 0.20110 -0.00741
#
# Static dielectric constant tensor:
#      x y z
#    x 4.811020 -0.337220 -0.237240 
#    y -0.337220 4.694910 -0.300030 
#    z -0.237240 -0.300030 3.943420 
# 
# 
# High freq. dielectric constant tensor:
#      x y z
#    x 1.966600 -0.011590 -0.014360 
#    y -0.011590 1.960010 -0.012550 
#    z -0.014360 -0.012550 1.908630 
# 
# From -- ./inp_files/500313.got.cif
#   From: 2010.06.25/outbox.cif.g09.slc.cpg/sg2_251_cif.got.tgz:500313.got - 2010.06.27 13:26:56.
