data_PCOD8039871
_publ_section_title
;
Structure prediction by ZEFSAII (Michael W. Deem and Ramdas Pophale) SiO2 
 PCOD8039871
Probable space group: P -1
;
_chemical_formula_sum "Si O2"
_cell_formula_units_Z 16
_cell_length_a 20.433469
_cell_length_b 15.173306
_cell_length_c 11.501274
_cell_angle_alpha 52.970579
_cell_angle_beta 148.373912
_cell_angle_gamma 148.504512
_cell_volume 871.392464
_symmetry_space_group_name_H-M "P -1"
_symmetry_group_IT_number 2
_symmetry_cell_setting 'triclinic'
loop_
_space_group_symop_operation_xyz
x,y,z
-x,-y,-z
loop_
_atom_site_type_symbol
_atom_site_label
_atom_site_fract_x
_atom_site_fract_y
_atom_site_fract_z
Si Si1 0.656598 0.023593 0.770920
Si Si2 0.138203 0.641981 0.919472
Si Si3 0.248615 0.990194 0.310769
Si Si4 0.512790 0.385678 0.469234
Si Si5 0.530806 0.065349 0.211856
Si Si6 0.240807 0.394546 0.095781
Si Si7 0.887530 0.564591 0.781856
Si Si8 0.187365 0.590445 0.787341
O O1 0.546594 0.910541 0.817085
O O2 0.500000 0.000000 0.500000
O O3 0.677666 0.945511 0.764852
O O4 0.892681 0.240834 0.979560
O O5 0.101324 0.549393 0.819899
O O6 0.928356 0.559301 0.713066
O O7 0.205581 0.608053 0.152199
O O8 0.328239 0.862263 0.009520
O O9 0.302524 0.908752 0.512494
O O10 0.359248 0.168117 0.408292
O O11 0.993331 0.821128 0.060098
O O12 0.373064 0.394256 0.231035
O O13 0.634941 0.475460 0.705256
O O14 0.696126 0.516147 0.541752
O O15 0.608229 0.195813 0.118342
O O16 0.229110 0.490327 0.914933
O O17 0.000000 0.500000 0.500000
#
# Coordination Sequence:
#
# PCOD8039871 Si02
#       8
#     2   2   2   2   2   2   2   2
#     4   9  19  30  53  84 116 142 179 238 286 329
#     4  10  20  33  55  85 110 143 189 231 285 335
#     4  11  18  36  58  86 113 143 191 235 286 326
#     4  11  22  36  60  84 113 151 187 241 281 328
#     4  10  20  33  55  83 115 148 176 231 288 338
#     4  11  23  39  54  85 117 150 193 229 281 337
#     4  10  18  35  57  83 115 139 187 244 284 321
#     4  12  22  35  55  80 121 152 179 228 285 343
#
# _framework density 18.361416999999999
#
# number of rings (size 3 to 8) (size 9 to 14) (size 15 to 20)
#    0.000    1.500    5.000    0.750    3.500    0.000 
#    0.000    0.000    0.000    6.000    0.000    0.000 
#    0.000    0.000    0.000    0.000    0.000    0.000 
#
# Total GULP energy -198255.914061 kJ/mol
# GULP energy per Si atom -12390.994629 kJ/mol
# Density = 1.831963 g / cm^3
# Si number density = 18.361417 Si / 1000 Ang^3
#
#
#
# Elastic Constant Matrix: (Units=GPa)
#
#
# Indices 1 2 3 4 5 6 
#
# 1 114.3508 44.6163 46.2927 -1.9052 28.4917 1.7695
# 2 44.6163 89.5429 40.9258 6.7130 12.0601 0.5340
# 3 46.2927 40.9258 87.7505 1.7591 27.0413 -3.9409
# 4 -1.9052 6.7130 1.7591 27.5421 -1.5721 -0.3257
# 5 28.4917 12.0601 27.0413 -1.5721 32.0819 1.1028
# 6 1.7695 0.5340 -3.9409 -0.3257 1.1028 25.4807
#
#
#
# Elastic Compliance Matrix: (Units=1/GPa)
#
#
# Indices 1 2 3 4 5 6 
#
# 1 0.013680 -0.004653 -0.002639 0.001779 -0.008058 -0.000889
# 2 -0.004653 0.016084 -0.005928 -0.003709 0.002938 -0.001105
# 3 -0.002639 -0.005928 0.019423 -0.000616 -0.011960 0.003821
# 4 0.001779 -0.003709 -0.000616 0.037501 0.002163 0.000245
# 5 -0.008058 0.002938 -0.011960 0.002163 0.047525 -0.003381
# 6 -0.000889 -0.001105 0.003821 0.000245 -0.003381 0.040071
#
#
# Mechanical properties :
#
#
# Convention : Reuss Voigt Hill
#
# Bulk Modulus (GPa) = 43.96177 61.70152 52.83164
# Shear Modulus (GPa) = 24.00324 27.67490 25.83907
#
# Velocity S-wave (km/s) = 3.61953 3.88652 3.75540
# Velocity P-wave (km/s) = 6.43914 7.33600 6.90215
#
# Compressibility (1/GPa) = 0.02274704
#
# Stress axis : x y z
#
# Youngs Moduli (GPa) = 73.09997 62.17231 51.48636
#
# Poissons Ratio (x) = 0.28927 0.13589
# Poissons Ratio (y) = 0.34011 0.30520
# Poissons Ratio (z) = 0.19294 0.36854
#
# Static dielectric constant tensor:
#      x y z
#    x 3.402940 -0.568050 0.347570 
#    y -0.568050 2.464970 0.352770 
#    z 0.347570 0.352770 3.274390 
# 
# 
# High freq. dielectric constant tensor:
#      x y z
#    x 1.722280 -0.003120 0.012100 
#    y -0.003120 1.691460 0.037330 
#    z 0.012100 0.037330 1.696480 
# 
# From -- ./inp_files/252358.got.cif
#   From: 2010.06.25/outbox.cif.g09.slc.cpg/sg2_127_cif.got.tgz:252358.got - 2010.06.27 13:26:56.
