data_PCOD8039899
_publ_section_title
;
Structure prediction by ZEFSAII (Michael W. Deem and Ramdas Pophale) SiO2 
 PCOD8039899
Probable space group: P -1
;
_chemical_formula_sum "Si O2"
_cell_formula_units_Z 16
_cell_length_a 24.706328
_cell_length_b 8.829117
_cell_length_c 9.214846
_cell_angle_alpha 69.729005
_cell_angle_beta 29.299947
_cell_angle_gamma 61.277459
_cell_volume 850.217211
_symmetry_space_group_name_H-M "P -1"
_symmetry_group_IT_number 2
_symmetry_cell_setting 'triclinic'
loop_
_space_group_symop_operation_xyz
x,y,z
-x,-y,-z
loop_
_atom_site_type_symbol
_atom_site_label
_atom_site_fract_x
_atom_site_fract_y
_atom_site_fract_z
Si Si1 0.865235 0.368761 0.502017
Si Si2 0.509879 0.315108 0.713555
Si Si3 0.634181 0.309949 0.122880
Si Si4 0.085115 0.093751 0.212335
Si Si5 0.121152 0.873125 0.692275
Si Si6 0.277920 0.237161 0.253930
Si Si7 0.229457 0.049793 0.169412
Si Si8 0.261278 0.932384 0.587843
O O1 0.878345 0.303607 0.324492
O O2 0.825530 0.576427 0.528161
O O3 0.995076 0.283308 0.303056
O O4 0.766664 0.313392 0.833997
O O5 0.577792 0.311478 0.408492
O O6 0.446834 0.520679 0.839931
O O7 0.603943 0.197936 0.648737
O O8 0.410009 0.235423 0.954718
O O9 0.648847 0.127845 0.071748
O O10 0.170015 0.124208 0.127865
O O11 0.000000 0.000000 0.500000
O O12 0.172753 0.983084 0.915758
O O13 0.221084 0.821707 0.600929
O O14 0.134465 0.996184 0.493931
O O15 0.000000 0.000000 0.000000
O O16 0.260932 0.190486 0.141850
O O17 0.263408 0.104764 0.449024
#
# Coordination Sequence:
#
# PCOD8039899 Si02
#       8
#     2   2   2   2   2   2   2   2
#     4  10  20  37  59  84 116 147 185 232 288 326
#     4  10  19  37  60  81 113 149 191 235 280 320
#     4   9  18  35  61  84 106 143 194 238 271 324
#     4  12  19  35  65  83 111 143 194 237 272 332
#     4  10  18  35  58  83 108 145 187 232 280 329
#     4  10  24  38  54  80 124 154 179 227 288 340
#     4  10  20  36  55  88 110 148 189 226 286 333
#     4  11  21  36  58  87 111 148 191 226 285 340
#
# _framework density 18.818719999999999
#
# number of rings (size 3 to 8) (size 9 to 14) (size 15 to 20)
#    0.000    1.750    5.000    0.375    0.000    1.500 
#    0.000   11.250    8.250    0.000    0.000    0.000 
#    0.000    0.000    0.000    0.000    0.000    0.000 
#
# Total GULP energy -198291.130048 kJ/mol
# GULP energy per Si atom -12393.195628 kJ/mol
# Density = 1.877589 g / cm^3
# Si number density = 18.818720 Si / 1000 Ang^3
#
#
#
# Elastic Constant Matrix: (Units=GPa)
#
#
# Indices 1 2 3 4 5 6 
#
# 1 155.0245 85.0485 50.0246 20.1997 -2.3160 -1.9695
# 2 85.0485 119.7303 37.9105 33.6798 -9.5992 6.2463
# 3 50.0246 37.9105 86.3857 22.4893 1.6476 -0.9160
# 4 20.1997 33.6798 22.4893 30.7382 -5.3944 1.7401
# 5 -2.3160 -9.5992 1.6476 -5.3944 27.9937 7.8468
# 6 -1.9695 6.2463 -0.9160 1.7401 7.8468 29.5763
#
#
#
# Elastic Compliance Matrix: (Units=1/GPa)
#
#
# Indices 1 2 3 4 5 6 
#
# 1 0.012022 -0.008676 -0.004195 0.004228 -0.001675 0.002699
# 2 -0.008676 0.019081 0.000243 -0.014326 0.004433 -0.004933
# 3 -0.004195 0.000243 0.016727 -0.010514 -0.003781 0.001809
# 4 0.004228 -0.014326 -0.010514 0.054520 0.007158 -0.002125
# 5 -0.001675 0.004433 -0.003781 0.007158 0.042296 -0.012807
# 6 0.002699 -0.004933 0.001809 -0.002125 -0.012807 0.038611
#
#
# Mechanical properties :
#
#
# Convention : Reuss Voigt Hill
#
# Bulk Modulus (GPa) = 44.29695 78.56753 61.43224
# Shear Modulus (GPa) = 23.14421 30.20542 26.67482
#
# Velocity S-wave (km/s) = 3.51073 4.01068 3.76900
# Velocity P-wave (km/s) = 6.32641 7.95536 7.18718
#
# Compressibility (1/GPa) = 0.02257492
#
# Stress axis : x y z
#
# Youngs Moduli (GPa) = 83.17834 52.40905 59.78471
#
# Poissons Ratio (x) = 0.45471 0.25077
# Poissons Ratio (y) = 0.72168 -0.01455
# Poissons Ratio (z) = 0.34890 -0.01276
#
# Static dielectric constant tensor:
#      x y z
#    x 3.640430 -0.184960 -0.375200 
#    y -0.184960 3.485040 0.163400 
#    z -0.375200 0.163400 3.454950 
# 
# 
# High freq. dielectric constant tensor:
#      x y z
#    x 1.723740 -0.005840 0.003290 
#    y -0.005840 1.720370 0.016980 
#    z 0.003290 0.016980 1.743410 
# 
# From -- ./inp_files/196547.got.cif
#   From: 2010.06.25/outbox.cif.g09.slc.cpg/sg2_99_cif.got.tgz:196547.got - 2010.06.27 13:26:56.
