data_PCOD8039717
_publ_section_title
;
Structure prediction by ZEFSAII (Michael W. Deem and Ramdas Pophale) SiO2 
 PCOD8039717
Probable space group: P -1
;
_chemical_formula_sum "Si O2"
_cell_formula_units_Z 16
_cell_length_a 8.688736
_cell_length_b 9.295875
_cell_length_c 14.426304
_cell_angle_alpha 84.277879
_cell_angle_beta 141.248259
_cell_angle_gamma 100.413118
_cell_volume 715.731468
_symmetry_space_group_name_H-M "P -1"
_symmetry_group_IT_number 2
_symmetry_cell_setting 'triclinic'
loop_
_space_group_symop_operation_xyz
x,y,z
-x,-y,-z
loop_
_atom_site_type_symbol
_atom_site_label
_atom_site_fract_x
_atom_site_fract_y
_atom_site_fract_z
Si Si1 0.862726 0.717693 0.335599
Si Si2 0.492972 0.581134 0.305013
Si Si3 0.080918 0.366954 0.182760
Si Si4 0.144349 0.936334 0.339295
Si Si5 0.432966 0.233170 0.489516
Si Si6 0.347833 0.705326 0.673109
Si Si7 0.862210 0.902009 0.862539
Si Si8 0.723250 0.449639 0.163790
O O1 0.589033 0.692253 0.258496
O O2 0.885723 0.584063 0.285442
O O3 0.889061 0.865677 0.276262
O O4 0.079100 0.741698 0.514459
O O5 0.193769 0.517650 0.170357
O O6 0.560745 0.660053 0.428215
O O7 0.632387 0.442861 0.364166
O O8 0.317461 0.312044 0.346241
O O9 0.987949 0.235253 0.075299
O O10 0.879148 0.386274 0.161691
O O11 0.302178 0.801401 0.420028
O O12 0.273189 0.075078 0.451223
O O13 0.102478 0.987103 0.213605
O O14 0.569878 0.841387 0.748696
O O15 0.362691 0.677546 0.792967
O O16 0.000000 0.000000 0.000000
O O17 0.500000 0.500000 0.000000
#
# Coordination Sequence:
#
# PCOD8039717 Si02
#       8
#     2   2   2   2   2   2   2   2
#     4  11  21  38  63  93 131 162 208 267 313 368
#     4  10  19  33  59  95 121 158 201 260 313 368
#     4  10  20  39  64  90 124 165 212 257 317 378
#     4  10  21  35  60  91 125 168 207 253 309 377
#     4  10  18  34  60  93 124 158 211 255 313 367
#     4  10  21  40  64  93 128 164 214 261 320 364
#     4  10  23  43  64  89 129 176 209 256 317 384
#     4  11  24  41  66  96 127 167 208 266 322 377
#
# _framework density 22.354752999999999
#
# number of rings (size 3 to 8) (size 9 to 14) (size 15 to 20)
#    0.000    1.750    0.000    7.125    1.750    0.500 
#    4.500    6.250    0.000    0.000    0.000    0.000 
#    0.000    0.000    0.000    0.000    0.000    0.000 
#
# Total GULP energy -198235.656863 kJ/mol
# GULP energy per Si atom -12389.728554 kJ/mol
# Density = 2.230387 g / cm^3
# Si number density = 22.354753 Si / 1000 Ang^3
#
#
#
# Elastic Constant Matrix: (Units=GPa)
#
#
# Indices 1 2 3 4 5 6 
#
# 1 148.0131 71.0513 46.1316 14.2296 -6.0200 17.0644
# 2 71.0513 88.1095 47.0810 19.5224 -4.5112 24.2572
# 3 46.1316 47.0810 99.5835 12.8872 -15.3320 4.9426
# 4 14.2296 19.5224 12.8872 37.6418 -8.8151 -9.4661
# 5 -6.0200 -4.5112 -15.3320 -8.8151 18.7229 3.3217
# 6 17.0644 24.2572 4.9426 -9.4661 3.3217 51.8539
#
#
#
# Elastic Compliance Matrix: (Units=1/GPa)
#
#
# Indices 1 2 3 4 5 6 
#
# 1 0.011180 -0.008873 -0.001006 0.001143 0.001045 0.000709
# 2 -0.008873 0.028709 -0.008217 -0.013268 -0.006833 -0.011711
# 3 -0.001006 -0.008217 0.015686 0.002526 0.011302 0.002417
# 4 0.001143 -0.013268 0.002526 0.038687 0.015384 0.011667
# 5 0.001045 -0.006833 0.011302 0.015384 0.068565 0.000192
# 6 0.000709 -0.011711 0.002417 0.011667 0.000192 0.026417
#
#
# Mechanical properties :
#
#
# Convention : Reuss Voigt Hill
#
# Bulk Modulus (GPa) = 51.59022 73.80374 62.69698
# Shear Modulus (GPa) = 21.56137 33.07321 27.31729
#
# Velocity S-wave (km/s) = 3.10902 3.85056 3.49949
# Velocity P-wave (km/s) = 6.00134 7.27018 6.66602
#
# Compressibility (1/GPa) = 0.01938352
#
# Stress axis : x y z
#
# Youngs Moduli (GPa) = 89.44669 34.83232 63.75135
#
# Poissons Ratio (x) = 0.30905 0.06416
# Poissons Ratio (y) = 0.79362 0.52382
# Poissons Ratio (z) = 0.09002 0.28620
#
# Static dielectric constant tensor:
#      x y z
#    x 4.581050 0.068490 0.010680 
#    y 0.068490 4.415670 0.163260 
#    z 0.010680 0.163260 3.821910 
# 
# 
# High freq. dielectric constant tensor:
#      x y z
#    x 1.892860 0.019970 -0.013910 
#    y 0.019970 1.879590 0.018530 
#    z -0.013910 0.018530 1.853320 
# 
# From -- ./inp_files/495098.got.cif
#   From: 2010.06.25/outbox.cif.g09.slc.cpg/sg2_248_cif.got.tgz:495098.got - 2010.06.27 13:26:56.
