data_PCOD8039025
_publ_section_title
;
Structure prediction by ZEFSAII (Michael W. Deem and Ramdas Pophale) SiO2 
 PCOD8039025
Probable space group: P -1
;
_chemical_formula_sum "Si O2"
_cell_formula_units_Z 16
_cell_length_a 12.918624
_cell_length_b 14.011413
_cell_length_c 12.150870
_cell_angle_alpha 140.762430
_cell_angle_beta 32.597353
_cell_angle_gamma 128.273899
_cell_volume 745.942909
_symmetry_space_group_name_H-M "P -1"
_symmetry_group_IT_number 2
_symmetry_cell_setting 'triclinic'
loop_
_space_group_symop_operation_xyz
x,y,z
-x,-y,-z
loop_
_atom_site_type_symbol
_atom_site_label
_atom_site_fract_x
_atom_site_fract_y
_atom_site_fract_z
Si Si1 0.109783 0.112820 0.689128
Si Si2 0.061220 0.189422 0.042385
Si Si3 0.297409 0.449852 0.050138
Si Si4 0.559578 0.107473 0.892898
Si Si5 0.684457 0.075335 0.338682
Si Si6 0.546387 0.265589 0.828485
Si Si7 0.541946 0.728564 0.447101
Si Si8 0.676495 0.164754 0.070166
O O1 0.065823 0.090817 0.837981
O O2 0.245530 0.250372 0.676129
O O3 0.227531 0.965173 0.399673
O O4 0.907633 0.148490 0.839322
O O5 0.103353 0.363100 0.135600
O O6 0.221983 0.100005 0.899840
O O7 0.850148 0.190774 0.283540
O O8 0.386233 0.389477 0.032766
O O9 0.442702 0.403758 0.775440
O O10 0.265709 0.633782 0.241215
O O11 0.477780 0.217940 0.967353
O O12 0.404481 0.989433 0.952018
O O13 0.590749 0.205101 0.062295
O O14 0.579614 0.117235 0.587187
O O15 0.535488 0.112410 0.404631
O O16 0.398335 0.703888 0.656387
#
# Coordination Sequence:
#
# PCOD8039025 Si02
#       8
#     2   2   2   2   2   2   2   2
#     4  10  18  32  53  80 110 135 173 226 268 313
#     4  10  19  30  53  86 107 138 179 226 261 324
#     4   9  21  34  54  77 112 147 174 213 272 321
#     4  10  21  34  56  77 111 144 177 220 272 316
#     4  10  19  31  55  84 108 136 182 220 274 316
#     4  10  20  37  51  76 113 149 172 216 270 323
#     4   9  19  33  55  78 106 140 175 224 267 314
#     4  10  20  35  54  84 105 138 182 228 268 309
#
# _framework density 21.449363000000002
#
# number of rings (size 3 to 8) (size 9 to 14) (size 15 to 20)
#    0.000    2.250    2.500    0.375    3.500    2.000 
#    0.000    0.625    0.000    3.000    0.000    0.000 
#    0.000    0.000    0.000    0.000    0.000    0.000 
#
# Total GULP energy -198234.045249 kJ/mol
# GULP energy per Si atom -12389.627828 kJ/mol
# Density = 2.140054 g / cm^3
# Si number density = 21.449363 Si / 1000 Ang^3
#
#
#
# Elastic Constant Matrix: (Units=GPa)
#
#
# Indices 1 2 3 4 5 6 
#
# 1 100.9580 16.7665 24.4472 -10.5499 12.3178 -10.8471
# 2 16.7665 55.1028 -0.3780 -7.4682 -0.1808 -0.2787
# 3 24.4472 -0.3780 47.4284 -21.5177 -1.9744 -2.6152
# 4 -10.5499 -7.4682 -21.5177 29.8458 4.7586 0.9707
# 5 12.3178 -0.1808 -1.9744 4.7586 33.1482 -15.2862
# 6 -10.8471 -0.2787 -2.6152 0.9707 -15.2862 28.6516
#
#
#
# Elastic Compliance Matrix: (Units=1/GPa)
#
#
# Indices 1 2 3 4 5 6 
#
# 1 0.012969 -0.004149 -0.007281 -0.001100 -0.004193 0.002005
# 2 -0.004149 0.020506 0.005819 0.007809 0.000490 -0.000843
# 3 -0.007281 0.005819 0.036190 0.024690 0.001646 0.000645
# 4 -0.001100 0.007809 0.024690 0.054236 -0.007731 -0.004049
# 5 -0.004193 0.000490 0.001646 -0.007731 0.042968 0.021754
# 6 0.002005 -0.000843 0.000645 -0.004049 0.021754 0.047455
#
#
# Mechanical properties :
#
#
# Convention : Reuss Voigt Hill
#
# Bulk Modulus (GPa) = 17.11097 31.68452 24.39775
# Shear Modulus (GPa) = 20.40591 29.17269 24.78930
#
# Velocity S-wave (km/s) = 3.08775 3.69192 3.40327
# Velocity P-wave (km/s) = 4.55049 5.74261 5.18095
#
# Compressibility (1/GPa) = 0.05844203
#
# Stress axis : x y z
#
# Youngs Moduli (GPa) = 77.10465 48.76643 27.63231
#
# Poissons Ratio (x) = 0.20233 0.20120
# Poissons Ratio (y) = 0.31990 -0.16078
# Poissons Ratio (z) = 0.56141 -0.28376
#
# Static dielectric constant tensor:
#      x y z
#    x 4.036060 0.139770 0.268300 
#    y 0.139770 3.789270 -0.277350 
#    z 0.268300 -0.277350 3.762160 
# 
# 
# High freq. dielectric constant tensor:
#      x y z
#    x 1.844800 0.015980 0.016690 
#    y 0.015980 1.816510 -0.031030 
#    z 0.016690 -0.031030 1.812690 
# 
# From -- ./inp_files/428854.got.cif
#   From: 2010.06.25/outbox.cif.g09.slc.cpg/sg2_215_cif.got.tgz:428854.got - 2010.06.27 13:26:56.
