data_PCOD8039895
_publ_section_title
;
Structure prediction by ZEFSAII (Michael W. Deem and Ramdas Pophale) SiO2 
 PCOD8039895
Probable space group: P -1
;
_chemical_formula_sum "Si O2"
_cell_formula_units_Z 16
_cell_length_a 23.008558
_cell_length_b 9.035140
_cell_length_c 23.856971
_cell_angle_alpha 30.930907
_cell_angle_beta 20.381255
_cell_angle_gamma 32.292112
_cell_volume 863.911659
_symmetry_space_group_name_H-M "P -1"
_symmetry_group_IT_number 2
_symmetry_cell_setting 'triclinic'
loop_
_space_group_symop_operation_xyz
x,y,z
-x,-y,-z
loop_
_atom_site_type_symbol
_atom_site_label
_atom_site_fract_x
_atom_site_fract_y
_atom_site_fract_z
Si Si1 0.630357 0.382763 0.327745
Si Si2 0.126451 0.567970 0.817228
Si Si3 0.679344 0.366952 0.907264
Si Si4 0.842085 0.758104 0.574555
Si Si5 0.835781 0.267113 0.066782
Si Si6 0.617447 0.961808 0.293039
Si Si7 0.056146 0.146742 0.215793
Si Si8 0.492667 0.061520 0.253196
O O1 0.725003 0.310365 0.325754
O O2 0.768908 0.295574 0.181673
O O3 0.541520 0.729562 0.292223
O O4 0.486709 0.191314 0.518163
O O5 0.029154 0.807483 0.783637
O O6 0.209283 0.268391 0.806815
O O7 0.000000 0.500000 0.000000
O O8 0.773649 0.646099 0.731897
O O9 0.777104 0.116079 0.857307
O O10 0.500000 0.500000 0.000000
O O11 0.643200 0.228028 0.044436
O O12 0.694551 0.789095 0.650060
O O13 0.000000 0.500000 0.500000
O O14 0.915723 0.055700 0.414612
O O15 0.679204 0.227680 0.181612
O O16 0.891451 0.564817 0.900868
O O17 0.000000 0.000000 0.000000
O O18 0.495481 0.077889 0.312630
#
# Coordination Sequence:
#
# PCOD8039895 Si02
#       8
#     2   2   2   2   2   2   2   2
#     4  11  21  35  53  81 114 150 191 220 267 332
#     4  11  18  33  55  82 112 147 183 226 269 327
#     4   9  18  33  55  82 102 130 187 240 275 312
#     4   9  19  32  57  86 102 132 186 247 275 315
#     4  12  23  36  51  79 122 158 180 213 269 350
#     4  11  22  34  51  82 117 152 184 214 268 346
#     4  11  18  34  53  79 114 145 178 224 286 314
#     4  10  18  35  58  82 108 140 181 234 281 313
#
# _framework density 18.520412
#
# number of rings (size 3 to 8) (size 9 to 14) (size 15 to 20)
#    0.000    1.500    3.750    4.125    0.000    0.000 
#    0.000    0.000    0.000    7.500    0.000    0.000 
#    0.000    0.000    0.000    0.000    0.000    0.000 
#
# Total GULP energy -198240.580715 kJ/mol
# GULP energy per Si atom -12390.036295 kJ/mol
# Density = 1.847826 g / cm^3
# Si number density = 18.520412 Si / 1000 Ang^3
#
#
#
# Elastic Constant Matrix: (Units=GPa)
#
#
# Indices 1 2 3 4 5 6 
#
# 1 66.0071 39.7954 31.1720 -8.6861 -10.8877 1.1501
# 2 39.7954 86.7734 46.7173 -3.5313 -7.3140 -9.8224
# 3 31.1720 46.7173 165.2162 -36.1024 0.7804 -0.8614
# 4 -8.6861 -3.5313 -36.1024 38.5208 -2.7629 -5.8701
# 5 -10.8877 -7.3140 0.7804 -2.7629 26.9881 -0.9133
# 6 1.1501 -9.8224 -0.8614 -5.8701 -0.9133 25.5957
#
#
#
# Elastic Compliance Matrix: (Units=1/GPa)
#
#
# Indices 1 2 3 4 5 6 
#
# 1 0.023170 -0.009856 -0.000896 0.003395 0.006920 -0.003828
# 2 -0.009856 0.019066 -0.004221 -0.003291 0.001210 0.006906
# 3 -0.000896 -0.004221 0.009176 0.008026 -0.000931 0.000537
# 4 0.003395 -0.003291 0.008026 0.035323 0.004102 0.007102
# 5 0.006920 0.001210 -0.000931 0.004102 0.040705 0.002515
# 6 -0.003828 0.006906 0.000537 0.007102 0.002515 0.043628
#
#
# Mechanical properties :
#
#
# Convention : Reuss Voigt Hill
#
# Bulk Modulus (GPa) = 46.57974 61.48512 54.03243
# Shear Modulus (GPa) = 24.01918 31.57506 27.79712
#
# Velocity S-wave (km/s) = 3.60516 4.13350 3.87834
# Velocity P-wave (km/s) = 6.52186 7.48677 7.02091
#
# Compressibility (1/GPa) = 0.02146856
#
# Stress axis : x y z
#
# Youngs Moduli (GPa) = 43.16006 52.44880 108.97838
#
# Poissons Ratio (x) = 0.51691 0.09759
# Poissons Ratio (y) = 0.42537 0.45995
# Poissons Ratio (z) = 0.03865 0.22136
#
# Static dielectric constant tensor:
#      x y z
#    x 3.450010 -0.387680 0.449390 
#    y -0.387680 3.641530 -0.728090 
#    z 0.449390 -0.728090 5.543100 
# 
# 
# High freq. dielectric constant tensor:
#      x y z
#    x 1.680720 -0.026840 -0.003560 
#    y -0.026840 1.705420 0.001840 
#    z -0.003560 0.001840 1.754620 
# 
# From -- ./inp_files/176417.got.cif
#   From: 2010.06.25/outbox.cif.g09.slc.cpg/sg2_89_cif.got.tgz:176417.got - 2010.06.27 13:26:56.
