data_PCOD8039809
_publ_section_title
;
Structure prediction by ZEFSAII (Michael W. Deem and Ramdas Pophale) SiO2 
 PCOD8039809
Probable space group: P -1
;
_chemical_formula_sum "Si O2"
_cell_formula_units_Z 16
_cell_length_a 11.189105
_cell_length_b 8.944271
_cell_length_c 17.278385
_cell_angle_alpha 101.102568
_cell_angle_beta 48.735589
_cell_angle_gamma 65.855707
_cell_volume 876.145082
_symmetry_space_group_name_H-M "P -1"
_symmetry_group_IT_number 2
_symmetry_cell_setting 'triclinic'
loop_
_space_group_symop_operation_xyz
x,y,z
-x,-y,-z
loop_
_atom_site_type_symbol
_atom_site_label
_atom_site_fract_x
_atom_site_fract_y
_atom_site_fract_z
Si Si1 0.527390 0.337336 0.161378
Si Si2 0.444716 0.944254 0.406253
Si Si3 0.909795 0.284740 0.940302
Si Si4 0.363202 0.254169 0.083233
Si Si5 0.369502 0.992988 0.804414
Si Si6 0.115451 0.295649 0.710546
Si Si7 0.453818 0.223834 0.877632
Si Si8 0.731581 0.178745 0.639629
O O1 0.396152 0.327673 0.153162
O O2 0.554174 0.223673 0.217677
O O3 0.366260 0.586298 0.281402
O O4 0.768380 0.225588 0.008017
O O5 0.682578 0.757756 0.334025
O O6 0.389490 0.817431 0.381807
O O7 0.473620 0.053651 0.338162
O O8 0.228235 0.140995 0.571603
O O9 0.006891 0.237788 0.806218
O O10 0.741766 0.541231 0.059011
O O11 0.108226 0.154795 0.905763
O O12 0.083865 0.443782 0.204273
O O13 0.473071 0.260372 0.962197
O O14 0.500000 0.000000 0.000000
O O15 0.385632 0.095376 0.881288
O O16 0.695658 0.096688 0.721929
O O17 0.000000 0.000000 0.500000
#
# Coordination Sequence:
#
# PCOD8039809 Si02
#       8
#     2   2   2   2   2   2   2   2
#     4  11  22  34  53  83 114 140 179 225 281 321
#     4   9  19  38  62  81 105 145 192 221 266 327
#     4   9  19  33  57  81 106 144 176 229 271 316
#     4  11  21  36  52  81 113 142 181 226 273 322
#     4  10  18  35  54  82 113 139 178 224 273 327
#     4   9  19  37  62  79 105 148 190 224 260 326
#     4   9  19  35  56  77 106 144 190 214 264 330
#     4  10  21  37  55  83 109 146 181 226 271 324
#
# _framework density 18.261816
#
# number of rings (size 3 to 8) (size 9 to 14) (size 15 to 20)
#    0.000    2.250    1.250    1.500    0.000    8.500 
#    4.500    1.875    0.000    2.250    0.000    0.000 
#    0.000    0.000    0.000    0.000    0.000    0.000 
#
# Total GULP energy -198253.280130 kJ/mol
# GULP energy per Si atom -12390.830008 kJ/mol
# Density = 1.822025 g / cm^3
# Si number density = 18.261816 Si / 1000 Ang^3
#
#
#
# Elastic Constant Matrix: (Units=GPa)
#
#
# Indices 1 2 3 4 5 6 
#
# 1 96.7565 58.0576 59.9467 3.4042 2.0778 5.0244
# 2 58.0576 103.9448 55.0450 10.0266 -4.6299 -0.7295
# 3 59.9467 55.0450 128.9249 -2.0009 -3.8239 -2.8170
# 4 3.4042 10.0266 -2.0009 25.4053 -0.0901 3.8950
# 5 2.0778 -4.6299 -3.8239 -0.0901 30.9539 0.9516
# 6 5.0244 -0.7295 -2.8170 3.8950 0.9516 21.5515
#
#
#
# Elastic Compliance Matrix: (Units=1/GPa)
#
#
# Indices 1 2 3 4 5 6 
#
# 1 0.018792 -0.007788 -0.005604 0.000934 -0.002949 -0.005416
# 2 -0.007788 0.016483 -0.003375 -0.006169 0.002463 0.002939
# 3 -0.005604 -0.003375 0.011931 0.002688 0.001285 0.002209
# 4 0.000934 -0.006169 0.002688 0.043086 -0.000287 -0.007849
# 5 -0.002949 0.002463 0.001285 -0.000287 0.033045 -0.000468
# 6 -0.005416 0.002939 0.002209 -0.007849 -0.000468 0.049491
#
#
# Mechanical properties :
#
#
# Convention : Reuss Voigt Hill
#
# Bulk Modulus (GPa) = 73.13856 75.08054 74.10955
# Shear Modulus (GPa) = 23.70584 26.02059 24.86322
#
# Velocity S-wave (km/s) = 3.60684 3.77883 3.69384
# Velocity P-wave (km/s) = 7.58173 7.76158 7.67218
#
# Compressibility (1/GPa) = 0.01367268
#
# Stress axis : x y z
#
# Youngs Moduli (GPa) = 53.21400 60.66864 83.81420
#
# Poissons Ratio (x) = 0.47249 0.46970
# Poissons Ratio (y) = 0.41443 0.28285
# Poissons Ratio (z) = 0.29821 0.20474
#
# Static dielectric constant tensor:
#      x y z
#    x 3.408680 -0.102970 -0.033650 
#    y -0.102970 3.427160 -0.128550 
#    z -0.033650 -0.128550 3.517280 
# 
# 
# High freq. dielectric constant tensor:
#      x y z
#    x 1.707550 -0.010850 -0.000010 
#    y -0.010850 1.697890 -0.008140 
#    z -0.000010 -0.008140 1.713690 
# 
# From -- ./inp_files/254589.got.cif
#   From: 2010.06.25/outbox.cif.g09.slc.cpg/sg2_128_cif.got.tgz:254589.got - 2010.06.27 13:26:56.
