data_PCOD8039838
_publ_section_title
;
Structure prediction by ZEFSAII (Michael W. Deem and Ramdas Pophale) SiO2 
 PCOD8039838
Probable space group: P -1
;
_chemical_formula_sum "Si O2"
_cell_formula_units_Z 14
_cell_length_a 11.142951
_cell_length_b 9.671176
_cell_length_c 11.582410
_cell_angle_alpha 103.378687
_cell_angle_beta 73.673585
_cell_angle_gamma 138.457244
_cell_volume 793.957656
_symmetry_space_group_name_H-M "P -1"
_symmetry_group_IT_number 2
_symmetry_cell_setting 'triclinic'
loop_
_space_group_symop_operation_xyz
x,y,z
-x,-y,-z
loop_
_atom_site_type_symbol
_atom_site_label
_atom_site_fract_x
_atom_site_fract_y
_atom_site_fract_z
Si Si1 0.713017 0.059267 0.394516
Si Si2 0.009673 0.465547 0.280518
Si Si3 0.507392 0.867650 0.892868
Si Si4 0.051682 0.891774 0.824616
Si Si5 0.903339 0.539940 0.107848
Si Si6 0.845417 0.993035 0.928034
Si Si7 0.375236 0.913888 0.340222
O O1 0.808847 0.997931 0.302338
O O2 0.665487 0.003410 0.531886
O O3 0.855166 0.310564 0.390631
O O4 0.533994 0.940695 0.343683
O O5 0.199863 0.669690 0.322923
O O6 0.040064 0.341065 0.178939
O O7 0.931378 0.523123 0.230365
O O8 0.310826 0.628901 0.897644
O O9 0.649521 0.874101 0.908240
O O10 0.570077 0.959282 0.765396
O O11 0.500000 0.000000 0.000000
O O12 0.168052 0.026104 0.933452
O O13 0.896109 0.880257 0.841831
O O14 0.992959 0.766502 0.106292
O O15 0.000000 0.500000 0.000000
#
# Coordination Sequence:
#
# PCOD8039838 Si02
#       7
#     2   2   2   2   2   2   2
#     4   9  20  36  54  83 113 140 186 220 268 325
#     4  10  18  35  56  81 109 138 184 226 264 316
#     4  12  21  33  57  84 108 138 187 228 269 320
#     4   9  21  39  53  79 116 144 178 222 272 331
#     4  12  19  34  57  81 107 141 181 229 272 317
#     4  11  21  38  55  79 116 145 175 227 277 318
#     4  11  19  33  61  83 108 143 181 231 268 309
#
# _framework density 17.633182999999999
#
# number of rings (size 3 to 8) (size 9 to 14) (size 15 to 20)
#    0.857    0.571    5.714    1.286    0.000    0.000 
#    2.571    2.143    0.000    0.857    0.000    0.000 
#    0.000    0.000    0.000    0.000    0.000    0.000 
#
# Total GULP energy -173529.369039 kJ/mol
# GULP energy per Si atom -12394.954931 kJ/mol
# Density = 1.759305 g / cm^3
# Si number density = 17.633183 Si / 1000 Ang^3
#
#
#
# Elastic Constant Matrix: (Units=GPa)
#
#
# Indices 1 2 3 4 5 6 
#
# 1 134.1827 42.9503 52.6399 14.1775 -5.1437 18.0510
# 2 42.9503 80.3483 6.6828 0.3200 2.1723 27.7106
# 3 52.6399 6.6828 104.3989 -3.1338 -13.0316 1.9625
# 4 14.1775 0.3200 -3.1338 20.8739 -1.9872 -1.4763
# 5 -5.1437 2.1723 -13.0316 -1.9872 24.1134 1.9772
# 6 18.0510 27.7106 1.9625 -1.4763 1.9772 37.3954
#
#
#
# Elastic Compliance Matrix: (Units=1/GPa)
#
#
# Indices 1 2 3 4 5 6 
#
# 1 0.013227 -0.005705 -0.006685 -0.010141 -0.000936 -0.002157
# 2 -0.005705 0.019316 0.001849 0.002969 -0.000770 -0.011499
# 3 -0.006685 0.001849 0.013827 0.007272 0.006391 0.001080
# 4 -0.010141 0.002969 0.007272 0.056696 0.005824 0.004244
# 5 -0.000936 -0.000770 0.006391 0.005824 0.045396 -0.001483
# 6 -0.002157 -0.011499 0.001080 0.004244 -0.001483 0.036493
#
#
# Mechanical properties :
#
#
# Convention : Reuss Voigt Hill
#
# Bulk Modulus (GPa) = 39.54292 58.16400 48.85346
# Shear Modulus (GPa) = 23.31392 30.92033 27.11712
#
# Velocity S-wave (km/s) = 3.64010 4.19206 3.92579
# Velocity P-wave (km/s) = 6.33570 7.51587 6.95088
#
# Compressibility (1/GPa) = 0.02528897
#
# Stress axis : x y z
#
# Youngs Moduli (GPa) = 75.60386 51.76986 72.32459
#
# Poissons Ratio (x) = 0.29533 0.48347
# Poissons Ratio (y) = 0.43129 -0.13373
# Poissons Ratio (z) = 0.50539 -0.09573
#
# Static dielectric constant tensor:
#      x y z
#    x 3.263180 0.237330 -0.007220 
#    y 0.237330 3.340700 0.042960 
#    z -0.007220 0.042960 3.488810 
# 
# 
# High freq. dielectric constant tensor:
#      x y z
#    x 1.672030 0.022840 0.000280 
#    y 0.022840 1.666850 -0.000760 
#    z 0.000280 -0.000760 1.687310 
# 
# From -- ./inp_files/381998.got.cif
#   From: 2010.06.25/outbox.cif.g09.slc.cpg/sg2_191_cif.got.tgz:381998.got - 2010.06.27 13:26:56.
