data_PCOD8039675
_publ_section_title
;
Structure prediction by ZEFSAII (Michael W. Deem and Ramdas Pophale) SiO2 
 PCOD8039675
Probable space group: P -1
;
_chemical_formula_sum "Si O2"
_cell_formula_units_Z 16
_cell_length_a 11.778165
_cell_length_b 10.970882
_cell_length_c 18.703534
_cell_angle_alpha 119.347394
_cell_angle_beta 153.441907
_cell_angle_gamma 52.684308
_cell_volume 850.096628
_symmetry_space_group_name_H-M "P -1"
_symmetry_group_IT_number 2
_symmetry_cell_setting 'triclinic'
loop_
_space_group_symop_operation_xyz
x,y,z
-x,-y,-z
loop_
_atom_site_type_symbol
_atom_site_label
_atom_site_fract_x
_atom_site_fract_y
_atom_site_fract_z
Si Si1 0.743830 0.881586 0.054900
Si Si2 0.570670 0.291064 0.422495
Si Si3 0.236638 0.575623 0.923831
Si Si4 0.075073 0.611580 0.262925
Si Si5 0.753895 0.401465 0.898253
Si Si6 0.378006 0.302307 0.173518
Si Si7 0.699464 0.144069 0.695173
Si Si8 0.314871 0.162166 0.355399
O O1 0.900771 0.709178 0.125853
O O2 0.985476 0.935925 0.185010
O O3 0.582253 0.854609 0.888854
O O4 0.500000 0.000000 0.000000
O O5 0.358819 0.473718 0.354915
O O6 0.860642 0.271479 0.616056
O O7 0.619634 0.243038 0.353324
O O8 0.451399 0.184295 0.365409
O O9 0.108880 0.451802 0.814448
O O10 0.018642 0.731080 0.806337
O O11 0.500000 0.500000 0.000000
O O12 0.311170 0.605511 0.055918
O O13 0.575347 0.572977 0.814627
O O14 0.674915 0.279596 0.774998
O O15 0.077903 0.370376 0.065008
O O16 0.463904 0.210008 0.518908
O O17 0.640707 0.014428 0.666540
#
# Coordination Sequence:
#
# PCOD8039675 Si02
#       8
#     2   2   2   2   2   2   2   2
#     4  11  22  36  57  85 117 154 184 235 292 341
#     4  10  18  34  63  86 109 142 195 250 267 333
#     4  11  23  38  59  85 122 150 185 239 288 343
#     4  10  19  35  59  86 109 145 194 229 287 336
#     4  10  19  35  59  87 111 146 194 239 280 332
#     4  10  18  34  59  88 111 141 196 244 274 327
#     4  10  22  37  60  82 115 156 193 234 281 346
#     4  10  21  38  56  86 116 153 193 230 290 338
#
# _framework density 18.821389
#
# number of rings (size 3 to 8) (size 9 to 14) (size 15 to 20)
#    0.000    1.750    5.000    1.500    5.250    0.500 
#    0.000    1.250    5.500    0.000    0.000    0.000 
#    0.000    0.000    0.000    0.000    0.000    0.000 
#
# Total GULP energy -198318.999526 kJ/mol
# GULP energy per Si atom -12394.937470 kJ/mol
# Density = 1.877855 g / cm^3
# Si number density = 18.821389 Si / 1000 Ang^3
#
#
#
# Elastic Constant Matrix: (Units=GPa)
#
#
# Indices 1 2 3 4 5 6 
#
# 1 85.1406 37.2854 40.4508 2.2111 -17.2140 -12.7044
# 2 37.2854 65.1805 33.7146 12.5067 -8.2904 6.9751
# 3 40.4508 33.7146 94.3028 18.9068 -24.3609 -6.4433
# 4 2.2111 12.5067 18.9068 22.6475 -1.1024 -5.9011
# 5 -17.2140 -8.2904 -24.3609 -1.1024 31.4824 -0.9208
# 6 -12.7044 6.9751 -6.4433 -5.9011 -0.9208 27.4377
#
#
#
# Elastic Compliance Matrix: (Units=1/GPa)
#
#
# Indices 1 2 3 4 5 6 
#
# 1 0.024387 -0.015219 -0.005262 0.015262 0.006298 0.017419
# 2 -0.015219 0.030792 -0.003185 -0.018172 -0.003889 -0.019661
# 3 -0.005262 -0.003185 0.019545 -0.013394 0.010952 0.000450
# 4 0.015262 -0.018172 -0.013394 0.069808 -0.003675 0.023431
# 5 0.006298 -0.003889 0.010952 -0.003675 0.042738 0.007121
# 6 0.017419 -0.019661 0.000450 0.023431 0.007121 0.054894
#
#
# Mechanical properties :
#
#
# Convention : Reuss Voigt Hill
#
# Bulk Modulus (GPa) = 36.50868 51.94727 44.22798
# Shear Modulus (GPa) = 16.74335 25.19174 20.96755
#
# Velocity S-wave (km/s) = 2.98584 3.66247 3.34133
# Velocity P-wave (km/s) = 5.59701 6.74870 6.19966
#
# Compressibility (1/GPa) = 0.02739075
#
# Stress axis : x y z
#
# Youngs Moduli (GPa) = 41.00622 32.47648 51.16333
#
# Poissons Ratio (x) = 0.49427 0.26922
# Poissons Ratio (y) = 0.62409 0.16295
# Poissons Ratio (z) = 0.21577 0.10343
#
# Static dielectric constant tensor:
#      x y z
#    x 3.312280 0.198680 -0.243690 
#    y 0.198680 3.315940 0.205920 
#    z -0.243690 0.205920 3.784940 
# 
# 
# High freq. dielectric constant tensor:
#      x y z
#    x 1.714440 0.021910 -0.024830 
#    y 0.021910 1.714250 0.018960 
#    z -0.024830 0.018960 1.738580 
# 
# From -- ./inp_files/414544.got.cif
#   From: 2010.06.25/outbox.cif.g09.slc.cpg/sg2_208_cif.got.tgz:414544.got - 2010.06.27 13:26:56.
