data_PCOD8039552
_publ_section_title
;
Structure prediction by ZEFSAII (Michael W. Deem and Ramdas Pophale) SiO2 
 PCOD8039552
Probable space group: P -1
;
_chemical_formula_sum "Si O2"
_cell_formula_units_Z 16
_cell_length_a 13.908099
_cell_length_b 9.606821
_cell_length_c 16.060234
_cell_angle_alpha 141.922780
_cell_angle_beta 38.766704
_cell_angle_gamma 121.788818
_cell_volume 807.352813
_symmetry_space_group_name_H-M "P -1"
_symmetry_group_IT_number 2
_symmetry_cell_setting 'triclinic'
loop_
_space_group_symop_operation_xyz
x,y,z
-x,-y,-z
loop_
_atom_site_type_symbol
_atom_site_label
_atom_site_fract_x
_atom_site_fract_y
_atom_site_fract_z
Si Si1 0.189904 0.772665 0.765350
Si Si2 0.330804 0.350163 0.222217
Si Si3 0.884764 0.970967 0.720414
Si Si4 0.207109 0.836718 0.963725
Si Si5 0.362125 0.924096 0.197448
Si Si6 0.563612 0.612059 0.652769
Si Si7 0.128309 0.236539 0.093938
Si Si8 0.210925 0.674216 0.308252
O O1 0.142967 0.726794 0.872750
O O2 0.362752 0.625365 0.557365
O O3 0.062895 0.707679 0.757169
O O4 0.192797 0.048999 0.887793
O O5 0.189095 0.238309 0.295465
O O6 0.411916 0.435224 0.287938
O O7 0.268649 0.572616 0.311194
O O8 0.463840 0.160472 0.996902
O O9 0.054495 0.872952 0.520224
O O10 0.772841 0.115998 0.793803
O O11 0.893491 0.147680 0.875286
O O12 0.380831 0.688773 0.792689
O O13 0.194930 0.110237 0.076573
O O14 0.343160 0.791478 0.233483
O O15 0.344067 0.197229 0.353615
O O16 0.183337 0.476792 0.168801
#
# Coordination Sequence:
#
# PCOD8039552 Si02
#       8
#     2   2   2   2   2   2   2   2
#     4   9  20  33  57  83 106 142 195 237 264 306
#     4  11  20  35  57  83 114 147 186 228 272 333
#     4  11  20  35  57  84 112 146 190 230 270 328
#     4  10  18  34  56  83 107 139 187 241 262 310
#     4  11  22  37  53  86 122 147 171 229 295 340
#     4  11  19  35  60  84 110 143 191 228 267 334
#     4   9  19  35  51  84 109 143 182 235 265 324
#     4  12  23  34  58  85 122 146 174 227 297 335
#
# _framework density 19.817852999999999
#
# number of rings (size 3 to 8) (size 9 to 14) (size 15 to 20)
#    0.750    0.750    3.750    3.750    1.750    0.000 
#    0.000    0.000    0.000    5.250    0.000    0.000 
#    0.000    0.000    0.000    0.000    0.000    0.000 
#
# Total GULP energy -198228.740931 kJ/mol
# GULP energy per Si atom -12389.296308 kJ/mol
# Density = 1.977275 g / cm^3
# Si number density = 19.817853 Si / 1000 Ang^3
#
#
#
# Elastic Constant Matrix: (Units=GPa)
#
#
# Indices 1 2 3 4 5 6 
#
# 1 71.1821 11.0341 15.3140 9.0352 -0.6568 -12.9746
# 2 11.0341 64.5478 11.6071 -6.1559 2.1871 -7.2615
# 3 15.3140 11.6071 101.6827 10.1799 4.3428 9.2935
# 4 9.0352 -6.1559 10.1799 16.9744 -8.0966 -0.0685
# 5 -0.6568 2.1871 4.3428 -8.0966 22.1152 2.4571
# 6 -12.9746 -7.2615 9.2935 -0.0685 2.4571 21.9349
#
#
#
# Elastic Compliance Matrix: (Units=1/GPa)
#
#
# Indices 1 2 3 4 5 6 
#
# 1 0.018378 -0.002380 -0.002240 -0.011244 -0.004169 0.011464
# 2 -0.002380 0.018148 -0.003439 0.010974 0.002178 0.005848
# 3 -0.002240 -0.003439 0.012430 -0.009923 -0.005000 -0.007201
# 4 -0.011244 0.010974 -0.009923 0.091107 0.034146 -0.002354
# 5 -0.004169 0.002178 -0.005000 0.034146 0.059043 -0.006134
# 6 0.011464 0.005848 -0.007201 -0.002354 -0.006134 0.058037
#
#
# Mechanical properties :
#
#
# Convention : Reuss Voigt Hill
#
# Bulk Modulus (GPa) = 30.45381 34.81368 32.63375
# Shear Modulus (GPa) = 17.59283 25.50203 21.54743
#
# Velocity S-wave (km/s) = 2.98271 3.59112 3.30096
# Velocity P-wave (km/s) = 5.22133 5.89914 5.57055
#
# Compressibility (1/GPa) = 0.03283661
#
# Stress axis : x y z
#
# Youngs Moduli (GPa) = 54.41392 55.10154 80.45298
#
# Poissons Ratio (x) = 0.13116 0.18022
# Poissons Ratio (y) = 0.12952 0.27670
# Poissons Ratio (z) = 0.12189 0.18951
#
# Static dielectric constant tensor:
#      x y z
#    x 3.706540 -0.322050 0.032050 
#    y -0.322050 3.158890 0.120760 
#    z 0.032050 0.120760 3.620090 
# 
# 
# High freq. dielectric constant tensor:
#      x y z
#    x 1.780650 -0.031200 -0.004400 
#    y -0.031200 1.717800 0.015070 
#    z -0.004400 0.015070 1.780790 
# 
# From -- ./inp_files/398415.got.cif
#   From: 2010.06.25/outbox.cif.g09.slc.cpg/sg2_200_cif.got.tgz:398415.got - 2010.06.27 13:26:56.
