data_PCOD8039458
_publ_section_title
;
Structure prediction by ZEFSAII (Michael W. Deem and Ramdas Pophale) SiO2 
 PCOD8039458
Probable space group: P -1
;
_chemical_formula_sum "Si O2"
_cell_formula_units_Z 16
_cell_length_a 31.656245
_cell_length_b 11.574233
_cell_length_c 15.363841
_cell_angle_alpha 27.120568
_cell_angle_beta 17.711888
_cell_angle_gamma 25.032825
_cell_volume 708.625530
_symmetry_space_group_name_H-M "P -1"
_symmetry_group_IT_number 2
_symmetry_cell_setting 'triclinic'
loop_
_space_group_symop_operation_xyz
x,y,z
-x,-y,-z
loop_
_atom_site_type_symbol
_atom_site_label
_atom_site_fract_x
_atom_site_fract_y
_atom_site_fract_z
Si Si1 0.463230 0.267085 0.956298
Si Si2 0.220096 0.680836 0.692389
Si Si3 0.785009 0.531397 0.974179
Si Si4 0.537683 0.062524 0.657998
Si Si5 0.778826 0.136614 0.025705
Si Si6 0.476341 0.777488 0.810547
Si Si7 0.031118 0.153745 0.620139
Si Si8 0.268134 0.176503 0.829384
O O1 0.604395 0.353556 0.631998
O O2 0.313300 0.541456 0.039174
O O3 0.500000 0.000000 0.000000
O O4 0.421445 0.186082 0.186977
O O5 0.176352 0.449790 0.884459
O O6 0.179389 0.685953 0.870846
O O7 0.108573 0.966274 0.676712
O O8 0.880142 0.408592 0.782461
O O9 0.841445 0.772027 0.727592
O O10 0.604907 0.656679 0.217116
O O11 0.690575 0.099521 0.309781
O O12 0.471884 0.008316 0.732842
O O13 0.807143 0.906317 0.049018
O O14 0.956278 0.039491 0.768519
O O15 0.605832 0.726030 0.520034
O O16 0.322405 0.910580 0.966355
O O17 0.500000 0.500000 0.000000
#
# Coordination Sequence:
#
# PCOD8039458 Si02
#       8
#     2   2   2   2   2   2   2   2
#     4  12  25  38  67 102 131 165 223 274 321 382
#     4  12  23  44  68  95 131 179 215 265 331 396
#     4  11  23  44  66  92 125 179 223 263 322 399
#     4  11  21  40  68  94 126 172 217 259 336 380
#     4  11  25  44  64 102 136 166 214 285 315 383
#     4  10  18  33  63  95 123 164 213 266 312 384
#     4  11  27  42  65  93 135 173 220 266 331 387
#     4  10  21  38  64  95 131 166 217 265 323 386
#
# _framework density 22.578921000000001
#
# number of rings (size 3 to 8) (size 9 to 14) (size 15 to 20)
#    0.000    1.000    3.750    4.125    3.500    2.500 
#    0.000    0.625    0.000    0.000    0.000    0.000 
#    0.000    0.000    0.000    0.000    0.000    0.000 
#
# Total GULP energy -198233.899080 kJ/mol
# GULP energy per Si atom -12389.618693 kJ/mol
# Density = 2.252753 g / cm^3
# Si number density = 22.578921 Si / 1000 Ang^3
#
#
#
# Elastic Constant Matrix: (Units=GPa)
#
#
# Indices 1 2 3 4 5 6 
#
# 1 71.4648 0.8606 30.2980 -11.1378 4.2243 -13.5034
# 2 0.8606 42.0105 9.4302 -16.5087 2.0070 -13.1523
# 3 30.2980 9.4302 77.6990 -16.8115 0.3397 -24.9605
# 4 -11.1378 -16.5087 -16.8115 30.5193 -7.5325 5.8353
# 5 4.2243 2.0070 0.3397 -7.5325 43.1150 -11.1857
# 6 -13.5034 -13.1523 -24.9605 5.8353 -11.1857 48.1438
#
#
#
# Elastic Compliance Matrix: (Units=1/GPa)
#
#
# Indices 1 2 3 4 5 6 
#
# 1 0.017465 0.003469 -0.005457 0.004695 -0.000398 0.002355
# 2 0.003469 0.033968 0.001951 0.019846 0.004075 0.009805
# 3 -0.005457 0.001951 0.019643 0.009200 0.004246 0.009058
# 4 0.004695 0.019846 0.009200 0.051177 0.009429 0.007497
# 5 -0.000398 0.004075 0.004246 0.009429 0.026807 0.008289
# 6 0.002355 0.009805 0.009058 0.007497 0.008289 0.029824
#
#
# Mechanical properties :
#
#
# Convention : Reuss Voigt Hill
#
# Bulk Modulus (GPa) = 14.08413 30.26133 22.17273
# Shear Modulus (GPa) = 24.67587 34.39465 29.53526
#
# Velocity S-wave (km/s) = 3.30945 3.90719 3.62068
# Velocity P-wave (km/s) = 4.56668 5.81261 5.22690
#
# Compressibility (1/GPa) = 0.07100190
#
# Stress axis : x y z
#
# Youngs Moduli (GPa) = 57.25725 29.43905 50.90802
#
# Poissons Ratio (x) = -0.10212 0.27780
# Poissons Ratio (y) = -0.19861 -0.09931
# Poissons Ratio (z) = 0.31245 -0.05743
#
# Static dielectric constant tensor:
#      x y z
#    x 4.292310 0.065210 -0.055050 
#    y 0.065210 3.860100 -0.201970 
#    z -0.055050 -0.201970 4.196740 
# 
# 
# High freq. dielectric constant tensor:
#      x y z
#    x 1.907850 -0.000620 0.009900 
#    y -0.000620 1.876340 -0.016810 
#    z 0.009900 -0.016810 1.877180 
# 
# From -- ./inp_files/544937.got.cif
#   From: 2010.06.25/outbox.cif.g09.slc.cpg/sg2_273_cif.got.tgz:544937.got - 2010.06.27 13:26:56.
