data_PCOD8039365
_publ_section_title
;
Structure prediction by ZEFSAII (Michael W. Deem and Ramdas Pophale) SiO2 
 PCOD8039365
Probable space group: P -1
;
_chemical_formula_sum "Si O2"
_cell_formula_units_Z 14
_cell_length_a 14.697509
_cell_length_b 15.748482
_cell_length_c 9.244558
_cell_angle_alpha 35.242851
_cell_angle_beta 56.620694
_cell_angle_gamma 36.246792
_cell_volume 692.174080
_symmetry_space_group_name_H-M "P -1"
_symmetry_group_IT_number 2
_symmetry_cell_setting 'triclinic'
loop_
_space_group_symop_operation_xyz
x,y,z
-x,-y,-z
loop_
_atom_site_type_symbol
_atom_site_label
_atom_site_fract_x
_atom_site_fract_y
_atom_site_fract_z
Si Si1 0.125662 0.574765 0.194242
Si Si2 0.039669 0.981584 0.156880
Si Si3 0.768226 0.731099 0.957783
Si Si4 0.286618 0.945724 0.909520
Si Si5 0.936563 0.772990 0.557513
Si Si6 0.593609 0.764355 0.805587
Si Si7 0.794361 0.747025 0.217623
O O1 0.263381 0.433322 0.147936
O O2 0.186143 0.436672 0.480407
O O3 0.968262 0.648410 0.169090
O O4 0.083873 0.784532 0.979829
O O5 0.018713 0.843420 0.443073
O O6 0.225555 0.859389 0.167155
O O7 0.000000 0.000000 0.000000
O O8 0.688483 0.847389 0.022002
O O9 0.931668 0.486077 0.207368
O O10 0.802302 0.852000 0.679575
O O11 0.662042 0.731666 0.950057
O O12 0.464506 0.757657 0.942288
O O13 0.147197 0.127406 0.663834
O O14 0.304708 0.060754 0.846160
O O15 0.500000 0.000000 0.500000
#
# Coordination Sequence:
#
# PCOD8039365 Si02
#       7
#     2   2   2   2   2   2   2
#     4  10  19  35  60  86 114 153 189 229 284 340
#     4   9  19  36  62  85 110 151 197 232 270 341
#     4  11  21  33  60  86 115 143 193 243 282 327
#     4  10  20  38  60  83 117 151 188 231 285 338
#     4  10  19  37  58  86 110 148 192 238 277 335
#     4  12  22  38  56  87 121 150 183 238 292 336
#     4  10  18  33  58  87 110 146 199 234 270 333
#
# _framework density 20.226127000000002
#
# number of rings (size 3 to 8) (size 9 to 14) (size 15 to 20)
#    0.000    1.714    2.857    5.143    0.000    0.571 
#    0.000   10.000    0.000    0.000    0.000    0.000 
#    0.000    0.000    0.000    0.000    0.000    0.000 
#
# Total GULP energy -173491.001183 kJ/mol
# GULP energy per Si atom -12392.214370 kJ/mol
# Density = 2.018009 g / cm^3
# Si number density = 20.226127 Si / 1000 Ang^3
#
#
#
# Elastic Constant Matrix: (Units=GPa)
#
#
# Indices 1 2 3 4 5 6 
#
# 1 92.4648 51.0316 39.0284 14.1580 -7.9818 4.1619
# 2 51.0316 115.8765 21.6294 8.4553 -8.4857 -4.4746
# 3 39.0284 21.6294 59.5966 11.8133 -17.8982 9.1181
# 4 14.1580 8.4553 11.8133 17.6883 4.2140 -1.0474
# 5 -7.9818 -8.4857 -17.8982 4.2140 44.8256 10.2548
# 6 4.1619 -4.4746 9.1181 -1.0474 10.2548 41.4773
#
#
#
# Elastic Compliance Matrix: (Units=1/GPa)
#
#
# Indices 1 2 3 4 5 6 
#
# 1 0.019027 -0.006317 -0.009136 -0.005957 -0.000772 -0.000542
# 2 -0.006317 0.011569 0.000013 -0.000559 0.000738 0.001682
# 3 -0.009136 0.000013 0.032898 -0.019050 0.015748 -0.010689
# 4 -0.005957 -0.000559 -0.019050 0.079458 -0.018849 0.011392
# 5 -0.000772 0.000738 0.015748 -0.018849 0.033108 -0.011966
# 6 -0.000542 0.001682 -0.010689 0.011392 -0.011966 0.029941
#
#
# Mechanical properties :
#
#
# Convention : Reuss Voigt Hill
#
# Bulk Modulus (GPa) = 30.66041 54.59072 42.62557
# Shear Modulus (GPa) = 20.18129 31.21478 25.69804
#
# Velocity S-wave (km/s) = 3.16220 3.93273 3.56833
# Velocity P-wave (km/s) = 5.34082 6.90439 6.17232
#
# Compressibility (1/GPa) = 0.03261535
#
# Stress axis : x y z
#
# Youngs Moduli (GPa) = 52.55564 86.43599 30.39656
#
# Poissons Ratio (x) = 0.54602 0.27770
# Poissons Ratio (y) = 0.33200 -0.00040
# Poissons Ratio (z) = 0.48015 -0.00114
#
# Static dielectric constant tensor:
#      x y z
#    x 3.953970 -0.052640 -0.293570 
#    y -0.052640 3.725740 0.316580 
#    z -0.293570 0.316580 3.841760 
# 
# 
# High freq. dielectric constant tensor:
#      x y z
#    x 1.787450 0.003390 -0.005180 
#    y 0.003390 1.785940 0.025120 
#    z -0.005180 0.025120 1.764680 
# 
# From -- ./inp_files/310740.got.cif
#   From: 2010.06.25/outbox.cif.g09.slc.cpg/sg2_156_cif.got.tgz:310740.got - 2010.06.27 13:26:56.
