data_PCOD8039665
_publ_section_title
;
Structure prediction by ZEFSAII (Michael W. Deem and Ramdas Pophale) SiO2 
 PCOD8039665
Probable space group: P -1
;
_chemical_formula_sum "Si O2"
_cell_formula_units_Z 16
_cell_length_a 15.616076
_cell_length_b 8.960707
_cell_length_c 10.234554
_cell_angle_alpha 74.330197
_cell_angle_beta 144.614122
_cell_angle_gamma 92.937487
_cell_volume 760.954632
_symmetry_space_group_name_H-M "P -1"
_symmetry_group_IT_number 2
_symmetry_cell_setting 'triclinic'
loop_
_space_group_symop_operation_xyz
x,y,z
-x,-y,-z
loop_
_atom_site_type_symbol
_atom_site_label
_atom_site_fract_x
_atom_site_fract_y
_atom_site_fract_z
Si Si1 0.172290 0.314462 0.278331
Si Si2 0.548238 0.964403 0.357909
Si Si3 0.754062 0.492434 0.054580
Si Si4 0.839247 0.359907 0.914967
Si Si5 0.920625 0.728614 0.120776
Si Si6 0.293826 0.926981 0.229769
Si Si7 0.540106 0.701413 0.923022
Si Si8 0.750564 0.386558 0.343509
O O1 0.330613 0.174218 0.545544
O O2 0.200322 0.491582 0.274501
O O3 0.130857 0.287676 0.085201
O O4 0.026461 0.306717 0.187854
O O5 0.433138 0.883189 0.307741
O O6 0.640342 0.044871 0.554778
O O7 0.452240 0.113428 0.110502
O O8 0.871659 0.600134 0.180036
O O9 0.804293 0.356248 0.264406
O O10 0.749566 0.410557 0.928644
O O11 0.583886 0.617976 0.852114
O O12 0.783899 0.216408 0.819216
O O13 0.105606 0.683087 0.365764
O O14 0.838856 0.912429 0.023060
O O15 0.367160 0.712519 0.746122
O O16 0.664910 0.583390 0.207503
#
# Coordination Sequence:
#
# PCOD8039665 Si02
#       8
#     2   2   2   2   2   2   2   2
#     4   9  22  37  54  83 116 143 179 227 276 332
#     4  10  20  37  56  82 113 139 188 234 267 315
#     4   9  18  37  55  79 114 141 179 228 268 326
#     4  10  21  38  52  82 118 146 180 214 285 342
#     4  10  18  34  59  84 106 141 191 229 263 316
#     4  10  21  33  57  85 108 147 183 225 276 329
#     4   9  19  35  57  83 107 138 186 236 263 312
#     4   9  19  33  59  84 103 143 189 233 263 309
#
# _framework density 21.026219999999999
#
# number of rings (size 3 to 8) (size 9 to 14) (size 15 to 20)
#    0.750    1.750    1.250    0.375    5.250    1.500 
#    0.000    0.625    0.000    0.750    0.000    0.000 
#    0.000    0.000    0.000    0.000    0.000    0.000 
#
# Total GULP energy -198250.065751 kJ/mol
# GULP energy per Si atom -12390.629109 kJ/mol
# Density = 2.097836 g / cm^3
# Si number density = 21.026220 Si / 1000 Ang^3
#
#
#
# Elastic Constant Matrix: (Units=GPa)
#
#
# Indices 1 2 3 4 5 6 
#
# 1 78.2274 22.5549 2.7012 -1.6094 18.4638 6.9043
# 2 22.5549 105.7889 23.6716 -4.8567 13.9712 10.8521
# 3 2.7012 23.6716 64.6861 -13.6717 22.7239 1.0163
# 4 -1.6094 -4.8567 -13.6717 28.8900 -2.0695 9.6402
# 5 18.4638 13.9712 22.7239 -2.0695 22.6479 -4.0136
# 6 6.9043 10.8521 1.0163 9.6402 -4.0136 24.9562
#
#
#
# Elastic Compliance Matrix: (Units=1/GPa)
#
#
# Indices 1 2 3 4 5 6 
#
# 1 0.021712 -0.001396 0.013024 0.009814 -0.031635 -0.014809
# 2 -0.001396 0.011623 -0.001598 0.002939 -0.005329 -0.006595
# 3 0.013024 -0.001598 0.037656 0.021670 -0.049104 -0.020710
# 4 0.009814 0.002939 0.021670 0.053909 -0.032099 -0.030862
# 5 -0.031635 -0.005329 -0.049104 -0.032099 0.127721 0.046009
# 6 -0.014809 -0.006595 -0.020710 -0.030862 0.046009 0.067199
#
#
# Mechanical properties :
#
#
# Convention : Reuss Voigt Hill
#
# Bulk Modulus (GPa) = 10.98295 38.50642 24.74468
# Shear Modulus (GPa) = 15.14646 28.61713 21.88179
#
# Velocity S-wave (km/s) = 2.68686 3.69320 3.22947
# Velocity P-wave (km/s) = 3.85493 6.04480 5.06952
#
# Compressibility (1/GPa) = 0.09105024
#
# Stress axis : x y z
#
# Youngs Moduli (GPa) = 46.05842 86.03422 26.55638
#
# Poissons Ratio (x) = 0.12009 -0.34587
# Poissons Ratio (y) = 0.06429 0.04245
# Poissons Ratio (z) = -0.59987 0.13753
#
# Static dielectric constant tensor:
#      x y z
#    x 3.885180 0.115890 0.337750 
#    y 0.115890 3.695170 -0.373180 
#    z 0.337750 -0.373180 3.584390 
# 
# 
# High freq. dielectric constant tensor:
#      x y z
#    x 1.826690 0.017940 0.026750 
#    y 0.017940 1.804530 -0.025190 
#    z 0.026750 -0.025190 1.793890 
# 
# From -- ./inp_files/263427.got.cif
#   From: 2010.06.25/outbox.cif.g09.slc.cpg/sg2_132_cif.got.tgz:263427.got - 2010.06.27 13:26:56.
