data_PCOD8039200
_publ_section_title
;
Structure prediction by ZEFSAII (Michael W. Deem and Ramdas Pophale) SiO2 
 PCOD8039200
Probable space group: P -1
;
_chemical_formula_sum "Si O2"
_cell_formula_units_Z 16
_cell_length_a 12.548232
_cell_length_b 11.232857
_cell_length_c 20.670114
_cell_angle_alpha 148.469618
_cell_angle_beta 142.829412
_cell_angle_gamma 57.629279
_cell_volume 819.688283
_symmetry_space_group_name_H-M "P -1"
_symmetry_group_IT_number 2
_symmetry_cell_setting 'triclinic'
loop_
_space_group_symop_operation_xyz
x,y,z
-x,-y,-z
loop_
_atom_site_type_symbol
_atom_site_label
_atom_site_fract_x
_atom_site_fract_y
_atom_site_fract_z
Si Si1 0.236327 0.139712 0.188763
Si Si2 0.948362 0.690380 0.103778
Si Si3 0.025223 0.233466 0.700846
Si Si4 0.386647 0.553026 0.561387
Si Si5 0.285623 0.130680 0.421365
Si Si6 0.224059 0.914382 0.611250
Si Si7 0.447645 0.741778 0.274703
Si Si8 0.604658 0.251713 0.889814
O O1 0.288408 0.370193 0.369140
O O2 0.375605 0.265448 0.250479
O O3 0.295670 0.937219 0.155561
O O4 0.000000 0.000000 0.000000
O O5 0.031033 0.721757 0.232722
O O6 0.711591 0.555586 0.927783
O O7 0.047886 0.962676 0.240154
O O8 0.000000 0.500000 0.000000
O O9 0.853211 0.198771 0.550806
O O10 0.068116 0.986454 0.605293
O O11 0.224352 0.471163 0.881996
O O12 0.346568 0.387605 0.530043
O O13 0.264074 0.716406 0.582798
O O14 0.366824 0.209594 0.569494
O O15 0.368954 0.949706 0.346625
O O16 0.436714 0.164539 0.822858
O O17 0.506201 0.761048 0.237275
#
# Coordination Sequence:
#
# PCOD8039200 Si02
#       8
#     2   2   2   2   2   2   2   2
#     4  10  20  34  51  78 110 145 174 222 280 328
#     4   9  19  34  54  79 105 136 183 229 270 310
#     4  10  20  36  57  82 106 143 187 226 267 324
#     4  10  21  35  50  78 113 145 179 218 276 331
#     4  10  18  33  50  74 107 142 176 221 268 322
#     4  10  21  35  55  80 112 146 180 220 273 330
#     4   9  18  31  50  77 102 138 179 220 272 313
#     4  10  18  34  55  79 107 140 181 228 273 319
#
# _framework density 19.519615000000002
#
# number of rings (size 3 to 8) (size 9 to 14) (size 15 to 20)
#    0.000    2.250    1.250    1.875    0.000    1.000 
#    9.000    0.625    0.000    3.000    0.000    0.000 
#    0.000    0.000    0.000    0.000    0.000    0.000 
#
# Total GULP energy -198232.973289 kJ/mol
# GULP energy per Si atom -12389.560831 kJ/mol
# Density = 1.947519 g / cm^3
# Si number density = 19.519615 Si / 1000 Ang^3
#
#
#
# Elastic Constant Matrix: (Units=GPa)
#
#
# Indices 1 2 3 4 5 6 
#
# 1 61.6406 36.7322 26.0944 2.4149 2.8328 6.4509
# 2 36.7322 99.8598 34.6996 13.5614 19.4473 7.3933
# 3 26.0944 34.6996 89.7495 3.3296 15.0633 9.3938
# 4 2.4149 13.5614 3.3296 24.1377 1.8750 4.2352
# 5 2.8328 19.4473 15.0633 1.8750 24.5987 2.6256
# 6 6.4509 7.3933 9.3938 4.2352 2.6256 17.8431
#
#
#
# Elastic Compliance Matrix: (Units=1/GPa)
#
#
# Indices 1 2 3 4 5 6 
#
# 1 0.023086 -0.008470 -0.004251 0.003272 0.006860 -0.004385
# 2 -0.008470 0.016911 -0.002067 -0.007636 -0.010602 0.000516
# 3 -0.004251 -0.002067 0.014711 0.000867 -0.006459 -0.004607
# 4 0.003272 -0.007636 0.000867 0.046818 0.002625 -0.009975
# 5 0.006860 -0.010602 -0.006459 0.002625 0.052321 -0.003008
# 6 -0.004385 0.000516 -0.004607 -0.009975 -0.003008 0.062651
#
#
# Mechanical properties :
#
#
# Convention : Reuss Voigt Hill
#
# Bulk Modulus (GPa) = 39.79019 49.58916 44.68967
# Shear Modulus (GPa) = 19.65001 23.56413 21.60707
#
# Velocity S-wave (km/s) = 3.17626 3.47825 3.33068
# Velocity P-wave (km/s) = 5.82070 6.44910 6.14294
#
# Compressibility (1/GPa) = 0.02513182
#
# Stress axis : x y z
#
# Youngs Moduli (GPa) = 43.31704 59.13163 67.97430
#
# Poissons Ratio (x) = 0.50086 0.28896
# Poissons Ratio (y) = 0.36691 0.14051
# Poissons Ratio (z) = 0.18414 0.12223
#
# Static dielectric constant tensor:
#      x y z
#    x 3.467440 0.137600 0.270620 
#    y 0.137600 3.351300 0.163060 
#    z 0.270620 0.163060 4.011510 
# 
# 
# High freq. dielectric constant tensor:
#      x y z
#    x 1.743180 0.010370 0.013180 
#    y 0.010370 1.728520 0.007340 
#    z 0.013180 0.007340 1.778850 
# 
# From -- ./inp_files/436857.got.cif
#   From: 2010.06.25/outbox.cif.g09.slc.cpg/sg2_219_cif.got.tgz:436857.got - 2010.06.27 13:26:56.
