data_PCOD8039792
_publ_section_title
;
Structure prediction by ZEFSAII (Michael W. Deem and Ramdas Pophale) SiO2 
 PCOD8039792
Probable space group: P -1
;
_chemical_formula_sum "Si O2"
_cell_formula_units_Z 16
_cell_length_a 11.037561
_cell_length_b 22.047369
_cell_length_c 8.373696
_cell_angle_alpha 57.083832
_cell_angle_beta 40.043423
_cell_angle_gamma 35.109256
_cell_volume 734.864732
_symmetry_space_group_name_H-M "P -1"
_symmetry_group_IT_number 2
_symmetry_cell_setting 'triclinic'
loop_
_space_group_symop_operation_xyz
x,y,z
-x,-y,-z
loop_
_atom_site_type_symbol
_atom_site_label
_atom_site_fract_x
_atom_site_fract_y
_atom_site_fract_z
Si Si1 0.238503 0.026976 0.669964
Si Si2 0.023963 0.771817 0.534191
Si Si3 0.375798 0.734886 0.500689
Si Si4 0.267465 0.463992 0.353443
Si Si5 0.673833 0.849275 0.277842
Si Si6 0.537066 0.834187 0.103055
Si Si7 0.097821 0.063471 0.104966
Si Si8 0.208108 0.643613 0.230689
O O1 0.379617 0.922620 0.569548
O O2 0.500000 0.000000 0.500000
O O3 0.026246 0.134964 0.623513
O O4 0.074781 0.045418 0.966870
O O5 0.179877 0.736430 0.596434
O O6 0.209569 0.670239 0.373322
O O7 0.733334 0.812157 0.800229
O O8 0.617126 0.618544 0.503320
O O9 0.509738 0.755871 0.215079
O O10 0.206431 0.828320 0.673220
O O11 0.177133 0.566382 0.371372
O O12 0.000000 0.500000 0.500000
O O13 0.502335 0.410361 0.058915
O O14 0.668745 0.803058 0.191336
O O15 0.945737 0.752925 0.246093
O O16 0.693745 0.927694 0.096556
O O17 0.232206 0.959760 0.219511
#
# Coordination Sequence:
#
# PCOD8039792 Si02
#       8
#     2   2   2   2   2   2   2   2
#     4  10  18  34  68  92 127 169 204 254 300 366
#     4  12  22  42  66  94 131 164 206 255 308 380
#     4  12  26  41  61  95 131 165 210 260 312 374
#     4  11  25  47  69  92 120 158 218 270 311 368
#     4  11  18  38  66  94 125 165 209 255 306 371
#     4  12  23  37  63  96 134 171 198 246 319 376
#     4  11  19  39  62  93 130 165 210 250 303 377
#     4  11  23  43  73  92 116 169 211 257 323 360
#
# _framework density 21.772714000000001
#
# number of rings (size 3 to 8) (size 9 to 14) (size 15 to 20)
#    0.000    0.750    7.500    2.250    0.000    2.500 
#    0.000    6.250    0.000    0.000    0.000    0.000 
#    0.000    0.000    0.000    0.000    0.000    0.000 
#
# Total GULP energy -198432.627098 kJ/mol
# GULP energy per Si atom -12402.039194 kJ/mol
# Density = 2.172316 g / cm^3
# Si number density = 21.772714 Si / 1000 Ang^3
#
#
#
# Elastic Constant Matrix: (Units=GPa)
#
#
# Indices 1 2 3 4 5 6 
#
# 1 73.5327 50.3675 34.1592 4.0453 9.6722 -8.2960
# 2 50.3675 125.8091 41.8318 -5.0915 -4.1435 -3.2404
# 3 34.1592 41.8318 88.2947 0.7242 1.0449 1.8194
# 4 4.0453 -5.0915 0.7242 36.5921 8.5735 7.0688
# 5 9.6722 -4.1435 1.0449 8.5735 30.8882 2.4122
# 6 -8.2960 -3.2404 1.8194 7.0688 2.4122 35.4464
#
#
#
# Elastic Compliance Matrix: (Units=1/GPa)
#
#
# Indices 1 2 3 4 5 6 
#
# 1 0.023273 -0.007760 -0.005337 -0.002897 -0.007822 0.006121
# 2 -0.007760 0.012154 -0.002791 0.001970 0.003702 -0.001207
# 3 -0.005337 -0.002791 0.014749 0.000144 0.000942 -0.002354
# 4 -0.002897 0.001970 0.000144 0.030722 -0.006880 -0.006164
# 5 -0.007822 0.003702 0.000942 -0.006880 0.037410 -0.002715
# 6 0.006121 -0.001207 -0.002354 -0.006164 -0.002715 0.031069
#
#
# Mechanical properties :
#
#
# Convention : Reuss Voigt Hill
#
# Bulk Modulus (GPa) = 54.34938 60.03929 57.19433
# Shear Modulus (GPa) = 26.69704 31.33721 29.01713
#
# Velocity S-wave (km/s) = 3.50547 3.79791 3.65462
# Velocity P-wave (km/s) = 6.43434 6.84598 6.64335
#
# Compressibility (1/GPa) = 0.01839947
#
# Stress axis : x y z
#
# Youngs Moduli (GPa) = 42.96867 82.27863 67.80073
#
# Poissons Ratio (x) = 0.63847 0.36186
# Poissons Ratio (y) = 0.33343 0.18925
# Poissons Ratio (z) = 0.22933 0.22966
#
# Static dielectric constant tensor:
#      x y z
#    x 3.838990 0.145390 0.205150 
#    y 0.145390 3.991990 0.071910 
#    z 0.205150 0.071910 4.201000 
# 
# 
# High freq. dielectric constant tensor:
#      x y z
#    x 1.850770 0.000350 0.006190 
#    y 0.000350 1.847340 -0.003460 
#    z 0.006190 -0.003460 1.859120 
# 
# From -- ./inp_files/282839.got.cif
#   From: 2010.06.25/outbox.cif.g09.slc.cpg/sg2_142_cif.got.tgz:282839.got - 2010.06.27 13:26:56.
