data_PCOD8039243
_publ_section_title
;
Structure prediction by ZEFSAII (Michael W. Deem and Ramdas Pophale) SiO2 
 PCOD8039243
Probable space group: P -1
;
_chemical_formula_sum "Si O2"
_cell_formula_units_Z 14
_cell_length_a 11.479795
_cell_length_b 9.094602
_cell_length_c 9.173583
_cell_angle_alpha 88.377946
_cell_angle_beta 67.037426
_cell_angle_gamma 53.878822
_cell_volume 685.660703
_symmetry_space_group_name_H-M "P -1"
_symmetry_group_IT_number 2
_symmetry_cell_setting 'triclinic'
loop_
_space_group_symop_operation_xyz
x,y,z
-x,-y,-z
loop_
_atom_site_type_symbol
_atom_site_label
_atom_site_fract_x
_atom_site_fract_y
_atom_site_fract_z
Si Si1 0.528057 0.713734 0.015875
Si Si2 0.625481 0.352782 0.143609
Si Si3 0.233716 0.929581 0.327730
Si Si4 0.868010 0.521383 0.758989
Si Si5 0.939695 0.357204 0.423772
Si Si6 0.074671 0.840958 0.177888
Si Si7 0.244993 0.766423 0.618420
O O1 0.476616 0.703781 0.878274
O O2 0.693071 0.686040 0.915279
O O3 0.553834 0.556486 0.113560
O O4 0.378331 0.905842 0.165903
O O5 0.612183 0.352393 0.326675
O O6 0.815289 0.199907 0.013419
O O7 0.166403 0.835035 0.278211
O O8 0.303329 0.819719 0.450601
O O9 0.087125 0.149658 0.421026
O O10 0.848270 0.506771 0.595732
O O11 0.945501 0.320172 0.799053
O O12 0.984873 0.576007 0.725159
O O13 0.810689 0.355978 0.397452
O O14 0.902373 0.041956 0.236085
#
# Coordination Sequence:
#
# PCOD8039243 Si02
#       7
#     2   2   2   2   2   2   2
#     4   9  20  36  50  75 104 142 166 204 264 310
#     4   9  19  31  54  77 106 133 171 214 257 299
#     4  10  18  33  54  78 106 129 173 215 250 298
#     4  10  18  35  55  73 105 143 169 199 256 320
#     4  10  20  32  55  80 102 137 170 212 252 303
#     4   9  16  33  52  76 105 136 168 209 255 306
#     4  11  18  31  53  87 101 126 175 223 249 290
#
# _framework density 20.418261000000001
#
# number of rings (size 3 to 8) (size 9 to 14) (size 15 to 20)
#    0.000    2.286    2.857    2.143    0.000    1.143 
#    0.000    2.857    0.000    2.571    0.000    0.000 
#    0.000    0.000    0.000    0.000    0.000    0.000 
#
# Total GULP energy -173520.578385 kJ/mol
# GULP energy per Si atom -12394.327028 kJ/mol
# Density = 2.037179 g / cm^3
# Si number density = 20.418261 Si / 1000 Ang^3
#
#
#
# Elastic Constant Matrix: (Units=GPa)
#
#
# Indices 1 2 3 4 5 6 
#
# 1 35.0825 15.3250 16.6919 -6.4519 3.5723 1.6563
# 2 15.3250 30.0767 13.0143 -6.1597 6.4320 3.8729
# 3 16.6919 13.0143 82.0898 -3.8470 7.5083 -7.6991
# 4 -6.4519 -6.1597 -3.8470 31.4704 -13.2634 -2.4815
# 5 3.5723 6.4320 7.5083 -13.2634 34.6437 -8.6309
# 6 1.6563 3.8729 -7.6991 -2.4815 -8.6309 25.2490
#
#
#
# Elastic Compliance Matrix: (Units=1/GPa)
#
#
# Indices 1 2 3 4 5 6 
#
# 1 0.039168 -0.017075 -0.005251 0.004878 0.002044 -0.000373
# 2 -0.017075 0.046977 -0.004124 0.000934 -0.008216 -0.010060
# 3 -0.005251 -0.004124 0.014442 0.000088 -0.000488 0.005222
# 4 0.004878 0.000934 0.000088 0.041056 0.017401 0.009547
# 5 0.002044 -0.008216 -0.000488 0.017401 0.041119 0.016743
# 6 -0.000373 -0.010060 0.005222 0.009547 0.016743 0.049427
#
#
# Mechanical properties :
#
#
# Convention : Reuss Voigt Hill
#
# Bulk Modulus (GPa) = 20.97002 26.36793 23.66897
# Shear Modulus (GPa) = 16.61220 25.08716 20.84968
#
# Velocity S-wave (km/s) = 2.85545 3.50903 3.19898
# Velocity P-wave (km/s) = 4.60044 5.41846 5.02612
#
# Compressibility (1/GPa) = 0.04768713
#
# Stress axis : x y z
#
# Youngs Moduli (GPa) = 25.53112 21.28717 69.24366
#
# Poissons Ratio (x) = 0.36348 0.36357
# Poissons Ratio (y) = 0.43595 0.28554
# Poissons Ratio (z) = 0.13405 0.08778
#
# Static dielectric constant tensor:
#      x y z
#    x 3.393790 -0.041210 -0.223790 
#    y -0.041210 3.531690 0.257920 
#    z -0.223790 0.257920 3.874970 
# 
# 
# High freq. dielectric constant tensor:
#      x y z
#    x 1.756810 -0.007470 -0.016380 
#    y -0.007470 1.781830 0.013910 
#    z -0.016380 0.013910 1.808760 
# 
# From -- ./inp_files/169293.got.cif
#   From: 2010.06.25/outbox.cif.g09.slc.cpg/sg2_85_cif.got.tgz:169293.got - 2010.06.27 13:26:56.
