data_PCOD8039975
_publ_section_title
;
Structure prediction by ZEFSAII (Michael W. Deem and Ramdas Pophale) SiO2 
 PCOD8039975
Probable space group: P -1
;
_chemical_formula_sum "Si O2"
_cell_formula_units_Z 14
_cell_length_a 16.880114
_cell_length_b 8.951667
_cell_length_c 12.033622
_cell_angle_alpha 32.187715
_cell_angle_beta 49.114294
_cell_angle_gamma 63.066572
_cell_volume 708.892223
_symmetry_space_group_name_H-M "P -1"
_symmetry_group_IT_number 2
_symmetry_cell_setting 'triclinic'
loop_
_space_group_symop_operation_xyz
x,y,z
-x,-y,-z
loop_
_atom_site_type_symbol
_atom_site_label
_atom_site_fract_x
_atom_site_fract_y
_atom_site_fract_z
Si Si1 0.027456 0.718289 0.102504
Si Si2 0.460803 0.051896 0.881708
Si Si3 0.736123 0.157850 0.234880
Si Si4 0.184576 0.356587 0.761871
Si Si5 0.830826 0.295790 0.839011
Si Si6 0.700613 0.524504 0.645940
Si Si7 0.345012 0.556132 0.672712
O O1 0.057979 0.550200 0.291094
O O2 0.925752 0.546477 0.230334
O O3 0.136595 0.804925 0.872650
O O4 0.000000 0.000000 0.000000
O O5 0.377376 0.253330 0.838774
O O6 0.560061 0.191766 0.623324
O O7 0.500000 0.000000 0.000000
O O8 0.400774 0.748300 0.070879
O O9 0.680430 0.358194 0.233780
O O10 0.672568 0.820918 0.523954
O O11 0.732173 0.242326 0.054794
O O12 0.270754 0.454294 0.523230
O O13 0.236828 0.523102 0.719304
O O14 0.159651 0.013696 0.021648
O O15 0.805854 0.489950 0.640126
#
# Coordination Sequence:
#
# PCOD8039975 Si02
#       7
#     2   2   2   2   2   2   2
#     4   8  16  36  57  87 120 155 188 226 287 355
#     4  11  24  40  62  85 110 159 200 233 295 355
#     4   9  22  37  58  91 121 147 189 246 283 340
#     4  10  18  35  60  86 116 156 192 228 287 350
#     4   8  18  35  54  84 117 150 190 228 280 339
#     4  11  19  37  63  83 112 155 199 234 280 347
#     4  11  23  40  60  85 122 150 189 251 293 330
#
# _framework density 19.749124999999999
#
# number of rings (size 3 to 8) (size 9 to 14) (size 15 to 20)
#    0.857    1.429    4.286    0.000    0.000    2.857 
#    0.000    1.429    0.000    1.714    0.000    0.000 
#    0.000    0.000    0.000    0.000    0.000    0.000 
#
# Total GULP energy -173434.618937 kJ/mol
# GULP energy per Si atom -12388.187067 kJ/mol
# Density = 1.970417 g / cm^3
# Si number density = 19.749125 Si / 1000 Ang^3
#
#
#
# Elastic Constant Matrix: (Units=GPa)
#
#
# Indices 1 2 3 4 5 6 
#
# 1 85.7126 -4.1602 -0.2079 -8.1167 -5.4771 4.2135
# 2 -4.1602 64.2112 -2.0016 2.5584 -12.5404 1.4379
# 3 -0.2079 -2.0016 27.0197 -10.2910 -9.3751 -2.4796
# 4 -8.1167 2.5584 -10.2910 17.4469 2.1332 -5.1486
# 5 -5.4771 -12.5404 -9.3751 2.1332 35.5856 2.1288
# 6 4.2135 1.4379 -2.4796 -5.1486 2.1288 16.9903
#
#
#
# Elastic Compliance Matrix: (Units=1/GPa)
#
#
# Indices 1 2 3 4 5 6 
#
# 1 0.012681 0.001263 0.004034 0.007491 0.003057 -0.000776
# 2 0.001263 0.017321 0.002780 -0.002070 0.007330 -0.002919
# 3 0.004034 0.002780 0.058684 0.039618 0.013631 0.017627
# 4 0.007491 -0.002070 0.039618 0.093515 0.003339 0.032019
# 5 0.003057 0.007330 0.013631 0.003339 0.034709 -0.002726
# 6 -0.000776 -0.002919 0.017627 0.032019 -0.002726 0.071913
#
#
# Mechanical properties :
#
#
# Convention : Reuss Voigt Hill
#
# Bulk Modulus (GPa) = 9.53846 18.24491 13.89168
# Shear Modulus (GPa) = 16.25402 26.22546 21.23974
#
# Velocity S-wave (km/s) = 2.87195 3.64803 3.28300
# Velocity P-wave (km/s) = 3.97967 5.19640 4.62819
#
# Compressibility (1/GPa) = 0.10483872
#
# Stress axis : x y z
#
# Youngs Moduli (GPa) = 78.85927 57.73204 17.04047
#
# Poissons Ratio (x) = -0.07293 -0.06873
# Poissons Ratio (y) = -0.09962 -0.04737
# Poissons Ratio (z) = -0.31808 -0.16047
#
# Static dielectric constant tensor:
#      x y z
#    x 4.116520 -0.059810 -0.202100 
#    y -0.059810 3.161860 0.020120 
#    z -0.202100 0.020120 3.539230 
# 
# 
# High freq. dielectric constant tensor:
#      x y z
#    x 1.778910 0.002840 0.002010 
#    y 0.002840 1.731190 0.002380 
#    z 0.002010 0.002380 1.757830 
# 
# From -- ./inp_files/407494.got.cif
#   From: 2010.06.25/outbox.cif.g09.slc.cpg/sg2_204_cif.got.tgz:407494.got - 2010.06.27 13:26:56.
