data_PCOD8039850
_publ_section_title
;
Structure prediction by ZEFSAII (Michael W. Deem and Ramdas Pophale) SiO2 
 PCOD8039850
Probable space group: P -1
;
_chemical_formula_sum "Si O2"
_cell_formula_units_Z 16
_cell_length_a 26.764289
_cell_length_b 8.554149
_cell_length_c 17.500634
_cell_angle_alpha 37.416035
_cell_angle_beta 18.379099
_cell_angle_gamma 39.303420
_cell_volume 763.368045
_symmetry_space_group_name_H-M "P -1"
_symmetry_group_IT_number 2
_symmetry_cell_setting 'triclinic'
loop_
_space_group_symop_operation_xyz
x,y,z
-x,-y,-z
loop_
_atom_site_type_symbol
_atom_site_label
_atom_site_fract_x
_atom_site_fract_y
_atom_site_fract_z
Si Si1 0.888615 0.853362 0.272962
Si Si2 0.808216 0.715192 0.211203
Si Si3 0.045741 0.772455 0.729420
Si Si4 0.613206 0.156843 0.826138
Si Si5 0.603070 0.909212 0.098953
Si Si6 0.125213 0.404534 0.093431
Si Si7 0.300483 0.655729 0.609638
Si Si8 0.604840 0.747321 0.624395
O O1 0.745475 0.723586 0.491117
O O2 0.001542 0.611858 0.238682
O O3 0.804312 0.071807 0.367776
O O4 0.000000 0.000000 0.000000
O O5 0.711324 0.543252 0.363378
O O6 0.675379 0.876864 0.394683
O O7 0.921066 0.531847 0.176529
O O8 0.916924 0.893709 0.933644
O O9 0.968753 0.777495 0.755037
O O10 0.206669 0.911765 0.440821
O O11 0.558981 0.462709 0.779529
O O12 0.500000 0.000000 0.000000
O O13 0.608850 0.090076 0.947173
O O14 0.484833 0.694715 0.336823
O O15 0.547380 0.077914 0.189552
O O16 0.778482 0.771136 0.914996
O O17 0.245385 0.554264 0.810258
#
# Coordination Sequence:
#
# PCOD8039850 Si02
#       8
#     2   2   2   2   2   2   2   2
#     4   9  17  32  56  86 115 142 192 241 283 341
#     4   9  16  33  62  79 113 147 198 245 279 324
#     4   9  18  32  56  83 108 146 196 235 286 332
#     4  11  22  39  61  81 112 160 204 235 286 355
#     4  11  22  34  59  86 122 156 186 239 299 347
#     4  10  18  35  56  87 121 147 191 248 297 339
#     4   9  19  33  57  87 114 154 195 239 285 348
#     4  10  20  38  57  88 114 149 206 237 279 354
#
# _framework density 20.959747
#
# number of rings (size 3 to 8) (size 9 to 14) (size 15 to 20)
#    0.000    2.250    2.500    2.250    1.750    0.500 
#    0.000    2.500    5.500    0.750    0.000    0.000 
#    0.000    0.000    0.000    0.000    0.000    0.000 
#
# Total GULP energy -198241.337688 kJ/mol
# GULP energy per Si atom -12390.083605 kJ/mol
# Density = 2.091204 g / cm^3
# Si number density = 20.959747 Si / 1000 Ang^3
#
#
#
# Elastic Constant Matrix: (Units=GPa)
#
#
# Indices 1 2 3 4 5 6 
#
# 1 70.7335 25.0235 36.3943 12.0741 -1.0495 4.5948
# 2 25.0235 58.4529 28.7967 14.3887 -7.4761 3.4416
# 3 36.3943 28.7967 113.4546 -1.7242 -9.8306 12.9237
# 4 12.0741 14.3887 -1.7242 27.5523 5.8255 -5.3886
# 5 -1.0495 -7.4761 -9.8306 5.8255 39.9493 5.8951
# 6 4.5948 3.4416 12.9237 -5.3886 5.8951 24.8156
#
#
#
# Elastic Compliance Matrix: (Units=1/GPa)
#
#
# Indices 1 2 3 4 5 6 
#
# 1 0.019542 -0.003973 -0.005170 -0.007142 -0.000183 -0.001882
# 2 -0.003973 0.025562 -0.004274 -0.014266 0.006478 -0.005220
# 3 -0.005170 -0.004274 0.012324 0.003917 0.002196 -0.004539
# 4 -0.007142 -0.014266 0.003917 0.052662 -0.011862 0.015514
# 5 -0.000183 0.006478 0.002196 -0.011862 0.030246 -0.011769
# 6 -0.001882 -0.005220 -0.004539 0.015514 -0.011769 0.049898
#
#
# Mechanical properties :
#
#
# Convention : Reuss Voigt Hill
#
# Bulk Modulus (GPa) = 32.68775 47.00780 39.84777
# Shear Modulus (GPa) = 22.00041 28.62522 25.31282
#
# Velocity S-wave (km/s) = 3.24335 3.69958 3.47895
# Velocity P-wave (km/s) = 5.44565 6.38166 5.93214
#
# Compressibility (1/GPa) = 0.03059250
#
# Stress axis : x y z
#
# Youngs Moduli (GPa) = 51.17156 39.12019 81.13975
#
# Poissons Ratio (x) = 0.15544 0.41952
# Poissons Ratio (y) = 0.20333 0.34682
# Poissons Ratio (z) = 0.26457 0.16721
#
# Static dielectric constant tensor:
#      x y z
#    x 3.703080 0.273120 0.131700 
#    y 0.273120 3.654900 0.237690 
#    z 0.131700 0.237690 4.109970 
# 
# 
# High freq. dielectric constant tensor:
#      x y z
#    x 1.805550 0.025110 -0.007180 
#    y 0.025110 1.773920 0.008320 
#    z -0.007180 0.008320 1.831260 
# 
# From -- ./inp_files/579593.got.cif
#   From: 2010.06.25/outbox.cif.g09.slc.cpg/sg2_290_cif.got.tgz:579593.got - 2010.06.27 13:26:56.
