data_PCOD8039351
_publ_section_title
;
Structure prediction by ZEFSAII (Michael W. Deem and Ramdas Pophale) SiO2 
 PCOD8039351
Probable space group: P -1
;
_chemical_formula_sum "Si O2"
_cell_formula_units_Z 16
_cell_length_a 8.492917
_cell_length_b 11.883666
_cell_length_c 9.397256
_cell_angle_alpha 81.510211
_cell_angle_beta 58.610624
_cell_angle_gamma 92.643059
_cell_volume 792.214420
_symmetry_space_group_name_H-M "P -1"
_symmetry_group_IT_number 2
_symmetry_cell_setting 'triclinic'
loop_
_space_group_symop_operation_xyz
x,y,z
-x,-y,-z
loop_
_atom_site_type_symbol
_atom_site_label
_atom_site_fract_x
_atom_site_fract_y
_atom_site_fract_z
Si Si1 0.678643 0.194797 0.404490
Si Si2 0.042747 0.259753 0.543434
Si Si3 0.466820 0.627410 0.351495
Si Si4 0.808418 0.046738 0.603108
Si Si5 0.589277 0.821372 0.723298
Si Si6 0.019988 0.364489 0.234570
Si Si7 0.440488 0.370098 0.002299
Si Si8 0.186092 0.438757 0.660925
O O1 0.567691 0.269019 0.549248
O O2 0.725863 0.082399 0.484413
O O3 0.564949 0.158253 0.322861
O O4 0.871287 0.268713 0.247105
O O5 0.233490 0.208965 0.440117
O O6 0.008803 0.343076 0.413843
O O7 0.060457 0.330974 0.666828
O O8 0.861319 0.159232 0.658259
O O9 0.316759 0.514494 0.470134
O O10 0.677459 0.601497 0.278165
O O11 0.451647 0.657267 0.186450
O O12 0.655791 0.942376 0.754395
O O13 0.000000 0.000000 0.500000
O O14 0.508371 0.719890 0.887408
O O15 0.219937 0.352534 0.079803
O O16 0.960453 0.489265 0.208888
O O17 0.500000 0.500000 0.000000
#
# Coordination Sequence:
#
# PCOD8039351 Si02
#       8
#     2   2   2   2   2   2   2   2
#     4  10  19  37  63  86 110 147 198 233 277 333
#     4   9  16  31  53  86 108 143 190 239 274 322
#     4  10  21  34  56  86 116 150 188 236 281 338
#     4   9  19  33  59  89 109 141 194 245 277 326
#     4  10  19  36  57  82 113 151 188 236 280 335
#     4   9  20  32  56  82 116 148 186 233 278 340
#     4  11  24  38  55  83 125 154 181 229 296 338
#     4  10  18  33  58  82 115 149 197 232 275 332
#
# _framework density 20.196553999999999
#
# number of rings (size 3 to 8) (size 9 to 14) (size 15 to 20)
#    0.000    2.250    1.250    3.000    3.500    2.500 
#    0.000    0.625    0.000    0.750    0.000    0.000 
#    0.000    0.000    0.000    0.000    0.000    0.000 
#
# Total GULP energy -198316.004646 kJ/mol
# GULP energy per Si atom -12394.750290 kJ/mol
# Density = 2.015059 g / cm^3
# Si number density = 20.196554 Si / 1000 Ang^3
#
#
#
# Elastic Constant Matrix: (Units=GPa)
#
#
# Indices 1 2 3 4 5 6 
#
# 1 111.1929 37.2267 12.2214 -11.5926 10.4920 1.0696
# 2 37.2267 98.0022 26.7402 -24.5003 7.2494 13.3022
# 3 12.2214 26.7402 58.8909 -10.9216 10.2017 9.4499
# 4 -11.5926 -24.5003 -10.9216 23.1611 -3.9743 -2.0742
# 5 10.4920 7.2494 10.2017 -3.9743 18.8703 -2.2811
# 6 1.0696 13.3022 9.4499 -2.0742 -2.2811 45.1515
#
#
#
# Elastic Compliance Matrix: (Units=1/GPa)
#
#
# Indices 1 2 3 4 5 6 
#
# 1 0.010696 -0.003667 0.000287 0.000901 -0.004433 0.000585
# 2 -0.003667 0.016427 -0.003678 0.013535 0.000162 -0.003353
# 3 0.000287 -0.003678 0.021761 0.004455 -0.010030 -0.003780
# 4 0.000901 0.013535 0.004455 0.060632 0.004427 -0.001932
# 5 -0.004433 0.000162 -0.010030 0.004427 0.062417 0.005513
# 6 0.000585 -0.003353 -0.003780 -0.001932 0.005513 0.024103
#
#
# Mechanical properties :
#
#
# Convention : Reuss Voigt Hill
#
# Bulk Modulus (GPa) = 28.76237 46.71808 37.74022
# Shear Modulus (GPa) = 22.54872 30.22977 26.38924
#
# Velocity S-wave (km/s) = 3.34498 3.87302 3.61864
# Velocity P-wave (km/s) = 5.40284 6.57132 6.01552
#
# Compressibility (1/GPa) = 0.03476765
#
# Stress axis : x y z
#
# Youngs Moduli (GPa) = 93.49027 60.87436 45.95338
#
# Poissons Ratio (x) = 0.22325 -0.01318
# Poissons Ratio (y) = 0.34287 0.16901
# Poissons Ratio (z) = -0.02680 0.22388
#
# Static dielectric constant tensor:
#      x y z
#    x 3.987380 0.035180 -0.125190 
#    y 0.035180 3.933840 -0.294710 
#    z -0.125190 -0.294710 3.201720 
# 
# 
# High freq. dielectric constant tensor:
#      x y z
#    x 1.811920 -0.001710 -0.003110 
#    y -0.001710 1.790120 -0.014670 
#    z -0.003110 -0.014670 1.732610 
# 
# From -- ./inp_files/177434.got.cif
#   From: 2010.06.25/outbox.cif.g09.slc.cpg/sg2_89_cif.got.tgz:177434.got - 2010.06.27 13:26:56.
