data_PCOD8039074
_publ_section_title
;
Structure prediction by ZEFSAII (Michael W. Deem and Ramdas Pophale) SiO2 
 PCOD8039074
Probable space group: P -1
;
_chemical_formula_sum "Si O2"
_cell_formula_units_Z 16
_cell_length_a 10.631061
_cell_length_b 6.436769
_cell_length_c 13.922194
_cell_angle_alpha 59.666991
_cell_angle_beta 67.722881
_cell_angle_gamma 86.277748
_cell_volume 751.290057
_symmetry_space_group_name_H-M "P -1"
_symmetry_group_IT_number 2
_symmetry_cell_setting 'triclinic'
loop_
_space_group_symop_operation_xyz
x,y,z
-x,-y,-z
loop_
_atom_site_type_symbol
_atom_site_label
_atom_site_fract_x
_atom_site_fract_y
_atom_site_fract_z
Si Si1 0.544534 0.790190 0.908839
Si Si2 0.729619 0.909976 0.653722
Si Si3 0.311530 0.088952 0.968587
Si Si4 0.905111 0.546866 0.718727
Si Si5 0.108371 0.692555 0.036095
Si Si6 0.171882 0.883464 0.607519
Si Si7 0.028124 0.762773 0.381136
Si Si8 0.802341 0.468159 0.149834
O O1 0.593397 0.860451 0.769415
O O2 0.419165 0.937398 0.925219
O O3 0.500000 0.500000 0.000000
O O4 0.662827 0.885808 0.930245
O O5 0.783075 0.654629 0.674872
O O6 0.708737 0.031459 0.527179
O O7 0.852291 0.062884 0.641729
O O8 0.317878 0.363392 0.859651
O O9 0.160915 0.944976 0.017544
O O10 0.863370 0.522778 0.849016
O O11 0.920300 0.284353 0.730610
O O12 0.050831 0.719278 0.622384
O O13 0.944692 0.653661 0.078224
O O14 0.191407 0.677453 0.917333
O O15 0.232390 0.729651 0.709280
O O16 0.110298 0.114442 0.614698
O O17 0.000000 0.500000 0.500000
#
# Coordination Sequence:
#
# PCOD8039074 Si02
#       8
#     2   2   2   2   2   2   2   2
#     4  11  25  42  64  88 115 156 208 260 296 340
#     4  11  20  35  56  85 118 154 197 247 296 349
#     4  11  22  42  62  86 117 157 204 251 300 350
#     4  10  18  32  55  84 120 151 193 240 295 352
#     4  10  21  37  62  91 122 160 195 245 299 360
#     4  10  21  34  52  86 122 155 188 235 296 362
#     4  11  18  33  55  87 122 156 189 241 301 356
#     4  10  22  38  59  90 128 159 193 239 304 367
#
# _framework density 21.296702
#
# number of rings (size 3 to 8) (size 9 to 14) (size 15 to 20)
#    0.000    1.500    2.500    4.125    0.000    7.000 
#    0.000    0.625    0.000    3.000    0.000    0.000 
#    0.000    0.000    0.000    0.000    0.000    0.000 
#
# Total GULP energy -198251.865241 kJ/mol
# GULP energy per Si atom -12390.741578 kJ/mol
# Density = 2.124823 g / cm^3
# Si number density = 21.296702 Si / 1000 Ang^3
#
#
#
# Elastic Constant Matrix: (Units=GPa)
#
#
# Indices 1 2 3 4 5 6 
#
# 1 42.5321 37.6960 34.5156 -0.9382 18.2034 -5.9740
# 2 37.6960 115.0212 52.6650 6.9996 8.5054 -13.5933
# 3 34.5156 52.6650 165.8685 17.7491 14.4728 -19.0372
# 4 -0.9382 6.9996 17.7491 32.9306 -3.2424 6.7683
# 5 18.2034 8.5054 14.4728 -3.2424 27.0380 -8.7195
# 6 -5.9740 -13.5933 -19.0372 6.7683 -8.7195 38.4350
#
#
#
# Elastic Compliance Matrix: (Units=1/GPa)
#
#
# Indices 1 2 3 4 5 6 
#
# 1 0.051252 -0.013403 -0.005294 0.005742 -0.029022 -0.006991
# 2 -0.013403 0.013916 -0.001422 -0.002782 0.006387 0.004073
# 3 -0.005294 -0.001422 0.008586 -0.005267 0.000029 0.003861
# 4 0.005742 -0.002782 -0.005267 0.035883 0.001320 -0.008720
# 5 -0.029022 0.006387 0.000029 0.001320 0.058113 0.010713
# 6 -0.006991 0.004073 0.003861 -0.008720 0.010713 0.032250
#
#
# Mechanical properties :
#
#
# Convention : Reuss Voigt Hill
#
# Bulk Modulus (GPa) = 29.83490 63.68610 46.76050
# Shear Modulus (GPa) = 19.88786 32.91704 26.40245
#
# Velocity S-wave (km/s) = 3.05921 3.93573 3.52482
# Velocity P-wave (km/s) = 5.14955 7.11494 6.21049
#
# Compressibility (1/GPa) = 0.03351780
#
# Stress axis : x y z
#
# Youngs Moduli (GPa) = 19.51126 71.86104 116.46633
#
# Poissons Ratio (x) = 0.96312 0.61660
# Poissons Ratio (y) = 0.26150 0.16557
# Poissons Ratio (z) = 0.10330 0.10216
#
# Static dielectric constant tensor:
#      x y z
#    x 3.539940 0.029300 0.171800 
#    y 0.029300 4.215080 0.031550 
#    z 0.171800 0.031550 3.982970 
# 
# 
# High freq. dielectric constant tensor:
#      x y z
#    x 1.792440 -0.001580 0.015190 
#    y -0.001580 1.849250 0.000630 
#    z 0.015190 0.000630 1.837260 
# 
# From -- ./inp_files/76467.got.cif
#   From: 2010.06.25/outbox.cif.g09.slc.cpg/sg2_39_cif.got.tgz:76467.got - 2010.06.27 13:26:56.
