data_PCOD8039537
_publ_section_title
;
Structure prediction by ZEFSAII (Michael W. Deem and Ramdas Pophale) SiO2 
 PCOD8039537
Probable space group: P -1
;
_chemical_formula_sum "Si O2"
_cell_formula_units_Z 14
_cell_length_a 12.812803
_cell_length_b 7.091262
_cell_length_c 15.785534
_cell_angle_alpha 54.082750
_cell_angle_beta 42.707431
_cell_angle_gamma 59.310129
_cell_volume 779.570843
_symmetry_space_group_name_H-M "P -1"
_symmetry_group_IT_number 2
_symmetry_cell_setting 'triclinic'
loop_
_space_group_symop_operation_xyz
x,y,z
-x,-y,-z
loop_
_atom_site_type_symbol
_atom_site_label
_atom_site_fract_x
_atom_site_fract_y
_atom_site_fract_z
Si Si1 0.307727 0.513859 0.542814
Si Si2 0.024889 0.224736 0.370791
Si Si3 0.551152 0.666797 0.665257
Si Si4 0.253184 0.991122 0.169569
Si Si5 0.554605 0.816494 0.135695
Si Si6 0.449279 0.153992 0.675513
Si Si7 0.158642 0.493680 0.356054
O O1 0.402642 0.356579 0.454658
O O2 0.313632 0.347099 0.665816
O O3 0.386879 0.744831 0.455411
O O4 0.133790 0.600955 0.594240
O O5 0.101435 0.151259 0.254588
O O6 0.146353 0.362481 0.309849
O O7 0.000000 0.000000 0.500000
O O8 0.448454 0.461355 0.801650
O O9 0.706097 0.650170 0.632274
O O10 0.452117 0.916551 0.681665
O O11 0.388949 0.958021 0.168016
O O12 0.200214 0.746427 0.240479
O O13 0.306131 0.113482 0.021936
O O14 0.588406 0.888042 0.192777
O O15 0.000000 0.500000 0.500000
#
# Coordination Sequence:
#
# PCOD8039537 Si02
#       7
#     2   2   2   2   2   2   2
#     4  10  21  33  51  84 108 133 180 217 263 320
#     4  12  20  33  54  81 111 135 165 221 276 310
#     4  10  18  34  56  77 106 138 174 220 262 310
#     4  10  21  35  55  79 109 139 171 222 267 309
#     4   9  20  38  53  78 106 139 185 212 252 324
#     4  10  20  35  55  74 106 146 176 218 260 307
#     4  11  19  31  52  84 107 130 170 216 272 320
#
# _framework density 17.958599
#
# number of rings (size 3 to 8) (size 9 to 14) (size 15 to 20)
#    0.000    1.714    2.857    3.857    0.000    1.143 
#    0.000    5.000    0.000    1.714    0.000    0.000 
#    0.000    0.000    0.000    0.000    0.000    0.000 
#
# Total GULP energy -173615.191886 kJ/mol
# GULP energy per Si atom -12401.085135 kJ/mol
# Density = 1.791772 g / cm^3
# Si number density = 17.958599 Si / 1000 Ang^3
#
#
#
# Elastic Constant Matrix: (Units=GPa)
#
#
# Indices 1 2 3 4 5 6 
#
# 1 73.5147 26.3519 34.2339 -6.3001 12.2791 3.7168
# 2 26.3519 99.8002 45.6103 0.4824 9.1593 8.9909
# 3 34.2339 45.6103 122.5721 1.1731 12.7677 -2.7003
# 4 -6.3001 0.4824 1.1731 18.7580 2.0008 -0.6130
# 5 12.2791 9.1593 12.7677 2.0008 27.0140 -1.5542
# 6 3.7168 8.9909 -2.7003 -0.6130 -1.5542 23.6256
#
#
#
# Elastic Compliance Matrix: (Units=1/GPa)
#
#
# Indices 1 2 3 4 5 6 
#
# 1 0.017877 -0.002294 -0.003606 0.006876 -0.006302 -0.002588
# 2 -0.002294 0.013176 -0.004195 -0.000840 -0.001683 -0.005265
# 3 -0.003606 -0.004195 0.011004 -0.001488 -0.001842 0.003262
# 4 0.006876 -0.000840 -0.001488 0.056411 -0.006309 0.000116
# 5 -0.006302 -0.001683 -0.001842 -0.006309 0.042022 0.004022
# 6 -0.002588 -0.005265 0.003262 0.000116 0.004022 0.045378
#
#
# Mechanical properties :
#
#
# Convention : Reuss Voigt Hill
#
# Bulk Modulus (GPa) = 45.72940 56.47548 51.10244
# Shear Modulus (GPa) = 23.43600 26.52559 24.98079
#
# Velocity S-wave (km/s) = 3.61640 3.84740 3.73369
# Velocity P-wave (km/s) = 6.55415 7.15909 6.86329
#
# Compressibility (1/GPa) = 0.02186777
#
# Stress axis : x y z
#
# Youngs Moduli (GPa) = 55.93819 75.89745 90.87321
#
# Poissons Ratio (x) = 0.17413 0.32765
# Poissons Ratio (y) = 0.12834 0.38119
# Poissons Ratio (z) = 0.20169 0.31837
#
# Static dielectric constant tensor:
#      x y z
#    x 3.357380 0.167760 0.052140 
#    y 0.167760 3.443290 -0.044530 
#    z 0.052140 -0.044530 3.303330 
# 
# 
# High freq. dielectric constant tensor:
#      x y z
#    x 1.690200 0.012580 0.007940 
#    y 0.012580 1.699640 -0.007710 
#    z 0.007940 -0.007710 1.678830 
# 
# From -- ./inp_files/66185.got.cif
#   From: 2010.06.25/outbox.cif.g09.slc.cpg/sg2_34_cif.got.tgz:66185.got - 2010.06.27 13:26:56.
