data_PCOD8039456
_publ_section_title
;
Structure prediction by ZEFSAII (Michael W. Deem and Ramdas Pophale) SiO2 
 PCOD8039456
Probable space group: P -1
;
_chemical_formula_sum "Si O2"
_cell_formula_units_Z 14
_cell_length_a 14.090088
_cell_length_b 8.880929
_cell_length_c 9.316318
_cell_angle_alpha 132.072108
_cell_angle_beta 69.568343
_cell_angle_gamma 80.493213
_cell_volume 664.188674
_symmetry_space_group_name_H-M "P -1"
_symmetry_group_IT_number 2
_symmetry_cell_setting 'triclinic'
loop_
_space_group_symop_operation_xyz
x,y,z
-x,-y,-z
loop_
_atom_site_type_symbol
_atom_site_label
_atom_site_fract_x
_atom_site_fract_y
_atom_site_fract_z
Si Si1 0.005623 0.963573 0.141668
Si Si2 0.735446 0.363913 0.508509
Si Si3 0.682942 0.788396 0.998902
Si Si4 0.119709 0.243703 0.319302
Si Si5 0.192801 0.436953 0.656752
Si Si6 0.530011 0.320834 0.497532
Si Si7 0.631088 0.745886 0.301472
O O1 0.089976 0.040095 0.220399
O O2 0.862339 0.149888 0.386204
O O3 0.069084 0.670927 0.950773
O O4 0.000000 0.000000 0.000000
O O5 0.663844 0.617644 0.798509
O O6 0.756270 0.434086 0.383956
O O7 0.648851 0.265954 0.486435
O O8 0.785637 0.822862 0.903070
O O9 0.715014 0.662351 0.060650
O O10 0.558699 0.065711 0.251769
O O11 0.165759 0.273394 0.467492
O O12 0.000000 0.500000 0.500000
O O13 0.289659 0.251131 0.607041
O O14 0.500000 0.500000 0.500000
O O15 0.411358 0.432440 0.738285
O O16 0.500000 0.000000 0.500000
#
# Coordination Sequence:
#
# PCOD8039456 Si02
#       7
#     2   2   2   2   2   2   2
#     4  10  18  33  63  92 121 147 201 254 294 357
#     4  10  20  36  64  92 115 157 209 248 301 360
#     4  10  22  39  60  86 128 151 198 256 305 347
#     4  11  19  35  65  95 117 157 201 243 306 366
#     4  10  20  37  61  89 122 157 201 246 299 363
#     4  11  22  38  64  87 114 166 215 245 297 356
#     4  10  23  44  59  85 130 164 200 254 305 353
#
# _framework density 21.078347999999998
#
# number of rings (size 3 to 8) (size 9 to 14) (size 15 to 20)
#    0.000    1.714    5.714    1.714    0.000    1.143 
#    2.571    4.286    0.000    0.000    0.000    0.000 
#    0.000    0.000    0.000    0.000    0.000    0.000 
#
# Total GULP energy -173434.811975 kJ/mol
# GULP energy per Si atom -12388.200855 kJ/mol
# Density = 2.103037 g / cm^3
# Si number density = 21.078348 Si / 1000 Ang^3
#
#
#
# Elastic Constant Matrix: (Units=GPa)
#
#
# Indices 1 2 3 4 5 6 
#
# 1 130.6476 39.4720 46.5524 -2.1770 12.6723 -9.0189
# 2 39.4720 94.1386 39.8962 -9.1028 1.0607 -16.1137
# 3 46.5524 39.8962 99.7305 4.5965 10.0981 -1.4161
# 4 -2.1770 -9.1028 4.5965 23.7467 1.9211 -2.7384
# 5 12.6723 1.0607 10.0981 1.9211 25.1917 1.2699
# 6 -9.0189 -16.1137 -1.4161 -2.7384 1.2699 35.5619
#
#
#
# Elastic Compliance Matrix: (Units=1/GPa)
#
#
# Indices 1 2 3 4 5 6 
#
# 1 0.010075 -0.002353 -0.003411 0.001169 -0.003770 0.001578
# 2 -0.002353 0.015936 -0.005721 0.007647 0.001874 0.006918
# 3 -0.003411 -0.005721 0.014442 -0.005404 -0.003260 -0.003182
# 4 0.001169 0.007647 -0.005404 0.047255 -0.002714 0.007282
# 5 -0.003770 0.001874 -0.003260 -0.002714 0.043127 -0.001986
# 6 0.001578 0.006918 -0.003182 0.007282 -0.001986 0.032160
#
#
# Mechanical properties :
#
#
# Convention : Reuss Voigt Hill
#
# Bulk Modulus (GPa) = 57.19885 64.03975 60.61930
# Shear Modulus (GPa) = 26.07004 30.13981 28.10493
#
# Velocity S-wave (km/s) = 3.52066 3.78550 3.65548
# Velocity P-wave (km/s) = 6.61225 7.03949 6.82921
#
# Compressibility (1/GPa) = 0.01748287
#
# Stress axis : x y z
#
# Youngs Moduli (GPa) = 99.25953 62.75028 69.24403
#
# Poissons Ratio (x) = 0.14766 0.23619
# Poissons Ratio (y) = 0.23357 0.39612
# Poissons Ratio (z) = 0.33858 0.35897
#
# Static dielectric constant tensor:
#      x y z
#    x 5.126620 0.694080 -1.060460 
#    y 0.694080 4.198150 -0.541320 
#    z -1.060460 -0.541320 5.406970 
# 
# 
# High freq. dielectric constant tensor:
#      x y z
#    x 1.826670 -0.001180 -0.005470 
#    y -0.001180 1.798650 0.004160 
#    z -0.005470 0.004160 1.822230 
# 
# From -- ./inp_files/187026.got.cif
#   From: 2010.06.25/outbox.cif.g09.slc.cpg/sg2_94_cif.got.tgz:187026.got - 2010.06.27 13:26:56.
