data_PCOD8039671
_publ_section_title
;
Structure prediction by ZEFSAII (Michael W. Deem and Ramdas Pophale) SiO2 
 PCOD8039671
Probable space group: P -1
;
_chemical_formula_sum "Si O2"
_cell_formula_units_Z 16
_cell_length_a 16.967550
_cell_length_b 11.908635
_cell_length_c 11.444400
_cell_angle_alpha 126.949917
_cell_angle_beta 148.487271
_cell_angle_gamma 41.433198
_cell_volume 794.996446
_symmetry_space_group_name_H-M "P -1"
_symmetry_group_IT_number 2
_symmetry_cell_setting 'triclinic'
loop_
_space_group_symop_operation_xyz
x,y,z
-x,-y,-z
loop_
_atom_site_type_symbol
_atom_site_label
_atom_site_fract_x
_atom_site_fract_y
_atom_site_fract_z
Si Si1 0.650945 0.342933 0.671315
Si Si2 0.133866 0.380562 0.840714
Si Si3 0.085468 0.161178 0.805989
Si Si4 0.630117 0.555232 0.967340
Si Si5 0.146890 0.022871 0.260385
Si Si6 0.768112 0.217415 0.301919
Si Si7 0.931024 0.301744 0.354390
Si Si8 0.044630 0.253839 0.073374
O O1 0.500000 0.500000 0.500000
O O2 0.613737 0.409644 0.798758
O O3 0.667074 0.162623 0.584346
O O4 0.847867 0.286067 0.840770
O O5 0.180731 0.239959 0.908713
O O6 0.050889 0.348952 0.604324
O O7 0.985402 0.565192 0.826561
O O8 0.320445 0.360324 0.021693
O O9 0.869950 0.252723 0.556015
O O10 0.175226 0.973491 0.753166
O O11 0.127377 0.173257 0.001168
O O12 0.445826 0.683403 0.882264
O O13 0.800530 0.465991 0.213579
O O14 0.180263 0.124247 0.266275
O O15 0.065531 0.132537 0.343574
O O16 0.000000 0.000000 0.000000
O O17 0.806670 0.270128 0.260093
#
# Coordination Sequence:
#
# PCOD8039671 Si02
#       8
#     2   2   2   2   2   2   2   2
#     4  10  20  33  55  89 119 147 188 246 297 341
#     4  10  22  36  60  85 115 159 195 238 291 351
#     4  10  21  38  59  86 118 154 199 239 290 353
#     4  11  21  36  58  86 119 150 194 242 295 347
#     4  10  18  34  59  87 111 152 193 240 288 344
#     4  10  22  36  58  89 117 152 193 247 295 337
#     4  11  20  38  61  86 117 149 203 240 287 352
#     4  10  19  36  60  82 113 155 203 233 282 357
#
# _framework density 20.125876999999999
#
# number of rings (size 3 to 8) (size 9 to 14) (size 15 to 20)
#    0.000    1.750    3.750    3.375    0.000    2.500 
#    0.000    1.250    0.000    0.750    0.000    0.000 
#    0.000    0.000    0.000    0.000    0.000    0.000 
#
# Total GULP energy -198250.398698 kJ/mol
# GULP energy per Si atom -12390.649919 kJ/mol
# Density = 2.008007 g / cm^3
# Si number density = 20.125877 Si / 1000 Ang^3
#
#
#
# Elastic Constant Matrix: (Units=GPa)
#
#
# Indices 1 2 3 4 5 6 
#
# 1 121.7102 64.2798 32.2423 2.7111 -14.5544 0.8244
# 2 64.2798 114.9168 38.1199 3.2391 -0.3982 4.4503
# 3 32.2423 38.1199 49.8150 1.5792 -13.3903 -11.6908
# 4 2.7111 3.2391 1.5792 38.5680 -2.4107 -5.5857
# 5 -14.5544 -0.3982 -13.3903 -2.4107 28.3016 6.5310
# 6 0.8244 4.4503 -11.6908 -5.5857 6.5310 34.2304
#
#
#
# Elastic Compliance Matrix: (Units=1/GPa)
#
#
# Indices 1 2 3 4 5 6 
#
# 1 0.012885 -0.006404 -0.002193 -0.000111 0.005801 -0.001352
# 2 -0.006404 0.016247 -0.011346 -0.001594 -0.007492 -0.004664
# 3 -0.002193 -0.011346 0.036484 0.002159 0.013440 0.011776
# 4 -0.000111 -0.001594 0.002159 0.026825 0.002090 0.004926
# 5 0.005801 -0.007492 0.013440 0.002090 0.045418 -0.002900
# 6 -0.001352 -0.004664 0.011776 0.004926 -0.002900 0.035232
#
#
# Mechanical properties :
#
#
# Convention : Reuss Voigt Hill
#
# Bulk Modulus (GPa) = 38.86575 61.74733 50.30654
# Shear Modulus (GPa) = 22.56781 30.34000 26.45390
#
# Velocity S-wave (km/s) = 3.35226 3.88688 3.62943
# Velocity P-wave (km/s) = 5.85976 7.13379 6.52793
#
# Compressibility (1/GPa) = 0.02572960
#
# Stress axis : x y z
#
# Youngs Moduli (GPa) = 77.61049 61.54871 27.40911
#
# Poissons Ratio (x) = 0.39416 0.06012
# Poissons Ratio (y) = 0.49702 0.31098
# Poissons Ratio (z) = 0.17024 0.69832
#
# Static dielectric constant tensor:
#      x y z
#    x 3.792580 0.341720 -0.337670 
#    y 0.341720 4.343850 -0.032440 
#    z -0.337670 -0.032440 3.633040 
# 
# 
# High freq. dielectric constant tensor:
#      x y z
#    x 1.784840 0.007150 -0.025910 
#    y 0.007150 1.798660 0.013350 
#    z -0.025910 0.013350 1.758120 
# 
# From -- ./inp_files/262673.got.cif
#   From: 2010.06.25/outbox.cif.g09.slc.cpg/sg2_132_cif.got.tgz:262673.got - 2010.06.27 13:26:56.
