data_PCOD8039396
_publ_section_title
;
Structure prediction by ZEFSAII (Michael W. Deem and Ramdas Pophale) SiO2 
 PCOD8039396
Probable space group: P -1
;
_chemical_formula_sum "Si O2"
_cell_formula_units_Z 14
_cell_length_a 8.906617
_cell_length_b 14.177332
_cell_length_c 14.886556
_cell_angle_alpha 30.445999
_cell_angle_beta 75.856761
_cell_angle_gamma 52.076046
_cell_volume 525.846383
_symmetry_space_group_name_H-M "P -1"
_symmetry_group_IT_number 2
_symmetry_cell_setting 'triclinic'
loop_
_space_group_symop_operation_xyz
x,y,z
-x,-y,-z
loop_
_atom_site_type_symbol
_atom_site_label
_atom_site_fract_x
_atom_site_fract_y
_atom_site_fract_z
Si Si1 0.187360 0.188576 0.418592
Si Si2 0.019117 0.272139 0.652510
Si Si3 0.726222 0.223269 0.765307
Si Si4 0.664252 0.664516 0.212016
Si Si5 0.441871 0.717631 0.928244
Si Si6 0.897493 0.310278 0.995195
Si Si7 0.031133 0.250700 0.209793
O O1 0.858502 0.513232 0.223213
O O2 0.230196 0.030870 0.447438
O O3 0.369280 0.921777 0.687667
O O4 0.264057 0.332226 0.278586
O O5 0.883324 0.253825 0.756224
O O6 0.860539 0.391420 0.484926
O O7 0.000000 0.500000 0.500000
O O8 0.328819 0.918154 0.873353
O O9 0.500000 0.500000 0.500000
O O10 0.576496 0.251013 0.842910
O O11 0.945698 0.876229 0.967178
O O12 0.500000 0.000000 0.000000
O O13 0.329620 0.621151 0.007786
O O14 0.762326 0.401284 0.151386
O O15 0.113533 0.093916 0.226720
O O16 0.000000 0.500000 0.000000
#
# Coordination Sequence:
#
# PCOD8039396 Si02
#       7
#     2   2   2   2   2   2   2
#     4  10  22  40  62  93 120 160 203 240 306 357
#     4   9  20  34  55  84 114 154 193 242 301 344
#     4   9  18  34  58  85 115 156 195 241 299 359
#     4  10  18  33  59  82 116 152 188 241 290 350
#     4  10  22  41  60  86 126 156 200 252 301 357
#     4  10  20  39  61  88 122 159 201 246 302 358
#     4  10  23  39  64  91 116 160 205 249 298 360
#
# _framework density 26.623746000000001
#
# number of rings (size 3 to 8) (size 9 to 14) (size 15 to 20)
#    0.000    2.286    1.429    1.286    2.000    4.000 
#    0.000    6.429    0.000    0.000    0.000    0.000 
#    0.000    0.000    0.000    0.000    0.000    0.000 
#
# Total GULP energy -173445.189569 kJ/mol
# GULP energy per Si atom -12388.942112 kJ/mol
# Density = 2.656315 g / cm^3
# Si number density = 26.623746 Si / 1000 Ang^3
#
#
#
# Elastic Constant Matrix: (Units=GPa)
#
#
# Indices 1 2 3 4 5 6 
#
# 1 171.5177 42.0935 5.8322 11.2524 -33.6844 -12.2913
# 2 42.0935 64.3715 0.1728 20.5131 -12.4691 -0.7260
# 3 5.8322 0.1728 47.6280 9.4475 -15.7451 0.9340
# 4 11.2524 20.5131 9.4475 31.1734 -1.6168 -7.0676
# 5 -33.6844 -12.4691 -15.7451 -1.6168 40.5633 3.3409
# 6 -12.2913 -0.7260 0.9340 -7.0676 3.3409 49.1008
#
#
#
# Elastic Compliance Matrix: (Units=1/GPa)
#
#
# Indices 1 2 3 4 5 6 
#
# 1 0.008033 -0.004269 0.000766 0.000328 0.005536 0.001604
# 2 -0.004269 0.024903 0.005898 -0.017158 0.006020 -0.003692
# 3 0.000766 0.005898 0.027707 -0.012549 0.012945 -0.002935
# 4 0.000328 -0.017158 -0.012549 0.048334 -0.008573 0.007608
# 5 0.005536 0.006020 0.012945 -0.008573 0.035986 -0.002454
# 6 0.001604 -0.003692 -0.002935 0.007608 -0.002454 0.022031
#
#
# Mechanical properties :
#
#
# Convention : Reuss Voigt Hill
#
# Bulk Modulus (GPa) = 15.28289 42.19048 28.73668
# Shear Modulus (GPa) = 27.17182 39.86208 33.51695
#
# Velocity S-wave (km/s) = 3.19813 3.87361 3.55196
# Velocity P-wave (km/s) = 4.40342 5.99065 5.25728
#
# Compressibility (1/GPa) = 0.06543266
#
# Stress axis : x y z
#
# Youngs Moduli (GPa) = 124.49318 40.15641 36.09174
#
# Poissons Ratio (x) = 0.17142 -0.02763
# Poissons Ratio (y) = 0.53143 -0.21288
# Poissons Ratio (z) = -0.09530 -0.23686
#
# Static dielectric constant tensor:
#      x y z
#    x 5.288110 -0.405020 0.057670 
#    y -0.405020 5.548270 0.280550 
#    z 0.057670 0.280550 4.911780 
# 
# 
# High freq. dielectric constant tensor:
#      x y z
#    x 2.089440 -0.017270 -0.006220 
#    y -0.017270 2.071270 0.012630 
#    z -0.006220 0.012630 2.053590 
# 
# From -- ./inp_files/169249.got.cif
#   From: 2010.06.25/outbox.cif.g09.slc.cpg/sg2_85_cif.got.tgz:169249.got - 2010.06.27 13:26:56.
