data_PCOD8039272
_publ_section_title
;
Structure prediction by ZEFSAII (Michael W. Deem and Ramdas Pophale) SiO2 
 PCOD8039272
Probable space group: P -1
;
_chemical_formula_sum "Si O2"
_cell_formula_units_Z 16
_cell_length_a 8.192501
_cell_length_b 18.032143
_cell_length_c 20.042875
_cell_angle_alpha 20.393031
_cell_angle_beta 52.465572
_cell_angle_gamma 50.488966
_cell_volume 795.081939
_symmetry_space_group_name_H-M "P -1"
_symmetry_group_IT_number 2
_symmetry_cell_setting 'triclinic'
loop_
_space_group_symop_operation_xyz
x,y,z
-x,-y,-z
loop_
_atom_site_type_symbol
_atom_site_label
_atom_site_fract_x
_atom_site_fract_y
_atom_site_fract_z
Si Si1 0.691617 0.660740 0.906028
Si Si2 0.737216 0.859708 0.057415
Si Si3 0.966616 0.394056 0.701567
Si Si4 0.044412 0.784935 0.807497
Si Si5 0.028047 0.175579 0.732031
Si Si6 0.793138 0.634180 0.098861
Si Si7 0.935338 0.840422 0.596776
Si Si8 0.622150 0.226737 0.000829
O O1 0.718563 0.777371 0.729584
O O2 0.859835 0.730986 0.853367
O O3 0.741585 0.399681 0.103170
O O4 0.460124 0.725488 0.942545
O O5 0.767738 0.671919 0.151998
O O6 0.806880 0.732560 0.217059
O O7 0.500000 0.000000 0.000000
O O8 0.883272 0.025973 0.864350
O O9 0.959492 0.647010 0.477150
O O10 0.784988 0.375487 0.815605
O O11 0.925025 0.284898 0.734125
O O12 0.095331 0.021052 0.581322
O O13 0.959719 0.772073 0.914669
O O14 0.261591 0.029841 0.813905
O O15 0.565427 0.723493 0.047293
O O16 0.878661 0.377823 0.275777
O O17 0.000000 0.000000 0.500000
#
# Coordination Sequence:
#
# PCOD8039272 Si02
#       8
#     2   2   2   2   2   2   2   2
#     4   8  15  26  46  76 103 138 180 218 263 314
#     4  11  22  39  59  81 113 143 175 226 278 323
#     4  10  22  39  57  78 106 144 186 223 269 329
#     4   8  15  28  44  71 113 142 171 219 266 311
#     4  10  22  39  57  77 106 145 184 223 270 327
#     4  10  20  31  54  87 111 143 183 221 276 328
#     4   9  16  29  48  77 116 146 177 225 270 313
#     4  10  18  33  55  81 111 139 179 226 269 319
#
# _framework density 20.123712999999999
#
# number of rings (size 3 to 8) (size 9 to 14) (size 15 to 20)
#    0.000    2.500    0.000    5.250    0.000    5.500 
#    0.000    0.000    0.000   12.000    0.000   24.500 
#    0.000    0.000    0.000    0.000    0.000    0.000 
#
# Total GULP energy -198280.307163 kJ/mol
# GULP energy per Si atom -12392.519198 kJ/mol
# Density = 2.007791 g / cm^3
# Si number density = 20.123713 Si / 1000 Ang^3
#
#
#
# Elastic Constant Matrix: (Units=GPa)
#
#
# Indices 1 2 3 4 5 6 
#
# 1 57.2658 32.0859 41.4358 -2.8047 4.6733 -6.9912
# 2 32.0859 112.5323 55.9305 1.8645 2.6822 -16.2801
# 3 41.4358 55.9305 169.8974 5.7811 26.8844 -15.1187
# 4 -2.8047 1.8645 5.7811 31.1898 4.5829 -1.8029
# 5 4.6733 2.6822 26.8844 4.5829 17.9689 -1.2564
# 6 -6.9912 -16.2801 -15.1187 -1.8029 -1.2564 25.2098
#
#
#
# Elastic Compliance Matrix: (Units=1/GPa)
#
#
# Indices 1 2 3 4 5 6 
#
# 1 0.023309 -0.004393 -0.004273 0.003187 0.000265 0.001306
# 2 -0.004393 0.012399 -0.003296 -0.000944 0.004813 0.004984
# 3 -0.004273 -0.003296 0.010395 0.000044 -0.013804 0.002235
# 4 0.003187 -0.000944 0.000044 0.033885 -0.009237 0.002263
# 5 0.000265 0.004813 -0.013804 -0.009237 0.077742 -0.001883
# 6 0.001306 0.004984 0.002235 0.002263 -0.001883 0.044657
#
#
# Mechanical properties :
#
#
# Convention : Reuss Voigt Hill
#
# Bulk Modulus (GPa) = 45.08648 66.51108 55.79878
# Shear Modulus (GPa) = 21.39461 28.88995 25.14228
#
# Velocity S-wave (km/s) = 3.26414 3.79306 3.53850
# Velocity P-wave (km/s) = 6.05470 7.23229 6.66954
#
# Compressibility (1/GPa) = 0.02217960
#
# Stress axis : x y z
#
# Youngs Moduli (GPa) = 42.90139 80.65038 96.20002
#
# Poissons Ratio (x) = 0.35426 0.41106
# Poissons Ratio (y) = 0.18844 0.31712
# Poissons Ratio (z) = 0.18332 0.26586
#
# Static dielectric constant tensor:
#      x y z
#    x 3.302450 -0.036490 0.312890 
#    y -0.036490 3.976350 0.325560 
#    z 0.312890 0.325560 4.106390 
# 
# 
# High freq. dielectric constant tensor:
#      x y z
#    x 1.745090 -0.005420 0.017150 
#    y -0.005420 1.793060 0.005740 
#    z 0.017150 0.005740 1.790140 
# 
# From -- ./inp_files/514509.got.cif
#   From: 2010.06.25/outbox.cif.g09.slc.cpg/sg2_258_cif.got.tgz:514509.got - 2010.06.27 13:26:56.
