data_PCOD8039102
_publ_section_title
;
Structure prediction by ZEFSAII (Michael W. Deem and Ramdas Pophale) SiO2 
 PCOD8039102
Probable space group: P -1
;
_chemical_formula_sum "Si O2"
_cell_formula_units_Z 16
_cell_length_a 15.346951
_cell_length_b 11.534991
_cell_length_c 12.184411
_cell_angle_alpha 36.378731
_cell_angle_beta 38.742834
_cell_angle_gamma 64.375999
_cell_volume 680.603089
_symmetry_space_group_name_H-M "P -1"
_symmetry_group_IT_number 2
_symmetry_cell_setting 'triclinic'
loop_
_space_group_symop_operation_xyz
x,y,z
-x,-y,-z
loop_
_atom_site_type_symbol
_atom_site_label
_atom_site_fract_x
_atom_site_fract_y
_atom_site_fract_z
Si Si1 0.637067 0.171757 0.590486
Si Si2 0.355758 0.311148 0.584476
Si Si3 0.389992 0.214173 0.953561
Si Si4 0.101984 0.429064 0.376768
Si Si5 0.148337 0.527735 0.675420
Si Si6 0.806938 0.076250 0.803915
Si Si7 0.786278 0.237874 0.174975
Si Si8 0.185008 0.151058 0.655464
O O1 0.499854 0.206868 0.752008
O O2 0.810686 0.365291 0.324876
O O3 0.645248 0.198072 0.429861
O O4 0.609071 0.922967 0.836799
O O5 0.537998 0.524027 0.276891
O O6 0.216595 0.361411 0.720260
O O7 0.329083 0.262624 0.518838
O O8 0.319872 0.079373 0.856827
O O9 0.214594 0.090142 0.154395
O O10 0.204726 0.361621 0.404215
O O11 0.000000 0.500000 0.500000
O O12 0.987987 0.210919 0.575783
O O13 0.226179 0.644919 0.013902
O O14 0.236553 0.737128 0.339128
O O15 0.957153 0.399367 0.943837
O O16 0.771379 0.999152 0.347749
O O17 0.000000 0.000000 0.000000
#
# Coordination Sequence:
#
# PCOD8039102 Si02
#       8
#     2   2   2   2   2   2   2   2
#     4   9  19  36  56  81 110 149 188 228 276 325
#     4  11  19  34  58  82 110 147 187 225 274 331
#     4   9  20  37  58  79 108 151 195 225 266 331
#     4  11  20  34  57  88 114 145 184 225 281 333
#     4   9  18  32  54  82 113 140 177 230 282 338
#     4  10  18  32  56  85 107 140 189 225 271 333
#     4  11  20  34  57  83 117 144 178 234 283 326
#     4  12  20  35  56  87 114 144 183 224 280 336
#
# _framework density 23.508562999999999
#
# number of rings (size 3 to 8) (size 9 to 14) (size 15 to 20)
#    0.000    1.750    3.750    2.250    0.000    0.000 
#    0.000    6.875    0.000   18.750    0.000    0.000 
#    0.000    0.000    0.000    0.000    0.000    0.000 
#
# Total GULP energy -198252.321154 kJ/mol
# GULP energy per Si atom -12390.770072 kJ/mol
# Density = 2.345506 g / cm^3
# Si number density = 23.508563 Si / 1000 Ang^3
#
#
#
# Elastic Constant Matrix: (Units=GPa)
#
#
# Indices 1 2 3 4 5 6 
#
# 1 79.4720 22.6750 26.6759 -2.8034 20.2647 31.0196
# 2 22.6750 93.8906 52.9964 0.8904 19.1310 18.4251
# 3 26.6759 52.9964 89.3321 -2.2226 30.5223 11.3424
# 4 -2.8034 0.8904 -2.2226 34.4748 12.5289 2.4429
# 5 20.2647 19.1310 30.5223 12.5289 47.8693 -0.7286
# 6 31.0196 18.4251 11.3424 2.4429 -0.7286 29.8528
#
#
#
# Elastic Compliance Matrix: (Units=1/GPa)
#
#
# Indices 1 2 3 4 5 6 
#
# 1 0.029853 0.003001 -0.000271 0.010943 -0.017047 -0.034081
# 2 0.003001 0.017722 -0.008949 0.001103 -0.003101 -0.010822
# 3 -0.000271 -0.008949 0.020936 0.005847 -0.011232 -0.002902
# 4 0.010943 0.001103 0.005847 0.038469 -0.019142 -0.017888
# 5 -0.017047 -0.003101 -0.011232 -0.019142 0.041921 0.026485
# 6 -0.034081 -0.010822 -0.002902 -0.017888 0.026485 0.078803
#
#
# Mechanical properties :
#
#
# Convention : Reuss Voigt Hill
#
# Bulk Modulus (GPa) = 17.83372 51.93214 34.88293
# Shear Modulus (GPa) = 19.31743 33.12919 26.22331
#
# Velocity S-wave (km/s) = 2.86967 3.75806 3.34350
# Velocity P-wave (km/s) = 4.31075 6.40073 5.45673
#
# Compressibility (1/GPa) = 0.05607356
#
# Stress axis : x y z
#
# Youngs Moduli (GPa) = 33.49733 56.42616 47.76506
#
# Poissons Ratio (x) = -0.16934 0.01294
# Poissons Ratio (y) = -0.10053 0.42745
# Poissons Ratio (z) = 0.00907 0.50496
#
# Static dielectric constant tensor:
#      x y z
#    x 4.477350 0.481160 0.067150 
#    y 0.481160 3.914980 -0.388240 
#    z 0.067150 -0.388240 4.420600 
# 
# 
# High freq. dielectric constant tensor:
#      x y z
#    x 1.937230 0.030820 0.018200 
#    y 0.030820 1.893750 -0.031170 
#    z 0.018200 -0.031170 1.925350 
# 
# From -- ./inp_files/463488.got.cif
#   From: 2010.06.25/outbox.cif.g09.slc.cpg/sg2_232_cif.got.tgz:463488.got - 2010.06.27 13:26:56.
