data_PCOD8039760
_publ_section_title
;
Structure prediction by ZEFSAII (Michael W. Deem and Ramdas Pophale) SiO2 
 PCOD8039760
Probable space group: P -1
;
_chemical_formula_sum "Si O2"
_cell_formula_units_Z 12
_cell_length_a 12.835272
_cell_length_b 9.604019
_cell_length_c 13.503668
_cell_angle_alpha 42.891884
_cell_angle_beta 63.171879
_cell_angle_gamma 99.077538
_cell_volume 600.936204
_symmetry_space_group_name_H-M "P -1"
_symmetry_group_IT_number 2
_symmetry_cell_setting 'triclinic'
loop_
_space_group_symop_operation_xyz
x,y,z
-x,-y,-z
loop_
_atom_site_type_symbol
_atom_site_label
_atom_site_fract_x
_atom_site_fract_y
_atom_site_fract_z
Si Si1 0.295898 0.791278 0.480061
Si Si2 0.129124 0.791026 0.083384
Si Si3 0.513485 0.912394 0.144536
Si Si4 0.248510 0.145789 0.645739
Si Si5 0.479440 0.203110 0.371356
Si Si6 0.156738 0.229841 0.966947
O O1 0.416894 0.926786 0.257993
O O2 0.258438 0.521447 0.690924
O O3 0.420567 0.123437 0.322319
O O4 0.086432 0.601601 0.644216
O O5 0.257183 0.797610 0.078572
O O6 0.244115 0.018959 0.816726
O O7 0.092753 0.933455 0.095382
O O8 0.412203 0.549628 0.374207
O O9 0.500000 0.000000 0.000000
O O10 0.305170 0.067227 0.576709
O O11 0.036920 0.940191 0.815464
O O12 0.689890 0.604851 0.096084
O O13 0.500000 0.000000 0.500000
#
# Coordination Sequence:
#
# PCOD8039760 Si02
#       6
#     2   2   2   2   2   2
#     4  10  21  37  55  91 117 142 191 237 285 339
#     4  11  19  36  65  83 113 151 190 241 281 330
#     4  12  24  37  59  87 113 153 199 235 278 339
#     4  11  20  37  62  87 115 149 193 233 284 343
#     4  10  21  33  57  92 122 143 180 239 294 335
#     4  10  18  34  63  89 113 148 187 237 287 334
#
# _framework density 19.968843
#
# number of rings (size 3 to 8) (size 9 to 14) (size 15 to 20)
#    0.000    1.333    5.000    3.500    0.000    8.000 
#    0.000    0.833    0.000    2.000    0.000    0.000 
#    0.000    0.000    0.000    0.000    0.000    0.000 
#
# Total GULP energy -148811.507746 kJ/mol
# GULP energy per Si atom -12400.958979 kJ/mol
# Density = 1.992339 g / cm^3
# Si number density = 19.968843 Si / 1000 Ang^3
#
#
#
# Elastic Constant Matrix: (Units=GPa)
#
#
# Indices 1 2 3 4 5 6 
#
# 1 113.8278 46.1295 54.2892 16.3066 -29.9791 27.8438
# 2 46.1295 137.2487 48.3540 26.1408 -15.3674 20.5182
# 3 54.2892 48.3540 63.3887 20.6396 -31.3547 13.9334
# 4 16.3066 26.1408 20.6396 33.5698 0.7003 -14.7266
# 5 -29.9791 -15.3674 -31.3547 0.7003 29.6468 -4.1756
# 6 27.8438 20.5182 13.9334 -14.7266 -4.1756 34.9777
#
#
#
# Elastic Compliance Matrix: (Units=1/GPa)
#
#
# Indices 1 2 3 4 5 6 
#
# 1 0.115621 0.044995 0.324349 -0.472741 0.438910 -0.394279
# 2 0.044995 0.031732 0.143934 -0.218303 0.193903 -0.180532
# 3 0.324349 0.143934 1.186053 -1.605342 1.510291 -1.310692
# 4 -0.472741 -0.218303 -1.605342 2.272325 -2.081846 1.852055
# 5 0.438910 0.193903 1.510291 -2.081846 1.984492 -1.704372
# 6 -0.394279 -0.180532 -1.310692 1.852055 -1.704372 1.546773
#
#
# Mechanical properties :
#
#
# Convention : Reuss Voigt Hill
#
# Bulk Modulus (GPa) = 0.42374 68.00116 34.21245
# Shear Modulus (GPa) = 0.72494 30.68502 15.70498
#
# Velocity S-wave (km/s) = 0.60318 3.92426 2.80746
# Velocity P-wave (km/s) = 0.83532 7.39328 5.26110
#
# Compressibility (1/GPa) = 2.35996198
#
# Stress axis : x y z
#
# Youngs Moduli (GPa) = 8.64895 31.51352 0.84313
#
# Poissons Ratio (x) = -1.41795 -0.27347
# Poissons Ratio (y) = -0.38916 -0.12136
# Poissons Ratio (z) = -2.80528 -4.53586
#
# Static dielectric constant tensor:
#      x y z
#    x 3.670690 0.338470 -0.476750 
#    y 0.338470 4.133320 -0.147490 
#    z -0.476750 -0.147490 3.483750 
# 
# 
# High freq. dielectric constant tensor:
#      x y z
#    x 1.764040 0.011300 -0.045070 
#    y 0.011300 1.788290 0.005450 
#    z -0.045070 0.005450 1.755410 
# 
# From -- ./inp_files/160367.got.cif
#   From: 2010.06.25/outbox.cif.g09.slc.cpg/sg2_81_cif.got.tgz:160367.got - 2010.06.27 13:26:56.
