data_PCOD8039772
_publ_section_title
;
Structure prediction by ZEFSAII (Michael W. Deem and Ramdas Pophale) SiO2 
 PCOD8039772
Probable space group: P -1
;
_chemical_formula_sum "Si O2"
_cell_formula_units_Z 16
_cell_length_a 8.778705
_cell_length_b 20.948583
_cell_length_c 21.074174
_cell_angle_alpha 160.967700
_cell_angle_beta 142.640045
_cell_angle_gamma 36.212091
_cell_volume 736.195999
_symmetry_space_group_name_H-M "P -1"
_symmetry_group_IT_number 2
_symmetry_cell_setting 'triclinic'
loop_
_space_group_symop_operation_xyz
x,y,z
-x,-y,-z
loop_
_atom_site_type_symbol
_atom_site_label
_atom_site_fract_x
_atom_site_fract_y
_atom_site_fract_z
Si Si1 0.361664 0.235361 0.675472
Si Si2 0.920046 0.091023 0.196428
Si Si3 0.584050 0.195466 0.955500
Si Si4 0.827373 0.761150 0.927654
Si Si5 0.483886 0.957467 0.802998
Si Si6 0.819695 0.323437 0.513655
Si Si7 0.446794 0.599892 0.986341
Si Si8 0.940522 0.290164 0.265753
O O1 0.378498 0.319158 0.830246
O O2 0.063169 0.269628 0.590620
O O3 0.500000 0.000000 0.500000
O O4 0.496404 0.357061 0.784659
O O5 0.881883 0.220842 0.369753
O O6 0.807356 0.224388 0.222692
O O7 0.783859 0.905655 0.986030
O O8 0.228485 0.994246 0.198747
O O9 0.734256 0.315403 0.164410
O O10 0.451493 0.360534 0.012881
O O11 0.390821 0.094131 0.836216
O O12 0.725400 0.565259 0.695457
O O13 0.135526 0.705787 0.995274
O O14 0.641012 0.886041 0.036671
O O15 0.394486 0.752256 0.588454
O O16 0.801325 0.888379 0.838708
O O17 0.000000 0.500000 0.500000
#
# Coordination Sequence:
#
# PCOD8039772 Si02
#       8
#     2   2   2   2   2   2   2   2
#     4  10  18  34  64  91 117 146 196 244 290 350
#     4   9  19  38  59  84 115 157 196 239 285 341
#     4  10  21  42  59  81 124 157 199 250 287 347
#     4   9  19  37  62  83 126 154 197 242 296 337
#     4  10  21  40  60  88 122 160 194 245 300 342
#     4  10  21  37  64  94 121 154 196 245 295 354
#     4   9  20  37  62  90 113 156 196 239 295 348
#     4  11  25  39  63  84 118 161 210 240 291 352
#
# _framework density 21.733342
#
# number of rings (size 3 to 8) (size 9 to 14) (size 15 to 20)
#    0.000    2.250    0.000    3.750    7.000    0.000 
#    0.000   18.750    0.000   12.000    0.000    0.000 
#    0.000    0.000    0.000    0.000    0.000    0.000 
#
# Total GULP energy -198251.974463 kJ/mol
# GULP energy per Si atom -12390.748404 kJ/mol
# Density = 2.168388 g / cm^3
# Si number density = 21.733342 Si / 1000 Ang^3
#
#
#
# Elastic Constant Matrix: (Units=GPa)
#
#
# Indices 1 2 3 4 5 6 
#
# 1 147.8909 47.4566 62.1217 14.2850 21.0960 39.4828
# 2 47.4566 74.0392 43.3909 2.6388 5.0026 36.2907
# 3 62.1217 43.3909 138.6501 22.7504 20.9836 23.5174
# 4 14.2850 2.6388 22.7504 41.3919 7.2606 8.8871
# 5 21.0960 5.0026 20.9836 7.2606 32.5321 10.8014
# 6 39.4828 36.2907 23.5174 8.8871 10.8014 47.0742
#
#
#
# Elastic Compliance Matrix: (Units=1/GPa)
#
#
# Indices 1 2 3 4 5 6 
#
# 1 0.010388 -0.002759 -0.002464 -0.000537 -0.003095 -0.004544
# 2 -0.002759 0.026936 -0.005969 0.005260 0.006267 -0.017900
# 3 -0.002464 -0.005969 0.011144 -0.004739 -0.004630 0.003058
# 4 -0.000537 0.005260 -0.004739 0.028232 -0.001650 -0.006189
# 5 -0.003095 0.006267 -0.004630 -0.001650 0.037894 -0.008306
# 6 -0.004544 -0.017900 0.003058 -0.006189 -0.008306 0.040401
#
#
# Mechanical properties :
#
#
# Convention : Reuss Voigt Hill
#
# Bulk Modulus (GPa) = 38.33679 74.05762 56.19721
# Shear Modulus (GPa) = 26.87105 38.04038 32.45571
#
# Velocity S-wave (km/s) = 3.52006 4.18823 3.86859
# Velocity P-wave (km/s) = 5.84799 7.58537 6.77262
#
# Compressibility (1/GPa) = 0.02608460
#
# Stress axis : x y z
#
# Youngs Moduli (GPa) = 96.26092 37.12496 89.73574
#
# Poissons Ratio (x) = 0.10244 0.22110
# Poissons Ratio (y) = 0.26562 0.53560
# Poissons Ratio (z) = 0.23717 0.22158
#
# Static dielectric constant tensor:
#      x y z
#    x 4.141900 0.642220 0.325650 
#    y 0.642220 3.502400 0.226990 
#    z 0.325650 0.226990 4.196200 
# 
# 
# High freq. dielectric constant tensor:
#      x y z
#    x 1.856330 0.026920 0.011880 
#    y 0.026920 1.834660 0.015610 
#    z 0.011880 0.015610 1.864440 
# 
# From -- ./inp_files/349686.got.cif
#   From: 2010.06.25/outbox.cif.g09.slc.cpg/sg2_175_cif.got.tgz:349686.got - 2010.06.27 13:26:56.
