data_PCOD8039725
_publ_section_title
;
Structure prediction by ZEFSAII (Michael W. Deem and Ramdas Pophale) SiO2 
 PCOD8039725
Probable space group: P -1
;
_chemical_formula_sum "Si O2"
_cell_formula_units_Z 16
_cell_length_a 10.465285
_cell_length_b 11.464259
_cell_length_c 10.069298
_cell_angle_alpha 112.070417
_cell_angle_beta 56.753143
_cell_angle_gamma 123.938017
_cell_volume 833.983652
_symmetry_space_group_name_H-M "P -1"
_symmetry_group_IT_number 2
_symmetry_cell_setting 'triclinic'
loop_
_space_group_symop_operation_xyz
x,y,z
-x,-y,-z
loop_
_atom_site_type_symbol
_atom_site_label
_atom_site_fract_x
_atom_site_fract_y
_atom_site_fract_z
Si Si1 0.973529 0.133371 0.892831
Si Si2 0.474130 0.322123 0.836908
Si Si3 0.406380 0.018073 0.685938
Si Si4 0.705775 0.623956 0.793311
Si Si5 0.995970 0.131134 0.180477
Si Si6 0.306747 0.336860 0.669003
Si Si7 0.388791 0.882886 0.907777
Si Si8 0.499051 0.651239 0.685391
O O1 0.105739 0.225653 0.741840
O O2 0.051375 0.175974 0.015391
O O3 0.809462 0.159434 0.972352
O O4 0.925257 0.967257 0.842114
O O5 0.659621 0.462110 0.787744
O O6 0.369299 0.338169 0.781949
O O7 0.493169 0.180935 0.748993
O O8 0.381323 0.313947 0.025054
O O9 0.208118 0.953755 0.729515
O O10 0.438545 0.936794 0.753405
O O11 0.500000 0.000000 0.500000
O O12 0.639756 0.635753 0.690531
O O13 0.912759 0.721977 0.725549
O O14 0.339316 0.496230 0.683762
O O15 0.405233 0.286471 0.483147
O O16 0.424711 0.747593 0.839372
O O17 0.500000 0.000000 0.000000
#
# Coordination Sequence:
#
# PCOD8039725 Si02
#       8
#     2   2   2   2   2   2   2   2
#     4  10  19  34  61  81 111 150 192 232 272 335
#     4  10  18  34  61  83 107 143 195 229 278 328
#     4  11  22  37  60  82 110 152 189 233 282 333
#     4  10  19  34  60  87 108 143 185 243 275 323
#     4  10  18  35  58  87 109 139 199 236 271 331
#     4  10  19  37  59  84 110 154 188 228 279 340
#     4  11  23  38  54  82 118 149 184 234 284 334
#     4  10  22  36  56  84 122 147 183 227 290 341
#
# _framework density 19.185027999999999
#
# number of rings (size 3 to 8) (size 9 to 14) (size 15 to 20)
#    0.000    1.750    2.500    3.750    0.000    0.500 
#    2.250    1.875    0.000    0.000    0.000    0.000 
#    0.000    0.000    0.000    0.000    0.000    0.000 
#
# Total GULP energy -198307.994795 kJ/mol
# GULP energy per Si atom -12394.249675 kJ/mol
# Density = 1.914136 g / cm^3
# Si number density = 19.185028 Si / 1000 Ang^3
#
#
#
# Elastic Constant Matrix: (Units=GPa)
#
#
# Indices 1 2 3 4 5 6 
#
# 1 50.9200 32.5854 16.5177 -4.4021 -0.0001 7.5001
# 2 32.5854 100.5926 26.6149 -0.3879 -4.0911 21.5591
# 3 16.5177 26.6149 86.1286 -11.7658 -4.9180 9.5292
# 4 -4.4021 -0.3879 -11.7658 33.6079 0.8392 1.4493
# 5 -0.0001 -4.0911 -4.9180 0.8392 20.0644 2.4989
# 6 7.5001 21.5591 9.5292 1.4493 2.4989 25.1431
#
#
#
# Elastic Compliance Matrix: (Units=1/GPa)
#
#
# Indices 1 2 3 4 5 6 
#
# 1 0.025562 -0.007749 -0.002288 0.002515 -0.002242 -0.000036
# 2 -0.007749 0.015387 -0.002052 -0.001205 0.003984 -0.010431
# 3 -0.002288 -0.002052 0.013871 0.004599 0.003213 -0.003400
# 4 0.002515 -0.001205 0.004599 0.031823 -0.000040 -0.003290
# 5 -0.002242 0.003984 0.003213 -0.000040 0.052586 -0.009189
# 6 -0.000036 -0.010431 -0.003400 -0.003290 -0.009189 0.051119
#
#
# Mechanical properties :
#
#
# Convention : Reuss Voigt Hill
#
# Bulk Modulus (GPa) = 32.63407 43.23082 37.93244
# Shear Modulus (GPa) = 22.24785 26.55794 24.40289
#
# Velocity S-wave (km/s) = 3.40905 3.72466 3.57035
# Velocity P-wave (km/s) = 5.70461 6.40937 6.06723
#
# Compressibility (1/GPa) = 0.03064283
#
# Stress axis : x y z
#
# Youngs Moduli (GPa) = 39.11992 64.98958 72.09137
#
# Poissons Ratio (x) = 0.50360 0.16496
# Poissons Ratio (y) = 0.30314 0.14792
# Poissons Ratio (z) = 0.08952 0.13335
#
# Static dielectric constant tensor:
#      x y z
#    x 3.489930 0.164530 0.036440 
#    y 0.164530 4.028080 -0.095050 
#    z 0.036440 -0.095050 3.461760 
# 
# 
# High freq. dielectric constant tensor:
#      x y z
#    x 1.717800 0.005050 0.015070 
#    y 0.005050 1.763060 -0.004250 
#    z 0.015070 -0.004250 1.739050 
# 
# From -- ./inp_files/259910.got.cif
#   From: 2010.06.25/outbox.cif.g09.slc.cpg/sg2_130_cif.got.tgz:259910.got - 2010.06.27 13:26:56.
