data_PCOD8039401
_publ_section_title
;
Structure prediction by ZEFSAII (Michael W. Deem and Ramdas Pophale) SiO2 
 PCOD8039401
Probable space group: P -1
;
_chemical_formula_sum "Si O2"
_cell_formula_units_Z 16
_cell_length_a 13.920556
_cell_length_b 12.459453
_cell_length_c 8.983183
_cell_angle_alpha 130.432882
_cell_angle_beta 136.789858
_cell_angle_gamma 57.199680
_cell_volume 804.838433
_symmetry_space_group_name_H-M "P -1"
_symmetry_group_IT_number 2
_symmetry_cell_setting 'triclinic'
loop_
_space_group_symop_operation_xyz
x,y,z
-x,-y,-z
loop_
_atom_site_type_symbol
_atom_site_label
_atom_site_fract_x
_atom_site_fract_y
_atom_site_fract_z
Si Si1 0.872262 0.986708 0.235569
Si Si2 0.262853 0.425490 0.342411
Si Si3 0.121144 0.706695 0.538868
Si Si4 0.929627 0.754757 0.853637
Si Si5 0.498879 0.356964 0.779780
Si Si6 0.792603 0.762212 0.140041
Si Si7 0.804222 0.376708 0.123359
Si Si8 0.272354 0.285846 0.658012
O O1 0.809283 0.146308 0.259968
O O2 0.761196 0.903069 0.126224
O O3 0.000000 0.000000 0.500000
O O4 0.926193 0.901664 0.070960
O O5 0.218741 0.595266 0.444376
O O6 0.140368 0.359865 0.233406
O O7 0.414532 0.384760 0.555187
O O8 0.270324 0.367309 0.130135
O O9 0.124558 0.650644 0.660299
O O10 0.960632 0.723258 0.315763
O O11 0.846824 0.783387 0.630052
O O12 0.091572 0.691047 0.948282
O O13 0.420429 0.253457 0.704937
O O14 0.500000 0.500000 0.000000
O O15 0.662339 0.298949 0.878736
O O16 0.712743 0.789299 0.231584
O O17 0.773085 0.545844 0.218873
#
# Coordination Sequence:
#
# PCOD8039401 Si02
#       8
#     2   2   2   2   2   2   2   2
#     4   9  22  36  50  83 118 148 173 226 283 328
#     4  10  19  34  60  83 112 144 184 226 276 325
#     4  11  18  33  56  85 113 142 180 230 278 319
#     4  10  18  34  58  85 107 141 186 229 268 324
#     4   9  18  34  54  84 114 143 176 232 278 322
#     4  10  20  34  55  83 112 145 184 226 274 324
#     4  11  19  32  59  90 111 136 186 236 275 316
#     4  10  18  33  59  84 108 140 188 231 270 319
#
# _framework density 19.879767000000001
#
# number of rings (size 3 to 8) (size 9 to 14) (size 15 to 20)
#    0.000    2.000    5.000    1.500    0.000    2.500 
#    0.000    2.500    8.250    7.500    0.000    0.000 
#    0.000    0.000    0.000    0.000    0.000    0.000 
#
# Total GULP energy -198337.238508 kJ/mol
# GULP energy per Si atom -12396.077407 kJ/mol
# Density = 1.983452 g / cm^3
# Si number density = 19.879767 Si / 1000 Ang^3
#
#
#
# Elastic Constant Matrix: (Units=GPa)
#
#
# Indices 1 2 3 4 5 6 
#
# 1 81.9381 14.2839 50.9692 -2.2507 -1.2717 -3.9909
# 2 14.2839 52.9785 27.8778 19.7468 -6.3180 6.2737
# 3 50.9692 27.8778 121.8183 3.7373 -7.0425 -12.9199
# 4 -2.2507 19.7468 3.7373 29.5892 -4.3894 -1.1903
# 5 -1.2717 -6.3180 -7.0425 -4.3894 29.1832 -7.3529
# 6 -3.9909 6.2737 -12.9199 -1.1903 -7.3529 19.7882
#
#
#
# Elastic Compliance Matrix: (Units=1/GPa)
#
#
# Indices 1 2 3 4 5 6 
#
# 1 0.016864 -0.002437 -0.006700 0.003600 -0.000953 -0.000338
# 2 -0.002437 0.034698 -0.008456 -0.023522 -0.003107 -0.019582
# 3 -0.006700 -0.008456 0.014502 0.004623 0.005365 0.013070
# 4 0.003600 -0.023522 0.004623 0.051103 0.008234 0.017336
# 5 -0.000953 -0.003107 0.005365 0.008234 0.041145 0.020080
# 6 -0.000338 -0.019582 0.013070 0.017336 0.020080 0.073713
#
#
# Mechanical properties :
#
#
# Convention : Reuss Voigt Hill
#
# Bulk Modulus (GPa) = 32.38442 49.22184 40.80313
# Shear Modulus (GPa) = 18.01784 26.61905 22.31845
#
# Velocity S-wave (km/s) = 3.01382 3.66321 3.35426
# Velocity P-wave (km/s) = 5.33257 6.53496 5.96414
#
# Compressibility (1/GPa) = 0.03087905
#
# Stress axis : x y z
#
# Youngs Moduli (GPa) = 59.29651 28.82003 68.95717
#
# Poissons Ratio (x) = 0.07023 0.46200
# Poissons Ratio (y) = 0.14451 0.58308
# Poissons Ratio (z) = 0.39728 0.24369
#
# Static dielectric constant tensor:
#      x y z
#    x 4.063440 0.208340 0.232130 
#    y 0.208340 3.730480 0.106950 
#    z 0.232130 0.106950 4.060290 
# 
# 
# High freq. dielectric constant tensor:
#      x y z
#    x 1.760420 0.015760 -0.008820 
#    y 0.015760 1.739780 0.001620 
#    z -0.008820 0.001620 1.784590 
# 
# From -- ./inp_files/283037.got.cif
#   From: 2010.06.25/outbox.cif.g09.slc.cpg/sg2_142_cif.got.tgz:283037.got - 2010.06.27 13:26:56.
