data_PCOD8039244
_publ_section_title
;
Structure prediction by ZEFSAII (Michael W. Deem and Ramdas Pophale) SiO2 
 PCOD8039244
Probable space group: P -1
;
_chemical_formula_sum "Si O2"
_cell_formula_units_Z 16
_cell_length_a 25.867972
_cell_length_b 14.489354
_cell_length_c 10.709617
_cell_angle_alpha 135.955424
_cell_angle_beta 147.404238
_cell_angle_gamma 21.026295
_cell_volume 726.873725
_symmetry_space_group_name_H-M "P -1"
_symmetry_group_IT_number 2
_symmetry_cell_setting 'triclinic'
loop_
_space_group_symop_operation_xyz
x,y,z
-x,-y,-z
loop_
_atom_site_type_symbol
_atom_site_label
_atom_site_fract_x
_atom_site_fract_y
_atom_site_fract_z
Si Si1 0.848019 0.073190 0.148063
Si Si2 0.388502 0.435255 0.255599
Si Si3 0.780545 0.435672 0.466235
Si Si4 0.774113 0.826309 0.479873
Si Si5 0.967045 0.406704 0.638812
Si Si6 0.361467 0.844449 0.991969
Si Si7 0.929648 0.380842 0.269665
Si Si8 0.517193 0.520334 0.745351
O O1 0.859553 0.217263 0.332126
O O2 0.711678 0.175522 0.078734
O O3 0.731973 0.191265 0.895645
O O4 0.071440 0.740227 0.281890
O O5 0.372062 0.585325 0.454543
O O6 0.452726 0.396251 0.208486
O O7 0.547424 0.139151 0.346908
O O8 0.177117 0.619572 0.001938
O O9 0.810107 0.531187 0.535869
O O10 0.548605 0.701416 0.288763
O O11 0.787139 0.684832 0.272992
O O12 0.878387 0.657380 0.659781
O O13 0.882524 0.821676 0.634276
O O14 0.995964 0.278524 0.449446
O O15 0.181842 0.163518 0.904945
O O16 0.424348 0.690349 0.846602
#
# Coordination Sequence:
#
# PCOD8039244 Si02
#       8
#     2   2   2   2   2   2   2   2
#     4   9  18  33  49  78 106 133 177 217 253 305
#     4  11  21  36  51  77 113 146 169 202 269 321
#     4   9  16  28  52  77 100 128 167 216 273 297
#     4   9  20  34  52  76 105 136 182 224 246 300
#     4   9  18  29  51  80 101 126 172 228 252 295
#     4  10  18  33  54  78 106 131 176 221 258 301
#     4   9  18  33  53  75 102 140 179 215 253 297
#     4  10  21  33  53  78 113 142 168 211 259 326
#
# _framework density 22.012076
#
# number of rings (size 3 to 8) (size 9 to 14) (size 15 to 20)
#    0.750    1.750    0.000    4.125    0.000    1.000 
#    0.000   14.375    0.000    3.000    0.000    7.875 
#    0.000    0.000    0.000    0.000    0.000    0.000 
#
# Total GULP energy -198276.813561 kJ/mol
# GULP energy per Si atom -12392.300848 kJ/mol
# Density = 2.196198 g / cm^3
# Si number density = 22.012076 Si / 1000 Ang^3
#
#
#
# Elastic Constant Matrix: (Units=GPa)
#
#
# Indices 1 2 3 4 5 6 
#
# 1 55.9546 26.0164 26.3324 -11.4177 6.7903 21.3486
# 2 26.0164 37.2533 16.2331 -25.5459 -1.1282 14.1973
# 3 26.3324 16.2331 109.7817 -24.1617 18.9954 8.7078
# 4 -11.4177 -25.5459 -24.1617 32.0149 2.2135 -4.3942
# 5 6.7903 -1.1282 18.9954 2.2135 30.6371 -6.6151
# 6 21.3486 14.1973 8.7078 -4.3942 -6.6151 25.9451
#
#
#
# Elastic Compliance Matrix: (Units=1/GPa)
#
#
# Indices 1 2 3 4 5 6 
#
# 1 0.038920 -0.026380 -0.004913 -0.013024 -0.010084 -0.020717
# 2 -0.026380 0.107575 0.012870 0.082737 -0.010666 -0.030185
# 3 -0.004913 0.012870 0.015213 0.019718 -0.010925 -0.007552
# 4 -0.013024 0.082737 0.019718 0.104963 -0.020030 -0.028505
# 5 -0.010084 -0.010666 -0.010925 -0.020030 0.048483 0.026770
# 6 -0.020717 -0.030185 -0.007552 -0.028505 0.026770 0.076639
#
#
# Mechanical properties :
#
#
# Convention : Reuss Voigt Hill
#
# Bulk Modulus (GPa) = 8.00888 37.79482 22.90185
# Shear Modulus (GPa) = 10.63243 26.67994 18.65619
#
# Velocity S-wave (km/s) = 2.20017 3.48524 2.91442
# Velocity P-wave (km/s) = 3.17815 5.77955 4.66389
#
# Compressibility (1/GPa) = 0.12486144
#
# Stress axis : x y z
#
# Youngs Moduli (GPa) = 25.69393 9.29588 65.73182
#
# Poissons Ratio (x) = 0.24523 0.32293
# Poissons Ratio (y) = 0.67782 -0.84598
# Poissons Ratio (z) = 0.12623 -0.11964
#
# Static dielectric constant tensor:
#      x y z
#    x 3.800030 0.378770 -0.038170 
#    y 0.378770 3.612480 -0.492380 
#    z -0.038170 -0.492380 4.142070 
# 
# 
# High freq. dielectric constant tensor:
#      x y z
#    x 1.856650 0.029170 0.007330 
#    y 0.029170 1.835240 -0.029030 
#    z 0.007330 -0.029030 1.857860 
# 
# From -- ./inp_files/476718.got.cif
#   From: 2010.06.25/outbox.cif.g09.slc.cpg/sg2_239_cif.got.tgz:476718.got - 2010.06.27 13:26:56.
