data_PCOD8039260
_publ_section_title
;
Structure prediction by ZEFSAII (Michael W. Deem and Ramdas Pophale) SiO2 
 PCOD8039260
Probable space group: P -1
;
_chemical_formula_sum "Si O2"
_cell_formula_units_Z 16
_cell_length_a 11.116620
_cell_length_b 10.467487
_cell_length_c 17.934663
_cell_angle_alpha 60.440967
_cell_angle_beta 29.352043
_cell_angle_gamma 51.596317
_cell_volume 795.328927
_symmetry_space_group_name_H-M "P -1"
_symmetry_group_IT_number 2
_symmetry_cell_setting 'triclinic'
loop_
_space_group_symop_operation_xyz
x,y,z
-x,-y,-z
loop_
_atom_site_type_symbol
_atom_site_label
_atom_site_fract_x
_atom_site_fract_y
_atom_site_fract_z
Si Si1 0.759212 0.326917 0.392463
Si Si2 0.847123 0.395149 0.170628
Si Si3 0.197560 0.388793 0.220202
Si Si4 0.156997 0.276986 0.897328
Si Si5 0.720977 0.060112 0.588431
Si Si6 0.155162 0.286533 0.429173
Si Si7 0.723321 0.366054 0.992594
Si Si8 0.394171 0.511641 0.265861
O O1 0.500000 0.500000 0.500000
O O2 0.781678 0.298744 0.299453
O O3 0.701564 0.183183 0.498009
O O4 0.054416 0.308881 0.266526
O O5 0.924797 0.529797 0.128509
O O6 0.588738 0.511266 0.226915
O O7 0.077589 0.261582 0.030523
O O8 0.055333 0.397052 0.374996
O O9 0.533160 0.286780 0.081234
O O10 0.152456 0.563944 0.159916
O O11 0.473428 0.152176 0.753046
O O12 0.971646 0.238150 0.947213
O O13 0.693203 0.906579 0.612675
O O14 0.000000 0.000000 0.500000
O O15 0.363531 0.342419 0.340566
O O16 0.894306 0.328300 0.611589
O O17 0.516960 0.513992 0.116819
#
# Coordination Sequence:
#
# PCOD8039260 Si02
#       8
#     2   2   2   2   2   2   2   2
#     4  12  21  36  60  90 120 155 197 239 286 348
#     4  10  19  35  58  85 113 152 197 235 282 350
#     4  10  18  33  54  87 115 147 191 241 283 339
#     4  10  20  36  58  86 115 154 192 239 292 343
#     4  12  23  38  59  89 122 152 194 245 296 343
#     4  10  20  36  57  83 117 154 194 238 289 349
#     4   9  18  34  59  84 114 148 198 239 282 349
#     4   9  19  36  59  84 113 155 194 234 292 351
#
# _framework density 20.117463999999998
#
# number of rings (size 3 to 8) (size 9 to 14) (size 15 to 20)
#    0.000    1.750    3.750    1.500    0.000    0.000 
#    0.000    8.125    0.000    0.000    0.000    0.000 
#    0.000    0.000    0.000    0.000    0.000    0.000 
#
# Total GULP energy -198211.148873 kJ/mol
# GULP energy per Si atom -12388.196805 kJ/mol
# Density = 2.007168 g / cm^3
# Si number density = 20.117464 Si / 1000 Ang^3
#
#
#
# Elastic Constant Matrix: (Units=GPa)
#
#
# Indices 1 2 3 4 5 6 
#
# 1 82.1903 22.3077 32.2806 5.2018 -2.6973 -5.7640
# 2 22.3077 82.0823 49.6101 3.4469 11.4203 2.8790
# 3 32.2806 49.6101 126.0534 9.5441 13.9066 -10.5856
# 4 5.2018 3.4469 9.5441 28.3095 -7.6455 -0.2501
# 5 -2.6973 11.4203 13.9066 -7.6455 38.9822 -7.8068
# 6 -5.7640 2.8790 -10.5856 -0.2501 -7.8068 23.3391
#
#
#
# Elastic Compliance Matrix: (Units=1/GPa)
#
#
# Indices 1 2 3 4 5 6 
#
# 1 0.014388 -0.002983 -0.002529 -0.000456 0.003469 0.003930
# 2 -0.002983 0.017728 -0.006234 -0.000877 -0.004825 -0.007374
# 3 -0.002529 -0.006234 0.011946 -0.003389 -0.002324 0.004749
# 4 -0.000456 -0.000877 -0.003389 0.039254 0.009548 0.002073
# 5 0.003469 -0.004825 -0.002324 0.009548 0.032270 0.011294
# 6 0.003930 -0.007374 0.004749 0.002073 0.011294 0.050681
#
#
# Mechanical properties :
#
#
# Convention : Reuss Voigt Hill
#
# Bulk Modulus (GPa) = 48.61273 55.41365 52.01319
# Shear Modulus (GPa) = 25.43035 30.53466 27.98251
#
# Velocity S-wave (km/s) = 3.55927 3.90015 3.73360
# Velocity P-wave (km/s) = 6.41156 6.92000 6.67062
#
# Compressibility (1/GPa) = 0.02057074
#
# Stress axis : x y z
#
# Youngs Moduli (GPa) = 69.50194 56.40754 83.71097
#
# Poissons Ratio (x) = 0.16829 0.21167
# Poissons Ratio (y) = 0.20735 0.52183
# Poissons Ratio (z) = 0.17574 0.35163
#
# Static dielectric constant tensor:
#      x y z
#    x 3.892860 0.072140 -0.054470 
#    y 0.072140 3.207510 -0.180680 
#    z -0.054470 -0.180680 3.985280 
# 
# 
# High freq. dielectric constant tensor:
#      x y z
#    x 1.797940 0.000980 -0.007290 
#    y 0.000980 1.717310 -0.015420 
#    z -0.007290 -0.015420 1.805560 
# 
# From -- ./inp_files/281780.got.cif
#   From: 2010.06.25/outbox.cif.g09.slc.cpg/sg2_141_cif.got.tgz:281780.got - 2010.06.27 13:26:56.
