data_PCOD8039727
_publ_section_title
;
Structure prediction by ZEFSAII (Michael W. Deem and Ramdas Pophale) SiO2 
 PCOD8039727
Probable space group: P -1
;
_chemical_formula_sum "Si O2"
_cell_formula_units_Z 16
_cell_length_a 19.062884
_cell_length_b 11.039963
_cell_length_c 12.560318
_cell_angle_alpha 44.962003
_cell_angle_beta 150.593935
_cell_angle_gamma 146.546008
_cell_volume 713.665486
_symmetry_space_group_name_H-M "P -1"
_symmetry_group_IT_number 2
_symmetry_cell_setting 'triclinic'
loop_
_space_group_symop_operation_xyz
x,y,z
-x,-y,-z
loop_
_atom_site_type_symbol
_atom_site_label
_atom_site_fract_x
_atom_site_fract_y
_atom_site_fract_z
Si Si1 0.297426 0.047250 0.149634
Si Si2 0.115029 0.215382 0.716087
Si Si3 0.278313 0.923723 0.754536
Si Si4 0.785351 0.373970 0.790554
Si Si5 0.698628 0.459467 0.416333
Si Si6 0.462660 0.898788 0.190141
Si Si7 0.782377 0.173493 0.607133
Si Si8 0.876442 0.529168 0.250844
O O1 0.482192 0.288349 0.218040
O O2 0.316093 0.872869 0.233335
O O3 0.273364 0.014752 0.265189
O O4 0.130385 0.027721 0.887355
O O5 0.224844 0.321831 0.684261
O O6 0.207120 0.395197 0.823325
O O7 0.904330 0.104291 0.484528
O O8 0.264958 0.705813 0.847844
O O9 0.431465 0.119276 0.755442
O O10 0.351757 0.977425 0.940947
O O11 0.744074 0.502133 0.576808
O O12 0.687487 0.333145 0.801389
O O13 0.000000 0.500000 0.000000
O O14 0.809340 0.376728 0.572790
O O15 0.626193 0.083262 0.368405
O O16 0.982258 0.268134 0.768412
O O17 0.000000 0.500000 0.500000
#
# Coordination Sequence:
#
# PCOD8039727 Si02
#       8
#     2   2   2   2   2   2   2   2
#     4  11  24  36  59  90 119 151 188 241 290 346
#     4  11  21  37  60  89 122 144 190 241 300 332
#     4  10  21  35  61  89 109 153 193 244 273 345
#     4  11  23  38  62  86 115 157 194 236 281 343
#     4  11  19  38  60  87 114 154 198 232 278 351
#     4  11  19  36  61  84 111 144 206 232 278 326
#     4  11  18  37  61  85 109 149 201 238 275 338
#     4  10  18  34  61  84 110 148 196 239 278 337
#
# _framework density 22.419467999999998
#
# number of rings (size 3 to 8) (size 9 to 14) (size 15 to 20)
#    0.000    1.250    7.500    1.875    1.750    0.500 
#    0.000    2.500    2.750    1.500    0.000    0.000 
#    0.000    0.000    0.000    0.000    0.000    0.000 
#
# Total GULP energy -198225.288853 kJ/mol
# GULP energy per Si atom -12389.080553 kJ/mol
# Density = 2.236844 g / cm^3
# Si number density = 22.419468 Si / 1000 Ang^3
#
#
#
# Elastic Constant Matrix: (Units=GPa)
#
#
# Indices 1 2 3 4 5 6 
#
# 1 98.7973 33.0297 34.5865 -7.8415 -18.3183 47.3147
# 2 33.0297 41.0990 22.7203 3.8060 -4.6592 27.6994
# 3 34.5865 22.7203 125.4033 -1.8206 -21.1135 16.9509
# 4 -7.8415 3.8060 -1.8206 36.5169 8.1800 4.0882
# 5 -18.3183 -4.6592 -21.1135 8.1800 31.5320 -1.8972
# 6 47.3147 27.6994 16.9509 4.0882 -1.8972 39.3485
#
#
#
# Elastic Compliance Matrix: (Units=1/GPa)
#
#
# Indices 1 2 3 4 5 6 
#
# 1 0.032000 0.002924 -0.001553 0.007945 0.013512 -0.040042
# 2 0.002924 0.049154 -0.004124 -0.001678 0.004473 -0.035952
# 3 -0.001553 -0.004124 0.009933 -0.000704 0.005371 0.000823
# 4 0.007945 -0.001678 -0.000704 0.031652 -0.005012 -0.011600
# 5 0.013512 0.004473 0.005371 -0.005012 0.043974 -0.019069
# 6 -0.040042 -0.035952 0.000823 -0.011600 -0.019069 0.098802
#
#
# Mechanical properties :
#
#
# Convention : Reuss Voigt Hill
#
# Bulk Modulus (GPa) = 11.68466 49.55253 30.61860
# Shear Modulus (GPa) = 16.69189 33.14369 24.91779
#
# Velocity S-wave (km/s) = 2.73156 3.84910 3.33744
# Velocity P-wave (km/s) = 3.89509 6.47337 5.34211
#
# Compressibility (1/GPa) = 0.08558229
#
# Stress axis : x y z
#
# Youngs Moduli (GPa) = 31.24989 20.34427 100.67947
#
# Poissons Ratio (x) = -0.05949 0.15632
# Poissons Ratio (y) = -0.09138 0.41518
# Poissons Ratio (z) = 0.04852 0.08390
#
# Static dielectric constant tensor:
#      x y z
#    x 4.838140 -0.902160 -0.894330 
#    y -0.902160 4.827420 0.191150 
#    z -0.894330 0.191150 3.838760 
# 
# 
# High freq. dielectric constant tensor:
#      x y z
#    x 1.882380 0.047570 -0.022540 
#    y 0.047570 1.845040 0.022130 
#    z -0.022540 0.022130 1.881330 
# 
# From -- ./inp_files/254114.got.cif
#   From: 2010.06.25/outbox.cif.g09.slc.cpg/sg2_128_cif.got.tgz:254114.got - 2010.06.27 13:26:56.
