data_PCOD8039380
_publ_section_title
;
Structure prediction by ZEFSAII (Michael W. Deem and Ramdas Pophale) SiO2 
 PCOD8039380
Probable space group: P -1
;
_chemical_formula_sum "Si O2"
_cell_formula_units_Z 16
_cell_length_a 15.800739
_cell_length_b 15.235726
_cell_length_c 9.247866
_cell_angle_alpha 144.954114
_cell_angle_beta 37.089742
_cell_angle_gamma 135.471369
_cell_volume 759.367918
_symmetry_space_group_name_H-M "P -1"
_symmetry_group_IT_number 2
_symmetry_cell_setting 'triclinic'
loop_
_space_group_symop_operation_xyz
x,y,z
-x,-y,-z
loop_
_atom_site_type_symbol
_atom_site_label
_atom_site_fract_x
_atom_site_fract_y
_atom_site_fract_z
Si Si1 0.015797 0.726784 0.229035
Si Si2 0.789677 0.199515 0.669650
Si Si3 0.847391 0.781194 0.287741
Si Si4 0.177852 0.468243 0.562755
Si Si5 0.033837 0.345304 0.319343
Si Si6 0.501597 0.426007 0.742988
Si Si7 0.614444 0.919072 0.650557
Si Si8 0.640894 0.479334 0.198277
O O1 0.135062 0.807109 0.285765
O O2 0.967563 0.842708 0.329201
O O3 0.874584 0.664229 0.428661
O O4 0.072907 0.593216 0.880690
O O5 0.898677 0.244137 0.449411
O O6 0.691970 0.029356 0.564546
O O7 0.680896 0.319369 0.980423
O O8 0.728486 0.889091 0.577399
O O9 0.775808 0.613190 0.221860
O O10 0.919015 0.769024 0.017237
O O11 0.336788 0.541229 0.489977
O O12 0.163684 0.395607 0.322602
O O13 0.000000 0.500000 0.500000
O O14 0.452951 0.240420 0.551959
O O15 0.397637 0.514464 0.910592
O O16 0.500000 0.500000 0.000000
O O17 0.500000 0.000000 0.000000
O O18 0.500000 0.500000 0.500000
#
# Coordination Sequence:
#
# PCOD8039380 Si02
#       8
#     2   2   2   2   2   2   2   2
#     4  10  19  33  60  93 118 155 212 270 308 369
#     4  11  23  39  61  91 130 167 213 266 330 378
#     4  11  21  37  62  92 123 167 219 257 320 386
#     4  10  18  33  58  92 123 150 210 271 310 359
#     4  11  20  37  64  94 126 165 208 268 325 381
#     4  11  24  40  66  92 124 171 221 264 308 384
#     4  11  25  44  63  93 138 176 208 265 333 386
#     4  11  20  36  62  90 125 175 219 259 311 387
#
# _framework density 21.070155
#
# number of rings (size 3 to 8) (size 9 to 14) (size 15 to 20)
#    0.000    1.250    2.500    6.750    0.000    1.000 
#    0.000    0.625    0.000    6.000    0.000    0.000 
#    0.000    0.000    0.000    0.000    0.000    0.000 
#
# Total GULP energy -198330.513823 kJ/mol
# GULP energy per Si atom -12395.657114 kJ/mol
# Density = 2.102220 g / cm^3
# Si number density = 21.070155 Si / 1000 Ang^3
#
#
#
# Elastic Constant Matrix: (Units=GPa)
#
#
# Indices 1 2 3 4 5 6 
#
# 1 133.7311 36.1852 56.4283 1.3966 -7.7894 -5.7480
# 2 36.1852 121.3713 31.8756 5.0729 0.0793 13.0776
# 3 56.4283 31.8756 98.4795 -0.5338 -1.8256 -1.9299
# 4 1.3966 5.0729 -0.5338 28.0617 -5.8324 -3.5350
# 5 -7.7894 0.0793 -1.8256 -5.8324 34.3905 -4.9233
# 6 -5.7480 13.0776 -1.9299 -3.5350 -4.9233 17.9720
#
#
#
# Elastic Compliance Matrix: (Units=1/GPa)
#
#
# Indices 1 2 3 4 5 6 
#
# 1 0.010773 -0.002539 -0.005170 0.001232 0.003220 0.005863
# 2 -0.002539 0.010914 -0.002358 -0.003819 -0.002883 -0.010548
# 3 -0.005170 -0.002358 0.013922 0.001182 0.000031 0.001799
# 4 0.001232 -0.003819 0.001182 0.039889 0.009067 0.013630
# 5 0.003220 -0.002883 0.000031 0.009067 0.033365 0.014055
# 6 0.005863 -0.010548 0.001799 0.013630 0.014055 0.071917
#
#
# Mechanical properties :
#
#
# Convention : Reuss Voigt Hill
#
# Bulk Modulus (GPa) = 64.62435 66.95112 65.78774
# Shear Modulus (GPa) = 24.26337 31.35771 27.81054
#
# Velocity S-wave (km/s) = 3.39713 3.86197 3.63699
# Velocity P-wave (km/s) = 6.79154 7.19241 6.99485
#
# Compressibility (1/GPa) = 0.01547404
#
# Stress axis : x y z
#
# Youngs Moduli (GPa) = 92.82677 91.62816 71.82828
#
# Poissons Ratio (x) = 0.23268 0.37132
# Poissons Ratio (y) = 0.23572 0.16939
# Poissons Ratio (z) = 0.47987 0.21609
#
# Static dielectric constant tensor:
#      x y z
#    x 4.245350 -0.088230 -0.242920 
#    y -0.088230 3.983270 -0.177760 
#    z -0.242920 -0.177760 3.730100 
# 
# 
# High freq. dielectric constant tensor:
#      x y z
#    x 1.838760 -0.003520 -0.012430 
#    y -0.003520 1.824760 -0.020040 
#    z -0.012430 -0.020040 1.813880 
# 
# From -- ./inp_files/314187.got.cif
#   From: 2010.06.25/outbox.cif.g09.slc.cpg/sg2_158_cif.got.tgz:314187.got - 2010.06.27 13:26:56.
