data_PCOD8039523
_publ_section_title
;
Structure prediction by ZEFSAII (Michael W. Deem and Ramdas Pophale) SiO2 
 PCOD8039523
Probable space group: P -1
;
_chemical_formula_sum "Si O2"
_cell_formula_units_Z 14
_cell_length_a 21.745706
_cell_length_b 15.058478
_cell_length_c 11.777847
_cell_angle_alpha 28.867665
_cell_angle_beta 34.096673
_cell_angle_gamma 20.080315
_cell_volume 638.926266
_symmetry_space_group_name_H-M "P -1"
_symmetry_group_IT_number 2
_symmetry_cell_setting 'triclinic'
loop_
_space_group_symop_operation_xyz
x,y,z
-x,-y,-z
loop_
_atom_site_type_symbol
_atom_site_label
_atom_site_fract_x
_atom_site_fract_y
_atom_site_fract_z
Si Si1 0.251281 0.981513 0.913150
Si Si2 0.685664 0.086763 0.764517
Si Si3 0.696410 0.687685 0.513163
Si Si4 0.414118 0.742369 0.518132
Si Si5 0.341209 0.626791 0.965901
Si Si6 0.994791 0.797132 0.764338
Si Si7 0.634371 0.767925 0.259295
O O1 0.263811 0.888437 0.871932
O O2 0.443313 0.685488 0.009517
O O3 0.092968 0.095752 0.097058
O O4 0.191908 0.275801 0.673821
O O5 0.591124 0.404129 0.582680
O O6 0.706649 0.040839 0.647480
O O7 0.881492 0.829673 0.809425
O O8 0.571703 0.065045 0.015403
O O9 0.758776 0.431451 0.782109
O O10 0.697078 0.627607 0.447066
O O11 0.500000 0.000000 0.500000
O O12 0.475808 0.843329 0.378401
O O13 0.298630 0.758886 0.757126
O O14 0.198097 0.455611 0.833773
O O15 0.000000 0.000000 0.500000
#
# Coordination Sequence:
#
# PCOD8039523 Si02
#       7
#     2   2   2   2   2   2   2
#     4  10  19  33  53  86 113 143 191 244 281 328
#     4  11  23  38  57  88 119 154 188 236 290 344
#     4  10  19  31  56  85 113 143 192 240 281 325
#     4  11  22  39  59  86 121 150 194 233 284 351
#     4  10  18  34  55  82 112 150 190 236 282 330
#     4  12  21  38  60  89 119 148 192 241 295 338
#     4  12  22  37  61  90 117 151 190 240 293 341
#
# _framework density 21.911762
#
# number of rings (size 3 to 8) (size 9 to 14) (size 15 to 20)
#    0.000    1.143    4.286    5.143    0.000    0.000 
#    0.000    0.000    0.000    4.286    0.000    0.000 
#    0.000    0.000    0.000    0.000    0.000    0.000 
#
# Total GULP energy -173543.100393 kJ/mol
# GULP energy per Si atom -12395.935742 kJ/mol
# Density = 2.186189 g / cm^3
# Si number density = 21.911762 Si / 1000 Ang^3
#
#
#
# Elastic Constant Matrix: (Units=GPa)
#
#
# Indices 1 2 3 4 5 6 
#
# 1 86.6111 2.6435 52.3729 -0.2185 5.0292 13.8527
# 2 2.6435 37.0691 -7.5459 13.1617 5.4087 13.8353
# 3 52.3729 -7.5459 152.3196 11.9240 3.3406 6.3316
# 4 -0.2185 13.1617 11.9240 27.4717 11.2457 6.7729
# 5 5.0292 5.4087 3.3406 11.2457 45.8366 0.1745
# 6 13.8527 13.8353 6.3316 6.7729 0.1745 19.9676
#
#
#
# Elastic Compliance Matrix: (Units=1/GPa)
#
#
# Indices 1 2 3 4 5 6 
#
# 1 0.017335 0.000283 -0.005896 0.006990 -0.003172 -0.012696
# 2 0.000283 0.043477 0.004409 -0.015591 -0.001557 -0.026417
# 3 -0.005896 0.004409 0.009299 -0.006735 0.001100 0.000362
# 4 0.006990 -0.015591 -0.006735 0.054139 -0.011680 -0.010172
# 5 -0.003172 -0.001557 0.001100 -0.011680 0.025109 0.006673
# 6 -0.012696 -0.026417 0.000362 -0.010172 0.006673 0.080471
#
#
# Mechanical properties :
#
#
# Convention : Reuss Voigt Hill
#
# Bulk Modulus (GPa) = 14.77044 41.21563 27.99303
# Shear Modulus (GPa) = 19.62288 33.89047 26.75667
#
# Velocity S-wave (km/s) = 2.99581 3.93705 3.49823
# Velocity P-wave (km/s) = 4.32689 6.28632 5.39629
#
# Compressibility (1/GPa) = 0.06770281
#
# Stress axis : x y z
#
# Youngs Moduli (GPa) = 57.68638 23.00087 107.53828
#
# Poissons Ratio (x) = -0.00651 0.63408
# Poissons Ratio (y) = -0.01633 -0.47417
# Poissons Ratio (z) = 0.34014 -0.10142
#
# Static dielectric constant tensor:
#      x y z
#    x 4.073030 0.657980 -0.142200 
#    y 0.657980 4.426840 -0.109700 
#    z -0.142200 -0.109700 4.531650 
# 
# 
# High freq. dielectric constant tensor:
#      x y z
#    x 1.844180 0.043810 -0.006390 
#    y 0.043810 1.814130 0.002250 
#    z -0.006390 0.002250 1.890190 
# 
# From -- ./inp_files/303062.got.cif
#   From: 2010.06.25/outbox.cif.g09.slc.cpg/sg2_152_cif.got.tgz:303062.got - 2010.06.27 13:26:56.
