data_PCOD8039248
_publ_section_title
;
Structure prediction by ZEFSAII (Michael W. Deem and Ramdas Pophale) SiO2 
 PCOD8039248
Probable space group: P -1
;
_chemical_formula_sum "Si O2"
_cell_formula_units_Z 16
_cell_length_a 11.313084
_cell_length_b 8.910700
_cell_length_c 13.677868
_cell_angle_alpha 107.390519
_cell_angle_beta 92.150521
_cell_angle_gamma 39.398327
_cell_volume 791.416633
_symmetry_space_group_name_H-M "P -1"
_symmetry_group_IT_number 2
_symmetry_cell_setting 'triclinic'
loop_
_space_group_symop_operation_xyz
x,y,z
-x,-y,-z
loop_
_atom_site_type_symbol
_atom_site_label
_atom_site_fract_x
_atom_site_fract_y
_atom_site_fract_z
Si Si1 0.454828 0.163280 0.118096
Si Si2 0.453315 0.649764 0.621951
Si Si3 0.352612 0.429517 0.806323
Si Si4 0.912461 0.086217 0.227184
Si Si5 0.923171 0.563205 0.857780
Si Si6 0.345270 0.622134 0.226891
Si Si7 0.649396 0.913055 0.268677
Si Si8 0.947985 0.306586 0.988687
O O1 0.261697 0.286607 0.187232
O O2 0.411893 0.390191 0.129913
O O3 0.631188 0.972768 0.163867
O O4 0.500000 0.000000 0.000000
O O5 0.500000 0.500000 0.500000
O O6 0.232940 0.852620 0.693274
O O7 0.617803 0.436955 0.667190
O O8 0.458501 0.830472 0.626985
O O9 0.194844 0.640799 0.757789
O O10 0.529643 0.364930 0.807226
O O11 0.437294 0.167511 0.725884
O O12 0.252786 0.524996 0.928446
O O13 0.116386 0.901342 0.253598
O O14 0.941972 0.963480 0.101229
O O15 0.895985 0.468897 0.926855
O O16 0.116839 0.335852 0.754395
O O17 0.911722 0.750478 0.940545
#
# Coordination Sequence:
#
# PCOD8039248 Si02
#       8
#     2   2   2   2   2   2   2   2
#     4  11  20  32  55  79 111 156 193 236 272 323
#     4  10  22  42  69  86 103 142 197 256 294 327
#     4  10  23  35  53  85 124 159 186 219 281 349
#     4  11  21  40  56  82 121 152 192 236 281 338
#     4  10  19  33  54  80 113 154 194 237 273 316
#     4  10  23  39  56  85 121 150 192 235 282 345
#     4  10  21  39  56  85 115 144 198 235 283 342
#     4  10  18  33  54  80 117 161 190 219 274 337
#
# _framework density 20.216912000000001
#
# number of rings (size 3 to 8) (size 9 to 14) (size 15 to 20)
#    0.000    1.750    2.500    2.625    3.500    3.000 
#    0.000    2.500    0.000    1.500    0.000    0.000 
#    0.000    0.000    0.000    0.000    0.000    0.000 
#
# Total GULP energy -198269.626154 kJ/mol
# GULP energy per Si atom -12391.851635 kJ/mol
# Density = 2.017090 g / cm^3
# Si number density = 20.216912 Si / 1000 Ang^3
#
#
#
# Elastic Constant Matrix: (Units=GPa)
#
#
# Indices 1 2 3 4 5 6 
#
# 1 139.1776 46.4703 36.1501 13.6596 15.0219 4.5463
# 2 46.4703 82.3161 17.4356 11.3824 10.5157 -1.9747
# 3 36.1501 17.4356 87.1923 11.7223 30.7000 10.3945
# 4 13.6596 11.3824 11.7223 17.6530 6.4187 4.8032
# 5 15.0219 10.5157 30.7000 6.4187 25.7991 10.1212
# 6 4.5463 -1.9747 10.3945 4.8032 10.1212 37.1964
#
#
#
# Elastic Compliance Matrix: (Units=1/GPa)
#
#
# Indices 1 2 3 4 5 6 
#
# 1 0.009675 -0.004549 -0.002842 -0.002715 0.000434 -0.000397
# 2 -0.004549 0.016124 0.000716 -0.006639 -0.004406 0.003268
# 3 -0.002842 0.000716 0.021076 -0.004188 -0.023205 0.001351
# 4 -0.002715 -0.006639 -0.004188 0.069550 -0.005553 -0.006320
# 5 0.000434 -0.004406 -0.023205 -0.005553 0.074543 -0.013369
# 6 -0.000397 0.003268 0.001351 -0.006320 -0.013369 0.031183
#
#
# Mechanical properties :
#
#
# Convention : Reuss Voigt Hill
#
# Bulk Modulus (GPa) = 29.82850 56.53312 43.18081
# Shear Modulus (GPa) = 20.26947 30.03838 25.15393
#
# Velocity S-wave (km/s) = 3.16982 3.85880 3.53115
# Velocity P-wave (km/s) = 5.30879 6.91937 6.16689
#
# Compressibility (1/GPa) = 0.03352498
#
# Stress axis : x y z
#
# Youngs Moduli (GPa) = 103.36088 62.01882 47.44624
#
# Poissons Ratio (x) = 0.28215 0.13484
# Poissons Ratio (y) = 0.47022 -0.03397
# Poissons Ratio (z) = 0.29375 -0.04441
#
# Static dielectric constant tensor:
#      x y z
#    x 4.108400 -0.077870 0.170300 
#    y -0.077870 3.851270 0.214290 
#    z 0.170300 0.214290 3.189060 
# 
# 
# High freq. dielectric constant tensor:
#      x y z
#    x 1.807210 -0.001390 0.013470 
#    y -0.001390 1.789680 0.019660 
#    z 0.013470 0.019660 1.730510 
# 
# From -- ./inp_files/499231.got.cif
#   From: 2010.06.25/outbox.cif.g09.slc.cpg/sg2_250_cif.got.tgz:499231.got - 2010.06.27 13:26:56.
