data_PCOD8039946
_publ_section_title
;
Structure prediction by ZEFSAII (Michael W. Deem and Ramdas Pophale) SiO2 
 PCOD8039946
Probable space group: P -1
;
_chemical_formula_sum "Si O2"
_cell_formula_units_Z 16
_cell_length_a 10.600509
_cell_length_b 10.280180
_cell_length_c 8.530010
_cell_angle_alpha 82.658722
_cell_angle_beta 123.046763
_cell_angle_gamma 76.016327
_cell_volume 716.560559
_symmetry_space_group_name_H-M "P -1"
_symmetry_group_IT_number 2
_symmetry_cell_setting 'triclinic'
loop_
_space_group_symop_operation_xyz
x,y,z
-x,-y,-z
loop_
_atom_site_type_symbol
_atom_site_label
_atom_site_fract_x
_atom_site_fract_y
_atom_site_fract_z
Si Si1 0.059002 0.785678 0.322404
Si Si2 0.257838 0.328158 0.342217
Si Si3 0.063860 0.266471 0.464516
Si Si4 0.178782 0.779629 0.906578
Si Si5 0.222101 0.933313 0.624244
Si Si6 0.678837 0.410683 0.692871
Si Si7 0.874647 0.886778 0.883126
Si Si8 0.419975 0.887242 0.478480
O O1 0.078136 0.897225 0.446332
O O2 0.229488 0.701177 0.364807
O O3 0.994124 0.685864 0.403441
O O4 0.910930 0.864321 0.094247
O O5 0.180050 0.341949 0.461293
O O6 0.219667 0.486677 0.229066
O O7 0.185969 0.236357 0.198180
O O8 0.456302 0.256913 0.492749
O O9 0.902068 0.306491 0.242600
O O10 0.175525 0.099640 0.559023
O O11 0.254744 0.868094 0.832318
O O12 0.036731 0.882667 0.906057
O O13 0.317717 0.669255 0.127951
O O14 0.385469 0.863173 0.640993
O O15 0.500000 0.500000 0.500000
O O16 0.748695 0.047114 0.743638
O O17 0.500000 0.000000 0.500000
#
# Coordination Sequence:
#
# PCOD8039946 Si02
#       8
#     2   2   2   2   2   2   2   2
#     4  10  22  36  60  93 120 152 202 247 290 351
#     4  10  21  41  61  80 128 161 195 241 294 361
#     4  10  20  39  62  94 119 154 194 250 310 342
#     4   9  19  36  61  87 115 157 193 238 298 344
#     4  11  19  38  62  91 127 145 197 251 301 353
#     4  11  24  44  58  86 121 162 206 237 288 359
#     4   9  19  36  59  94 114 154 201 240 307 345
#     4  10  18  35  59  86 116 158 195 235 296 356
#
# _framework density 22.328887000000002
#
# number of rings (size 3 to 8) (size 9 to 14) (size 15 to 20)
#    0.000    2.000    3.750    2.250    0.000    5.500 
#    6.750   10.000    0.000    0.000    0.000    0.000 
#    0.000    0.000    0.000    0.000    0.000    0.000 
#
# Total GULP energy -198272.652860 kJ/mol
# GULP energy per Si atom -12392.040804 kJ/mol
# Density = 2.227807 g / cm^3
# Si number density = 22.328887 Si / 1000 Ang^3
#
#
#
# Elastic Constant Matrix: (Units=GPa)
#
#
# Indices 1 2 3 4 5 6 
#
# 1 109.7866 -3.0713 59.1187 -4.8148 -23.3409 -5.8264
# 2 -3.0713 58.7406 24.4883 -5.0712 -4.5618 11.1378
# 3 59.1187 24.4883 156.3586 -14.1902 -24.1762 -10.1939
# 4 -4.8148 -5.0712 -14.1902 22.1401 -5.3957 -4.9607
# 5 -23.3409 -4.5618 -24.1762 -5.3957 38.7400 -5.9786
# 6 -5.8264 11.1378 -10.1939 -4.9607 -5.9786 32.5461
#
#
#
# Elastic Compliance Matrix: (Units=1/GPa)
#
#
# Indices 1 2 3 4 5 6 
#
# 1 0.012857 0.002726 -0.003958 0.002788 0.006248 0.001702
# 2 0.002726 0.020712 -0.004767 0.000465 -0.000069 -0.008035
# 3 -0.003958 -0.004767 0.010662 0.007750 0.005791 0.006507
# 4 0.002788 0.000465 0.007750 0.058292 0.016969 0.014770
# 5 0.006248 -0.000069 0.005791 0.016969 0.037465 0.012425
# 6 0.001702 -0.008035 0.006507 0.014770 0.012425 0.040352
#
#
# Mechanical properties :
#
#
# Convention : Reuss Voigt Hill
#
# Bulk Modulus (GPa) = 31.02475 53.99524 42.50999
# Shear Modulus (GPa) = 24.62071 34.97524 29.79798
#
# Velocity S-wave (km/s) = 3.32420 3.96203 3.65705
# Velocity P-wave (km/s) = 5.35335 6.72046 6.07548
#
# Compressibility (1/GPa) = 0.03223233
#
# Stress axis : x y z
#
# Youngs Moduli (GPa) = 77.77766 48.28139 93.79409
#
# Poissons Ratio (x) = -0.13159 0.37124
# Poissons Ratio (y) = -0.21199 0.44708
# Poissons Ratio (z) = 0.30785 0.23014
#
# Static dielectric constant tensor:
#      x y z
#    x 4.697600 -0.180940 -0.130110 
#    y -0.180940 4.109240 -0.278920 
#    z -0.130110 -0.278920 4.293700 
# 
# 
# High freq. dielectric constant tensor:
#      x y z
#    x 1.893880 0.006200 -0.018880 
#    y 0.006200 1.863080 -0.006250 
#    z -0.018880 -0.006250 1.860650 
# 
# From -- ./inp_files/253179.got.cif
#   From: 2010.06.25/outbox.cif.g09.slc.cpg/sg2_127_cif.got.tgz:253179.got - 2010.06.27 13:26:56.
