data_PCOD8039606
_publ_section_title
;
Structure prediction by ZEFSAII (Michael W. Deem and Ramdas Pophale) SiO2 
 PCOD8039606
Probable space group: P -1
;
_chemical_formula_sum "Si O2"
_cell_formula_units_Z 10
_cell_length_a 9.027674
_cell_length_b 8.156302
_cell_length_c 9.522515
_cell_angle_alpha 47.283376
_cell_angle_beta 56.998947
_cell_angle_gamma 43.855574
_cell_volume 354.797570
_symmetry_space_group_name_H-M "P -1"
_symmetry_group_IT_number 2
_symmetry_cell_setting 'triclinic'
loop_
_space_group_symop_operation_xyz
x,y,z
-x,-y,-z
loop_
_atom_site_type_symbol
_atom_site_label
_atom_site_fract_x
_atom_site_fract_y
_atom_site_fract_z
Si Si1 0.238840 0.267484 0.041042
Si Si2 0.752436 0.443693 0.541233
Si Si3 0.743133 0.112915 0.515863
Si Si4 0.282090 0.065021 0.644810
Si Si5 0.630559 0.190149 0.964352
O O1 0.269434 0.090159 0.261785
O O2 0.315821 0.094283 0.958622
O O3 0.376814 0.393480 0.932868
O O4 0.000000 0.500000 0.000000
O O5 0.860236 0.236682 0.468544
O O6 0.498156 0.636296 0.535403
O O7 0.847206 0.625456 0.407613
O O8 0.774979 0.281164 0.768117
O O9 0.854727 0.957202 0.398077
O O10 0.500000 0.000000 0.500000
O O11 0.330982 0.845385 0.867007
#
# Coordination Sequence:
#
# PCOD8039606 Si02
#       5
#     2   2   2   2   2
#     4  10  20  37  58  84 120 151 191 242 281 343
#     4   9  18  33  58  86 115 147 196 237 276 352
#     4   9  18  34  55  85 116 147 189 240 283 330
#     4  10  18  34  57  90 117 143 195 243 278 343
#     4  10  20  36  61  84 111 161 189 227 307 332
#
# _framework density 28.185085000000001
#
# number of rings (size 3 to 8) (size 9 to 14) (size 15 to 20)
#    0.000    2.400    4.000    0.000    2.800    3.200 
#    0.000    2.000    0.000    4.800    0.000    0.000 
#    0.000    0.000    0.000    0.000    0.000    0.000 
#
# Total GULP energy -123939.352336 kJ/mol
# GULP energy per Si atom -12393.935234 kJ/mol
# Density = 2.812093 g / cm^3
# Si number density = 28.185085 Si / 1000 Ang^3
#
#
#
# Elastic Constant Matrix: (Units=GPa)
#
#
# Indices 1 2 3 4 5 6 
#
# 1 121.0891 38.6032 41.3567 10.1255 31.5921 27.3500
# 2 38.6032 114.6484 39.5380 15.2990 11.3575 43.8691
# 3 41.3567 39.5380 155.4920 20.7944 29.2013 8.2488
# 4 10.1255 15.2990 20.7944 33.2723 13.0912 1.7853
# 5 31.5921 11.3575 29.2013 13.0912 43.3072 14.8949
# 6 27.3500 43.8691 8.2488 1.7853 14.8949 39.8921
#
#
#
# Elastic Compliance Matrix: (Units=1/GPa)
#
#
# Indices 1 2 3 4 5 6 
#
# 1 0.011589 -0.001363 -0.001494 0.000567 -0.005898 -0.003961
# 2 -0.001363 0.019357 -0.003909 -0.008294 0.008782 -0.022452
# 3 -0.001494 -0.003909 0.008701 -0.001427 -0.005225 0.005538
# 4 0.000567 -0.008294 -0.001427 0.039176 -0.013332 0.012252
# 5 -0.005898 0.008782 -0.005225 -0.013332 0.039007 -0.018501
# 6 -0.003961 -0.022452 0.005538 0.012252 -0.018501 0.057689
#
#
# Mechanical properties :
#
#
# Convention : Reuss Voigt Hill
#
# Bulk Modulus (GPa) = 38.28974 70.02504 54.15739
# Shear Modulus (GPa) = 25.28379 41.40977 33.34678
#
# Velocity S-wave (km/s) = 2.99835 3.83718 3.44341
# Velocity P-wave (km/s) = 5.05978 6.67313 5.92166
#
# Compressibility (1/GPa) = 0.02611666
#
# Stress axis : x y z
#
# Youngs Moduli (GPa) = 86.28708 51.66100 114.93215
#
# Poissons Ratio (x) = 0.07039 0.17169
# Poissons Ratio (y) = 0.11758 0.44923
# Poissons Ratio (z) = 0.12890 0.20193
#
# Static dielectric constant tensor:
#      x y z
#    x 5.627450 0.950370 1.106880 
#    y 0.950370 6.603100 0.346880 
#    z 1.106880 0.346880 3.895030 
# 
# 
# High freq. dielectric constant tensor:
#      x y z
#    x 2.149480 -0.000050 0.022970 
#    y -0.000050 2.150320 -0.002910 
#    z 0.022970 -0.002910 2.137930 
# 
# From -- ./inp_files/148749.got.cif
#   From: 2010.06.25/outbox.cif.g09.slc.cpg/sg2_75_cif.got.tgz:148749.got - 2010.06.27 13:26:56.
