data_PCOD8039420
_publ_section_title
;
Structure prediction by ZEFSAII (Michael W. Deem and Ramdas Pophale) SiO2 
 PCOD8039420
Probable space group: P -1
;
_chemical_formula_sum "Si O2"
_cell_formula_units_Z 16
_cell_length_a 18.011556
_cell_length_b 9.549627
_cell_length_c 11.216989
_cell_angle_alpha 64.872222
_cell_angle_beta 107.298849
_cell_angle_gamma 152.095702
_cell_volume 803.544554
_symmetry_space_group_name_H-M "P -1"
_symmetry_group_IT_number 2
_symmetry_cell_setting 'triclinic'
loop_
_space_group_symop_operation_xyz
x,y,z
-x,-y,-z
loop_
_atom_site_type_symbol
_atom_site_label
_atom_site_fract_x
_atom_site_fract_y
_atom_site_fract_z
Si Si1 0.131451 0.125196 0.079909
Si Si2 0.563081 0.283477 0.420797
Si Si3 0.224503 0.191006 0.855251
Si Si4 0.026275 0.454903 0.707087
Si Si5 0.215837 0.756603 0.450901
Si Si6 0.845008 0.569632 0.855992
Si Si7 0.164390 0.759235 0.917348
Si Si8 0.173556 0.374998 0.437014
O O1 0.222916 0.396752 0.118964
O O2 0.246490 0.252603 0.986347
O O3 0.039329 0.832409 0.213688
O O4 0.000000 0.000000 0.000000
O O5 0.655050 0.480334 0.270066
O O6 0.692640 0.524423 0.504199
O O7 0.500000 0.000000 0.500000
O O8 0.408460 0.127232 0.414199
O O9 0.274415 0.101744 0.873663
O O10 0.039733 0.901862 0.833589
O O11 0.146574 0.681266 0.572809
O O12 0.129642 0.684112 0.788030
O O13 0.870542 0.293297 0.675014
O O14 0.183419 0.521622 0.490921
O O15 0.788321 0.484524 0.723625
O O16 0.762786 0.274222 0.983392
O O17 0.000000 0.500000 0.000000
O O18 0.000000 0.000000 0.500000
#
# Coordination Sequence:
#
# PCOD8039420 Si02
#       8
#     2   2   2   2   2   2   2   2
#     4  10  19  32  60  92 116 148 202 250 294 351
#     4  10  23  39  59  87 125 159 198 250 299 357
#     4  10  19  35  60  87 117 155 196 241 306 348
#     4  11  20  37  62  86 118 159 203 247 292 363
#     4  10  24  38  59  86 121 161 201 243 302 355
#     4  10  19  32  60  93 115 148 203 248 295 349
#     4  10  18  33  60  89 118 146 199 253 292 350
#     4  11  20  35  63  87 118 157 205 247 292 359
#
# _framework density 19.911778999999999
#
# number of rings (size 3 to 8) (size 9 to 14) (size 15 to 20)
#    0.000    1.750    5.000    2.250    5.250    0.000 
#    0.000    1.250    0.000    3.750    0.000    0.000 
#    0.000    0.000    0.000    0.000    0.000    0.000 
#
# Total GULP energy -198299.346189 kJ/mol
# GULP energy per Si atom -12393.709137 kJ/mol
# Density = 1.986646 g / cm^3
# Si number density = 19.911779 Si / 1000 Ang^3
#
#
#
# Elastic Constant Matrix: (Units=GPa)
#
#
# Indices 1 2 3 4 5 6 
#
# 1 84.1222 43.6215 34.0009 4.2700 1.2562 -10.2667
# 2 43.6215 76.3316 36.4891 0.3284 -1.9673 1.8161
# 3 34.0009 36.4891 113.7989 1.3645 -2.4686 -1.4208
# 4 4.2700 0.3284 1.3645 36.3137 -9.3365 3.5122
# 5 1.2562 -1.9673 -2.4686 -9.3365 28.2191 3.1776
# 6 -10.2667 1.8161 -1.4208 3.5122 3.1776 43.0370
#
#
#
# Elastic Compliance Matrix: (Units=1/GPa)
#
#
# Indices 1 2 3 4 5 6 
#
# 1 0.018842 -0.009796 -0.002456 -0.003449 -0.003482 0.005366
# 2 -0.009796 0.020614 -0.003697 0.002151 0.002678 -0.003702
# 3 -0.002456 -0.003697 0.010721 0.000155 0.000858 -0.000152
# 4 -0.003449 0.002151 0.000155 0.031190 0.011118 -0.004275
# 5 -0.003482 0.002678 0.000858 0.011118 0.040070 -0.004781
# 6 0.005366 -0.003702 -0.000152 -0.004275 -0.004781 0.025369
#
#
# Mechanical properties :
#
#
# Convention : Reuss Voigt Hill
#
# Bulk Modulus (GPa) = 54.70506 55.83064 55.26785
# Shear Modulus (GPa) = 27.05671 32.19004 29.62338
#
# Velocity S-wave (km/s) = 3.69023 4.02510 3.86130
# Velocity P-wave (km/s) = 6.75947 7.04995 6.90624
#
# Compressibility (1/GPa) = 0.01827985
#
# Stress axis : x y z
#
# Youngs Moduli (GPa) = 53.07372 48.51048 93.27194
#
# Poissons Ratio (x) = 0.47522 0.22904
# Poissons Ratio (y) = 0.51992 0.34481
# Poissons Ratio (z) = 0.13033 0.17933
#
# Static dielectric constant tensor:
#      x y z
#    x 4.059300 -0.180650 0.224090 
#    y -0.180650 3.860630 0.227430 
#    z 0.224090 0.227430 3.946040 
# 
# 
# High freq. dielectric constant tensor:
#      x y z
#    x 1.764490 -0.019420 0.008520 
#    y -0.019420 1.745430 0.006760 
#    z 0.008520 0.006760 1.791810 
# 
# From -- ./inp_files/461094.got.cif
#   From: 2010.06.25/outbox.cif.g09.slc.cpg/sg2_231_cif.got.tgz:461094.got - 2010.06.27 13:26:56.
