data_PCOD8039176
_publ_section_title
;
Structure prediction by ZEFSAII (Michael W. Deem and Ramdas Pophale) SiO2 
 PCOD8039176
Probable space group: P -1
;
_chemical_formula_sum "Si O2"
_cell_formula_units_Z 14
_cell_length_a 16.026379
_cell_length_b 14.798061
_cell_length_c 8.939173
_cell_angle_alpha 125.162496
_cell_angle_beta 31.377436
_cell_angle_gamma 141.520519
_cell_volume 658.284747
_symmetry_space_group_name_H-M "P -1"
_symmetry_group_IT_number 2
_symmetry_cell_setting 'triclinic'
loop_
_space_group_symop_operation_xyz
x,y,z
-x,-y,-z
loop_
_atom_site_type_symbol
_atom_site_label
_atom_site_fract_x
_atom_site_fract_y
_atom_site_fract_z
Si Si1 0.722761 0.457053 0.378246
Si Si2 0.773778 0.743933 0.069804
Si Si3 0.413346 0.778459 0.027135
Si Si4 0.482447 0.991639 0.341078
Si Si5 0.159852 0.717109 0.074625
Si Si6 0.214665 0.022530 0.573887
Si Si7 0.311756 0.490497 0.838066
O O1 0.475891 0.377221 0.727899
O O2 0.743224 0.334581 0.230431
O O3 0.806892 0.527901 0.149323
O O4 0.894409 0.597086 0.360571
O O5 0.786531 0.846741 0.271489
O O6 0.835214 0.654345 0.965274
O O7 0.966774 0.860547 0.765441
O O8 0.218896 0.730036 0.170758
O O9 0.641274 0.926996 0.745302
O O10 0.399432 0.639441 0.936396
O O11 0.395263 0.830110 0.264414
O O12 0.500000 0.000000 0.500000
O O13 0.724472 0.121565 0.021474
O O14 0.317662 0.008693 0.547508
O O15 0.500000 0.500000 0.500000
#
# Coordination Sequence:
#
# PCOD8039176 Si02
#       7
#     2   2   2   2   2   2   2
#     4   9  16  30  57  91 116 158 198 229 297 361
#     4  10  18  32  60  90 124 159 198 233 297 365
#     4  10  19  39  63  88 117 158 203 243 304 353
#     4  11  23  38  61  87 118 153 207 260 295 343
#     4   9  17  33  59  89 117 153 196 244 296 356
#     4  10  19  35  60  92 118 162 195 240 303 359
#     4   9  16  32  58  91 119 158 190 239 293 359
#
# _framework density 21.267392000000001
#
# number of rings (size 3 to 8) (size 9 to 14) (size 15 to 20)
#    0.000    2.286    5.714    1.714    2.000    0.000 
#    0.000    0.714    6.286   24.857    0.000    0.000 
#    0.000    0.000    0.000    0.000    0.000    0.000 
#
# Total GULP energy -173443.166891 kJ/mol
# GULP energy per Si atom -12388.797635 kJ/mol
# Density = 2.121899 g / cm^3
# Si number density = 21.267392 Si / 1000 Ang^3
#
#
#
# Elastic Constant Matrix: (Units=GPa)
#
#
# Indices 1 2 3 4 5 6 
#
# 1 73.4352 65.4553 39.8677 2.0016 1.0845 6.2410
# 2 65.4553 148.7862 49.7672 1.0349 -0.5321 2.6456
# 3 39.8677 49.7672 61.5749 -17.5890 -6.8594 12.9265
# 4 2.0016 1.0349 -17.5890 45.0773 13.9206 -6.8723
# 5 1.0845 -0.5321 -6.8594 13.9206 22.5474 -0.0079
# 6 6.2410 2.6456 12.9265 -6.8723 -0.0079 38.4944
#
#
#
# Elastic Compliance Matrix: (Units=1/GPa)
#
#
# Indices 1 2 3 4 5 6 
#
# 1 0.028308 -0.007770 -0.013877 -0.005908 -0.002120 -0.000451
# 2 -0.007770 0.011986 -0.005588 -0.001836 0.000091 0.001985
# 3 -0.013877 -0.005588 0.035112 0.012256 0.003648 -0.006968
# 4 -0.005908 -0.001836 0.012256 0.032708 -0.016224 0.002804
# 5 -0.002120 0.000091 0.003648 -0.016224 0.055580 -0.003773
# 6 -0.000451 0.001985 -0.006968 0.002804 -0.003773 0.028754
#
#
# Mechanical properties :
#
#
# Convention : Reuss Voigt Hill
#
# Bulk Modulus (GPa) = 47.76575 65.99742 56.88158
# Shear Modulus (GPa) = 19.69300 29.80424 24.74862
#
# Velocity S-wave (km/s) = 3.04628 3.74760 3.41499
# Velocity P-wave (km/s) = 5.90605 7.05872 6.50796
#
# Compressibility (1/GPa) = 0.02093550
#
# Stress axis : x y z
#
# Youngs Moduli (GPa) = 35.32603 83.42934 28.48033
#
# Poissons Ratio (x) = 0.64825 0.39523
# Poissons Ratio (y) = 0.27449 0.15914
# Poissons Ratio (z) = 0.49023 0.46619
#
# Static dielectric constant tensor:
#      x y z
#    x 4.018200 -0.525600 -0.145530 
#    y -0.525600 4.508460 -0.297600 
#    z -0.145530 -0.297600 3.681240 
# 
# 
# High freq. dielectric constant tensor:
#      x y z
#    x 1.794610 -0.011180 -0.015750 
#    y -0.011180 1.852280 -0.007730 
#    z -0.015750 -0.007730 1.809570 
# 
# From -- ./inp_files/203003.got.cif
#   From: 2010.06.25/outbox.cif.g09.slc.cpg/sg2_102_cif.got.tgz:203003.got - 2010.06.27 13:26:56.
