data_PCOD8039211
_publ_section_title
;
Structure prediction by ZEFSAII (Michael W. Deem and Ramdas Pophale) SiO2 
 PCOD8039211
Probable space group: P -1
;
_chemical_formula_sum "Si O2"
_cell_formula_units_Z 16
_cell_length_a 11.240056
_cell_length_b 10.977537
_cell_length_c 12.726690
_cell_angle_alpha 50.342970
_cell_angle_beta 120.577919
_cell_angle_gamma 134.108199
_cell_volume 862.130878
_symmetry_space_group_name_H-M "P -1"
_symmetry_group_IT_number 2
_symmetry_cell_setting 'triclinic'
loop_
_space_group_symop_operation_xyz
x,y,z
-x,-y,-z
loop_
_atom_site_type_symbol
_atom_site_label
_atom_site_fract_x
_atom_site_fract_y
_atom_site_fract_z
Si Si1 0.010750 0.405588 0.160638
Si Si2 0.746843 0.012292 0.591441
Si Si3 0.987393 0.030453 0.354114
Si Si4 0.806236 0.286149 0.634619
Si Si5 0.344748 0.617565 0.319544
Si Si6 0.610299 0.367337 0.349316
Si Si7 0.842500 0.381946 0.304296
Si Si8 0.655134 0.660160 0.360140
O O1 0.956461 0.193317 0.229037
O O2 0.200643 0.522946 0.220751
O O3 0.879722 0.395274 0.190221
O O4 0.000000 0.500000 0.000000
O O5 0.785011 0.095967 0.681988
O O6 0.797905 0.177482 0.438472
O O7 0.846678 0.917859 0.660349
O O8 0.553492 0.841913 0.590840
O O9 0.000000 0.000000 0.500000
O O10 0.837605 0.847649 0.327405
O O11 0.677344 0.237080 0.700563
O O12 0.762559 0.381718 0.471072
O O13 0.993646 0.440349 0.666611
O O14 0.526393 0.722106 0.290039
O O15 0.330986 0.453795 0.475682
O O16 0.683456 0.398479 0.245623
O O17 0.594398 0.535448 0.293374
#
# Coordination Sequence:
#
# PCOD8039211 Si02
#       8
#     2   2   2   2   2   2   2   2
#     4  11  23  38  56  81 116 154 185 222 278 338
#     4  11  19  30  52  85 113 136 183 236 283 327
#     4  12  21  34  57  81 109 142 190 235 275 321
#     4   9  17  28  48  76 111 145 175 227 284 325
#     4   9  18  33  55  82 114 145 183 229 279 327
#     4  10  19  28  50  83 116 140 175 232 291 323
#     4  10  18  33  52  76 113 148 184 226 276 333
#     4  10  19  32  56  85 112 140 182 239 283 321
#
# _framework density 18.558668000000001
#
# number of rings (size 3 to 8) (size 9 to 14) (size 15 to 20)
#    0.000    1.750    2.500    6.000    3.500    1.000 
#    0.000    0.625    0.000    9.750    0.000    0.000 
#    0.000    0.000    0.000    0.000    0.000    0.000 
#
# Total GULP energy -198271.774023 kJ/mol
# GULP energy per Si atom -12391.985876 kJ/mol
# Density = 1.851643 g / cm^3
# Si number density = 18.558668 Si / 1000 Ang^3
#
#
#
# Elastic Constant Matrix: (Units=GPa)
#
#
# Indices 1 2 3 4 5 6 
#
# 1 155.7916 50.3177 40.6127 3.9865 -20.9198 -5.6749
# 2 50.3177 98.7218 35.6978 0.2866 -10.9975 -14.4012
# 3 40.6127 35.6978 61.3626 -1.8216 -8.0217 -4.2830
# 4 3.9865 0.2866 -1.8216 12.5018 -1.7012 0.6743
# 5 -20.9198 -10.9975 -8.0217 -1.7012 16.3148 0.5796
# 6 -5.6749 -14.4012 -4.2830 0.6743 0.5796 31.2400
#
#
#
# Elastic Compliance Matrix: (Units=1/GPa)
#
#
# Indices 1 2 3 4 5 6 
#
# 1 0.009367 -0.002508 -0.003738 -0.002349 0.008240 -0.000069
# 2 -0.002508 0.014815 -0.006121 -0.000245 0.003541 0.005474
# 3 -0.003738 -0.006121 0.022817 0.005073 0.002848 -0.000535
# 4 -0.002349 -0.000245 0.005073 0.082667 0.008000 -0.001777
# 5 0.008240 0.003541 0.002848 0.008000 0.076413 0.001929
# 6 -0.000069 0.005474 -0.000535 -0.001777 0.001929 0.034450
#
#
# Mechanical properties :
#
#
# Convention : Reuss Voigt Hill
#
# Bulk Modulus (GPa) = 44.91327 63.23693 54.07510
# Shear Modulus (GPa) = 18.33616 24.62785 21.48200
#
# Velocity S-wave (km/s) = 3.14667 3.64679 3.40592
# Velocity P-wave (km/s) = 6.12007 7.20279 6.68339
#
# Compressibility (1/GPa) = 0.02226513
#
# Stress axis : x y z
#
# Youngs Moduli (GPa) = 106.75213 67.49968 43.82708
#
# Poissons Ratio (x) = 0.16930 0.16383
# Poissons Ratio (y) = 0.26775 0.26826
# Poissons Ratio (z) = 0.39904 0.41316
#
# Static dielectric constant tensor:
#      x y z
#    x 4.353330 0.058510 -0.361030 
#    y 0.058510 3.770550 -0.046160 
#    z -0.361030 -0.046160 2.867100 
# 
# 
# High freq. dielectric constant tensor:
#      x y z
#    x 1.753650 -0.004750 -0.016310 
#    y -0.004750 1.730100 0.009180 
#    z -0.016310 0.009180 1.632870 
# 
# From -- ./inp_files/282171.got.cif
#   From: 2010.06.25/outbox.cif.g09.slc.cpg/sg2_142_cif.got.tgz:282171.got - 2010.06.27 13:26:56.
