data_PCOD8039265
_publ_section_title
;
Structure prediction by ZEFSAII (Michael W. Deem and Ramdas Pophale) SiO2 
 PCOD8039265
Probable space group: P -1
;
_chemical_formula_sum "Si O2"
_cell_formula_units_Z 14
_cell_length_a 7.636188
_cell_length_b 20.529158
_cell_length_c 9.042572
_cell_angle_alpha 43.133299
_cell_angle_beta 121.074763
_cell_angle_gamma 131.991143
_cell_volume 719.251649
_symmetry_space_group_name_H-M "P -1"
_symmetry_group_IT_number 2
_symmetry_cell_setting 'triclinic'
loop_
_space_group_symop_operation_xyz
x,y,z
-x,-y,-z
loop_
_atom_site_type_symbol
_atom_site_label
_atom_site_fract_x
_atom_site_fract_y
_atom_site_fract_z
Si Si1 0.387985 0.188020 0.075219
Si Si2 0.875978 0.124225 0.977708
Si Si3 0.712689 0.333103 0.216095
Si Si4 0.318020 0.728634 0.371965
Si Si5 0.435035 0.066913 0.035558
Si Si6 0.598711 0.394916 0.621020
Si Si7 0.754474 0.531471 0.739713
O O1 0.407788 0.093873 0.148628
O O2 0.435062 0.288346 0.823887
O O3 0.126649 0.140487 0.108003
O O4 0.573934 0.227172 0.225515
O O5 0.894204 0.242644 0.754326
O O6 0.680883 0.064164 0.123639
O O7 0.787479 0.049499 0.914188
O O8 0.615719 0.300584 0.393425
O O9 0.988900 0.371415 0.262612
O O10 0.666798 0.430594 0.983016
O O11 0.548407 0.837014 0.226163
O O12 0.246117 0.628700 0.390134
O O13 0.772604 0.493092 0.643804
O O14 0.431240 0.426459 0.403338
#
# Coordination Sequence:
#
# PCOD8039265 Si02
#       7
#     2   2   2   2   2   2   2
#     4  10  18  33  55  78 103 139 166 206 256 307
#     4   9  17  34  59  74 103 131 178 209 239 305
#     4  10  20  33  48  76 108 130 165 215 268 291
#     4   9  18  33  51  77 101 130 172 215 246 304
#     4   8  18  34  56  77  99 135 178 203 246 301
#     4   9  18  34  54  73  96 141 182 198 252 298
#     4   9  19  35  51  70 103 139 169 218 245 307
#
# _framework density 19.464675
#
# number of rings (size 3 to 8) (size 9 to 14) (size 15 to 20)
#    0.857    2.000    0.000    1.286    0.000    1.143 
#    2.571    1.429    0.000    0.000    0.000    0.000 
#    0.000    0.000    0.000    0.000    0.000    0.000 
#
# Total GULP energy -173489.923181 kJ/mol
# GULP energy per Si atom -12392.137370 kJ/mol
# Density = 1.942037 g / cm^3
# Si number density = 19.464675 Si / 1000 Ang^3
#
#
#
# Elastic Constant Matrix: (Units=GPa)
#
#
# Indices 1 2 3 4 5 6 
#
# 1 91.4076 68.6857 20.0134 15.1301 3.8769 -12.8996
# 2 68.6857 128.2439 12.9189 19.2053 7.8879 -8.9753
# 3 20.0134 12.9189 48.7586 15.9635 -4.9231 -6.2389
# 4 15.1301 19.2053 15.9635 19.7098 -0.6098 3.3533
# 5 3.8769 7.8879 -4.9231 -0.6098 20.7865 2.6012
# 6 -12.8996 -8.9753 -6.2389 3.3533 2.6012 34.1985
#
#
#
# Elastic Compliance Matrix: (Units=1/GPa)
#
#
# Indices 1 2 3 4 5 6 
#
# 1 0.020380 -0.009425 -0.004094 -0.004058 -0.001940 0.005012
# 2 -0.009425 0.014341 0.003169 -0.009754 -0.003471 0.002007
# 3 -0.004094 0.003169 0.031496 -0.026519 0.005338 0.007228
# 4 -0.004058 -0.009754 -0.026519 0.087952 0.002983 -0.017779
# 5 -0.001940 -0.003471 0.005338 0.002983 0.051752 -0.004898
# 6 0.005012 0.002007 0.007228 -0.017779 -0.004898 0.035093
#
#
# Mechanical properties :
#
#
# Convention : Reuss Voigt Hill
#
# Bulk Modulus (GPa) = 21.97001 52.40514 37.18758
# Shear Modulus (GPa) = 18.05799 26.05842 22.05821
#
# Velocity S-wave (km/s) = 3.04917 3.66287 3.37002
# Velocity P-wave (km/s) = 4.86911 6.69854 5.85571
#
# Compressibility (1/GPa) = 0.04551659
#
# Stress axis : x y z
#
# Youngs Moduli (GPa) = 49.06833 69.72997 31.74998
#
# Poissons Ratio (x) = 0.65720 0.12998
# Poissons Ratio (y) = 0.46246 -0.10061
# Poissons Ratio (z) = 0.20088 -0.22096
#
# Static dielectric constant tensor:
#      x y z
#    x 3.320690 -0.235600 0.024400 
#    y -0.235600 3.583860 -0.037940 
#    z 0.024400 -0.037940 3.296930 
# 
# 
# High freq. dielectric constant tensor:
#      x y z
#    x 1.740010 -0.013920 -0.000300 
#    y -0.013920 1.759530 -0.005700 
#    z -0.000300 -0.005700 1.728910 
# 
# From -- ./inp_files/197648.got.cif
#   From: 2010.06.25/outbox.cif.g09.slc.cpg/sg2_99_cif.got.tgz:197648.got - 2010.06.27 13:26:56.
