data_PCOD8039403
_publ_section_title
;
Structure prediction by ZEFSAII (Michael W. Deem and Ramdas Pophale) SiO2 
 PCOD8039403
Probable space group: P -1
;
_chemical_formula_sum "Si O2"
_cell_formula_units_Z 16
_cell_length_a 7.430514
_cell_length_b 14.728372
_cell_length_c 14.898391
_cell_angle_alpha 32.709273
_cell_angle_beta 69.268338
_cell_angle_gamma 59.313361
_cell_volume 747.647261
_symmetry_space_group_name_H-M "P -1"
_symmetry_group_IT_number 2
_symmetry_cell_setting 'triclinic'
loop_
_space_group_symop_operation_xyz
x,y,z
-x,-y,-z
loop_
_atom_site_type_symbol
_atom_site_label
_atom_site_fract_x
_atom_site_fract_y
_atom_site_fract_z
Si Si1 0.295167 0.085530 0.904341
Si Si2 0.745128 0.397519 0.489346
Si Si3 0.341433 0.696574 0.241113
Si Si4 0.161236 0.271499 0.085125
Si Si5 0.579374 0.574619 0.707373
Si Si6 0.306685 0.540853 0.931558
Si Si7 0.539844 0.144921 0.651187
Si Si8 0.964566 0.582245 0.203707
O O1 0.354722 0.140460 0.751385
O O2 0.102427 0.256349 0.842919
O O3 0.500000 0.000000 0.000000
O O4 0.232404 0.911779 0.054339
O O5 0.564281 0.613208 0.329581
O O6 0.809998 0.349362 0.623322
O O7 0.671285 0.247321 0.587753
O O8 0.942357 0.401094 0.397445
O O9 0.390343 0.587151 0.232231
O O10 0.919290 0.307745 0.120529
O O11 0.294189 0.055077 0.240679
O O12 0.268798 0.358226 0.065711
O O13 0.171908 0.348338 0.920005
O O14 0.369456 0.620926 0.764453
O O15 0.565763 0.753650 0.506822
O O16 0.787333 0.493848 0.801180
O O17 0.500000 0.500000 0.000000
#
# Coordination Sequence:
#
# PCOD8039403 Si02
#       8
#     2   2   2   2   2   2   2   2
#     4  12  19  34  63  92 127 168 221 253 303 389
#     4  10  18  33  59  86 129 166 209 243 313 379
#     4  10  19  35  57  88 122 171 205 260 305 368
#     4  11  23  44  75  93 121 170 213 262 330 379
#     4  11  25  40  60  92 135 162 213 273 317 373
#     4  11  24  47  72  95 122 162 219 272 322 382
#     4  11  22  40  63  97 127 168 211 261 315 383
#     4  12  22  38  62  94 128 175 211 254 321 384
#
# _framework density 21.400466000000002
#
# number of rings (size 3 to 8) (size 9 to 14) (size 15 to 20)
#    0.000    1.000    5.000    3.750    0.000    3.000 
#    2.250    0.625    0.000    0.000    0.000    0.000 
#    0.000    0.000    0.000    0.000    0.000    0.000 
#
# Total GULP energy -198292.834592 kJ/mol
# GULP energy per Si atom -12393.302162 kJ/mol
# Density = 2.135176 g / cm^3
# Si number density = 21.400466 Si / 1000 Ang^3
#
#
#
# Elastic Constant Matrix: (Units=GPa)
#
#
# Indices 1 2 3 4 5 6 
#
# 1 78.6149 39.8163 35.1397 1.4199 0.8934 -9.8600
# 2 39.8163 104.5201 45.1147 -5.6451 -2.6266 -9.6265
# 3 35.1397 45.1147 121.0030 8.1846 -13.2155 -4.1181
# 4 1.4199 -5.6451 8.1846 26.9555 -1.0297 1.5746
# 5 0.8934 -2.6266 -13.2155 -1.0297 23.5988 5.7962
# 6 -9.8600 -9.6265 -4.1181 1.5746 5.7962 32.8551
#
#
#
# Elastic Compliance Matrix: (Units=1/GPa)
#
#
# Indices 1 2 3 4 5 6 
#
# 1 0.017334 -0.004918 -0.003430 -0.001303 -0.004196 0.004134
# 2 -0.004918 0.013510 -0.003909 0.004132 -0.000794 0.001934
# 3 -0.003430 -0.003909 0.011624 -0.003823 0.006448 -0.001672
# 4 -0.001303 0.004132 -0.003823 0.039307 0.000483 -0.001629
# 5 -0.004196 -0.000794 0.006448 0.000483 0.048346 -0.009236
# 6 0.004134 0.001934 -0.001672 -0.001629 -0.009236 0.033742
#
#
# Mechanical properties :
#
#
# Convention : Reuss Voigt Hill
#
# Bulk Modulus (GPa) = 55.69899 60.47549 58.08724
# Shear Modulus (GPa) = 25.72550 28.95304 27.33927
#
# Velocity S-wave (km/s) = 3.47089 3.68219 3.57810
# Velocity P-wave (km/s) = 6.49202 6.81163 6.65375
#
# Compressibility (1/GPa) = 0.01795365
#
# Stress axis : x y z
#
# Youngs Moduli (GPa) = 57.69092 74.02087 86.03148
#
# Poissons Ratio (x) = 0.36403 0.29506
# Poissons Ratio (y) = 0.28372 0.33631
# Poissons Ratio (z) = 0.19786 0.28936
#
# Static dielectric constant tensor:
#      x y z
#    x 3.771150 -0.065320 -0.223520 
#    y -0.065320 3.958540 0.097890 
#    z -0.223520 0.097890 4.699660 
# 
# 
# High freq. dielectric constant tensor:
#      x y z
#    x 1.825950 -0.004500 -0.008950 
#    y -0.004500 1.836540 0.013800 
#    z -0.008950 0.013800 1.843720 
# 
# From -- ./inp_files/503601.got.cif
#   From: 2010.06.25/outbox.cif.g09.slc.cpg/sg2_252_cif.got.tgz:503601.got - 2010.06.27 13:26:56.
