data_PCOD8039843
_publ_section_title
;
Structure prediction by ZEFSAII (Michael W. Deem and Ramdas Pophale) SiO2 
 PCOD8039843
Probable space group: P -1
;
_chemical_formula_sum "Si O2"
_cell_formula_units_Z 16
_cell_length_a 16.518693
_cell_length_b 26.268332
_cell_length_c 16.271754
_cell_angle_alpha 23.303616
_cell_angle_beta 154.822526
_cell_angle_gamma 162.927816
_cell_volume 797.479183
_symmetry_space_group_name_H-M "P -1"
_symmetry_group_IT_number 2
_symmetry_cell_setting 'triclinic'
loop_
_space_group_symop_operation_xyz
x,y,z
-x,-y,-z
loop_
_atom_site_type_symbol
_atom_site_label
_atom_site_fract_x
_atom_site_fract_y
_atom_site_fract_z
Si Si1 0.898272 0.093958 0.258467
Si Si2 0.197066 0.192186 0.796321
Si Si3 0.993491 0.692487 0.677022
Si Si4 0.814106 0.173341 0.564595
Si Si5 0.354488 0.995363 0.178439
Si Si6 0.255144 0.574601 0.287354
Si Si7 0.703960 0.596626 0.713680
Si Si8 0.552252 0.985010 0.952112
O O1 0.152591 0.313899 0.198129
O O2 0.828362 0.095834 0.097532
O O3 0.611763 0.969420 0.235218
O O4 0.000000 0.000000 0.500000
O O5 0.148991 0.262590 0.570879
O O6 0.495538 0.370481 0.852508
O O7 0.957420 0.107219 0.769653
O O8 0.198069 0.051893 0.967142
O O9 0.822968 0.481320 0.798837
O O10 0.958146 0.699434 0.730371
O O11 0.321253 0.839945 0.739076
O O12 0.989542 0.383479 0.379032
O O13 0.500000 0.000000 0.500000
O O14 0.804993 0.183206 0.641257
O O15 0.328743 0.940541 0.141250
O O16 0.542261 0.646309 0.468593
O O17 0.315742 0.754413 0.089566
#
# Coordination Sequence:
#
# PCOD8039843 Si02
#       8
#     2   2   2   2   2   2   2   2
#     4  11  23  39  58  82 121 148 198 252 296 331
#     4  10  22  33  58  88 122 154 194 226 288 364
#     4  10  19  33  54  86 127 147 178 238 296 349
#     4  10  20  40  55  84 129 165 180 225 294 357
#     4  12  21  36  62  89 124 152 193 234 290 350
#     4  10  20  37  60  86 123 150 192 229 295 363
#     4  10  18  35  56  85 115 158 182 243 296 331
#     4  11  24  37  60  93 107 156 201 244 287 342
#
# _framework density 20.063220000000001
#
# number of rings (size 3 to 8) (size 9 to 14) (size 15 to 20)
#    0.000    1.750    5.000    3.375    1.750    1.000 
#    0.000    0.000    0.000    6.000    0.000    0.000 
#    0.000    0.000    0.000    0.000    0.000    0.000 
#
# Total GULP energy -198250.109559 kJ/mol
# GULP energy per Si atom -12390.631847 kJ/mol
# Density = 2.001755 g / cm^3
# Si number density = 20.063220 Si / 1000 Ang^3
#
#
#
# Elastic Constant Matrix: (Units=GPa)
#
#
# Indices 1 2 3 4 5 6 
#
# 1 137.2071 45.6432 46.9001 1.8995 -19.5844 0.8948
# 2 45.6432 68.9734 23.5437 17.6704 -12.1239 -7.4814
# 3 46.9001 23.5437 57.4961 12.4216 7.1565 -2.7655
# 4 1.8995 17.6704 12.4216 23.0382 -1.1454 -5.0883
# 5 -19.5844 -12.1239 7.1565 -1.1454 30.4405 11.1985
# 6 0.8948 -7.4814 -2.7655 -5.0883 11.1985 38.9841
#
#
#
# Elastic Compliance Matrix: (Units=1/GPa)
#
#
# Indices 1 2 3 4 5 6 
#
# 1 0.016690 -0.006950 -0.015292 0.011728 0.013948 -0.005278
# 2 -0.006950 0.024946 -0.001319 -0.017341 0.004661 0.001251
# 3 -0.015292 -0.001319 0.037277 -0.017417 -0.022314 0.006879
# 4 0.011728 -0.017341 -0.017417 0.065873 0.006515 0.001894
# 5 0.013948 0.004661 -0.022314 0.006515 0.055047 -0.015971
# 6 -0.005278 0.001251 0.006879 0.001894 -0.015971 0.031336
#
#
# Mechanical properties :
#
#
# Convention : Reuss Voigt Hill
#
# Bulk Modulus (GPa) = 31.45572 55.09452 43.27512
# Shear Modulus (GPa) = 17.30770 28.33187 22.81978
#
# Velocity S-wave (km/s) = 2.94029 3.76191 3.37619
# Velocity P-wave (km/s) = 5.21914 6.81097 6.06749
#
# Compressibility (1/GPa) = 0.03179072
#
# Stress axis : x y z
#
# Youngs Moduli (GPa) = 59.91463 40.08719 26.82590
#
# Poissons Ratio (x) = 0.27862 0.41022
# Poissons Ratio (y) = 0.41643 0.03538
# Poissons Ratio (z) = 0.91622 0.05287
#
# Static dielectric constant tensor:
#      x y z
#    x 3.885400 -0.024510 0.009530 
#    y -0.024510 3.547060 0.244620 
#    z 0.009530 0.244620 3.653470 
# 
# 
# High freq. dielectric constant tensor:
#      x y z
#    x 1.785520 0.001350 0.007700 
#    y 0.001350 1.758530 0.035390 
#    z 0.007700 0.035390 1.783580 
# 
# From -- ./inp_files/456696.got.cif
#   From: 2010.06.25/outbox.cif.g09.slc.cpg/sg2_229_cif.got.tgz:456696.got - 2010.06.27 13:26:56.
