data_PCOD8039735
_publ_section_title
;
Structure prediction by ZEFSAII (Michael W. Deem and Ramdas Pophale) SiO2 
 PCOD8039735
Probable space group: P -1
;
_chemical_formula_sum "Si O2"
_cell_formula_units_Z 16
_cell_length_a 17.245236
_cell_length_b 11.259383
_cell_length_c 9.330470
_cell_angle_alpha 68.208781
_cell_angle_beta 68.613831
_cell_angle_gamma 129.537095
_cell_volume 705.506313
_symmetry_space_group_name_H-M "P -1"
_symmetry_group_IT_number 2
_symmetry_cell_setting 'triclinic'
loop_
_space_group_symop_operation_xyz
x,y,z
-x,-y,-z
loop_
_atom_site_type_symbol
_atom_site_label
_atom_site_fract_x
_atom_site_fract_y
_atom_site_fract_z
Si Si1 0.994718 0.159498 0.164530
Si Si2 0.278219 0.923325 0.002357
Si Si3 0.117384 0.264854 0.523345
Si Si4 0.527733 0.149385 0.297999
Si Si5 0.469553 0.092411 0.055278
Si Si6 0.624412 0.423153 0.359572
Si Si7 0.911239 0.579166 0.750879
Si Si8 0.162604 0.042567 0.935542
O O1 0.979796 0.257066 0.244779
O O2 0.198814 0.429517 0.834614
O O3 0.949403 0.968733 0.370440
O O4 0.844603 0.976541 0.223264
O O5 0.306539 0.942265 0.145753
O O6 0.476948 0.165352 0.687929
O O7 0.120642 0.611272 0.187207
O O8 0.210797 0.971939 0.997561
O O9 0.338655 0.567294 0.240530
O O10 0.009179 0.224934 0.520149
O O11 0.036754 0.179765 0.776056
O O12 0.527663 0.282211 0.329304
O O13 0.500000 0.000000 0.500000
O O14 0.395359 0.977944 0.322708
O O15 0.720135 0.391927 0.981592
O O16 0.500000 0.000000 0.000000
O O17 0.675855 0.638615 0.267601
#
# Coordination Sequence:
#
# PCOD8039735 Si02
#       8
#     2   2   2   2   2   2   2   2
#     4  10  21  38  63  87 111 162 199 240 291 340
#     4  12  22  39  58  90 126 152 195 242 295 348
#     4  10  20  40  61  84 118 150 202 242 286 357
#     4  10  18  34  61  88 112 140 196 251 283 331
#     4  11  20  37  63  90 112 151 197 242 294 341
#     4  10  20  39  62  87 118 152 204 245 283 340
#     4  10  21  36  59  89 118 150 196 248 295 336
#     4  11  24  38  59  86 124 163 190 239 292 353
#
# _framework density 22.678747000000001
#
# number of rings (size 3 to 8) (size 9 to 14) (size 15 to 20)
#    0.000    1.500    3.750    3.750    0.000    3.000 
#    0.000    1.875    0.000    0.000    0.000    0.000 
#    0.000    0.000    0.000    0.000    0.000    0.000 
#
# Total GULP energy -198239.302561 kJ/mol
# GULP energy per Si atom -12389.956410 kJ/mol
# Density = 2.262713 g / cm^3
# Si number density = 22.678747 Si / 1000 Ang^3
#
#
#
# Elastic Constant Matrix: (Units=GPa)
#
#
# Indices 1 2 3 4 5 6 
#
# 1 70.4019 58.6540 11.6083 -2.0274 32.1394 6.6033
# 2 58.6540 212.9191 39.2721 12.2232 37.3691 11.2295
# 3 11.6083 39.2721 74.1090 -1.1741 21.7508 4.9307
# 4 -2.0274 12.2232 -1.1741 31.4662 2.9934 11.3793
# 5 32.1394 37.3691 21.7508 2.9934 32.5210 3.2233
# 6 6.6033 11.2295 4.9307 11.3793 3.2233 16.9568
#
#
#
# Elastic Compliance Matrix: (Units=1/GPa)
#
#
# Indices 1 2 3 4 5 6 
#
# 1 0.033726 -0.005013 0.008161 0.012804 -0.032764 -0.014551
# 2 -0.005013 0.006892 -0.002677 -0.003186 -0.000929 0.000481
# 3 0.008161 -0.002677 0.019553 0.007040 -0.017881 -0.008416
# 4 0.012804 -0.003186 0.007040 0.047898 -0.014714 -0.034270
# 5 -0.032764 -0.000929 -0.017881 -0.014714 0.076125 0.013977
# 6 -0.014551 0.000481 -0.008416 -0.034270 0.013977 0.087110
#
#
# Mechanical properties :
#
#
# Convention : Reuss Voigt Hill
#
# Bulk Modulus (GPa) = 16.36299 64.05540 40.20920
# Shear Modulus (GPa) = 17.19792 32.71519 24.95656
#
# Velocity S-wave (km/s) = 2.75676 3.80221 3.32088
# Velocity P-wave (km/s) = 4.16699 6.89795 5.69849
#
# Compressibility (1/GPa) = 0.06111353
#
# Stress axis : x y z
#
# Youngs Moduli (GPa) = 29.65075 145.09721 51.14236
#
# Poissons Ratio (x) = 0.72739 -0.41737
# Poissons Ratio (y) = 0.14864 0.13689
# Poissons Ratio (z) = -0.24198 0.38838
#
# Static dielectric constant tensor:
#      x y z
#    x 3.582590 0.223600 0.223000 
#    y 0.223600 4.917390 0.151040 
#    z 0.223000 0.151040 4.315240 
# 
# 
# High freq. dielectric constant tensor:
#      x y z
#    x 1.844550 0.000000 0.025960 
#    y 0.000000 1.916980 0.004840 
#    z 0.025960 0.004840 1.893140 
# 
# From -- ./inp_files/331726.got.cif
#   From: 2010.06.25/outbox.cif.g09.slc.cpg/sg2_166_cif.got.tgz:331726.got - 2010.06.27 13:26:56.
