data_PCOD8039476
_publ_section_title
;
Structure prediction by ZEFSAII (Michael W. Deem and Ramdas Pophale) SiO2 
 PCOD8039476
Probable space group: P -1
;
_chemical_formula_sum "Si O2"
_cell_formula_units_Z 16
_cell_length_a 15.303187
_cell_length_b 12.434287
_cell_length_c 20.671803
_cell_angle_alpha 38.754823
_cell_angle_beta 150.303796
_cell_angle_gamma 153.187561
_cell_volume 878.805775
_symmetry_space_group_name_H-M "P -1"
_symmetry_group_IT_number 2
_symmetry_cell_setting 'triclinic'
loop_
_space_group_symop_operation_xyz
x,y,z
-x,-y,-z
loop_
_atom_site_type_symbol
_atom_site_label
_atom_site_fract_x
_atom_site_fract_y
_atom_site_fract_z
Si Si1 0.175519 0.770536 0.464372
Si Si2 0.172837 0.340893 0.923772
Si Si3 0.829789 0.841267 0.223934
Si Si4 0.221647 0.823017 0.927515
Si Si5 0.678834 0.641917 0.846394
Si Si6 0.288919 0.939039 0.318515
Si Si7 0.073763 0.682416 0.038240
Si Si8 0.655676 0.832700 0.974707
O O1 0.208170 0.775063 0.405929
O O2 0.000000 0.500000 0.500000
O O3 0.065578 0.879657 0.363412
O O4 0.441672 0.933351 0.592981
O O5 0.363786 0.609195 0.891262
O O6 0.902156 0.222788 0.786445
O O7 0.199715 0.344461 0.015558
O O8 0.224647 0.187687 0.998645
O O9 0.605094 0.593839 0.230261
O O10 0.875804 0.047849 0.196386
O O11 0.765000 0.830066 0.112777
O O12 0.036405 0.572967 0.884668
O O13 0.214419 0.743349 0.033030
O O14 0.500000 0.000000 0.000000
O O15 0.711111 0.863758 0.752301
O O16 0.838386 0.650773 0.890475
O O17 0.269105 0.914681 0.101378
#
# Coordination Sequence:
#
# PCOD8039476 Si02
#       8
#     2   2   2   2   2   2   2   2
#     4  11  22  35  52  71 107 150 178 219 248 306
#     4  10  19  31  51  80 111 148 167 207 265 323
#     4  10  18  34  50  75 109 139 174 220 264 302
#     4  10  19  32  52  72 105 139 175 219 264 318
#     4  11  19  31  54  79 116 138 165 216 265 319
#     4  11  21  34  50  76 108 145 183 202 252 318
#     4  10  19  31  48  78 105 139 171 208 269 316
#     4   9  18  30  49  75 114 139 171 209 259 316
#
# _framework density 18.206526
#
# number of rings (size 3 to 8) (size 9 to 14) (size 15 to 20)
#    0.000    1.750    5.000    1.125    0.000    0.000 
#    0.000    0.000    0.000    0.000    0.000    1.750 
#    0.000    0.125    0.000    0.000    0.000    0.000 
#
# Total GULP energy -198294.350619 kJ/mol
# GULP energy per Si atom -12393.396914 kJ/mol
# Density = 1.816509 g / cm^3
# Si number density = 18.206526 Si / 1000 Ang^3
#
#
#
# Elastic Constant Matrix: (Units=GPa)
#
#
# Indices 1 2 3 4 5 6 
#
# 1 66.0425 29.1168 23.1640 4.6320 20.6381 8.7028
# 2 29.1168 153.1296 43.4365 4.5941 16.5160 0.2965
# 3 23.1640 43.4365 85.6746 13.3092 22.8857 3.4343
# 4 4.6320 4.5941 13.3092 27.3732 2.6766 6.5911
# 5 20.6381 16.5160 22.8857 2.6766 27.8186 -1.4068
# 6 8.7028 0.2965 3.4343 6.5911 -1.4068 32.6011
#
#
#
# Elastic Compliance Matrix: (Units=1/GPa)
#
#
# Indices 1 2 3 4 5 6 
#
# 1 0.021799 -0.002411 -0.000490 -0.000081 -0.014652 -0.006362
# 2 -0.002411 0.007969 -0.003487 0.000578 -0.000088 0.000818
# 3 -0.000490 -0.003487 0.017720 -0.006609 -0.011552 -0.000866
# 4 -0.000081 0.000578 -0.006609 0.041423 0.000783 -0.007628
# 5 -0.014652 -0.000088 -0.011552 0.000783 0.056672 0.007416
# 6 -0.006362 0.000818 -0.000866 -0.007628 0.007416 0.034318
#
#
# Mechanical properties :
#
#
# Convention : Reuss Voigt Hill
#
# Bulk Modulus (GPa) = 28.80939 55.14237 41.97588
# Shear Modulus (GPa) = 24.48016 31.50054 27.99035
#
# Velocity S-wave (km/s) = 3.67083 4.16405 3.92520
# Velocity P-wave (km/s) = 5.81590 7.31246 6.60669
#
# Compressibility (1/GPa) = 0.03471091
#
# Stress axis : x y z
#
# Youngs Moduli (GPa) = 45.87319 125.49275 56.43416
#
# Poissons Ratio (x) = 0.30256 0.02766
# Poissons Ratio (y) = 0.11060 0.19680
# Poissons Ratio (z) = 0.02248 0.43763
#
# Static dielectric constant tensor:
#      x y z
#    x 3.386660 0.139860 0.230310 
#    y 0.139860 3.931540 -0.007040 
#    z 0.230310 -0.007040 3.091310 
# 
# 
# High freq. dielectric constant tensor:
#      x y z
#    x 1.700680 0.027170 0.022660 
#    y 0.027170 1.731830 -0.004210 
#    z 0.022660 -0.004210 1.648770 
# 
# From -- ./inp_files/451576.got.cif
#   From: 2010.06.25/outbox.cif.g09.slc.cpg/sg2_226_cif.got.tgz:451576.got - 2010.06.27 13:26:56.
