data_PCOD8039091
_publ_section_title
;
Structure prediction by ZEFSAII (Michael W. Deem and Ramdas Pophale) SiO2 
 PCOD8039091
Probable space group: P -1
;
_chemical_formula_sum "Si O2"
_cell_formula_units_Z 12
_cell_length_a 11.634334
_cell_length_b 14.271745
_cell_length_c 12.043189
_cell_angle_alpha 31.916723
_cell_angle_beta 44.254634
_cell_angle_gamma 41.198038
_cell_volume 678.847275
_symmetry_space_group_name_H-M "P -1"
_symmetry_group_IT_number 2
_symmetry_cell_setting 'triclinic'
loop_
_space_group_symop_operation_xyz
x,y,z
-x,-y,-z
loop_
_atom_site_type_symbol
_atom_site_label
_atom_site_fract_x
_atom_site_fract_y
_atom_site_fract_z
Si Si1 0.003655 0.301716 0.907099
Si Si2 0.945941 0.037445 0.373466
Si Si3 0.363040 0.674402 0.812771
Si Si4 0.494191 0.250864 0.147199
Si Si5 0.849622 0.915228 0.189099
Si Si6 0.886799 0.727706 0.589008
O O1 0.014555 0.501623 0.736579
O O2 0.127224 0.222708 0.793768
O O3 0.062638 0.143952 0.125709
O O4 0.795459 0.342712 0.981717
O O5 0.732786 0.177132 0.370228
O O6 0.981355 0.837941 0.486753
O O7 0.000000 0.000000 0.500000
O O8 0.473458 0.760583 0.729359
O O9 0.483045 0.460444 0.900753
O O10 0.310410 0.227678 0.270641
O O11 0.654693 0.085252 0.140631
O O12 0.868323 0.792891 0.409373
O O13 0.000000 0.000000 0.000000
#
# Coordination Sequence:
#
# PCOD8039091 Si02
#       6
#     2   2   2   2   2   2
#     4   9  20  35  50  85 106 137 184 216 270 317
#     4  10  20  37  58  77 108 144 188 222 254 316
#     4   8  17  34  51  80 108 139 173 219 269 308
#     4  10  18  32  56  80 115 133 177 222 272 329
#     4  12  18  32  54  85 116 139 165 226 286 316
#     4  11  21  34  56  84 106 145 178 219 276 320
#
# _framework density 17.677025
#
# number of rings (size 3 to 8) (size 9 to 14) (size 15 to 20)
#    1.000    1.000    5.000    1.000    0.000    0.667 
#    0.000    0.000    0.000    2.000    0.000    0.000 
#    0.000    0.000    0.000    0.000    0.000    0.000 
#
# Total GULP energy -148694.034181 kJ/mol
# GULP energy per Si atom -12391.169515 kJ/mol
# Density = 1.763679 g / cm^3
# Si number density = 17.677025 Si / 1000 Ang^3
#
#
#
# Elastic Constant Matrix: (Units=GPa)
#
#
# Indices 1 2 3 4 5 6 
#
# 1 73.2350 45.3429 35.1717 -16.3856 22.1392 13.4236
# 2 45.3429 133.9441 56.4848 -20.2989 4.9732 18.0515
# 3 35.1717 56.4848 75.9053 -20.1370 3.3153 16.6428
# 4 -16.3856 -20.2989 -20.1370 29.1078 0.7706 -4.5301
# 5 22.1392 4.9732 3.3153 0.7706 22.7804 3.5033
# 6 13.4236 18.0515 16.6428 -4.5301 3.5033 20.1035
#
#
#
# Elastic Compliance Matrix: (Units=1/GPa)
#
#
# Indices 1 2 3 4 5 6 
#
# 1 0.030935 -0.004849 -0.005911 0.010010 -0.027822 -0.004304
# 2 -0.004849 0.012044 -0.005933 0.001004 0.003379 -0.003028
# 3 -0.005911 -0.005933 0.024352 0.007702 0.004770 -0.009981
# 4 0.010010 0.001004 0.007702 0.046129 -0.012413 -0.001404
# 5 -0.027822 0.003379 0.004770 -0.012413 0.070460 -0.003481
# 6 -0.004304 -0.003028 -0.009981 -0.001404 -0.003481 0.063888
#
#
# Mechanical properties :
#
#
# Convention : Reuss Voigt Hill
#
# Bulk Modulus (GPa) = 29.46016 61.89811 45.67914
# Shear Modulus (GPa) = 17.09347 24.13734 20.61540
#
# Velocity S-wave (km/s) = 3.11302 3.69923 3.41871
# Velocity P-wave (km/s) = 5.44271 7.30328 6.44054
#
# Compressibility (1/GPa) = 0.03394415
#
# Stress axis : x y z
#
# Youngs Moduli (GPa) = 32.32549 83.02794 41.06499
#
# Poissons Ratio (x) = 0.40264 0.24274
# Poissons Ratio (y) = 0.15676 0.24363
# Poissons Ratio (z) = 0.19108 0.49260
#
# Static dielectric constant tensor:
#      x y z
#    x 2.848540 0.004150 -0.130260 
#    y 0.004150 3.389230 -0.249820 
#    z -0.130260 -0.249820 3.395320 
# 
# 
# High freq. dielectric constant tensor:
#      x y z
#    x 1.638010 0.002770 -0.012110 
#    y 0.002770 1.682450 -0.030050 
#    z -0.012110 -0.030050 1.676590 
# 
# From -- ./inp_files/165205.got.cif
#   From: 2010.06.25/outbox.cif.g09.slc.cpg/sg2_83_cif.got.tgz:165205.got - 2010.06.27 13:26:56.
