data_PCOD8039789
_publ_section_title
;
Structure prediction by ZEFSAII (Michael W. Deem and Ramdas Pophale) SiO2 
 PCOD8039789
Probable space group: P -1
;
_chemical_formula_sum "Si O2"
_cell_formula_units_Z 14
_cell_length_a 8.284606
_cell_length_b 11.720827
_cell_length_c 11.167351
_cell_angle_alpha 134.828388
_cell_angle_beta 54.083397
_cell_angle_gamma 114.459163
_cell_volume 622.842512
_symmetry_space_group_name_H-M "P -1"
_symmetry_group_IT_number 2
_symmetry_cell_setting 'triclinic'
loop_
_space_group_symop_operation_xyz
x,y,z
-x,-y,-z
loop_
_atom_site_type_symbol
_atom_site_label
_atom_site_fract_x
_atom_site_fract_y
_atom_site_fract_z
Si Si1 0.606844 0.106489 0.359248
Si Si2 0.505844 0.596385 0.693778
Si Si3 0.811459 0.402155 0.554848
Si Si4 0.161108 0.770372 0.082818
Si Si5 0.688251 0.886333 0.713295
Si Si6 0.106191 0.783254 0.387844
Si Si7 0.745244 0.885437 0.320042
O O1 0.791723 0.232087 0.365966
O O2 0.508890 0.083262 0.256430
O O3 0.446716 0.186119 0.581339
O O4 0.684730 0.934379 0.246835
O O5 0.500000 0.500000 0.500000
O O6 0.611027 0.500142 0.684001
O O7 0.629404 0.762365 0.751298
O O8 0.278556 0.632220 0.858372
O O9 0.835687 0.362502 0.656037
O O10 0.000000 0.500000 0.500000
O O11 0.192291 0.743057 0.190439
O O12 0.926764 0.759017 0.143130
O O13 0.242268 0.945457 0.135378
O O14 0.866958 0.806694 0.499415
O O15 0.198092 0.952170 0.513127
#
# Coordination Sequence:
#
# PCOD8039789 Si02
#       7
#     2   2   2   2   2   2   2
#     4  10  18  34  67  94 128 160 206 257 320 376
#     4  12  26  43  62  87 134 181 210 254 319 385
#     4  11  23  40  63  88 129 180 206 246 325 386
#     4  11  22  40  66 101 124 161 219 268 313 371
#     4  11  19  40  67  95 125 167 207 265 322 376
#     4  10  19  37  70  93 126 162 210 268 318 372
#     4   9  18  35  63 102 126 153 205 273 324 360
#
# _framework density 22.477594
#
# number of rings (size 3 to 8) (size 9 to 14) (size 15 to 20)
#    0.000    1.429    5.714    1.286    0.000    0.571 
#    0.000    5.000    0.000    0.000    0.000    0.000 
#    0.000    0.000    0.000    0.000    0.000    0.000 
#
# Total GULP energy -173565.146469 kJ/mol
# GULP energy per Si atom -12397.510462 kJ/mol
# Density = 2.242643 g / cm^3
# Si number density = 22.477594 Si / 1000 Ang^3
#
#
#
# Elastic Constant Matrix: (Units=GPa)
#
#
# Indices 1 2 3 4 5 6 
#
# 1 112.2179 24.6434 33.9997 3.7593 -17.2484 -18.3531
# 2 24.6434 87.7449 14.0268 -1.7160 -7.3058 -11.9677
# 3 33.9997 14.0268 110.1033 -13.1139 -24.1401 -11.4794
# 4 3.7593 -1.7160 -13.1139 14.8971 -0.4303 -5.3180
# 5 -17.2484 -7.3058 -24.1401 -0.4303 26.1866 0.1109
# 6 -18.3531 -11.9677 -11.4794 -5.3180 0.1109 43.7258
#
#
#
# Elastic Compliance Matrix: (Units=1/GPa)
#
#
# Indices 1 2 3 4 5 6 
#
# 1 0.011460 -0.002101 -0.002400 -0.004003 0.004671 0.003106
# 2 -0.002101 0.012628 0.000308 0.003421 0.002466 0.003065
# 3 -0.002400 0.000308 0.014931 0.015894 0.012509 0.004898
# 4 -0.004003 0.003421 0.015894 0.087968 0.014356 0.014091
# 5 0.004671 0.002466 0.012509 0.014356 0.053688 0.007529
# 6 0.003106 0.003065 0.004898 0.014091 0.007529 0.027993
#
#
# Mechanical properties :
#
#
# Convention : Reuss Voigt Hill
#
# Bulk Modulus (GPa) = 32.64499 50.60066 41.62282
# Shear Modulus (GPa) = 22.00089 32.78832 27.39461
#
# Velocity S-wave (km/s) = 3.13196 3.82345 3.49485
# Velocity P-wave (km/s) = 5.25678 6.48477 5.90279
#
# Compressibility (1/GPa) = 0.03063257
#
# Stress axis : x y z
#
# Youngs Moduli (GPa) = 87.26221 79.19070 66.97605
#
# Poissons Ratio (x) = 0.16634 0.16074
# Poissons Ratio (y) = 0.18330 -0.02061
# Poissons Ratio (z) = 0.20942 -0.02436
#
# Static dielectric constant tensor:
#      x y z
#    x 4.362550 -0.077160 -0.335740 
#    y -0.077160 4.358820 -0.005480 
#    z -0.335740 -0.005480 3.463480 
# 
# 
# High freq. dielectric constant tensor:
#      x y z
#    x 1.900550 -0.006040 -0.020140 
#    y -0.006040 1.900480 -0.003860 
#    z -0.020140 -0.003860 1.823180 
# 
# From -- ./inp_files/158080.got.cif
#   From: 2010.06.25/outbox.cif.g09.slc.cpg/sg2_80_cif.got.tgz:158080.got - 2010.06.27 13:26:56.
