data_PCOD8039912
_publ_section_title
;
Structure prediction by ZEFSAII (Michael W. Deem and Ramdas Pophale) SiO2 
 PCOD8039912
Probable space group: P -1
;
_chemical_formula_sum "Si O2"
_cell_formula_units_Z 16
_cell_length_a 19.492934
_cell_length_b 15.774311
_cell_length_c 9.606139
_cell_angle_alpha 40.391056
_cell_angle_beta 143.846765
_cell_angle_gamma 152.402447
_cell_volume 795.708263
_symmetry_space_group_name_H-M "P -1"
_symmetry_group_IT_number 2
_symmetry_cell_setting 'triclinic'
loop_
_space_group_symop_operation_xyz
x,y,z
-x,-y,-z
loop_
_atom_site_type_symbol
_atom_site_label
_atom_site_fract_x
_atom_site_fract_y
_atom_site_fract_z
Si Si1 0.489193 0.929180 0.723545
Si Si2 0.049156 0.319522 0.795624
Si Si3 0.373096 0.246208 0.840862
Si Si4 0.126111 0.069095 0.891080
Si Si5 0.676860 0.647712 0.902080
Si Si6 0.772507 0.904410 0.496642
Si Si7 0.665452 0.114757 0.043434
Si Si8 0.167798 0.648089 0.735694
O O1 0.311931 0.799753 0.670542
O O2 0.500000 0.000000 0.500000
O O3 0.525887 0.806566 0.922445
O O4 0.627580 0.110335 0.823260
O O5 0.972332 0.354148 0.511453
O O6 0.098488 0.447004 0.850510
O O7 0.213979 0.388301 0.919389
O O8 0.921204 0.104440 0.895607
O O9 0.204754 0.098347 0.835725
O O10 0.486584 0.451216 0.835030
O O11 0.317859 0.236124 0.606256
O O12 0.264419 0.255447 0.973083
O O13 0.967886 0.034250 0.653814
O O14 0.691920 0.780645 0.656269
O O15 0.743161 0.034324 0.288242
O O16 0.785866 0.312313 0.073263
O O17 0.500000 0.000000 0.000000
#
# Coordination Sequence:
#
# PCOD8039912 Si02
#       8
#     2   2   2   2   2   2   2   2
#     4  10  20  35  58  82 119 150 184 237 295 337
#     4  10  20  34  61  84 114 155 191 238 280 345
#     4  11  22  38  57  86 119 149 190 238 293 338
#     4  11  22  37  59  84 118 152 193 233 292 339
#     4  11  21  38  60  89 112 150 199 239 278 344
#     4  10  21  38  62  83 116 151 187 236 291 344
#     4   9  19  35  59  87 111 144 192 239 281 335
#     4  10  18  35  58  85 112 148 199 231 279 339
#
# _framework density 20.107872
#
# number of rings (size 3 to 8) (size 9 to 14) (size 15 to 20)
#    0.000    1.750    1.250    4.875    0.000    1.000 
#    0.000    0.000    2.750    4.500    0.000    0.000 
#    0.000    0.000    0.000    0.000    0.000    0.000 
#
# Total GULP energy -198327.212497 kJ/mol
# GULP energy per Si atom -12395.450781 kJ/mol
# Density = 2.006211 g / cm^3
# Si number density = 20.107872 Si / 1000 Ang^3
#
#
#
# Elastic Constant Matrix: (Units=GPa)
#
#
# Indices 1 2 3 4 5 6 
#
# 1 66.1417 24.5765 30.9144 4.0949 -7.6930 -14.9756
# 2 24.5765 96.4879 11.8398 20.0882 -11.1968 -29.9811
# 3 30.9144 11.8398 72.9878 16.7940 -13.1266 -16.5389
# 4 4.0949 20.0882 16.7940 18.0683 -10.0962 -10.8422
# 5 -7.6930 -11.1968 -13.1266 -10.0962 27.3543 4.3161
# 6 -14.9756 -29.9811 -16.5389 -10.8422 4.3161 40.8922
#
#
#
# Elastic Compliance Matrix: (Units=1/GPa)
#
#
# Indices 1 2 3 4 5 6 
#
# 1 0.022764 -0.006402 -0.010903 0.016217 0.004045 0.003106
# 2 -0.006402 0.017716 0.006045 -0.018997 0.000071 0.008045
# 3 -0.010903 0.006045 0.023831 -0.023210 0.001686 0.003745
# 4 0.016217 -0.018997 -0.023210 0.115511 0.026634 0.010439
# 5 0.004045 0.000071 0.001686 0.026634 0.047694 0.004243
# 6 0.003106 0.008045 0.003745 0.010439 0.004243 0.035325
#
#
# Mechanical properties :
#
#
# Convention : Reuss Voigt Hill
#
# Bulk Modulus (GPa) = 23.93006 41.14208 32.53607
# Shear Modulus (GPa) = 16.70613 28.48209 22.59411
#
# Velocity S-wave (km/s) = 2.88553 3.76768 3.35572
# Velocity P-wave (km/s) = 4.79879 6.27951 5.58841
#
# Compressibility (1/GPa) = 0.04178844
#
# Stress axis : x y z
#
# Youngs Moduli (GPa) = 43.92942 56.44663 41.96221
#
# Poissons Ratio (x) = 0.36138 0.45753
# Poissons Ratio (y) = 0.28124 -0.25364
# Poissons Ratio (z) = 0.47898 -0.34119
#
# Static dielectric constant tensor:
#      x y z
#    x 3.646100 -0.217120 -0.014630 
#    y -0.217120 3.849890 0.282920 
#    z -0.014630 0.282920 3.743010 
# 
# 
# High freq. dielectric constant tensor:
#      x y z
#    x 1.789230 -0.018990 0.012260 
#    y -0.018990 1.783440 0.024980 
#    z 0.012260 0.024980 1.779750 
# 
# From -- ./inp_files/244975.got.cif
#   From: 2010.06.25/outbox.cif.g09.slc.cpg/sg2_123_cif.got.tgz:244975.got - 2010.06.27 13:26:56.
