data_PCOD8039262
_publ_section_title
;
Structure prediction by ZEFSAII (Michael W. Deem and Ramdas Pophale) SiO2 
 PCOD8039262
Probable space group: P -1
;
_chemical_formula_sum "Si O2"
_cell_formula_units_Z 16
_cell_length_a 8.128838
_cell_length_b 21.245674
_cell_length_c 14.339123
_cell_angle_alpha 158.064384
_cell_angle_beta 94.301414
_cell_angle_gamma 87.308394
_cell_volume 920.789674
_symmetry_space_group_name_H-M "P -1"
_symmetry_group_IT_number 2
_symmetry_cell_setting 'triclinic'
loop_
_space_group_symop_operation_xyz
x,y,z
-x,-y,-z
loop_
_atom_site_type_symbol
_atom_site_label
_atom_site_fract_x
_atom_site_fract_y
_atom_site_fract_z
Si Si1 0.600782 0.087557 0.993868
Si Si2 0.390960 0.241549 0.055069
Si Si3 0.531930 0.380146 0.075206
Si Si4 0.841821 0.183508 0.804332
Si Si5 0.417215 0.248360 0.369446
Si Si6 0.195963 0.369929 0.373860
Si Si7 0.120308 0.746546 0.890162
Si Si8 0.208813 0.175916 0.780022
O O1 0.561009 0.185936 0.222650
O O2 0.760827 0.181003 0.085555
O O3 0.455970 0.092139 0.916439
O O4 0.629437 0.892895 0.749232
O O5 0.243419 0.163153 0.875232
O O6 0.535959 0.331339 0.119523
O O7 0.335634 0.387835 0.323567
O O8 0.523726 0.580466 0.338233
O O9 0.701510 0.312473 0.947022
O O10 0.359874 0.297132 0.908860
O O11 0.023951 0.244211 0.853782
O O12 0.780360 0.005027 0.514169
O O13 0.857432 0.153190 0.874190
O O14 0.255203 0.283027 0.350982
O O15 0.135791 0.550382 0.645929
O O16 0.057995 0.239184 0.144105
#
# Coordination Sequence:
#
# PCOD8039262 Si02
#       8
#     2   2   2   2   2   2   2   2
#     4  10  20  31  50  71 107 141 172 201 259 308
#     4   9  17  32  50  75  99 133 166 211 254 302
#     4  10  18  33  55  75 101 138 170 209 259 298
#     4  11  18  33  54  83 104 129 171 221 259 303
#     4  10  20  34  46  73 108 141 167 209 252 311
#     4  10  19  30  50  77 106 124 173 211 260 305
#     4  11  18  30  52  77 100 133 167 216 257 308
#     4   9  21  32  53  82 106 127 171 221 264 294
#
# _framework density 17.376389
#
# number of rings (size 3 to 8) (size 9 to 14) (size 15 to 20)
#    0.750    1.250    3.750    1.125    0.000    2.500 
#    0.000    0.000    0.000    3.000    0.000    3.500 
#    0.000    0.000    0.000    0.000    0.000    0.000 
#
# Total GULP energy -198246.740812 kJ/mol
# GULP energy per Si atom -12390.421301 kJ/mol
# Density = 1.733684 g / cm^3
# Si number density = 17.376389 Si / 1000 Ang^3
#
#
#
# Elastic Constant Matrix: (Units=GPa)
#
#
# Indices 1 2 3 4 5 6 
#
# 1 94.8898 -1.0416 30.0262 8.0725 1.0846 -6.5856
# 2 -1.0416 26.2048 11.8173 12.8030 0.4990 -1.9502
# 3 30.0262 11.8173 90.0250 7.2085 -1.0634 -7.9017
# 4 8.0725 12.8030 7.2085 28.0169 -1.8295 1.4828
# 5 1.0846 0.4990 -1.0634 -1.8295 23.1251 -4.4964
# 6 -6.5856 -1.9502 -7.9017 1.4828 -4.4964 16.6251
#
#
#
# Elastic Compliance Matrix: (Units=1/GPa)
#
#
# Indices 1 2 3 4 5 6 
#
# 1 0.012629 0.005215 -0.004138 -0.005202 -0.000535 0.003967
# 2 0.005215 0.054012 -0.006227 -0.025107 -0.002311 0.007056
# 3 -0.004138 -0.006227 0.013702 0.000391 0.001887 0.004618
# 4 -0.005202 -0.025107 0.000391 0.049208 0.003068 -0.008379
# 5 -0.000535 -0.002311 0.001887 0.003068 0.046099 0.012608
# 6 0.003967 0.007056 0.004618 -0.008379 0.012608 0.068901
#
#
# Mechanical properties :
#
#
# Convention : Reuss Voigt Hill
#
# Bulk Modulus (GPa) = 14.27685 32.52482 23.40084
# Shear Modulus (GPa) = 17.97265 24.90793 21.44029
#
# Velocity S-wave (km/s) = 3.21957 3.79018 3.51647
# Velocity P-wave (km/s) = 4.69626 6.15731 5.47573
#
# Compressibility (1/GPa) = 0.07004346
#
# Stress axis : x y z
#
# Youngs Moduli (GPa) = 79.18073 18.51426 72.98181
#
# Poissons Ratio (x) = -0.09656 0.30203
# Poissons Ratio (y) = -0.41296 0.45447
# Poissons Ratio (z) = 0.32769 0.11529
#
# Static dielectric constant tensor:
#      x y z
#    x 3.454230 -0.118960 -0.066140 
#    y -0.118960 2.970030 -0.131900 
#    z -0.066140 -0.131900 3.110250 
# 
# 
# High freq. dielectric constant tensor:
#      x y z
#    x 1.684510 -0.009700 -0.004820 
#    y -0.009700 1.632010 -0.018960 
#    z -0.004820 -0.018960 1.661290 
# 
# From -- ./inp_files/239089.got.cif
#   From: 2010.06.25/outbox.cif.g09.slc.cpg/sg2_120_cif.got.tgz:239089.got - 2010.06.27 13:26:56.
