data_PCOD8039889
_publ_section_title
;
Structure prediction by ZEFSAII (Michael W. Deem and Ramdas Pophale) SiO2 
 PCOD8039889
Probable space group: P -1
;
_chemical_formula_sum "Si O2"
_cell_formula_units_Z 12
_cell_length_a 12.942868
_cell_length_b 18.646907
_cell_length_c 8.996586
_cell_angle_alpha 140.432569
_cell_angle_beta 40.023060
_cell_angle_gamma 153.543404
_cell_volume 593.894140
_symmetry_space_group_name_H-M "P -1"
_symmetry_group_IT_number 2
_symmetry_cell_setting 'triclinic'
loop_
_space_group_symop_operation_xyz
x,y,z
-x,-y,-z
loop_
_atom_site_type_symbol
_atom_site_label
_atom_site_fract_x
_atom_site_fract_y
_atom_site_fract_z
Si Si1 0.490741 0.313122 0.091849
Si Si2 0.305122 0.975472 0.753633
Si Si3 0.998557 0.348660 0.902477
Si Si4 0.834116 0.655274 0.602695
Si Si5 0.293458 0.965415 0.103802
Si Si6 0.422186 0.688437 0.678122
O O1 0.772440 0.468946 0.985425
O O2 0.349160 0.340560 0.217673
O O3 0.478830 0.315942 0.287144
O O4 0.371618 0.135712 0.883574
O O5 0.037657 0.804807 0.726964
O O6 0.500000 0.000000 0.500000
O O7 0.308837 0.964033 0.907725
O O8 0.046735 0.328377 0.652656
O O9 0.949249 0.213290 0.845619
O O10 0.782297 0.324409 0.086825
O O11 0.688189 0.474167 0.552604
O O12 0.349308 0.125247 0.348033
O O13 0.500000 0.000000 0.000000
#
# Coordination Sequence:
#
# PCOD8039889 Si02
#       6
#     2   2   2   2   2   2
#     4  10  20  34  53  80 109 141 175 212 262 319
#     4  11  21  37  57  78 104 139 178 220 262 311
#     4  10  18  35  58  80 104 140 180 216 254 310
#     4  11  20  34  55  81 107 139 176 217 260 311
#     4   9  19  35  55  81 105 133 177 222 260 306
#     4   9  17  33  55  78 104 140 178 211 253 313
#
# _framework density 20.205621000000001
#
# number of rings (size 3 to 8) (size 9 to 14) (size 15 to 20)
#    0.000    2.000    0.000    8.500    0.000    0.000 
#    0.000   17.500    0.000    2.000    0.000    0.000 
#    0.000    0.000    0.000    0.000    0.000    0.000 
#
# Total GULP energy -148673.289781 kJ/mol
# GULP energy per Si atom -12389.440815 kJ/mol
# Density = 2.015963 g / cm^3
# Si number density = 20.205621 Si / 1000 Ang^3
#
#
#
# Elastic Constant Matrix: (Units=GPa)
#
#
# Indices 1 2 3 4 5 6 
#
# 1 98.9306 55.8523 30.7415 16.6555 -9.6213 3.8124
# 2 55.8523 152.8476 30.5324 58.6144 4.8669 -13.0345
# 3 30.7415 30.5324 62.7324 30.5008 -7.3457 -1.4151
# 4 16.6555 58.6144 30.5008 39.7631 -1.3438 -3.6219
# 5 -9.6213 4.8669 -7.3457 -1.3438 22.4871 5.0870
# 6 3.8124 -13.0345 -1.4151 -3.6219 5.0870 40.0907
#
#
#
# Elastic Compliance Matrix: (Units=1/GPa)
#
#
# Indices 1 2 3 4 5 6 
#
# 1 0.018925 -0.013133 -0.011707 0.020203 0.009653 -0.005883
# 2 -0.013133 0.026236 0.013552 -0.043239 -0.011213 0.007774
# 3 -0.011707 0.013552 0.035727 -0.042196 0.000552 0.002898
# 4 0.020203 -0.043239 -0.042196 0.112413 0.012962 -0.008958
# 5 0.009653 -0.011213 0.000552 0.012962 0.054304 -0.010263
# 6 -0.005883 0.007774 0.002898 -0.008958 -0.010263 0.028626
#
#
# Mechanical properties :
#
#
# Convention : Reuss Voigt Hill
#
# Bulk Modulus (GPa) = 17.14940 60.97367 39.06153
# Shear Modulus (GPa) = 15.71124 33.62714 24.66919
#
# Velocity S-wave (km/s) = 2.79152 4.08394 3.49794
# Velocity P-wave (km/s) = 4.34695 7.24432 5.97395
#
# Compressibility (1/GPa) = 0.05831109
#
# Stress axis : x y z
#
# Youngs Moduli (GPa) = 52.84119 38.11614 27.98965
#
# Poissons Ratio (x) = 0.50059 0.32767
# Poissons Ratio (y) = 0.69398 -0.37931
# Poissons Ratio (z) = 0.61861 -0.51655
#
# Static dielectric constant tensor:
#      x y z
#    x 3.885110 -0.348670 -0.060480 
#    y -0.348670 5.101290 0.571620 
#    z -0.060480 0.571620 3.544510 
# 
# 
# High freq. dielectric constant tensor:
#      x y z
#    x 1.784280 0.002400 -0.024700 
#    y 0.002400 1.817960 0.032350 
#    z -0.024700 0.032350 1.753060 
# 
# From -- ./inp_files/146409.got.cif
#   From: 2010.06.25/outbox.cif.g09.slc.cpg/sg2_74_cif.got.tgz:146409.got - 2010.06.27 13:26:56.
