data_PCOD8039952
_publ_section_title
;
Structure prediction by ZEFSAII (Michael W. Deem and Ramdas Pophale) SiO2 
 PCOD8039952
Probable space group: P -1
;
_chemical_formula_sum "Si O2"
_cell_formula_units_Z 16
_cell_length_a 14.151188
_cell_length_b 12.044984
_cell_length_c 14.168428
_cell_angle_alpha 109.018685
_cell_angle_beta 32.232155
_cell_angle_gamma 130.833292
_cell_volume 805.389724
_symmetry_space_group_name_H-M "P -1"
_symmetry_group_IT_number 2
_symmetry_cell_setting 'triclinic'
loop_
_space_group_symop_operation_xyz
x,y,z
-x,-y,-z
loop_
_atom_site_type_symbol
_atom_site_label
_atom_site_fract_x
_atom_site_fract_y
_atom_site_fract_z
Si Si1 0.770624 0.441287 0.110973
Si Si2 0.251196 0.718635 0.102364
Si Si3 0.774248 0.879169 0.427227
Si Si4 0.292676 0.988598 0.074209
Si Si5 0.744290 0.908361 0.245456
Si Si6 0.782823 0.337997 0.452499
Si Si7 0.378340 0.943256 0.360643
Si Si8 0.825657 0.202387 0.204337
O O1 0.484138 0.316800 0.367623
O O2 0.721538 0.332441 0.033750
O O3 0.000000 0.500000 0.000000
O O4 0.873411 0.622495 0.041324
O O5 0.026731 0.549624 0.314192
O O6 0.168479 0.812744 0.181458
O O7 0.535789 0.850654 0.951442
O O8 0.731685 0.849618 0.343296
O O9 0.794613 0.022172 0.493020
O O10 0.050917 0.949502 0.233002
O O11 0.503910 0.050037 0.833502
O O12 0.510775 0.748344 0.325337
O O13 0.773822 0.063633 0.273530
O O14 0.000000 0.000000 0.000000
O O15 0.805513 0.248812 0.488631
O O16 0.766302 0.281703 0.343802
O O17 0.630332 0.107934 0.254782
#
# Coordination Sequence:
#
# PCOD8039952 Si02
#       8
#     2   2   2   2   2   2   2   2
#     4  11  20  37  66  90 118 154 200 246 300 359
#     4  10  23  44  59  84 124 156 205 251 299 355
#     4  12  21  37  64  90 118 160 204 242 300 357
#     4  11  25  41  60  87 121 162 205 252 291 356
#     4  11  21  34  57  94 125 150 194 251 301 366
#     4  10  19  37  65  81 119 164 192 244 314 343
#     4  11  19  39  62  89 121 158 198 245 301 360
#     4  10  18  35  59  87 121 156 194 239 309 353
#
# _framework density 19.866159
#
# number of rings (size 3 to 8) (size 9 to 14) (size 15 to 20)
#    0.000    1.250    5.000    3.000    0.000    2.000 
#    0.000    4.375    0.000    0.000    0.000    0.000 
#    0.000    0.000    0.000    0.000    0.000    0.000 
#
# Total GULP energy -198262.217036 kJ/mol
# GULP energy per Si atom -12391.388565 kJ/mol
# Density = 1.982094 g / cm^3
# Si number density = 19.866159 Si / 1000 Ang^3
#
#
#
# Elastic Constant Matrix: (Units=GPa)
#
#
# Indices 1 2 3 4 5 6 
#
# 1 69.4502 28.7964 23.2863 -10.5766 -5.3423 -10.8656
# 2 28.7964 85.0627 35.7232 -28.7684 -0.4109 -5.8774
# 3 23.2863 35.7232 98.2358 -14.6831 5.4015 -14.8703
# 4 -10.5766 -28.7684 -14.6831 41.8961 -8.5487 9.0817
# 5 -5.3423 -0.4109 5.4015 -8.5487 32.6785 2.8367
# 6 -10.8656 -5.8774 -14.8703 9.0817 2.8367 28.9210
#
#
#
# Elastic Compliance Matrix: (Units=1/GPa)
#
#
# Indices 1 2 3 4 5 6 
#
# 1 0.018027 -0.004930 -0.001947 0.000097 0.002845 0.004460
# 2 -0.004930 0.019273 -0.004952 0.012035 0.003805 -0.004634
# 3 -0.001947 -0.004952 0.013334 -0.001173 -0.003397 0.005820
# 4 0.000097 0.012035 -0.001173 0.036227 0.010754 -0.010552
# 5 0.002845 0.003805 -0.003397 0.010754 0.035072 -0.006721
# 6 0.004460 -0.004634 0.005820 -0.010552 -0.006721 0.042276
#
#
# Mechanical properties :
#
#
# Convention : Reuss Voigt Hill
#
# Bulk Modulus (GPa) = 37.07000 47.59561 42.33280
# Shear Modulus (GPa) = 25.39857 31.69532 28.54694
#
# Velocity S-wave (km/s) = 3.57947 3.99863 3.79484
# Velocity P-wave (km/s) = 5.98196 6.73267 6.36839
#
# Compressibility (1/GPa) = 0.02697599
#
# Stress axis : x y z
#
# Youngs Moduli (GPa) = 55.47103 51.88552 74.99495
#
# Poissons Ratio (x) = 0.25582 0.14603
# Poissons Ratio (y) = 0.27350 0.37136
# Poissons Ratio (z) = 0.10801 0.25693
#
# Static dielectric constant tensor:
#      x y z
#    x 3.545930 -0.143460 0.169440 
#    y -0.143460 3.810220 -0.231020 
#    z 0.169440 -0.231020 3.910040 
# 
# 
# High freq. dielectric constant tensor:
#      x y z
#    x 1.768010 -0.007110 0.020130 
#    y -0.007110 1.766110 -0.016690 
#    z 0.020130 -0.016690 1.779740 
# 
# From -- ./inp_files/455691.got.cif
#   From: 2010.06.25/outbox.cif.g09.slc.cpg/sg2_228_cif.got.tgz:455691.got - 2010.06.27 13:26:56.
