data_PCOD8039354
_publ_section_title
;
Structure prediction by ZEFSAII (Michael W. Deem and Ramdas Pophale) SiO2 
 PCOD8039354
Probable space group: P -1
;
_chemical_formula_sum "Si O2"
_cell_formula_units_Z 14
_cell_length_a 9.667226
_cell_length_b 13.364840
_cell_length_c 15.349961
_cell_angle_alpha 137.352467
_cell_angle_beta 45.936073
_cell_angle_gamma 101.216781
_cell_volume 732.704219
_symmetry_space_group_name_H-M "P -1"
_symmetry_group_IT_number 2
_symmetry_cell_setting 'triclinic'
loop_
_space_group_symop_operation_xyz
x,y,z
-x,-y,-z
loop_
_atom_site_type_symbol
_atom_site_label
_atom_site_fract_x
_atom_site_fract_y
_atom_site_fract_z
Si Si1 0.885456 0.753765 0.946808
Si Si2 0.746171 0.700399 0.464807
Si Si3 0.674365 0.274916 0.281874
Si Si4 0.192898 0.279181 0.742893
Si Si5 0.489821 0.054807 0.913384
Si Si6 0.765335 0.991053 0.320820
Si Si7 0.769363 0.052709 0.934201
O O1 0.064440 0.523483 0.734235
O O2 0.041847 0.814379 0.872448
O O3 0.657962 0.814357 0.023405
O O4 0.777435 0.866313 0.157066
O O5 0.452169 0.784206 0.636552
O O6 0.832841 0.728983 0.355038
O O7 0.722331 0.832598 0.637272
O O8 0.500000 0.500000 0.500000
O O9 0.659521 0.232128 0.160394
O O10 0.134001 0.150481 0.729809
O O11 0.477154 0.188607 0.586340
O O12 0.000000 0.500000 0.000000
O O13 0.618631 0.125863 0.954722
O O14 0.279837 0.081543 0.084948
O O15 0.934599 0.054570 0.278275
#
# Coordination Sequence:
#
# PCOD8039354 Si02
#       7
#     2   2   2   2   2   2   2
#     4  10  18  33  58  83 106 141 183 224 277 323
#     4  10  19  33  54  81 111 142 182 229 268 322
#     4   8  17  31  53  84 109 133 178 225 269 321
#     4  11  21  35  57  83 109 141 187 236 272 307
#     4  10  20  36  57  81 116 149 171 218 278 337
#     4  10  21  36  57  84 106 142 188 230 270 317
#     4   9  20  37  55  82 117 144 177 219 278 331
#
# _framework density 19.107301
#
# number of rings (size 3 to 8) (size 9 to 14) (size 15 to 20)
#    0.000    2.286    2.857    0.000    2.000    1.714 
#    0.000   13.571    0.000    1.714    0.000    0.000 
#    0.000    0.000    0.000    0.000    0.000    0.000 
#
# Total GULP energy -173465.481136 kJ/mol
# GULP energy per Si atom -12390.391510 kJ/mol
# Density = 1.906381 g / cm^3
# Si number density = 19.107301 Si / 1000 Ang^3
#
#
#
# Elastic Constant Matrix: (Units=GPa)
#
#
# Indices 1 2 3 4 5 6 
#
# 1 111.6476 19.7535 36.0527 1.3328 1.0358 -6.8074
# 2 19.7535 56.8766 28.0864 -10.9950 0.5117 -7.7404
# 3 36.0527 28.0864 107.0303 -0.8762 -6.6421 1.8240
# 4 1.3328 -10.9950 -0.8762 26.6977 -4.4294 1.6735
# 5 1.0358 0.5117 -6.6421 -4.4294 21.5228 -2.7643
# 6 -6.8074 -7.7404 1.8240 1.6735 -2.7643 22.7581
#
#
#
# Elastic Compliance Matrix: (Units=1/GPa)
#
#
# Indices 1 2 3 4 5 6 
#
# 1 0.010545 -0.002099 -0.003154 -0.001907 -0.001483 0.002653
# 2 -0.002099 0.023866 -0.005561 0.009407 0.000695 0.007328
# 3 -0.003154 -0.005561 0.012125 -0.000962 0.003401 -0.003323
# 4 -0.001907 0.009407 -0.000962 0.042759 0.008446 0.000588
# 5 -0.001483 0.000695 0.003401 0.008446 0.049943 0.004965
# 6 0.002653 0.007328 -0.003323 0.000588 0.004965 0.048053
#
#
# Mechanical properties :
#
#
# Convention : Reuss Voigt Hill
#
# Bulk Modulus (GPa) = 40.14679 49.25995 44.70337
# Shear Modulus (GPa) = 23.01814 26.97316 24.99565
#
# Velocity S-wave (km/s) = 3.47461 3.76129 3.62079
# Velocity P-wave (km/s) = 6.09541 6.68579 6.39742
#
# Compressibility (1/GPa) = 0.02490859
#
# Stress axis : x y z
#
# Youngs Moduli (GPa) = 94.83270 41.90005 82.47713
#
# Poissons Ratio (x) = 0.08795 0.26014
# Poissons Ratio (y) = 0.19905 0.45862
# Poissons Ratio (z) = 0.29911 0.23299
#
# Static dielectric constant tensor:
#      x y z
#    x 3.515920 0.037350 -0.073140 
#    y 0.037350 3.705820 -0.236050 
#    z -0.073140 -0.236050 3.741000 
# 
# 
# High freq. dielectric constant tensor:
#      x y z
#    x 1.719030 -0.011890 0.001020 
#    y -0.011890 1.728330 -0.009340 
#    z 0.001020 -0.009340 1.752750 
# 
# From -- ./inp_files/187266.got.cif
#   From: 2010.06.25/outbox.cif.g09.slc.cpg/sg2_94_cif.got.tgz:187266.got - 2010.06.27 13:26:56.
