data_PCOD8039981
_publ_section_title
;
Structure prediction by ZEFSAII (Michael W. Deem and Ramdas Pophale) SiO2 
 PCOD8039981
Probable space group: P -1
;
_chemical_formula_sum "Si O2"
_cell_formula_units_Z 16
_cell_length_a 9.874311
_cell_length_b 15.680565
_cell_length_c 15.803567
_cell_angle_alpha 35.986516
_cell_angle_beta 36.662932
_cell_angle_gamma 44.880893
_cell_volume 846.089757
_symmetry_space_group_name_H-M "P -1"
_symmetry_group_IT_number 2
_symmetry_cell_setting 'triclinic'
loop_
_space_group_symop_operation_xyz
x,y,z
-x,-y,-z
loop_
_atom_site_type_symbol
_atom_site_label
_atom_site_fract_x
_atom_site_fract_y
_atom_site_fract_z
Si Si1 0.749606 0.881410 0.158830
Si Si2 0.120718 0.622732 0.886423
Si Si3 0.744361 0.722093 0.122578
Si Si4 0.233541 0.789320 0.072916
Si Si5 0.400077 0.691885 0.544917
Si Si6 0.389476 0.420577 0.045008
Si Si7 0.678402 0.368828 0.672849
Si Si8 0.903099 0.400480 0.368278
O O1 0.733330 0.855217 0.087327
O O2 0.553686 0.818192 0.360040
O O3 0.995788 0.801930 0.132302
O O4 0.708440 0.054372 0.054849
O O5 0.221104 0.725055 0.685883
O O6 0.326646 0.538859 0.907355
O O7 0.000000 0.500000 0.000000
O O8 0.939089 0.730521 0.947851
O O9 0.502819 0.731628 0.188083
O O10 0.804433 0.572597 0.266709
O O11 0.213485 0.691282 0.244508
O O12 0.433425 0.716838 0.968004
O O13 0.552901 0.535065 0.613674
O O14 0.257117 0.691724 0.530094
O O15 0.165777 0.359351 0.240053
O O16 0.500000 0.500000 0.000000
O O17 0.885049 0.361708 0.507207
#
# Coordination Sequence:
#
# PCOD8039981 Si02
#       8
#     2   2   2   2   2   2   2   2
#     4  11  24  42  57  80 124 162 190 229 303 349
#     4  11  18  33  60  93 117 147 193 245 286 337
#     4  10  18  35  60  87 119 154 186 236 297 342
#     4  11  25  41  57  85 121 157 191 241 287 353
#     4  11  19  36  63  89 115 154 194 242 286 340
#     4  11  22  37  59  88 120 149 189 241 296 340
#     4  11  19  35  63  91 114 143 205 246 273 337
#     4  10  19  34  61  92 118 141 194 253 289 322
#
# _framework density 18.910523999999999
#
# number of rings (size 3 to 8) (size 9 to 14) (size 15 to 20)
#    0.000    1.250    7.500    2.250    0.000    2.000 
#    0.000    1.875    0.000    3.750    0.000    0.000 
#    0.000    0.000    0.000    0.000    0.000    0.000 
#
# Total GULP energy -198447.064073 kJ/mol
# GULP energy per Si atom -12402.941505 kJ/mol
# Density = 1.886748 g / cm^3
# Si number density = 18.910524 Si / 1000 Ang^3
#
#
#
# Elastic Constant Matrix: (Units=GPa)
#
#
# Indices 1 2 3 4 5 6 
#
# 1 54.8545 15.7064 4.5913 -2.1652 6.0954 7.7169
# 2 15.7064 69.7058 25.7216 20.1160 3.8089 10.7764
# 3 4.5913 25.7216 93.0316 22.0055 2.9671 7.1582
# 4 -2.1652 20.1160 22.0055 26.6847 6.5734 0.6874
# 5 6.0954 3.8089 2.9671 6.5734 31.3132 2.4955
# 6 7.7169 10.7764 7.1582 0.6874 2.4955 27.0145
#
#
#
# Elastic Compliance Matrix: (Units=1/GPa)
#
#
# Indices 1 2 3 4 5 6 
#
# 1 0.021386 -0.006144 -0.000951 0.008426 -0.004841 -0.003173
# 2 -0.006144 0.021790 -0.001489 -0.016170 0.002589 -0.006370
# 3 -0.000951 -0.001489 0.013902 -0.010723 0.001514 -0.002685
# 4 0.008426 -0.016170 -0.010723 0.062029 -0.012191 0.006433
# 5 -0.004841 0.002589 0.001514 -0.012191 0.035217 -0.002994
# 6 -0.003173 -0.006370 -0.002685 0.006433 -0.002994 0.041289
#
#
# Mechanical properties :
#
#
# Convention : Reuss Voigt Hill
#
# Bulk Modulus (GPa) = 25.05645 34.40338 29.72992
# Shear Modulus (GPa) = 22.11564 28.44065 25.27815
#
# Velocity S-wave (km/s) = 3.42349 3.88230 3.66009
# Velocity P-wave (km/s) = 5.37641 6.19100 5.79803
#
# Compressibility (1/GPa) = 0.03990988
#
# Stress axis : x y z
#
# Youngs Moduli (GPa) = 46.75988 45.89329 71.93016
#
# Poissons Ratio (x) = 0.28198 0.06841
# Poissons Ratio (y) = 0.28730 0.10708
# Poissons Ratio (z) = 0.04447 0.06832
#
# Static dielectric constant tensor:
#      x y z
#    x 3.584600 0.048460 -0.006920 
#    y 0.048460 3.309940 0.313010 
#    z -0.006920 0.313010 3.494600 
# 
# 
# High freq. dielectric constant tensor:
#      x y z
#    x 1.743430 0.011170 -0.000320 
#    y 0.011170 1.713650 0.029640 
#    z -0.000320 0.029640 1.730670 
# 
# From -- ./inp_files/207818.got.cif
#   From: 2010.06.25/outbox.cif.g09.slc.cpg/sg2_104_cif.got.tgz:207818.got - 2010.06.27 13:26:56.
