data_PCOD8039308
_publ_section_title
;
Structure prediction by ZEFSAII (Michael W. Deem and Ramdas Pophale) SiO2 
 PCOD8039308
Probable space group: P -1
;
_chemical_formula_sum "Si O2"
_cell_formula_units_Z 16
_cell_length_a 13.918654
_cell_length_b 22.482605
_cell_length_c 9.675927
_cell_angle_alpha 132.583875
_cell_angle_beta 48.636791
_cell_angle_gamma 157.694633
_cell_volume 839.560816
_symmetry_space_group_name_H-M "P -1"
_symmetry_group_IT_number 2
_symmetry_cell_setting 'triclinic'
loop_
_space_group_symop_operation_xyz
x,y,z
-x,-y,-z
loop_
_atom_site_type_symbol
_atom_site_label
_atom_site_fract_x
_atom_site_fract_y
_atom_site_fract_z
Si Si1 0.721856 0.757152 0.473643
Si Si2 0.557865 0.539672 0.850263
Si Si3 0.716638 0.897506 0.482103
Si Si4 0.591809 0.368700 0.836136
Si Si5 0.989742 0.411839 0.014268
Si Si6 0.202159 0.523476 0.710891
Si Si7 0.948946 0.629347 0.663251
Si Si8 0.359472 0.846474 0.834936
O O1 0.658933 0.630827 0.290734
O O2 0.724010 0.819782 0.441920
O O3 0.498816 0.660322 0.639419
O O4 0.003232 0.913037 0.517736
O O5 0.840747 0.655587 0.746854
O O6 0.500000 0.500000 0.000000
O O7 0.548134 0.628759 0.960033
O O8 0.603782 0.808353 0.301649
O O9 0.544111 0.870297 0.680291
O O10 0.757542 0.482848 0.723016
O O11 0.756905 0.419669 0.881514
O O12 0.804481 0.384543 0.109674
O O13 0.850571 0.277334 0.041378
O O14 0.068411 0.408830 0.791964
O O15 0.042497 0.421397 0.561313
O O16 0.224150 0.789978 0.726312
O O17 0.500000 0.000000 0.000000
#
# Coordination Sequence:
#
# PCOD8039308 Si02
#       8
#     2   2   2   2   2   2   2   2
#     4  10  20  32  53  84 112 144 181 229 278 328
#     4   9  16  31  52  77 109 141 182 229 270 319
#     4  11  20  32  55  83 115 141 182 231 281 320
#     4  10  18  33  56  84 107 145 192 228 271 323
#     4  10  21  34  60  80 111 145 189 232 268 336
#     4  10  18  39  56  82 108 148 189 224 278 332
#     4   9  18  33  55  76 110 142 187 229 268 327
#     4  11  23  35  55  88 113 143 184 237 281 320
#
# _framework density 19.057583999999999
#
# number of rings (size 3 to 8) (size 9 to 14) (size 15 to 20)
#    0.000    2.000    5.000    0.750    5.250    2.000 
#    0.000    3.750    0.000    0.000    0.000    0.000 
#    0.000    0.000    0.000    0.000    0.000    0.000 
#
# Total GULP energy -198229.242670 kJ/mol
# GULP energy per Si atom -12389.327667 kJ/mol
# Density = 1.901421 g / cm^3
# Si number density = 19.057584 Si / 1000 Ang^3
#
#
#
# Elastic Constant Matrix: (Units=GPa)
#
#
# Indices 1 2 3 4 5 6 
#
# 1 48.9364 29.5714 29.4935 2.3958 2.8056 11.8069
# 2 29.5714 95.5929 56.8508 11.1626 9.2379 22.9075
# 3 29.4935 56.8508 113.8564 2.5137 6.2335 3.4342
# 4 2.3958 11.1626 2.5137 32.0851 -0.3883 3.2961
# 5 2.8056 9.2379 6.2335 -0.3883 32.3952 3.1686
# 6 11.8069 22.9075 3.4342 3.2961 3.1686 23.3898
#
#
#
# Elastic Compliance Matrix: (Units=1/GPa)
#
#
# Indices 1 2 3 4 5 6 
#
# 1 0.028045 -0.002978 -0.005498 0.000465 0.000517 -0.010569
# 2 -0.002978 0.022072 -0.009468 -0.004929 -0.002544 -0.017685
# 3 -0.005498 -0.009468 0.014638 0.001548 -0.000576 0.009759
# 4 0.000465 -0.004929 0.001548 0.032791 0.001505 -0.000459
# 5 0.000517 -0.002544 -0.000576 0.001505 0.031895 -0.002218
# 6 -0.010569 -0.017685 0.009759 -0.000459 -0.002218 0.064341
#
#
# Mechanical properties :
#
#
# Convention : Reuss Voigt Hill
#
# Bulk Modulus (GPa) = 34.64063 54.46859 44.55461
# Shear Modulus (GPa) = 20.89485 27.07203 23.98344
#
# Velocity S-wave (km/s) = 3.31479 3.77309 3.55134
# Velocity P-wave (km/s) = 5.73295 6.90107 6.34395
#
# Compressibility (1/GPa) = 0.02886783
#
# Stress axis : x y z
#
# Youngs Moduli (GPa) = 35.65691 45.30533 68.31556
#
# Poissons Ratio (x) = 0.13490 0.37559
# Poissons Ratio (y) = 0.10617 0.64684
# Poissons Ratio (z) = 0.19604 0.42897
#
# Static dielectric constant tensor:
#      x y z
#    x 4.289250 0.371340 -0.889190 
#    y 0.371340 3.436220 -0.012390 
#    z -0.889190 -0.012390 4.474140 
# 
# 
# High freq. dielectric constant tensor:
#      x y z
#    x 1.728650 0.029010 -0.011970 
#    y 0.029010 1.707820 0.006710 
#    z -0.011970 0.006710 1.747920 
# 
# From -- ./inp_files/267790.got.cif
#   From: 2010.06.25/outbox.cif.g09.slc.cpg/sg2_134_cif.got.tgz:267790.got - 2010.06.27 13:26:56.
