data_PCOD8039580
_publ_section_title
;
Structure prediction by ZEFSAII (Michael W. Deem and Ramdas Pophale) SiO2 
 PCOD8039580
Probable space group: P -1
;
_chemical_formula_sum "Si O2"
_cell_formula_units_Z 16
_cell_length_a 14.212466
_cell_length_b 14.721622
_cell_length_c 17.502807
_cell_angle_alpha 38.998295
_cell_angle_beta 21.630393
_cell_angle_gamma 39.670839
_cell_volume 831.665215
_symmetry_space_group_name_H-M "P -1"
_symmetry_group_IT_number 2
_symmetry_cell_setting 'triclinic'
loop_
_space_group_symop_operation_xyz
x,y,z
-x,-y,-z
loop_
_atom_site_type_symbol
_atom_site_label
_atom_site_fract_x
_atom_site_fract_y
_atom_site_fract_z
Si Si1 0.942874 0.665072 0.826088
Si Si2 0.740221 0.322280 0.749170
Si Si3 0.324608 0.563059 0.990572
Si Si4 0.792521 0.598526 0.289467
Si Si5 0.369213 0.155411 0.191264
Si Si6 0.362879 0.822790 0.393655
Si Si7 0.284924 0.316206 0.298584
Si Si8 0.555650 0.360865 0.698487
O O1 0.803991 0.719278 0.814245
O O2 0.139613 0.509715 0.763773
O O3 0.110319 0.782728 0.653096
O O4 0.747483 0.634994 0.058575
O O5 0.544554 0.469135 0.830622
O O6 0.724183 0.302955 0.682949
O O7 0.043398 0.323399 0.534973
O O8 0.665396 0.178948 0.940079
O O9 0.450658 0.695614 0.843323
O O10 0.244660 0.467317 0.182417
O O11 0.057741 0.631889 0.103379
O O12 0.626472 0.754077 0.284648
O O13 0.612575 0.522098 0.531182
O O14 0.301264 0.180435 0.315747
O O15 0.333011 0.996677 0.296245
O O16 0.353221 0.758018 0.358499
#
# Coordination Sequence:
#
# PCOD8039580 Si02
#       8
#     2   2   2   2   2   2   2   2
#     4  10  19  37  55  77 107 140 187 220 250 308
#     4  10  18  34  57  82 107 127 182 228 260 307
#     4  10  19  33  56  85 101 135 174 228 269 308
#     4  11  20  37  51  82 112 136 177 221 261 317
#     4  10  21  37  52  82 109 140 179 219 255 317
#     4  11  24  33  53  78 115 147 173 209 264 322
#     4  10  18  34  59  77 107 133 177 225 270 302
#     4  10  19  34  55  79 106 142 174 218 264 300
#
# _framework density 19.238510999999999
#
# number of rings (size 3 to 8) (size 9 to 14) (size 15 to 20)
#    0.000    1.750    5.000    3.000    0.000    5.000 
#    0.000    0.625    0.000    0.750    0.000    0.000 
#    0.000    0.000    0.000    0.000    0.000    0.000 
#
# Total GULP energy -198321.500283 kJ/mol
# GULP energy per Si atom -12395.093768 kJ/mol
# Density = 1.919472 g / cm^3
# Si number density = 19.238511 Si / 1000 Ang^3
#
#
#
# Elastic Constant Matrix: (Units=GPa)
#
#
# Indices 1 2 3 4 5 6 
#
# 1 60.1673 14.4333 24.0757 1.9612 -13.5714 10.6773
# 2 14.4333 47.3887 15.2654 -1.0536 -2.3250 6.2569
# 3 24.0757 15.2654 132.6750 12.5090 -9.0983 2.8833
# 4 1.9612 -1.0536 12.5090 12.2260 2.6807 -2.1459
# 5 -13.5714 -2.3250 -9.0983 2.6807 26.6535 -0.6277
# 6 10.6773 6.2569 2.8833 -2.1459 -0.6277 18.3357
#
#
#
# Elastic Compliance Matrix: (Units=1/GPa)
#
#
# Indices 1 2 3 4 5 6 
#
# 1 0.023427 -0.004453 -0.002083 -0.006607 0.011207 -0.012185
# 2 -0.004453 0.023874 -0.002394 0.004749 -0.001590 -0.004676
# 3 -0.002083 -0.002394 0.009365 -0.010192 0.002940 -0.000535
# 4 -0.006607 0.004749 -0.010192 0.099851 -0.016119 0.014963
# 5 0.011207 -0.001590 0.002940 -0.016119 0.045552 -0.006773
# 6 -0.012185 -0.004676 -0.000535 0.014963 -0.006773 0.064833
#
#
# Mechanical properties :
#
#
# Convention : Reuss Voigt Hill
#
# Bulk Modulus (GPa) = 25.76807 38.64222 32.20515
# Shear Modulus (GPa) = 16.79560 23.87347 20.33454
#
# Velocity S-wave (km/s) = 2.95790 3.52649 3.25464
# Velocity P-wave (km/s) = 5.00885 6.05896 5.55876
#
# Compressibility (1/GPa) = 0.03880772
#
# Stress axis : x y z
#
# Youngs Moduli (GPa) = 42.68515 41.88571 106.78281
#
# Poissons Ratio (x) = 0.18650 0.22239
# Poissons Ratio (y) = 0.19006 0.25565
# Poissons Ratio (z) = 0.08890 0.10028
#
# Static dielectric constant tensor:
#      x y z
#    x 3.483540 0.167830 -0.177630 
#    y 0.167830 3.000800 -0.001620 
#    z -0.177630 -0.001620 3.973410 
# 
# 
# High freq. dielectric constant tensor:
#      x y z
#    x 1.735970 0.016060 -0.012920 
#    y 0.016060 1.694130 0.005010 
#    z -0.012920 0.005010 1.775220 
# 
# From -- ./inp_files/529925.got.cif
#   From: 2010.06.25/outbox.cif.g09.slc.cpg/sg2_265_cif.got.tgz:529925.got - 2010.06.27 13:26:56.
