data_PCOD8039182
_publ_section_title
;
Structure prediction by ZEFSAII (Michael W. Deem and Ramdas Pophale) SiO2 
 PCOD8039182
Probable space group: P -1
;
_chemical_formula_sum "Si O2"
_cell_formula_units_Z 16
_cell_length_a 9.643079
_cell_length_b 16.356110
_cell_length_c 11.185466
_cell_angle_alpha 96.475455
_cell_angle_beta 112.244264
_cell_angle_gamma 32.793005
_cell_volume 806.709808
_symmetry_space_group_name_H-M "P -1"
_symmetry_group_IT_number 2
_symmetry_cell_setting 'triclinic'
loop_
_space_group_symop_operation_xyz
x,y,z
-x,-y,-z
loop_
_atom_site_type_symbol
_atom_site_label
_atom_site_fract_x
_atom_site_fract_y
_atom_site_fract_z
Si Si1 0.728175 0.574867 0.885730
Si Si2 0.821614 0.954500 0.589874
Si Si3 0.404171 0.469300 0.626108
Si Si4 0.151290 0.906188 0.868066
Si Si5 0.841642 0.757950 0.633035
Si Si6 0.825163 0.375938 0.045647
Si Si7 0.581682 0.349599 0.407505
Si Si8 0.134117 0.807589 0.076001
O O1 0.442988 0.763624 0.860426
O O2 0.675539 0.583197 0.729355
O O3 0.760129 0.471135 0.937377
O O4 0.000000 0.500000 0.000000
O O5 0.823823 0.864651 0.636820
O O6 0.877271 0.993938 0.720414
O O7 0.076513 0.839988 0.549741
O O8 0.485822 0.129574 0.457127
O O9 0.516902 0.365787 0.529150
O O10 0.473487 0.531155 0.632985
O O11 0.576937 0.354527 0.779129
O O12 0.049739 0.625613 0.569161
O O13 0.231106 0.821015 0.002292
O O14 0.094934 0.030163 0.891532
O O15 0.990781 0.668247 0.795345
O O16 0.500000 0.500000 0.000000
O O17 0.008525 0.209491 0.024501
#
# Coordination Sequence:
#
# PCOD8039182 Si02
#       8
#     2   2   2   2   2   2   2   2
#     4  11  22  41  61  87 121 156 200 247 297 357
#     4   9  18  36  56  83 120 150 192 244 300 351
#     4  10  18  35  59  88 111 153 202 242 290 359
#     4  10  21  39  59  87 120 155 191 252 306 342
#     4  10  18  32  61  90 108 149 206 249 281 345
#     4  12  18  38  67  86 111 160 211 241 288 363
#     4   9  19  37  60  80 118 161 191 235 305 361
#     4  11  20  36  64  88 112 154 202 246 292 356
#
# _framework density 19.833649000000001
#
# number of rings (size 3 to 8) (size 9 to 14) (size 15 to 20)
#    0.000    1.750    5.000    0.750    0.000    0.000 
#    9.000    3.750    0.000    0.000    0.000    0.000 
#    0.000    0.000    0.000    0.000    0.000    0.000 
#
# Total GULP energy -198278.101199 kJ/mol
# GULP energy per Si atom -12392.381325 kJ/mol
# Density = 1.978851 g / cm^3
# Si number density = 19.833649 Si / 1000 Ang^3
#
#
#
# Elastic Constant Matrix: (Units=GPa)
#
#
# Indices 1 2 3 4 5 6 
#
# 1 45.3686 32.3401 39.1714 4.2296 15.8170 -6.8442
# 2 32.3401 103.2920 49.4931 14.9834 0.9048 -3.1543
# 3 39.1714 49.4931 144.0810 3.8070 11.2447 -27.4093
# 4 4.2296 14.9834 3.8070 34.9188 -3.1813 -0.0367
# 5 15.8170 0.9048 11.2447 -3.1813 27.1322 -2.7870
# 6 -6.8442 -3.1543 -27.4093 -0.0367 -2.7870 24.1325
#
#
#
# Elastic Compliance Matrix: (Units=1/GPa)
#
#
# Indices 1 2 3 4 5 6 
#
# 1 0.042365 -0.009751 -0.006167 -0.002275 -0.021960 0.001197
# 2 -0.009751 0.014911 -0.003618 -0.004304 0.005743 -0.004269
# 3 -0.006167 -0.003618 0.012002 0.001006 0.000032 0.011416
# 4 -0.002275 -0.004304 0.001006 0.031084 0.004752 0.000531
# 5 -0.021960 0.005743 0.000032 0.004752 0.050047 0.000346
# 6 0.001197 -0.004269 0.011416 0.000531 0.000346 0.054226
#
#
# Mechanical properties :
#
#
# Convention : Reuss Voigt Hill
#
# Bulk Modulus (GPa) = 33.10304 59.41675 46.25989
# Shear Modulus (GPa) = 19.70246 28.68584 24.19415
#
# Velocity S-wave (km/s) = 3.15522 3.80718 3.49643
# Velocity P-wave (km/s) = 5.47727 7.02487 6.29878
#
# Compressibility (1/GPa) = 0.03020871
#
# Stress axis : x y z
#
# Youngs Moduli (GPa) = 23.60418 67.06319 83.31620
#
# Poissons Ratio (x) = 0.65390 0.51380
# Poissons Ratio (y) = 0.23015 0.30142
# Poissons Ratio (z) = 0.14556 0.24262
#
# Static dielectric constant tensor:
#      x y z
#    x 4.930220 -0.130880 1.747040 
#    y -0.130880 4.006160 0.065510 
#    z 1.747040 0.065510 5.585730 
# 
# 
# High freq. dielectric constant tensor:
#      x y z
#    x 1.737320 0.007900 -0.008200 
#    y 0.007900 1.778200 0.008040 
#    z -0.008200 0.008040 1.783070 
# 
# From -- ./inp_files/354304.got.cif
#   From: 2010.06.25/outbox.cif.g09.slc.cpg/sg2_178_cif.got.tgz:354304.got - 2010.06.27 13:26:56.
