data_PCOD8039483
_publ_section_title
;
Structure prediction by ZEFSAII (Michael W. Deem and Ramdas Pophale) SiO2 
 PCOD8039483
Probable space group: P -1
;
_chemical_formula_sum "Si O2"
_cell_formula_units_Z 16
_cell_length_a 8.997018
_cell_length_b 15.594632
_cell_length_c 11.786668
_cell_angle_alpha 48.668802
_cell_angle_beta 48.683920
_cell_angle_gamma 68.024668
_cell_volume 927.068218
_symmetry_space_group_name_H-M "P -1"
_symmetry_group_IT_number 2
_symmetry_cell_setting 'triclinic'
loop_
_space_group_symop_operation_xyz
x,y,z
-x,-y,-z
loop_
_atom_site_type_symbol
_atom_site_label
_atom_site_fract_x
_atom_site_fract_y
_atom_site_fract_z
Si Si1 0.261362 0.375334 0.203889
Si Si2 0.752447 0.911698 0.261324
Si Si3 0.176990 0.869677 0.110248
Si Si4 0.922209 0.182960 0.550240
Si Si5 0.549637 0.222225 0.118969
Si Si6 0.653037 0.377948 0.121443
Si Si7 0.251695 0.026386 0.532506
Si Si8 0.321962 0.803622 0.562508
O O1 0.369216 0.301527 0.118435
O O2 0.413860 0.392061 0.220695
O O3 0.054415 0.303777 0.406443
O O4 0.219759 0.498583 0.067517
O O5 0.747349 0.976421 0.328777
O O6 0.559449 0.823657 0.416859
O O7 0.942700 0.838778 0.226029
O O8 0.761919 0.000609 0.075053
O O9 0.210671 0.857066 0.238461
O O10 0.320020 0.786824 0.050912
O O11 0.772736 0.198682 0.510810
O O12 0.062133 0.085362 0.532202
O O13 0.698207 0.285691 0.082590
O O14 0.455635 0.097665 0.322124
O O15 0.720841 0.324261 0.251661
O O16 0.235947 0.898711 0.602097
#
# Coordination Sequence:
#
# PCOD8039483 Si02
#       8
#     2   2   2   2   2   2   2   2
#     4   8  18  37  54  78  95 125 174 218 245 282
#     4  10  19  31  51  75 102 130 170 210 237 294
#     4  10  19  32  49  72 105 137 160 200 253 298
#     4  10  22  33  47  74 113 136 157 197 255 309
#     4   9  15  32  58  73  95 127 167 213 247 285
#     4   9  17  32  61  77  92 122 179 218 248 269
#     4  10  18  34  52  77 101 127 171 210 246 289
#     4  12  19  30  54  78 102 134 165 203 251 302
#
# _framework density 17.258707999999999
#
# number of rings (size 3 to 8) (size 9 to 14) (size 15 to 20)
#    0.750    1.500    2.500    2.250    0.000    1.000 
#    0.000    0.625    2.750    0.750    0.000    0.000 
#    0.000    0.000    0.000    0.000    0.000    0.000 
#
# Total GULP energy -198252.582084 kJ/mol
# GULP energy per Si atom -12390.786380 kJ/mol
# Density = 1.721943 g / cm^3
# Si number density = 17.258708 Si / 1000 Ang^3
#
#
#
# Elastic Constant Matrix: (Units=GPa)
#
#
# Indices 1 2 3 4 5 6 
#
# 1 66.2001 16.3310 33.3867 2.1691 29.2232 -0.0387
# 2 16.3310 52.8445 44.9258 2.3808 16.2622 -4.6727
# 3 33.3867 44.9258 97.8441 0.3224 25.5582 0.0366
# 4 2.1691 2.3808 0.3224 34.0123 -5.8816 1.6991
# 5 29.2232 16.2622 25.5582 -5.8816 26.4612 -1.8439
# 6 -0.0387 -4.6727 0.0366 1.6991 -1.8439 16.2320
#
#
#
# Elastic Compliance Matrix: (Units=1/GPa)
#
#
# Indices 1 2 3 4 5 6 
#
# 1 0.032564 0.004600 -0.003366 -0.008776 -0.037626 -0.001946
# 2 0.004600 0.034463 -0.013874 -0.005344 -0.013421 0.008998
# 3 -0.003366 -0.013874 0.019565 0.000035 -0.006984 -0.004843
# 4 -0.008776 -0.005344 0.000035 0.033986 0.020301 -0.002811
# 5 -0.037626 -0.013421 -0.006984 0.020301 0.099213 0.005208
# 6 -0.001946 0.008998 -0.004843 -0.002811 0.005208 0.065089
#
#
# Mechanical properties :
#
#
# Convention : Reuss Voigt Hill
#
# Bulk Modulus (GPa) = 16.30974 45.13063 30.72018
# Shear Modulus (GPa) = 15.12418 23.49077 19.30747
#
# Velocity S-wave (km/s) = 2.96348 3.69331 3.34834
# Velocity P-wave (km/s) = 4.60221 6.66285 5.72599
#
# Compressibility (1/GPa) = 0.06131306
#
# Stress axis : x y z
#
# Youngs Moduli (GPa) = 30.70858 29.01659 51.11180
#
# Poissons Ratio (x) = -0.13347 0.17203
# Poissons Ratio (y) = -0.14126 0.70911
# Poissons Ratio (z) = 0.10336 0.40257
#
# Static dielectric constant tensor:
#      x y z
#    x 3.018390 -0.168180 0.023870 
#    y -0.168180 3.050290 0.010710 
#    z 0.023870 0.010710 3.212770 
# 
# 
# High freq. dielectric constant tensor:
#      x y z
#    x 1.646390 -0.017050 0.006370 
#    y -0.017050 1.640650 -0.005770 
#    z 0.006370 -0.005770 1.662890 
# 
# From -- ./inp_files/395414.got.cif
#   From: 2010.06.25/outbox.cif.g09.slc.cpg/sg2_198_cif.got.tgz:395414.got - 2010.06.27 13:26:56.
