data_PCOD8039352
_publ_section_title
;
Structure prediction by ZEFSAII (Michael W. Deem and Ramdas Pophale) SiO2 
 PCOD8039352
Probable space group: P -1
;
_chemical_formula_sum "Si O2"
_cell_formula_units_Z 16
_cell_length_a 27.830671
_cell_length_b 9.284071
_cell_length_c 13.994687
_cell_angle_alpha 32.761658
_cell_angle_beta 24.004300
_cell_angle_gamma 40.197262
_cell_volume 795.866431
_symmetry_space_group_name_H-M "P -1"
_symmetry_group_IT_number 2
_symmetry_cell_setting 'triclinic'
loop_
_space_group_symop_operation_xyz
x,y,z
-x,-y,-z
loop_
_atom_site_type_symbol
_atom_site_label
_atom_site_fract_x
_atom_site_fract_y
_atom_site_fract_z
Si Si1 0.066775 0.111371 0.085281
Si Si2 0.695495 0.716333 0.511559
Si Si3 0.093624 0.578511 0.928617
Si Si4 0.594440 0.740089 0.880899
Si Si5 0.476381 0.806369 0.735283
Si Si6 0.285094 0.899706 0.170684
Si Si7 0.943664 0.812700 0.629878
Si Si8 0.672525 0.106993 0.692318
O O1 0.983795 0.178528 0.107114
O O2 0.199904 0.077037 0.823925
O O3 0.070472 0.339631 0.030734
O O4 0.015284 0.842767 0.381777
O O5 0.635748 0.841708 0.644398
O O6 0.596507 0.687532 0.625430
O O7 0.748449 0.418588 0.592865
O O8 0.231627 0.662619 0.635769
O O9 0.057381 0.485431 0.155050
O O10 0.679642 0.871196 0.732573
O O11 0.608701 0.422886 0.026897
O O12 0.458674 0.782557 0.130340
O O13 0.500000 0.000000 0.500000
O O14 0.407000 0.953853 0.863164
O O15 0.299417 0.010895 0.189443
O O16 0.188002 0.081276 0.199201
O O17 0.000000 0.000000 0.500000
#
# Coordination Sequence:
#
# PCOD8039352 Si02
#       8
#     2   2   2   2   2   2   2   2
#     4  10  18  33  58  82 116 149 195 241 287 331
#     4  11  19  38  57  82 116 151 195 236 294 345
#     4  10  19  34  56  88 113 151 192 241 288 338
#     4  10  22  37  58  85 111 158 191 233 294 355
#     4  11  23  36  56  89 119 149 195 245 289 341
#     4  11  19  35  60  81 114 157 190 240 289 341
#     4  10  21  31  54  93 115 143 198 247 283 336
#     4  11  19  38  61  81 116 153 195 234 295 351
#
# _framework density 20.103877000000001
#
# number of rings (size 3 to 8) (size 9 to 14) (size 15 to 20)
#    0.000    1.500    5.000    2.250    5.250    0.000 
#    0.000    2.500    0.000    0.750    0.000    0.000 
#    0.000    0.000    0.000    0.000    0.000    0.000 
#
# Total GULP energy -198253.252804 kJ/mol
# GULP energy per Si atom -12390.828300 kJ/mol
# Density = 2.005812 g / cm^3
# Si number density = 20.103877 Si / 1000 Ang^3
#
#
#
# Elastic Constant Matrix: (Units=GPa)
#
#
# Indices 1 2 3 4 5 6 
#
# 1 120.8171 39.4386 55.9360 -9.6848 16.3919 -2.5038
# 2 39.4386 28.4650 27.4280 0.3786 8.7419 7.1532
# 3 55.9360 27.4280 160.9813 9.9160 33.4056 -10.5910
# 4 -9.6848 0.3786 9.9160 17.0044 -6.6031 3.5659
# 5 16.3919 8.7419 33.4056 -6.6031 38.8916 -1.6835
# 6 -2.5038 7.1532 -10.5910 3.5659 -1.6835 25.6727
#
#
#
# Elastic Compliance Matrix: (Units=1/GPa)
#
#
# Indices 1 2 3 4 5 6 
#
# 1 0.018968 -0.025798 -0.003254 0.013209 0.003105 0.006064
# 2 -0.025798 0.085065 -0.005328 -0.010295 -0.006605 -0.027419
# 3 -0.003254 -0.005328 0.011483 -0.013540 -0.009282 0.007176
# 4 0.013209 -0.010295 -0.013540 0.085643 0.022404 -0.011855
# 5 0.003105 -0.006605 -0.009282 0.022404 0.037564 -0.002335
# 6 0.006064 -0.027419 0.007176 -0.011855 -0.002335 0.051637
#
#
# Mechanical properties :
#
#
# Convention : Reuss Voigt Hill
#
# Bulk Modulus (GPa) = 21.38854 61.76317 41.57586
# Shear Modulus (GPa) = 13.34377 28.81114 21.07746
#
# Velocity S-wave (km/s) = 2.57911 3.78976 3.24146
# Velocity P-wave (km/s) = 4.41941 7.06671 5.89362
#
# Compressibility (1/GPa) = 0.04675401
#
# Stress axis : x y z
#
# Youngs Moduli (GPa) = 52.71926 11.75577 87.08657
#
# Poissons Ratio (x) = 0.30328 0.28341
# Poissons Ratio (y) = 1.36007 0.46402
# Poissons Ratio (z) = 0.17157 0.06264
#
# Static dielectric constant tensor:
#      x y z
#    x 3.813260 1.164920 1.578100 
#    y 1.164920 -5.130340 -8.594430 
#    z 1.578100 -8.594430 -4.769480 
# 
# 
# High freq. dielectric constant tensor:
#      x y z
#    x 1.787230 -0.010290 0.008200 
#    y -0.010290 1.726380 0.021100 
#    z 0.008200 0.021100 1.801070 
# 
# From -- ./inp_files/306002.got.cif
#   From: 2010.06.25/outbox.cif.g09.slc.cpg/sg2_154_cif.got.tgz:306002.got - 2010.06.27 13:26:56.
