data_PCOD8039935
_publ_section_title
;
Structure prediction by ZEFSAII (Michael W. Deem and Ramdas Pophale) SiO2 
 PCOD8039935
Probable space group: P -1
;
_chemical_formula_sum "Si O2"
_cell_formula_units_Z 16
_cell_length_a 10.923451
_cell_length_b 26.367842
_cell_length_c 17.409627
_cell_angle_alpha 21.677903
_cell_angle_beta 33.455104
_cell_angle_gamma 23.338246
_cell_volume 727.634589
_symmetry_space_group_name_H-M "P -1"
_symmetry_group_IT_number 2
_symmetry_cell_setting 'triclinic'
loop_
_space_group_symop_operation_xyz
x,y,z
-x,-y,-z
loop_
_atom_site_type_symbol
_atom_site_label
_atom_site_fract_x
_atom_site_fract_y
_atom_site_fract_z
Si Si1 0.430788 0.207888 0.907273
Si Si2 0.205354 0.102739 0.956759
Si Si3 0.765950 0.044690 0.267245
Si Si4 0.588828 0.675951 0.080180
Si Si5 0.362922 0.652090 0.512664
Si Si6 0.691875 0.638160 0.836890
Si Si7 0.272046 0.481290 0.171305
Si Si8 0.626881 0.503922 0.739026
O O1 0.523089 0.221769 0.922948
O O2 0.458948 0.319874 0.674601
O O3 0.077184 0.307354 0.949012
O O4 0.662624 0.982776 0.078609
O O5 0.971276 0.332559 0.762629
O O6 0.021217 0.046278 0.158227
O O7 0.500000 0.000000 0.000000
O O8 0.498759 0.149742 0.325475
O O9 0.598020 0.151771 0.124913
O O10 0.984426 0.814467 0.468482
O O11 0.493160 0.559173 0.283872
O O12 0.958048 0.527250 0.082552
O O13 0.421751 0.663400 0.555904
O O14 0.689134 0.656078 0.719745
O O15 0.518818 0.577555 0.043825
O O16 0.349832 0.405916 0.325035
O O17 0.500000 0.500000 0.000000
#
# Coordination Sequence:
#
# PCOD8039935 Si02
#       8
#     2   2   2   2   2   2   2   2
#     4  10  22  36  58  92 114 154 200 235 297 347
#     4  10  18  35  59  82 116 149 196 235 285 352
#     4  10  22  38  59  90 116 157 201 236 290 353
#     4  11  21  41  60  82 125 159 193 245 286 343
#     4  11  23  37  58  88 121 155 194 243 291 351
#     4   9  19  37  63  84 114 158 201 236 290 348
#     4   9  18  35  62  85 115 154 193 244 291 349
#     4  10  19  37  59  88 118 153 194 242 299 340
#
# _framework density 21.989059000000001
#
# number of rings (size 3 to 8) (size 9 to 14) (size 15 to 20)
#    0.000    2.000    3.750    0.750    0.000    3.000 
#    2.250    0.625    0.000    0.000    0.000    0.000 
#    0.000    0.000    0.000    0.000    0.000    0.000 
#
# Total GULP energy -198255.061076 kJ/mol
# GULP energy per Si atom -12390.941317 kJ/mol
# Density = 2.193901 g / cm^3
# Si number density = 21.989059 Si / 1000 Ang^3
#
#
#
# Elastic Constant Matrix: (Units=GPa)
#
#
# Indices 1 2 3 4 5 6 
#
# 1 172.3052 58.4648 32.7608 -11.2763 26.6275 19.8186
# 2 58.4648 130.6459 22.4869 -11.2180 13.3476 14.8114
# 3 32.7608 22.4869 32.1299 -16.9958 18.7668 10.4471
# 4 -11.2763 -11.2180 -16.9958 26.7550 -6.0223 -5.6816
# 5 26.6275 13.3476 18.7668 -6.0223 20.0680 -1.0691
# 6 19.8186 14.8114 10.4471 -5.6816 -1.0691 45.8773
#
#
#
# Elastic Compliance Matrix: (Units=1/GPa)
#
#
# Indices 1 2 3 4 5 6 
#
# 1 0.008530 -0.002426 -0.001339 -0.000889 -0.008874 -0.002914
# 2 -0.002426 0.009516 -0.004222 0.000265 0.000864 -0.001010
# 3 -0.001339 -0.004222 0.132602 0.053205 -0.104737 -0.024106
# 4 -0.000889 0.000265 0.053205 0.063149 -0.030052 -0.004697
# 5 -0.008874 0.000864 -0.104737 -0.030052 0.151407 0.027211
# 6 -0.002914 -0.001010 -0.024106 -0.004697 0.027211 0.028924
#
#
# Mechanical properties :
#
#
# Convention : Reuss Voigt Hill
#
# Bulk Modulus (GPa) = 7.42541 62.50067 34.96304
# Shear Modulus (GPa) = 10.98917 33.29796 22.14357
#
# Velocity S-wave (km/s) = 2.23795 3.89562 3.17681
# Velocity P-wave (km/s) = 3.17208 6.97995 5.42134
#
# Compressibility (1/GPa) = 0.13467277
#
# Stress axis : x y z
#
# Youngs Moduli (GPa) = 117.23733 105.09033 7.54135
#
# Poissons Ratio (x) = 0.25495 0.01010
# Poissons Ratio (y) = 0.28442 0.03184
# Poissons Ratio (z) = 0.15697 0.44374
#
# Static dielectric constant tensor:
#      x y z
#    x 4.523820 0.260560 -0.189110 
#    y 0.260560 4.507340 -0.253990 
#    z -0.189110 -0.253990 3.512760 
# 
# 
# High freq. dielectric constant tensor:
#      x y z
#    x 1.881650 -0.001460 -0.008600 
#    y -0.001460 1.889900 -0.003560 
#    z -0.008600 -0.003560 1.809810 
# 
# From -- ./inp_files/463797.got.cif
#   From: 2010.06.25/outbox.cif.g09.slc.cpg/sg2_232_cif.got.tgz:463797.got - 2010.06.27 13:26:56.
