data_PCOD8039206
_publ_section_title
;
Structure prediction by ZEFSAII (Michael W. Deem and Ramdas Pophale) SiO2 
 PCOD8039206
Probable space group: P -1
;
_chemical_formula_sum "Si O2"
_cell_formula_units_Z 16
_cell_length_a 11.110435
_cell_length_b 22.777039
_cell_length_c 12.415749
_cell_angle_alpha 139.531222
_cell_angle_beta 122.034438
_cell_angle_gamma 27.335338
_cell_volume 817.450071
_symmetry_space_group_name_H-M "P -1"
_symmetry_group_IT_number 2
_symmetry_cell_setting 'triclinic'
loop_
_space_group_symop_operation_xyz
x,y,z
-x,-y,-z
loop_
_atom_site_type_symbol
_atom_site_label
_atom_site_fract_x
_atom_site_fract_y
_atom_site_fract_z
Si Si1 0.995237 0.561262 0.188955
Si Si2 0.603112 0.048409 0.238846
Si Si3 0.523280 0.247658 0.153610
Si Si4 0.585544 0.036116 0.455248
Si Si5 0.307053 0.380455 0.475706
Si Si6 0.976856 0.736639 0.810807
Si Si7 0.093600 0.190484 0.509127
Si Si8 0.066483 0.819109 0.785787
O O1 0.227726 0.388950 0.143204
O O2 0.660328 0.745945 0.339256
O O3 0.084117 0.616051 0.281889
O O4 0.000000 0.500000 0.000000
O O5 0.714715 0.970059 0.304226
O O6 0.549532 0.186513 0.388686
O O7 0.300066 0.163081 0.232048
O O8 0.869737 0.863948 0.031390
O O9 0.429777 0.322863 0.334047
O O10 0.691479 0.237852 0.165508
O O11 0.732722 0.042220 0.963794
O O12 0.420222 0.031736 0.389772
O O13 0.854945 0.893091 0.471098
O O14 0.000000 0.500000 0.500000
O O15 0.228711 0.525857 0.683973
O O16 0.136586 0.702053 0.742265
O O17 0.910405 0.232165 0.396382
#
# Coordination Sequence:
#
# PCOD8039206 Si02
#       8
#     2   2   2   2   2   2   2   2
#     4  10  19  33  52  83 113 141 189 241 282 333
#     4  10  18  33  51  80 116 142 193 233 281 344
#     4  11  23  34  57  88 116 153 185 247 284 342
#     4   9  18  34  53  80 110 148 186 229 295 325
#     4  10  20  34  51  84 113 143 196 233 291 337
#     4  10  19  32  54  79 109 157 178 241 288 333
#     4   9  19  34  54  79 112 151 186 234 284 345
#     4  11  21  38  56  83 121 151 195 226 299 347
#
# _framework density 19.573062
#
# number of rings (size 3 to 8) (size 9 to 14) (size 15 to 20)
#    0.750    1.250    2.500    3.000    0.000    2.000 
#    2.250    0.000    0.000    0.750    3.250    1.750 
#    0.000    0.000    0.000    0.000    0.000    0.000 
#
# Total GULP energy -198312.888557 kJ/mol
# GULP energy per Si atom -12394.555535 kJ/mol
# Density = 1.952851 g / cm^3
# Si number density = 19.573062 Si / 1000 Ang^3
#
#
#
# Elastic Constant Matrix: (Units=GPa)
#
#
# Indices 1 2 3 4 5 6 
#
# 1 68.4323 23.7284 28.4419 2.0340 -0.5439 28.0935
# 2 23.7284 53.2529 36.4365 -6.3040 -3.8298 32.6399
# 3 28.4419 36.4365 116.8004 1.2429 6.0800 21.0902
# 4 2.0340 -6.3040 1.2429 30.4080 10.1919 0.0026
# 5 -0.5439 -3.8298 6.0800 10.1919 30.7290 -2.2783
# 6 28.0935 32.6399 21.0902 0.0026 -2.2783 29.9141
#
#
#
# Elastic Compliance Matrix: (Units=1/GPa)
#
#
# Indices 1 2 3 4 5 6 
#
# 1 0.026915 0.014208 -0.004153 0.001384 -0.000198 -0.037867
# 2 0.014208 0.076504 -0.011497 0.015243 0.000430 -0.088681
# 3 -0.004153 -0.011497 0.011902 -0.001680 -0.002722 0.007847
# 4 0.001384 0.015243 -0.001680 0.040173 -0.012379 -0.017694
# 5 -0.000198 0.000430 -0.002722 -0.012379 0.037571 0.004498
# 6 -0.037867 -0.088681 0.007847 -0.017694 0.004498 0.160565
#
#
# Mechanical properties :
#
#
# Convention : Reuss Voigt Hill
#
# Bulk Modulus (GPa) = 8.89391 46.18880 27.54136
# Shear Modulus (GPa) = 12.69049 28.20213 20.44631
#
# Velocity S-wave (km/s) = 2.54906 3.79999 3.23556
# Velocity P-wave (km/s) = 3.63558 6.55001 5.29717
#
# Compressibility (1/GPa) = 0.11243647
#
# Stress axis : x y z
#
# Youngs Moduli (GPa) = 37.15340 13.07114 84.01701
#
# Poissons Ratio (x) = -0.18571 0.34895
# Poissons Ratio (y) = -0.52787 0.96598
# Poissons Ratio (z) = 0.15431 0.15028
#
# Static dielectric constant tensor:
#      x y z
#    x 3.398670 0.328600 0.125190 
#    y 0.328600 3.312080 0.194580 
#    z 0.125190 0.194580 3.659380 
# 
# 
# High freq. dielectric constant tensor:
#      x y z
#    x 1.738560 0.030430 0.002700 
#    y 0.030430 1.733170 0.012890 
#    z 0.002700 0.012890 1.767590 
# 
# From -- ./inp_files/439150.got.cif
#   From: 2010.06.25/outbox.cif.g09.slc.cpg/sg2_220_cif.got.tgz:439150.got - 2010.06.27 13:26:56.
