data_PCOD8039500
_publ_section_title
;
Structure prediction by ZEFSAII (Michael W. Deem and Ramdas Pophale) SiO2 
 PCOD8039500
Probable space group: P -1
;
_chemical_formula_sum "Si O2"
_cell_formula_units_Z 16
_cell_length_a 11.204550
_cell_length_b 12.540781
_cell_length_c 16.425802
_cell_angle_alpha 153.834417
_cell_angle_beta 59.910674
_cell_angle_gamma 112.049263
_cell_volume 863.641560
_symmetry_space_group_name_H-M "P -1"
_symmetry_group_IT_number 2
_symmetry_cell_setting 'triclinic'
loop_
_space_group_symop_operation_xyz
x,y,z
-x,-y,-z
loop_
_atom_site_type_symbol
_atom_site_label
_atom_site_fract_x
_atom_site_fract_y
_atom_site_fract_z
Si Si1 0.438363 0.343032 0.786194
Si Si2 0.676431 0.587387 0.840664
Si Si3 0.015583 0.075018 0.174686
Si Si4 0.191946 0.234372 0.367188
Si Si5 0.391878 0.885144 0.175944
Si Si6 0.514351 0.897016 0.558700
Si Si7 0.720381 0.386414 0.515431
Si Si8 0.972942 0.628790 0.789108
O O1 0.605520 0.358319 0.736935
O O2 0.399472 0.243515 0.643151
O O3 0.417976 0.155458 0.736500
O O4 0.346856 0.617603 0.021357
O O5 0.717086 0.558894 0.712852
O O6 0.818207 0.593544 0.846966
O O7 0.558948 0.838942 0.064340
O O8 0.122016 0.101948 0.228860
O O9 0.857292 0.170522 0.324910
O O10 0.047802 0.234017 0.196324
O O11 0.035219 0.788873 0.945430
O O12 0.273936 0.441008 0.446713
O O13 0.076021 0.364942 0.561629
O O14 0.301699 0.023788 0.229247
O O15 0.372138 0.044765 0.374881
O O16 0.417399 0.732827 0.523695
#
# Coordination Sequence:
#
# PCOD8039500 Si02
#       8
#     2   2   2   2   2   2   2   2
#     4   8  20  35  57  81  99 136 182 227 259 303
#     4   9  17  34  53  82 100 135 188 212 258 306
#     4  10  19  32  55  74 106 148 181 213 253 312
#     4  11  21  35  50  80 121 140 163 217 272 321
#     4  10  22  33  54  82 112 139 168 218 276 316
#     4  10  18  37  56  80 103 136 183 227 254 306
#     4  10  18  34  56  79 107 142 180 219 253 311
#     4  10  18  34  54  76 102 145 188 210 251 319
#
# _framework density 18.526205000000001
#
# number of rings (size 3 to 8) (size 9 to 14) (size 15 to 20)
#    0.750    1.500    2.500    1.875    0.000    2.000 
#    0.000    0.000    0.000    1.500    0.000    0.000 
#    0.000    0.000    0.000    0.000    0.000    0.000 
#
# Total GULP energy -198292.537569 kJ/mol
# GULP energy per Si atom -12393.283598 kJ/mol
# Density = 1.848404 g / cm^3
# Si number density = 18.526205 Si / 1000 Ang^3
#
#
#
# Elastic Constant Matrix: (Units=GPa)
#
#
# Indices 1 2 3 4 5 6 
#
# 1 65.0806 26.6075 47.7161 5.2973 13.3046 -14.1601
# 2 26.6075 41.0236 18.8154 10.4083 5.3198 -12.5287
# 3 47.7161 18.8154 90.5769 4.2324 20.3204 -9.2938
# 4 5.2973 10.4083 4.2324 24.5029 -1.5858 0.6633
# 5 13.3046 5.3198 20.3204 -1.5858 30.6535 -6.0383
# 6 -14.1601 -12.5287 -9.2938 0.6633 -6.0383 20.7221
#
#
#
# Elastic Compliance Matrix: (Units=1/GPa)
#
#
# Indices 1 2 3 4 5 6 
#
# 1 0.032077 -0.012067 -0.013232 0.000161 -0.001419 0.008270
# 2 -0.012067 0.041289 0.000153 -0.015389 0.000613 0.017458
# 3 -0.013232 0.000153 0.019517 -0.001011 -0.007751 -0.002422
# 4 0.000161 -0.015389 -0.001011 0.048005 0.003768 -0.010087
# 5 -0.001419 0.000613 -0.007751 0.003768 0.039931 0.007440
# 6 0.008270 0.017458 -0.002422 -0.010087 0.007440 0.065868
#
#
# Mechanical properties :
#
#
# Convention : Reuss Voigt Hill
#
# Bulk Modulus (GPa) = 23.47950 42.55103 33.01526
# Shear Modulus (GPa) = 16.06799 22.07850 19.07325
#
# Velocity S-wave (km/s) = 2.94821 3.45591 3.21211
# Velocity P-wave (km/s) = 4.92853 6.24038 5.62284
#
# Compressibility (1/GPa) = 0.04259034
#
# Stress axis : x y z
#
# Youngs Moduli (GPa) = 31.17488 24.21930 51.23768
#
# Poissons Ratio (x) = 0.29226 0.67799
# Poissons Ratio (y) = 0.37619 -0.00783
# Poissons Ratio (z) = 0.41251 -0.00370
#
# Static dielectric constant tensor:
#      x y z
#    x 3.125640 0.140520 0.218330 
#    y 0.140520 3.149590 -0.084160 
#    z 0.218330 -0.084160 3.556230 
# 
# 
# High freq. dielectric constant tensor:
#      x y z
#    x 1.690380 0.010630 0.027420 
#    y 0.010630 1.692540 -0.008400 
#    z 0.027420 -0.008400 1.728130 
# 
# From -- ./inp_files/506547.got.cif
#   From: 2010.06.25/outbox.cif.g09.slc.cpg/sg2_254_cif.got.tgz:506547.got - 2010.06.27 13:26:56.
