data_PCOD8039504
_publ_section_title
;
Structure prediction by ZEFSAII (Michael W. Deem and Ramdas Pophale) SiO2 
 PCOD8039504
Probable space group: P -1
;
_chemical_formula_sum "Si O2"
_cell_formula_units_Z 14
_cell_length_a 10.343360
_cell_length_b 13.891847
_cell_length_c 12.062712
_cell_angle_alpha 147.358223
_cell_angle_beta 48.628207
_cell_angle_gamma 138.246990
_cell_volume 619.976906
_symmetry_space_group_name_H-M "P -1"
_symmetry_group_IT_number 2
_symmetry_cell_setting 'triclinic'
loop_
_space_group_symop_operation_xyz
x,y,z
-x,-y,-z
loop_
_atom_site_type_symbol
_atom_site_label
_atom_site_fract_x
_atom_site_fract_y
_atom_site_fract_z
Si Si1 0.780931 0.766955 0.301038
Si Si2 0.264096 0.999190 0.796057
Si Si3 0.814624 0.376410 0.412459
Si Si4 0.480473 0.693318 0.231862
Si Si5 0.186194 0.237287 0.248349
Si Si6 0.072112 0.489793 0.179741
Si Si7 0.091829 0.221019 0.526615
O O1 0.574261 0.741365 0.348060
O O2 0.758966 0.700609 0.377921
O O3 0.863015 0.636252 0.060180
O O4 0.926804 0.000158 0.432401
O O5 0.324974 0.836713 0.655862
O O6 0.043220 0.887465 0.770553
O O7 0.404475 0.116046 0.729269
O O8 0.300724 0.155550 0.027181
O O9 0.715495 0.521953 0.596895
O O10 0.000000 0.500000 0.500000
O O11 0.893143 0.338627 0.212486
O O12 0.252496 0.635341 0.300654
O O13 0.500000 0.500000 0.000000
O O14 0.209689 0.214109 0.343897
O O15 0.006332 0.632277 0.288164
#
# Coordination Sequence:
#
# PCOD8039504 Si02
#       7
#     2   2   2   2   2   2   2
#     4  10  20  35  53  81 116 149 181 223 278 337
#     4  10  18  34  54  78 113 144 177 234 275 319
#     4   9  19  31  52  82 105 137 187 226 269 321
#     4  10  22  35  55  87 117 146 178 228 294 327
#     4   9  18  31  55  80 103 136 193 228 265 313
#     4  10  21  37  55  85 114 141 183 237 279 323
#     4  10  19  35  57  84 106 148 193 224 268 334
#
# _framework density 22.581486999999999
#
# number of rings (size 3 to 8) (size 9 to 14) (size 15 to 20)
#    0.000    2.286    1.429    1.286   10.000    0.571 
#    0.000    0.000    0.000    3.429    3.714   31.000 
#    0.000    0.000    0.000    0.000    0.000    0.000 
#
# Total GULP energy -173471.104837 kJ/mol
# GULP energy per Si atom -12390.793203 kJ/mol
# Density = 2.253009 g / cm^3
# Si number density = 22.581487 Si / 1000 Ang^3
#
#
#
# Elastic Constant Matrix: (Units=GPa)
#
#
# Indices 1 2 3 4 5 6 
#
# 1 88.1400 49.4545 -2.5889 -0.5042 28.8894 -43.9261
# 2 49.4545 90.4851 31.2805 15.7231 -4.5347 -31.1027
# 3 -2.5889 31.2805 50.1419 -8.7654 17.3659 -30.9786
# 4 -0.5042 15.7231 -8.7654 29.0361 -8.7226 -0.6370
# 5 28.8894 -4.5347 17.3659 -8.7226 29.9132 -0.7695
# 6 -43.9261 -31.1027 -30.9786 -0.6370 -0.7695 33.9044
#
#
#
# Elastic Compliance Matrix: (Units=1/GPa)
#
#
# Indices 1 2 3 4 5 6 
#
# 1 -0.003085 0.003162 -0.017111 -0.003725 0.011881 -0.016531
# 2 0.003162 0.017380 0.003398 -0.009174 -0.004478 0.022871
# 3 -0.017111 0.003398 -0.000406 0.002594 0.017544 -0.018975
# 4 -0.003725 -0.009174 0.002594 0.043892 0.013248 -0.009746
# 5 0.011881 -0.004478 0.017544 0.013248 0.015673 0.027920
# 6 -0.016531 0.022871 -0.018975 -0.009746 0.027920 0.012171
#
#
# Mechanical properties :
#
#
# Convention : Reuss Voigt Hill
#
# Bulk Modulus (GPa) = -138.64211 42.78435 -47.92888
# Shear Modulus (GPa) = 47.92819 28.61214 38.27017
#
# Velocity S-wave (km/s) = 4.61201 3.56344 4.12121
# Velocity P-wave (km/s) = 5.75924 5.99321 1.17256
#
# Compressibility (1/GPa) = -0.00721282
#
# Stress axis : x y z
#
# Youngs Moduli (GPa) = -324.13518 57.53746 -2463.53541
#
# Poissons Ratio (x) = -0.18191 -42.15325
# Poissons Ratio (y) = 1.02480 8.37199
# Poissons Ratio (z) = -5.54624 -0.19553
#
# Static dielectric constant tensor:
#      x y z
#    x 4.546200 -0.569280 0.056080 
#    y -0.569280 4.407630 0.212610 
#    z 0.056080 0.212610 4.208880 
# 
# 
# High freq. dielectric constant tensor:
#      x y z
#    x 1.862100 -0.034570 -0.006060 
#    y -0.034570 1.888200 0.000770 
#    z -0.006060 0.000770 1.904240 
# 
# From -- ./inp_files/316192.got.cif
#   From: 2010.06.25/outbox.cif.g09.slc.cpg/sg2_159_cif.got.tgz:316192.got - 2010.06.27 13:26:56.
