data_PCOD8039827
_publ_section_title
;
Structure prediction by ZEFSAII (Michael W. Deem and Ramdas Pophale) SiO2 
 PCOD8039827
Probable space group: P -1
;
_chemical_formula_sum "Si O2"
_cell_formula_units_Z 14
_cell_length_a 9.403237
_cell_length_b 11.794277
_cell_length_c 18.483771
_cell_angle_alpha 27.629404
_cell_angle_beta 130.395902
_cell_angle_gamma 130.147507
_cell_volume 709.396099
_symmetry_space_group_name_H-M "P -1"
_symmetry_group_IT_number 2
_symmetry_cell_setting 'triclinic'
loop_
_space_group_symop_operation_xyz
x,y,z
-x,-y,-z
loop_
_atom_site_type_symbol
_atom_site_label
_atom_site_fract_x
_atom_site_fract_y
_atom_site_fract_z
Si Si1 0.944551 0.185176 0.206212
Si Si2 0.996018 0.493994 0.192597
Si Si3 0.614729 0.631352 0.030572
Si Si4 0.385418 0.766364 0.137270
Si Si5 0.578258 0.190606 0.711616
Si Si6 0.679482 0.480752 0.882734
Si Si7 0.804311 0.698501 0.506959
O O1 0.921717 0.343210 0.181435
O O2 0.152438 0.276613 0.186632
O O3 0.926775 0.891511 0.381732
O O4 0.772568 0.236600 0.069280
O O5 0.156077 0.744941 0.086257
O O6 0.083709 0.305155 0.379174
O O7 0.824931 0.576661 0.132334
O O8 0.638345 0.929002 0.867763
O O9 0.500000 0.500000 0.000000
O O10 0.503036 0.513123 0.131827
O O11 0.474780 0.756338 0.251764
O O12 0.391651 0.533208 0.216683
O O13 0.500000 0.000000 0.000000
O O14 0.750391 0.416215 0.616144
O O15 0.389781 0.200166 0.597783
#
# Coordination Sequence:
#
# PCOD8039827 Si02
#       7
#     2   2   2   2   2   2   2
#     4  10  18  36  58  87 108 150 198 236 272 335
#     4  10  22  32  60  89 115 151 185 235 290 335
#     4  12  21  38  56  90 118 146 185 243 287 335
#     4  10  18  35  55  86 112 146 191 235 270 331
#     4  10  21  35  60  85 113 152 191 234 283 334
#     4  10  20  33  60  87 111 146 194 240 277 329
#     4  10  19  36  56  84 115 150 192 234 276 342
#
# _framework density 19.735097
#
# number of rings (size 3 to 8) (size 9 to 14) (size 15 to 20)
#    0.000    1.714    4.286    0.429    0.000    2.286 
#    0.000    0.714    0.000    1.714    0.000    0.000 
#    0.000    0.000    0.000    0.000    0.000    0.000 
#
# Total GULP energy -173445.999946 kJ/mol
# GULP energy per Si atom -12388.999996 kJ/mol
# Density = 1.969018 g / cm^3
# Si number density = 19.735097 Si / 1000 Ang^3
#
#
#
# Elastic Constant Matrix: (Units=GPa)
#
#
# Indices 1 2 3 4 5 6 
#
# 1 137.8218 39.1005 46.1091 -7.9755 -5.7203 21.1480
# 2 39.1005 76.3410 42.5457 -6.1512 -3.0397 4.8258
# 3 46.1091 42.5457 103.2994 -9.5392 -13.6009 7.0908
# 4 -7.9755 -6.1512 -9.5392 37.2828 12.5176 -10.3337
# 5 -5.7203 -3.0397 -13.6009 12.5176 26.0553 -6.9866
# 6 21.1480 4.8258 7.0908 -10.3337 -6.9866 33.7386
#
#
#
# Elastic Compliance Matrix: (Units=1/GPa)
#
#
# Indices 1 2 3 4 5 6 
#
# 1 0.009904 -0.003177 -0.002902 -0.000316 -0.001021 -0.005452
# 2 -0.003177 0.018240 -0.006313 0.001761 -0.002516 0.000728
# 3 -0.002902 -0.006313 0.014351 0.000186 0.006316 0.001070
# 4 -0.000316 0.001761 0.000186 0.033853 -0.014056 0.007365
# 5 -0.001021 -0.002516 0.006316 -0.014056 0.049413 0.005600
# 6 -0.005452 0.000728 0.001070 0.007365 0.005600 0.036144
#
#
# Mechanical properties :
#
#
# Convention : Reuss Voigt Hill
#
# Bulk Modulus (GPa) = 56.45901 63.66366 60.06133
# Shear Modulus (GPa) = 25.96156 32.06246 29.01201
#
# Velocity S-wave (km/s) = 3.63092 4.03506 3.83831
# Velocity P-wave (km/s) = 6.80064 7.35106 7.08120
#
# Compressibility (1/GPa) = 0.01771197
#
# Stress axis : x y z
#
# Youngs Moduli (GPa) = 100.97267 54.82346 69.68082
#
# Poissons Ratio (x) = 0.17417 0.20218
# Poissons Ratio (y) = 0.32078 0.43990
# Poissons Ratio (z) = 0.29298 0.34611
#
# Static dielectric constant tensor:
#      x y z
#    x 3.600560 0.212350 -0.333290 
#    y 0.212350 3.955920 0.028600 
#    z -0.333290 0.028600 3.572820 
# 
# 
# High freq. dielectric constant tensor:
#      x y z
#    x 1.740940 0.025250 -0.032830 
#    y 0.025250 1.791100 0.005160 
#    z -0.032830 0.005160 1.747810 
# 
# From -- ./inp_files/168012.got.cif
#   From: 2010.06.25/outbox.cif.g09.slc.cpg/sg2_85_cif.got.tgz:168012.got - 2010.06.27 13:26:56.
