data_PCOD8039585
_publ_section_title
;
Structure prediction by ZEFSAII (Michael W. Deem and Ramdas Pophale) SiO2 
 PCOD8039585
Probable space group: P -1
;
_chemical_formula_sum "Si O2"
_cell_formula_units_Z 16
_cell_length_a 22.958343
_cell_length_b 8.400876
_cell_length_c 21.342077
_cell_angle_alpha 138.719039
_cell_angle_beta 18.526259
_cell_angle_gamma 128.695760
_cell_volume 784.396038
_symmetry_space_group_name_H-M "P -1"
_symmetry_group_IT_number 2
_symmetry_cell_setting 'triclinic'
loop_
_space_group_symop_operation_xyz
x,y,z
-x,-y,-z
loop_
_atom_site_type_symbol
_atom_site_label
_atom_site_fract_x
_atom_site_fract_y
_atom_site_fract_z
Si Si1 0.556975 0.045235 0.597443
Si Si2 0.004682 0.782786 0.382385
Si Si3 0.039897 0.197482 0.063302
Si Si4 0.723874 0.785861 0.569567
Si Si5 0.100749 0.105801 0.696158
Si Si6 0.282875 0.392358 0.793349
Si Si7 0.592026 0.415340 0.164479
Si Si8 0.877119 0.798392 0.880588
O O1 0.535579 0.311397 0.661665
O O2 0.761180 0.951388 0.400589
O O3 0.576825 0.805713 0.460159
O O4 0.363714 0.093762 0.852643
O O5 0.027092 0.518879 0.318057
O O6 0.794972 0.890901 0.589970
O O7 0.181407 0.716326 0.131787
O O8 0.000000 0.000000 0.500000
O O9 0.085509 0.099875 0.059280
O O10 0.849784 0.475825 0.336759
O O11 0.238041 0.223930 0.844123
O O12 0.000000 0.000000 0.000000
O O13 0.751894 0.949212 0.530372
O O14 0.498999 0.805136 0.815339
O O15 0.986101 0.909945 0.751990
O O16 0.925986 0.403478 0.964474
O O17 0.401363 0.537151 0.753100
#
# Coordination Sequence:
#
# PCOD8039585 Si02
#       8
#     2   2   2   2   2   2   2   2
#     4  11  22  35  59  87 121 165 205 243 285 345
#     4  10  21  44  69  90 113 148 202 258 306 355
#     4  10  18  34  57  82 117 159 201 245 286 339
#     4  10  22  37  60  86 119 159 194 244 295 354
#     4  11  23  39  54  85 135 160 192 240 301 354
#     4  11  21  37  55  88 124 166 205 238 292 350
#     4  11  21  40  63  88 117 155 208 251 289 352
#     4  10  22  38  57  90 119 156 201 245 297 351
#
# _framework density 20.397859
#
# number of rings (size 3 to 8) (size 9 to 14) (size 15 to 20)
#    0.000    1.500    5.000    3.750    3.500    2.000 
#    0.000    0.625    0.000    3.750    0.000    0.000 
#    0.000    0.000    0.000    0.000    0.000    0.000 
#
# Total GULP energy -198362.440009 kJ/mol
# GULP energy per Si atom -12397.652501 kJ/mol
# Density = 2.035143 g / cm^3
# Si number density = 20.397859 Si / 1000 Ang^3
#
#
#
# Elastic Constant Matrix: (Units=GPa)
#
#
# Indices 1 2 3 4 5 6 
#
# 1 86.8008 46.4049 30.8202 4.6948 -12.5101 21.6557
# 2 46.4049 123.2766 32.5913 -22.5273 6.7257 7.3339
# 3 30.8202 32.5913 43.7272 -9.1538 -12.4400 1.2842
# 4 4.6948 -22.5273 -9.1538 32.6864 7.3249 6.4809
# 5 -12.5101 6.7257 -12.4400 7.3249 27.2551 2.2363
# 6 21.6557 7.3339 1.2842 6.4809 2.2363 41.1206
#
#
#
# Elastic Compliance Matrix: (Units=1/GPa)
#
#
# Indices 1 2 3 4 5 6 
#
# 1 0.025468 -0.010080 -0.008974 -0.014476 0.014781 -0.009857
# 2 -0.010080 0.017435 -0.007480 0.014852 -0.016416 0.000984
# 3 -0.008974 -0.007480 0.039493 0.003224 0.014597 0.003525
# 4 -0.014476 0.014852 0.003224 0.049046 -0.021883 -0.001666
# 5 0.014781 -0.016416 0.014597 -0.021883 0.060492 -0.005153
# 6 -0.009857 0.000984 0.003525 -0.001666 -0.005153 0.029767
#
#
# Mechanical properties :
#
#
# Convention : Reuss Voigt Hill
#
# Bulk Modulus (GPa) = 34.09598 52.60417 43.35008
# Shear Modulus (GPa) = 17.57191 29.81162 23.69176
#
# Velocity S-wave (km/s) = 2.93825 3.82711 3.41175
# Velocity P-wave (km/s) = 5.31628 6.73603 6.06782
#
# Compressibility (1/GPa) = 0.02932897
#
# Stress axis : x y z
#
# Youngs Moduli (GPa) = 39.26471 57.35643 25.32077
#
# Poissons Ratio (x) = 0.57814 0.22723
# Poissons Ratio (y) = 0.39578 0.18940
# Poissons Ratio (z) = 0.35236 0.42902
#
# Static dielectric constant tensor:
#      x y z
#    x 3.670480 0.029560 -0.188080 
#    y 0.029560 3.856040 -0.259740 
#    z -0.188080 -0.259740 3.559730 
# 
# 
# High freq. dielectric constant tensor:
#      x y z
#    x 1.785210 -0.002130 -0.021370 
#    y -0.002130 1.793600 -0.025540 
#    z -0.021370 -0.025540 1.779340 
# 
# From -- ./inp_files/218776.got.cif
#   From: 2010.06.25/outbox.cif.g09.slc.cpg/sg2_110_cif.got.tgz:218776.got - 2010.06.27 13:26:56.
