data_PCOD8039142
_publ_section_title
;
Structure prediction by ZEFSAII (Michael W. Deem and Ramdas Pophale) SiO2 
 PCOD8039142
Probable space group: P -1
;
_chemical_formula_sum "Si O2"
_cell_formula_units_Z 14
_cell_length_a 9.712857
_cell_length_b 9.476132
_cell_length_c 12.679137
_cell_angle_alpha 89.921880
_cell_angle_beta 72.325160
_cell_angle_gamma 45.721605
_cell_volume 757.185520
_symmetry_space_group_name_H-M "P -1"
_symmetry_group_IT_number 2
_symmetry_cell_setting 'triclinic'
loop_
_space_group_symop_operation_xyz
x,y,z
-x,-y,-z
loop_
_atom_site_type_symbol
_atom_site_label
_atom_site_fract_x
_atom_site_fract_y
_atom_site_fract_z
Si Si1 0.084765 0.213791 0.495202
Si Si2 0.517812 0.822432 0.310112
Si Si3 0.626690 0.063318 0.263099
Si Si4 0.536957 0.332774 0.866068
Si Si5 0.284726 0.356868 0.516016
Si Si6 0.457147 0.359494 0.115858
Si Si7 0.064261 0.795168 0.261440
O O1 0.185255 0.272123 0.536762
O O2 0.003443 0.160609 0.600301
O O3 0.893656 0.398544 0.464164
O O4 0.264108 0.015953 0.381263
O O5 0.568445 0.681984 0.202384
O O6 0.619043 0.683417 0.391667
O O7 0.621121 0.898893 0.261329
O O8 0.469012 0.239647 0.386942
O O9 0.562262 0.166043 0.163770
O O10 0.862698 0.947131 0.232284
O O11 0.432180 0.565271 0.891835
O O12 0.791987 0.167908 0.790158
O O13 0.489776 0.288184 0.987427
O O14 0.205749 0.554340 0.201226
#
# Coordination Sequence:
#
# PCOD8039142 Si02
#       7
#     2   2   2   2   2   2   2
#     4  10  18  32  58  83 114 146 176 217 283 332
#     4  11  21  35  55  92 112 135 180 243 264 317
#     4  11  19  34  64  81 106 145 192 217 272 330
#     4   9  22  42  55  74 121 143 182 232 274 312
#     4  10  18  33  54  87 116 143 173 223 281 333
#     4   9  21  42  57  74 109 159 183 215 276 337
#     4  10  18  37  58  80 105 149 185 218 268 339
#
# _framework density 18.489522999999998
#
# number of rings (size 3 to 8) (size 9 to 14) (size 15 to 20)
#    0.857    1.143    4.286    0.857    0.000    1.714 
#    2.571    2.143    0.000    0.000    0.000    0.000 
#    0.000    0.000    0.000    0.000    0.000    0.000 
#
# Total GULP energy -173574.324452 kJ/mol
# GULP energy per Si atom -12398.166032 kJ/mol
# Density = 1.844744 g / cm^3
# Si number density = 18.489523 Si / 1000 Ang^3
#
#
#
# Elastic Constant Matrix: (Units=GPa)
#
#
# Indices 1 2 3 4 5 6 
#
# 1 55.6095 20.1025 31.1275 -3.4277 11.9255 -14.6153
# 2 20.1025 69.1289 28.6657 -13.7856 12.2303 -21.8580
# 3 31.1275 28.6657 108.6097 -24.1830 21.3748 2.5126
# 4 -3.4277 -13.7856 -24.1830 22.8102 3.3071 3.7037
# 5 11.9255 12.2303 21.3748 3.3071 31.9750 -0.4889
# 6 -14.6153 -21.8580 2.5126 3.7037 -0.4889 21.4521
#
#
#
# Elastic Compliance Matrix: (Units=1/GPa)
#
#
# Indices 1 2 3 4 5 6 
#
# 1 0.030691 0.003172 -0.011821 -0.009934 -0.003315 0.027166
# 2 0.003172 0.028686 -0.005645 0.008156 -0.008760 0.030444
# 3 -0.011821 -0.005645 0.021693 0.022675 -0.010592 -0.020502
# 4 -0.009934 0.008156 0.022675 0.077042 -0.022769 -0.014934
# 5 -0.003315 -0.008760 -0.010592 -0.022769 0.045221 -0.004982
# 6 0.027166 0.030444 -0.020502 -0.014934 -0.004982 0.101010
#
#
# Mechanical properties :
#
#
# Convention : Reuss Voigt Hill
#
# Bulk Modulus (GPa) = 19.05384 43.68215 31.36800
# Shear Modulus (GPa) = 14.26840 25.47764 19.87302
#
# Velocity S-wave (km/s) = 2.78097 3.71610 3.28201
# Velocity P-wave (km/s) = 4.54305 6.48762 5.60038
#
# Compressibility (1/GPa) = 0.05248287
#
# Stress axis : x y z
#
# Youngs Moduli (GPa) = 32.58260 34.85984 46.09833
#
# Poissons Ratio (x) = -0.11058 0.54495
# Poissons Ratio (y) = -0.10336 0.26021
# Poissons Ratio (z) = 0.38517 0.19677
#
# Static dielectric constant tensor:
#      x y z
#    x 3.152240 -0.154970 -0.160510 
#    y -0.154970 3.246800 -0.036560 
#    z -0.160510 -0.036560 3.353730 
# 
# 
# High freq. dielectric constant tensor:
#      x y z
#    x 1.695580 -0.014960 -0.010500 
#    y -0.014960 1.702200 -0.010380 
#    z -0.010500 -0.010380 1.718490 
# 
# From -- ./inp_files/379576.got.cif
#   From: 2010.06.25/outbox.cif.g09.slc.cpg/sg2_190_cif.got.tgz:379576.got - 2010.06.27 13:26:56.
