data_PCOD8039453
_publ_section_title
;
Structure prediction by ZEFSAII (Michael W. Deem and Ramdas Pophale) SiO2 
 PCOD8039453
Probable space group: P -1
;
_chemical_formula_sum "Si O2"
_cell_formula_units_Z 14
_cell_length_a 8.464753
_cell_length_b 12.055773
_cell_length_c 12.884974
_cell_angle_alpha 40.788830
_cell_angle_beta 113.206736
_cell_angle_gamma 127.654132
_cell_volume 674.086713
_symmetry_space_group_name_H-M "P -1"
_symmetry_group_IT_number 2
_symmetry_cell_setting 'triclinic'
loop_
_space_group_symop_operation_xyz
x,y,z
-x,-y,-z
loop_
_atom_site_type_symbol
_atom_site_label
_atom_site_fract_x
_atom_site_fract_y
_atom_site_fract_z
Si Si1 0.031281 0.503341 0.384624
Si Si2 0.307127 0.781475 0.096025
Si Si3 0.641547 0.067894 0.361197
Si Si4 0.074805 0.805033 0.838279
Si Si5 0.974860 0.841744 0.479137
Si Si6 0.395484 0.676744 0.673003
Si Si7 0.291699 0.431234 0.222492
O O1 0.223332 0.703781 0.245593
O O2 0.070075 0.325629 0.497761
O O3 0.000000 0.500000 0.500000
O O4 0.838977 0.482477 0.290623
O O5 0.366611 0.637275 0.155510
O O6 0.124769 0.772573 0.990266
O O7 0.500000 0.000000 0.000000
O O8 0.726673 0.136519 0.219636
O O9 0.570363 0.213989 0.284009
O O10 0.806230 0.073531 0.477257
O O11 0.459263 0.838814 0.481117
O O12 0.876416 0.607756 0.881016
O O13 0.034842 0.984873 0.703702
O O14 0.813465 0.753676 0.593445
O O15 0.517191 0.562758 0.783498
#
# Coordination Sequence:
#
# PCOD8039453 Si02
#       7
#     2   2   2   2   2   2   2
#     4  10  24  42  61  85 125 163 204 251 303 365
#     4  11  27  44  59  85 126 169 209 245 304 366
#     4   9  17  31  60  98 122 145 191 252 303 358
#     4  11  19  38  65  92 120 158 203 255 304 357
#     4   9  17  35  63  94 118 154 206 247 297 369
#     4  10  18  33  62  94 121 146 203 249 299 349
#     4  10  19  38  64  93 122 163 201 249 301 372
#
# _framework density 20.768841999999999
#
# number of rings (size 3 to 8) (size 9 to 14) (size 15 to 20)
#    0.000    2.000    2.857    2.143    2.000    1.143 
#    0.000    8.571    0.000    0.000    0.000    0.000 
#    0.000    0.000    0.000    0.000    0.000    0.000 
#
# Total GULP energy -173582.143131 kJ/mol
# GULP energy per Si atom -12398.724509 kJ/mol
# Density = 2.072157 g / cm^3
# Si number density = 20.768842 Si / 1000 Ang^3
#
#
#
# Elastic Constant Matrix: (Units=GPa)
#
#
# Indices 1 2 3 4 5 6 
#
# 1 120.5692 34.9899 34.2679 -8.3099 0.3712 -13.8207
# 2 34.9899 93.7599 35.1252 -12.1285 -12.3301 -0.8331
# 3 34.2679 35.1252 72.5589 -0.8945 -7.8533 -13.5964
# 4 -8.3099 -12.1285 -0.8945 30.8965 0.7621 -8.1659
# 5 0.3712 -12.3301 -7.8533 0.7621 30.8410 -2.9651
# 6 -13.8207 -0.8331 -13.5964 -8.1659 -2.9651 26.8632
#
#
#
# Elastic Compliance Matrix: (Units=1/GPa)
#
#
# Indices 1 2 3 4 5 6 
#
# 1 0.010656 -0.002617 -0.003037 0.003007 -0.001580 0.004604
# 2 -0.002617 0.014939 -0.005877 0.004338 0.004201 -0.002075
# 3 -0.003037 -0.005877 0.020087 -0.000326 0.003649 0.008726
# 4 0.003007 0.004338 -0.000326 0.038360 0.001955 0.013393
# 5 -0.001580 0.004201 0.003649 0.001955 0.035550 0.005683
# 6 0.004604 -0.002075 0.008726 0.013393 0.005683 0.048645
#
#
# Mechanical properties :
#
#
# Convention : Reuss Voigt Hill
#
# Bulk Modulus (GPa) = 44.20647 55.07266 49.63956
# Shear Modulus (GPa) = 25.14602 29.88714 27.51658
#
# Velocity S-wave (km/s) = 3.48337 3.79758 3.64386
# Velocity P-wave (km/s) = 6.12451 6.76782 6.45419
#
# Compressibility (1/GPa) = 0.02262113
#
# Stress axis : x y z
#
# Youngs Moduli (GPa) = 93.83956 66.93947 49.78333
#
# Poissons Ratio (x) = 0.17517 0.15120
# Poissons Ratio (y) = 0.24557 0.29255
# Poissons Ratio (z) = 0.28501 0.39337
#
# Static dielectric constant tensor:
#      x y z
#    x 3.934550 -0.090460 -0.061730 
#    y -0.090460 3.631940 -0.178090 
#    z -0.061730 -0.178090 3.482810 
# 
# 
# High freq. dielectric constant tensor:
#      x y z
#    x 1.823270 -0.007740 -0.002150 
#    y -0.007740 1.795200 -0.018720 
#    z -0.002150 -0.018720 1.789840 
# 
# From -- ./inp_files/153807.got.cif
#   From: 2010.06.25/outbox.cif.g09.slc.cpg/sg2_77_cif.got.tgz:153807.got - 2010.06.27 13:26:56.
