data_PCOD8039311
_publ_section_title
;
Structure prediction by ZEFSAII (Michael W. Deem and Ramdas Pophale) SiO2 
 PCOD8039311
Probable space group: P -1
;
_chemical_formula_sum "Si O2"
_cell_formula_units_Z 16
_cell_length_a 18.749970
_cell_length_b 8.676985
_cell_length_c 12.616128
_cell_angle_alpha 97.757925
_cell_angle_beta 45.077882
_cell_angle_gamma 60.982851
_cell_volume 809.052367
_symmetry_space_group_name_H-M "P -1"
_symmetry_group_IT_number 2
_symmetry_cell_setting 'triclinic'
loop_
_space_group_symop_operation_xyz
x,y,z
-x,-y,-z
loop_
_atom_site_type_symbol
_atom_site_label
_atom_site_fract_x
_atom_site_fract_y
_atom_site_fract_z
Si Si1 0.748927 0.122648 0.039133
Si Si2 0.536126 0.779642 0.140323
Si Si3 0.527750 0.141708 0.178677
Si Si4 0.170391 0.848639 0.253885
Si Si5 0.736022 0.471498 0.324288
Si Si6 0.876246 0.953803 0.112595
Si Si7 0.516619 0.274318 0.579303
Si Si8 0.595044 0.219115 0.903987
O O1 0.686788 0.032291 0.059235
O O2 0.565900 0.447968 0.293699
O O3 0.886298 0.934816 0.973253
O O4 0.856251 0.085413 0.836440
O O5 0.494338 0.813482 0.311139
O O6 0.374672 0.934718 0.243300
O O7 0.595276 0.879893 0.065632
O O8 0.685702 0.471247 0.912128
O O9 0.351815 0.358240 0.458015
O O10 0.488544 0.269532 0.117072
O O11 0.214591 0.960373 0.269998
O O12 0.000000 0.000000 0.500000
O O13 0.593079 0.668912 0.395949
O O14 0.803712 0.211654 0.252358
O O15 0.917785 0.339086 0.092317
O O16 0.729860 0.012627 0.308232
O O17 0.500000 0.500000 0.000000
#
# Coordination Sequence:
#
# PCOD8039311 Si02
#       8
#     2   2   2   2   2   2   2   2
#     4   9  17  34  57  79 113 150 184 238 285 329
#     4  10  22  36  56  82 111 155 180 230 300 335
#     4  11  19  36  58  81 116 147 188 232 292 347
#     4   9  19  37  58  82 107 143 195 237 276 341
#     4  10  20  32  58  87 108 153 189 236 284 328
#     4  10  18  33  56  86 109 147 201 233 272 334
#     4  10  18  38  56  79 119 147 195 234 273 339
#     4   9  20  37  59  82 107 147 191 229 279 341
#
# _framework density 19.776223999999999
#
# number of rings (size 3 to 8) (size 9 to 14) (size 15 to 20)
#    0.000    2.250    2.500    1.875    0.000    2.500 
#    6.750    4.375    0.000    0.000    0.000    0.000 
#    0.000    0.000    0.000    0.000    0.000    0.000 
#
# Total GULP energy -198229.743596 kJ/mol
# GULP energy per Si atom -12389.358975 kJ/mol
# Density = 1.973121 g / cm^3
# Si number density = 19.776224 Si / 1000 Ang^3
#
#
#
# Elastic Constant Matrix: (Units=GPa)
#
#
# Indices 1 2 3 4 5 6 
#
# 1 113.6117 54.9677 47.7510 -13.6303 -1.0464 -2.9065
# 2 54.9677 89.0107 34.0300 -22.4959 4.2053 4.0598
# 3 47.7510 34.0300 113.7932 -28.4977 -19.9722 -7.1645
# 4 -13.6303 -22.4959 -28.4977 19.8922 0.0200 5.6657
# 5 -1.0464 4.2053 -19.9722 0.0200 32.0370 -2.7393
# 6 -2.9065 4.0598 -7.1645 5.6657 -2.7393 30.1931
#
#
#
# Elastic Compliance Matrix: (Units=1/GPa)
#
#
# Indices 1 2 3 4 5 6 
#
# 1 0.014712 -0.009353 -0.005979 -0.009902 -0.001761 0.002953
# 2 -0.009353 0.023039 0.002468 0.025588 -0.002529 -0.008444
# 3 -0.005979 0.002468 0.019054 0.026050 0.011322 -0.000247
# 4 -0.009902 0.025588 0.026050 0.115094 0.010877 -0.018823
# 5 -0.001761 -0.002529 0.011322 0.010877 0.038912 0.004347
# 6 0.002953 -0.008444 -0.000247 -0.018823 0.004347 0.038408
#
#
# Mechanical properties :
#
#
# Convention : Reuss Voigt Hill
#
# Bulk Modulus (GPa) = 32.17979 65.54590 48.86284
# Shear Modulus (GPa) = 17.52506 28.40224 22.96365
#
# Velocity S-wave (km/s) = 2.98009 3.79381 3.41130
# Velocity P-wave (km/s) = 5.30552 7.23923 6.34645
#
# Compressibility (1/GPa) = 0.03107541
#
# Stress axis : x y z
#
# Youngs Moduli (GPa) = 67.97349 43.40508 52.48104
#
# Poissons Ratio (x) = 0.40598 0.31380
# Poissons Ratio (y) = 0.63577 -0.12951
# Poissons Ratio (z) = 0.40643 -0.10711
#
# Static dielectric constant tensor:
#      x y z
#    x 4.625100 -0.473520 -0.115520 
#    y -0.473520 3.673020 -0.124040 
#    z -0.115520 -0.124040 3.419000 
# 
# 
# High freq. dielectric constant tensor:
#      x y z
#    x 1.785930 -0.005430 0.005260 
#    y -0.005430 1.749420 -0.026920 
#    z 0.005260 -0.026920 1.744370 
# 
# From -- ./inp_files/317166.got.cif
#   From: 2010.06.25/outbox.cif.g09.slc.cpg/sg2_159_cif.got.tgz:317166.got - 2010.06.27 13:26:56.
