data_PCOD8039687
_publ_section_title
;
Structure prediction by ZEFSAII (Michael W. Deem and Ramdas Pophale) SiO2 
 PCOD8039687
Probable space group: P -1
;
_chemical_formula_sum "Si O2"
_cell_formula_units_Z 16
_cell_length_a 11.283216
_cell_length_b 5.593937
_cell_length_c 17.004012
_cell_angle_alpha 103.719462
_cell_angle_beta 125.845480
_cell_angle_gamma 52.326086
_cell_volume 676.287496
_symmetry_space_group_name_H-M "P -1"
_symmetry_group_IT_number 2
_symmetry_cell_setting 'triclinic'
loop_
_space_group_symop_operation_xyz
x,y,z
-x,-y,-z
loop_
_atom_site_type_symbol
_atom_site_label
_atom_site_fract_x
_atom_site_fract_y
_atom_site_fract_z
Si Si1 0.295654 0.922487 0.127103
Si Si2 0.352959 0.392817 0.016400
Si Si3 0.030667 0.400394 0.287779
Si Si4 0.670941 0.753113 0.493927
Si Si5 0.792499 0.216009 0.760637
Si Si6 0.380412 0.195780 0.846048
Si Si7 0.991959 0.565196 0.105460
Si Si8 0.444493 0.654317 0.575108
O O1 0.262185 0.727538 0.041098
O O2 0.306314 0.848217 0.216787
O O3 0.487778 0.856293 0.176941
O O4 0.117974 0.275933 0.072069
O O5 0.544852 0.137400 0.113909
O O6 0.377926 0.397690 0.932488
O O7 0.220660 0.289531 0.974956
O O8 0.146031 0.441495 0.397716
O O9 0.049695 0.472312 0.211761
O O10 0.821423 0.629108 0.253818
O O11 0.110650 0.041691 0.290241
O O12 0.650634 0.492369 0.431889
O O13 0.500000 0.000000 0.500000
O O14 0.678068 0.969471 0.447980
O O15 0.950780 0.209469 0.867306
O O16 0.629655 0.542048 0.685031
O O17 0.500000 0.500000 0.500000
#
# Coordination Sequence:
#
# PCOD8039687 Si02
#       8
#     2   2   2   2   2   2   2   2
#     4  11  23  38  58  85 121 163 198 255 313 368
#     4  10  22  42  61  86 112 165 209 253 305 362
#     4  10  21  36  60  92 119 158 204 251 311 363
#     4  10  18  34  59  95 123 161 201 264 311 371
#     4  11  22  36  59  94 120 157 197 260 314 366
#     4  10  23  40  60  84 122 160 203 252 299 384
#     4  10  22  37  60  87 122 152 210 257 303 369
#     4  10  19  33  61  91 129 157 204 257 319 367
#
# _framework density 23.658574999999999
#
# number of rings (size 3 to 8) (size 9 to 14) (size 15 to 20)
#    0.000    1.750    2.500    3.000    1.750    8.000 
#    0.000    0.000    0.000    1.500    0.000    0.000 
#    0.000    0.000    0.000    0.000    0.000    0.000 
#
# Total GULP energy -198279.078148 kJ/mol
# GULP energy per Si atom -12392.442384 kJ/mol
# Density = 2.360473 g / cm^3
# Si number density = 23.658575 Si / 1000 Ang^3
#
#
#
# Elastic Constant Matrix: (Units=GPa)
#
#
# Indices 1 2 3 4 5 6 
#
# 1 85.5976 36.5321 7.2071 -11.4824 13.4689 -11.6881
# 2 36.5321 87.1573 26.7361 -8.5209 14.2841 5.0029
# 3 7.2071 26.7361 60.9962 -28.0237 27.0644 -10.0304
# 4 -11.4824 -8.5209 -28.0237 38.0130 -1.6841 7.2052
# 5 13.4689 14.2841 27.0644 -1.6841 33.5965 -1.5022
# 6 -11.6881 5.0029 -10.0304 7.2052 -1.5022 41.1333
#
#
#
# Elastic Compliance Matrix: (Units=1/GPa)
#
#
# Indices 1 2 3 4 5 6 
#
# 1 0.020217 -0.010133 0.017452 0.014424 -0.016770 0.008094
# 2 -0.010133 0.018816 -0.015878 -0.008826 0.008089 -0.007198
# 3 0.017452 -0.015878 0.068568 0.047397 -0.052507 0.013391
# 4 0.014424 -0.008826 0.047397 0.061104 -0.036940 0.004677
# 5 -0.016770 0.008089 -0.052507 -0.036940 0.073075 -0.009414
# 6 0.008094 -0.007198 0.013391 0.004677 -0.009414 0.029589
#
#
# Mechanical properties :
#
#
# Convention : Reuss Voigt Hill
#
# Bulk Modulus (GPa) = 11.05193 41.63352 26.34272
# Shear Modulus (GPa) = 15.69127 33.43361 24.56244
#
# Velocity S-wave (km/s) = 2.57814 3.76329 3.22561
# Velocity P-wave (km/s) = 3.68021 6.04310 5.00315
#
# Compressibility (1/GPa) = 0.09048193
#
# Stress axis : x y z
#
# Youngs Moduli (GPa) = 49.46359 53.14556 14.58410
#
# Poissons Ratio (x) = 0.53854 -0.25452
# Poissons Ratio (y) = 0.50123 0.23157
# Poissons Ratio (z) = -0.86324 0.84385
#
# Static dielectric constant tensor:
#      x y z
#    x 4.711790 0.769130 0.187030 
#    y 0.769130 4.991520 0.023260 
#    z 0.187030 0.023260 4.132000 
# 
# 
# High freq. dielectric constant tensor:
#      x y z
#    x 1.922020 0.017790 0.006550 
#    y 0.017790 1.923920 -0.015400 
#    z 0.006550 -0.015400 1.930470 
# 
# From -- ./inp_files/39289.got.cif
#   From: 2010.06.25/outbox.cif.g09.slc.cpg/sg2_20_cif.got.tgz:39289.got - 2010.06.27 13:26:56.
