data_PCOD8039721
_publ_section_title
;
Structure prediction by ZEFSAII (Michael W. Deem and Ramdas Pophale) SiO2 
 PCOD8039721
Probable space group: P -1
;
_chemical_formula_sum "Si O2"
_cell_formula_units_Z 16
_cell_length_a 9.328252
_cell_length_b 19.803363
_cell_length_c 25.707220
_cell_angle_alpha 159.970088
_cell_angle_beta 149.174226
_cell_angle_gamma 40.635100
_cell_volume 801.831412
_symmetry_space_group_name_H-M "P -1"
_symmetry_group_IT_number 2
_symmetry_cell_setting 'triclinic'
loop_
_space_group_symop_operation_xyz
x,y,z
-x,-y,-z
loop_
_atom_site_type_symbol
_atom_site_label
_atom_site_fract_x
_atom_site_fract_y
_atom_site_fract_z
Si Si1 0.263519 0.328282 0.058489
Si Si2 0.737968 0.890303 0.210906
Si Si3 0.850293 0.991169 0.870803
Si Si4 0.191627 0.344341 0.302952
Si Si5 0.833000 0.628308 0.432307
Si Si6 0.674332 0.831255 0.431947
Si Si7 0.828944 0.511966 0.007863
Si Si8 0.817019 0.022724 0.137953
O O1 0.567108 0.493257 0.285993
O O2 0.294722 0.219271 0.934722
O O3 0.010960 0.447023 0.064168
O O4 0.185991 0.165657 0.962232
O O5 0.455478 0.958185 0.186181
O O6 0.794225 0.741377 0.166610
O O7 0.011522 0.089563 0.439387
O O8 0.812709 0.772414 0.728312
O O9 0.943527 0.970735 0.826362
O O10 0.104559 0.171361 0.106247
O O11 0.500000 0.500000 0.500000
O O12 0.960949 0.476089 0.327514
O O13 0.707579 0.770979 0.458332
O O14 0.083053 0.764452 0.645470
O O15 0.495107 0.638820 0.203579
O O16 0.500000 0.000000 0.500000
O O17 0.000000 0.500000 0.000000
O O18 0.500000 0.000000 0.000000
#
# Coordination Sequence:
#
# PCOD8039721 Si02
#       8
#     2   2   2   2   2   2   2   2
#     4  11  21  39  65  91 124 162 210 254 305 373
#     4  11  20  37  63  92 122 157 204 259 305 359
#     4  11  25  42  59  91 128 158 204 269 310 359
#     4  11  23  39  65  86 116 161 216 258 311 360
#     4  12  22  38  63  91 119 164 211 250 303 378
#     4  12  18  31  63  97 120 153 206 258 306 361
#     4  10  18  34  61 100 119 152 208 263 298 361
#     4  12  27  42  61  89 130 169 207 252 315 369
#
# _framework density 19.954318000000001
#
# number of rings (size 3 to 8) (size 9 to 14) (size 15 to 20)
#    0.000    0.750    7.500    2.250    1.750    3.000 
#    0.000    0.625    0.000    5.250    0.000    0.000 
#    0.000    0.000    0.000    0.000    0.000    0.000 
#
# Total GULP energy -198425.845163 kJ/mol
# GULP energy per Si atom -12401.615323 kJ/mol
# Density = 1.990890 g / cm^3
# Si number density = 19.954318 Si / 1000 Ang^3
#
#
#
# Elastic Constant Matrix: (Units=GPa)
#
#
# Indices 1 2 3 4 5 6 
#
# 1 74.2361 44.4349 27.2000 7.4438 18.2501 4.5968
# 2 44.4349 123.4542 28.2354 4.6191 12.0452 6.0666
# 3 27.2000 28.2354 140.8805 -5.6567 32.9689 7.8761
# 4 7.4438 4.6191 -5.6567 36.5086 -1.2644 8.6980
# 5 18.2501 12.0452 32.9689 -1.2644 31.5086 -2.0648
# 6 4.5968 6.0666 7.8761 8.6980 -2.0648 26.4828
#
#
#
# Elastic Compliance Matrix: (Units=1/GPa)
#
#
# Indices 1 2 3 4 5 6 
#
# 1 0.019849 -0.005943 -0.000635 -0.003345 -0.008791 -0.001482
# 2 -0.005943 0.010478 -0.000989 -0.000005 0.000403 -0.001041
# 3 -0.000635 -0.000989 0.010097 0.002488 -0.009999 -0.004263
# 4 -0.003345 -0.000005 0.002488 0.030914 -0.000100 -0.010320
# 5 -0.008791 0.000403 -0.009999 -0.000100 0.047668 0.008157
# 6 -0.001482 -0.001041 -0.004263 -0.010320 0.008157 0.043549
#
#
# Mechanical properties :
#
#
# Convention : Reuss Voigt Hill
#
# Bulk Modulus (GPa) = 39.54245 59.81238 49.67741
# Shear Modulus (GPa) = 26.86443 34.81337 30.83890
#
# Velocity S-wave (km/s) = 3.67317 4.18144 3.93552
# Velocity P-wave (km/s) = 6.15216 7.30426 6.75283
#
# Compressibility (1/GPa) = 0.02528928
#
# Stress axis : x y z
#
# Youngs Moduli (GPa) = 50.38000 95.44254 99.03744
#
# Poissons Ratio (x) = 0.56724 0.06291
# Poissons Ratio (y) = 0.29942 0.09792
# Poissons Ratio (z) = 0.03200 0.09437
#
# Static dielectric constant tensor:
#      x y z
#    x 3.300120 0.096450 0.235520 
#    y 0.096450 4.127950 0.087300 
#    z 0.235520 0.087300 4.181560 
# 
# 
# High freq. dielectric constant tensor:
#      x y z
#    x 1.733790 0.001890 0.030730 
#    y 0.001890 1.801160 0.002480 
#    z 0.030730 0.002480 1.794610 
# 
# From -- ./inp_files/617557.got.cif
#   From: 2010.06.25/outbox.cif.g09.slc.cpg/sg2_309_cif.got.tgz:617557.got - 2010.06.27 13:26:56.
