data_PCOD8039317
_publ_section_title
;
Structure prediction by ZEFSAII (Michael W. Deem and Ramdas Pophale) SiO2 
 PCOD8039317
Probable space group: P -1
;
_chemical_formula_sum "Si O2"
_cell_formula_units_Z 12
_cell_length_a 9.014842
_cell_length_b 7.495779
_cell_length_c 15.752731
_cell_angle_alpha 130.629110
_cell_angle_beta 112.680859
_cell_angle_gamma 99.313668
_cell_volume 602.002869
_symmetry_space_group_name_H-M "P -1"
_symmetry_group_IT_number 2
_symmetry_cell_setting 'triclinic'
loop_
_space_group_symop_operation_xyz
x,y,z
-x,-y,-z
loop_
_atom_site_type_symbol
_atom_site_label
_atom_site_fract_x
_atom_site_fract_y
_atom_site_fract_z
Si Si1 0.047961 0.550993 0.792197
Si Si2 0.282974 0.362339 0.711763
Si Si3 0.098537 0.066144 0.416118
Si Si4 0.822766 0.231326 0.928749
Si Si5 0.054754 0.106294 0.230793
Si Si6 0.382947 0.491085 0.052184
O O1 0.234377 0.593250 0.795666
O O2 0.891643 0.210006 0.677965
O O3 0.933657 0.635975 0.734060
O O4 0.128069 0.749074 0.954791
O O5 0.501913 0.479170 0.827367
O O6 0.116576 0.053854 0.626269
O O7 0.272661 0.311756 0.592361
O O8 0.122257 0.207586 0.373896
O O9 0.632961 0.238738 0.875499
O O10 0.791218 0.941248 0.795543
O O11 0.000000 0.500000 0.000000
O O12 0.832553 0.812246 0.087409
O O13 0.500000 0.500000 0.000000
#
# Coordination Sequence:
#
# PCOD8039317 Si02
#       6
#     2   2   2   2   2   2
#     4  10  18  33  57  79 101 134 180 210 253 312
#     4   9  18  34  52  78 104 138 170 215 255 303
#     4   9  18  36  51  75 107 137 172 208 259 308
#     4  10  18  34  54  78 105 136 170 214 259 307
#     4  11  21  32  58  77 105 139 170 214 260 305
#     4  11  17  34  56  77 105 136 172 217 258 295
#
# _framework density 19.933458999999999
#
# number of rings (size 3 to 8) (size 9 to 14) (size 15 to 20)
#    1.000    1.000    6.667    0.500    0.000    1.333 
#    0.000    0.833    0.000    1.000    0.000    0.000 
#    0.000    0.000    0.000    0.000    0.000    0.000 
#
# Total GULP energy -148717.227594 kJ/mol
# GULP energy per Si atom -12393.102299 kJ/mol
# Density = 1.988809 g / cm^3
# Si number density = 19.933459 Si / 1000 Ang^3
#
#
#
# Elastic Constant Matrix: (Units=GPa)
#
#
# Indices 1 2 3 4 5 6 
#
# 1 75.8664 27.6920 36.6446 -10.8673 -9.1502 -29.9799
# 2 27.6920 96.6327 30.5388 -34.6746 -7.0809 -27.9405
# 3 36.6446 30.5388 146.5757 -44.5850 -18.6470 -10.9781
# 4 -10.8673 -34.6746 -44.5850 30.8273 4.8706 5.8909
# 5 -9.1502 -7.0809 -18.6470 4.8706 24.5762 -0.5607
# 6 -29.9799 -27.9405 -10.9781 5.8909 -0.5607 29.6638
#
#
#
# Elastic Compliance Matrix: (Units=1/GPa)
#
#
# Indices 1 2 3 4 5 6 
#
# 1 0.025865 0.001614 -0.004319 -0.001606 0.007741 0.026527
# 2 0.001614 0.029024 0.008394 0.039416 0.008077 0.024401
# 3 -0.004319 0.008394 0.016460 0.029806 0.007480 0.003855
# 4 -0.001606 0.039416 0.029806 0.112837 0.011567 0.024345
# 5 0.007741 0.008077 0.007480 0.011567 0.049666 0.016842
# 6 0.026527 0.024401 0.003855 0.024345 0.016842 0.080415
#
#
# Mechanical properties :
#
#
# Convention : Reuss Voigt Hill
#
# Bulk Modulus (GPa) = 12.08803 56.53618 34.31210
# Shear Modulus (GPa) = 15.13023 31.96010 23.54516
#
# Velocity S-wave (km/s) = 2.75805 4.00852 3.44057
# Velocity P-wave (km/s) = 4.02738 7.06033 5.74753
#
# Compressibility (1/GPa) = 0.08272645
#
# Stress axis : x y z
#
# Youngs Moduli (GPa) = 38.66303 34.45420 60.75280
#
# Poissons Ratio (x) = -0.05562 0.26241
# Poissons Ratio (y) = -0.06241 -0.50996
# Poissons Ratio (z) = 0.16700 -0.28921
#
# Static dielectric constant tensor:
#      x y z
#    x 3.827960 -0.472670 -0.264040 
#    y -0.472670 3.562670 -0.209110 
#    z -0.264040 -0.209110 3.616300 
# 
# 
# High freq. dielectric constant tensor:
#      x y z
#    x 1.753210 -0.023240 -0.026710 
#    y -0.023240 1.756760 -0.024730 
#    z -0.026710 -0.024730 1.770610 
# 
# From -- ./inp_files/210485.got.cif
#   From: 2010.06.25/outbox.cif.g09.slc.cpg/sg2_106_cif.got.tgz:210485.got - 2010.06.27 13:26:56.
