data_PCOD8039315
_publ_section_title
;
Structure prediction by ZEFSAII (Michael W. Deem and Ramdas Pophale) SiO2 
 PCOD8039315
Probable space group: P -1
;
_chemical_formula_sum "Si O2"
_cell_formula_units_Z 16
_cell_length_a 15.163659
_cell_length_b 9.101878
_cell_length_c 14.819161
_cell_angle_alpha 65.167193
_cell_angle_beta 136.502746
_cell_angle_gamma 141.112897
_cell_volume 832.809733
_symmetry_space_group_name_H-M "P -1"
_symmetry_group_IT_number 2
_symmetry_cell_setting 'triclinic'
loop_
_space_group_symop_operation_xyz
x,y,z
-x,-y,-z
loop_
_atom_site_type_symbol
_atom_site_label
_atom_site_fract_x
_atom_site_fract_y
_atom_site_fract_z
Si Si1 0.440883 0.156756 0.198809
Si Si2 0.885702 0.769963 0.859471
Si Si3 0.175737 0.599314 0.662478
Si Si4 0.904443 0.250703 0.853973
Si Si5 0.331883 0.959149 0.847367
Si Si6 0.930158 0.734985 0.184827
Si Si7 0.109816 0.760492 0.912250
Si Si8 0.412955 0.496973 0.140559
O O1 0.644080 0.260920 0.306715
O O2 0.483898 0.383986 0.198890
O O3 0.328894 0.953461 0.249669
O O4 0.301098 0.000834 0.047691
O O5 0.675917 0.573768 0.805193
O O6 0.915683 0.672727 0.823683
O O7 0.924750 0.975152 0.785146
O O8 0.045172 0.877918 0.029315
O O9 0.231542 0.779159 0.734376
O O10 0.113911 0.367850 0.720796
O O11 0.000000 0.500000 0.500000
O O12 0.956418 0.301629 0.774113
O O13 0.953952 0.487584 0.056542
O O14 0.164199 0.837057 0.828416
O O15 0.408660 0.206043 0.806880
O O16 0.500000 0.000000 0.000000
O O17 0.729840 0.582670 0.024396
#
# Coordination Sequence:
#
# PCOD8039315 Si02
#       8
#     2   2   2   2   2   2   2   2
#     4  11  21  36  60  92 126 155 199 246 315 352
#     4  10  19  31  56  95 130 148 183 252 323 349
#     4  12  28  44  59  83 125 171 206 243 301 363
#     4  10  18  33  56  98 127 147 188 258 307 353
#     4  12  22  38  61  93 120 157 205 255 297 351
#     4  11  18  37  61  84 129 152 195 245 307 356
#     4  11  20  31  59  98 126 150 190 250 309 358
#     4  11  20  34  61 100 123 146 196 264 303 357
#
# _framework density 19.212070000000001
#
# number of rings (size 3 to 8) (size 9 to 14) (size 15 to 20)
#    0.000    1.000    7.500    3.000    3.500    1.000 
#    0.000    1.250    0.000    0.750    0.000    0.000 
#    0.000    0.000    0.000    0.000    0.000    0.000 
#
# Total GULP energy -198235.182439 kJ/mol
# GULP energy per Si atom -12389.698902 kJ/mol
# Density = 1.916834 g / cm^3
# Si number density = 19.212070 Si / 1000 Ang^3
#
#
#
# Elastic Constant Matrix: (Units=GPa)
#
#
# Indices 1 2 3 4 5 6 
#
# 1 127.3743 22.5361 38.2525 10.9955 17.3621 1.6962
# 2 22.5361 108.6506 30.5729 -2.0939 9.0924 -7.1355
# 3 38.2525 30.5729 57.6161 8.8656 1.6218 -0.2509
# 4 10.9955 -2.0939 8.8656 12.5247 0.4680 -0.0181
# 5 17.3621 9.0924 1.6218 0.4680 14.7524 2.7188
# 6 1.6962 -7.1355 -0.2509 -0.0181 2.7188 33.0562
#
#
#
# Elastic Compliance Matrix: (Units=1/GPa)
#
#
# Indices 1 2 3 4 5 6 
#
# 1 0.012260 0.000627 -0.007314 -0.004958 -0.013964 0.000597
# 2 0.000627 0.012334 -0.007849 0.007383 -0.008312 0.003258
# 3 -0.007314 -0.007849 0.028429 -0.015436 0.011184 -0.002032
# 4 -0.004958 0.007383 -0.015436 0.096374 -0.000410 0.001817
# 5 -0.013964 -0.008312 0.011184 -0.000410 0.089668 -0.008368
# 6 0.000597 0.003258 -0.002032 0.001817 -0.008368 0.031598
#
#
# Mechanical properties :
#
#
# Convention : Reuss Voigt Hill
#
# Bulk Modulus (GPa) = 41.75175 52.92932 47.34054
# Shear Modulus (GPa) = 16.24865 25.55196 20.90031
#
# Velocity S-wave (km/s) = 2.91134 3.65087 3.30187
# Velocity P-wave (km/s) = 5.75156 6.73659 6.26347
#
# Compressibility (1/GPa) = 0.02395109
#
# Stress axis : x y z
#
# Youngs Moduli (GPa) = 81.56764 81.07507 35.17593
#
# Poissons Ratio (x) = -0.05086 0.25727
# Poissons Ratio (y) = -0.05117 0.27610
# Poissons Ratio (z) = 0.59657 0.63638
#
# Static dielectric constant tensor:
#      x y z
#    x 4.127480 0.111310 0.000430 
#    y 0.111310 3.819570 -0.081000 
#    z 0.000430 -0.081000 2.753400 
# 
# 
# High freq. dielectric constant tensor:
#      x y z
#    x 1.778660 0.006970 0.002640 
#    y 0.006970 1.770140 -0.009880 
#    z 0.002640 -0.009880 1.649590 
# 
# From -- ./inp_files/528310.got.cif
#   From: 2010.06.25/outbox.cif.g09.slc.cpg/sg2_265_cif.got.tgz:528310.got - 2010.06.27 13:26:56.
