data_PCOD8039708
_publ_section_title
;
Structure prediction by ZEFSAII (Michael W. Deem and Ramdas Pophale) SiO2 
 PCOD8039708
Probable space group: P -1
;
_chemical_formula_sum "Si O2"
_cell_formula_units_Z 16
_cell_length_a 16.106512
_cell_length_b 9.805678
_cell_length_c 9.149545
_cell_angle_alpha 66.463303
_cell_angle_beta 77.945283
_cell_angle_gamma 129.928015
_cell_volume 761.794477
_symmetry_space_group_name_H-M "P -1"
_symmetry_group_IT_number 2
_symmetry_cell_setting 'triclinic'
loop_
_space_group_symop_operation_xyz
x,y,z
-x,-y,-z
loop_
_atom_site_type_symbol
_atom_site_label
_atom_site_fract_x
_atom_site_fract_y
_atom_site_fract_z
Si Si1 0.718540 0.111529 0.210848
Si Si2 0.046700 0.540544 0.243631
Si Si3 0.725774 0.075612 0.544041
Si Si4 0.968641 0.817217 0.484710
Si Si5 0.213026 0.018103 0.165160
Si Si6 0.451225 0.341445 0.725119
Si Si7 0.476408 0.927916 0.802680
Si Si8 0.649352 0.396530 0.740501
O O1 0.711776 0.006033 0.408184
O O2 0.635152 0.152549 0.236221
O O3 0.635914 0.921893 0.187887
O O4 0.883135 0.354251 0.988875
O O5 0.038888 0.354488 0.362515
O O6 0.136103 0.761081 0.237173
O O7 0.884226 0.377567 0.368470
O O8 0.715481 0.927286 0.728328
O O9 0.593101 0.998131 0.643382
O O10 0.818245 0.636248 0.537243
O O11 0.097812 0.987528 0.244878
O O12 0.000000 0.000000 0.500000
O O13 0.339703 0.265483 0.909586
O O14 0.500000 0.500000 0.500000
O O15 0.590129 0.480133 0.703245
O O16 0.569972 0.172711 0.758543
O O17 0.376974 0.684966 0.047026
#
# Coordination Sequence:
#
# PCOD8039708 Si02
#       8
#     2   2   2   2   2   2   2   2
#     4  10  21  35  56  89 122 148 196 259 302 342
#     4  10  20  38  62  83 121 164 206 239 284 373
#     4  11  19  32  57  94 116 146 194 254 303 340
#     4  11  22  37  58  94 125 155 195 253 305 352
#     4  10  21  40  64  87 114 166 214 237 290 373
#     4  10  22  41  60  83 114 159 206 250 294 364
#     4  10  18  34  60  87 113 153 206 243 292 352
#     4  10  19  37  61  82 115 162 198 242 296 363
#
# _framework density 21.003042000000001
#
# number of rings (size 3 to 8) (size 9 to 14) (size 15 to 20)
#    0.000    1.750    2.500    3.750    0.000    2.000 
#    2.250    3.125    0.000    0.000    0.000    0.000 
#    0.000    0.000    0.000    0.000    0.000    0.000 
#
# Total GULP energy -198221.526050 kJ/mol
# GULP energy per Si atom -12388.845378 kJ/mol
# Density = 2.095524 g / cm^3
# Si number density = 21.003042 Si / 1000 Ang^3
#
#
#
# Elastic Constant Matrix: (Units=GPa)
#
#
# Indices 1 2 3 4 5 6 
#
# 1 114.0132 26.6062 67.4077 6.6152 -31.9455 5.0258
# 2 26.6062 44.5714 17.6537 12.8990 0.2152 -5.9921
# 3 67.4077 17.6537 140.0987 20.4672 -25.1748 2.6442
# 4 6.6152 12.8990 20.4672 25.3656 -1.5147 3.7080
# 5 -31.9455 0.2152 -25.1748 -1.5147 40.6921 6.2549
# 6 5.0258 -5.9921 2.6442 3.7080 6.2549 30.4687
#
#
#
# Elastic Compliance Matrix: (Units=1/GPa)
#
#
# Indices 1 2 3 4 5 6 
#
# 1 0.018798 -0.012401 -0.006304 0.008499 0.012562 -0.008606
# 2 -0.012401 0.036717 0.001858 -0.019662 -0.011648 0.013889
# 3 -0.006304 0.001858 0.011471 -0.008622 0.001645 0.001121
# 4 0.008499 -0.019662 -0.008622 0.056315 0.005458 -0.012494
# 5 0.012562 -0.011648 0.001645 0.005458 0.037704 -0.012910
# 6 -0.008606 0.013889 0.001121 -0.012494 -0.012910 0.041045
#
#
# Mechanical properties :
#
#
# Convention : Reuss Voigt Hill
#
# Bulk Modulus (GPa) = 30.03885 58.00206 44.02045
# Shear Modulus (GPa) = 20.25598 31.77300 26.01449
#
# Velocity S-wave (km/s) = 3.10890 3.89367 3.52320
# Velocity P-wave (km/s) = 5.21730 6.92027 6.12823
#
# Compressibility (1/GPa) = 0.03329022
#
# Stress axis : x y z
#
# Youngs Moduli (GPa) = 53.19752 27.23554 87.17904
#
# Poissons Ratio (x) = 0.33776 0.54954
# Poissons Ratio (y) = 0.65973 -0.16194
# Poissons Ratio (z) = 0.33533 -0.05059
#
# Static dielectric constant tensor:
#      x y z
#    x 4.172970 0.169430 -0.498710 
#    y 0.169430 3.641630 0.008080 
#    z -0.498710 0.008080 3.975140 
# 
# 
# High freq. dielectric constant tensor:
#      x y z
#    x 1.827930 0.013640 -0.028180 
#    y 0.013640 1.792810 0.010650 
#    z -0.028180 0.010650 1.825190 
# 
# From -- ./inp_files/297637.got.cif
#   From: 2010.06.25/outbox.cif.g09.slc.cpg/sg2_149_cif.got.tgz:297637.got - 2010.06.27 13:26:56.
