data_PCOD8039873
_publ_section_title
;
Structure prediction by ZEFSAII (Michael W. Deem and Ramdas Pophale) SiO2 
 PCOD8039873
Probable space group: P -1
;
_chemical_formula_sum "Si O2"
_cell_formula_units_Z 16
_cell_length_a 10.937369
_cell_length_b 11.610857
_cell_length_c 17.172961
_cell_angle_alpha 97.931324
_cell_angle_beta 144.705130
_cell_angle_gamma 56.570766
_cell_volume 802.433612
_symmetry_space_group_name_H-M "P -1"
_symmetry_group_IT_number 2
_symmetry_cell_setting 'triclinic'
loop_
_space_group_symop_operation_xyz
x,y,z
-x,-y,-z
loop_
_atom_site_type_symbol
_atom_site_label
_atom_site_fract_x
_atom_site_fract_y
_atom_site_fract_z
Si Si1 0.658919 0.880543 0.788673
Si Si2 0.331347 0.326423 0.480557
Si Si3 0.175118 0.611144 0.502916
Si Si4 0.420499 0.231133 0.696482
Si Si5 0.161522 0.005142 0.651523
Si Si6 0.396208 0.594889 0.157480
Si Si7 0.810664 0.007550 0.585286
Si Si8 0.801033 0.371818 0.202388
O O1 0.442187 0.933474 0.606346
O O2 0.634453 0.027653 0.806419
O O3 0.533911 0.870742 0.802917
O O4 0.042260 0.691361 0.958206
O O5 0.262864 0.494257 0.462700
O O6 0.406313 0.249340 0.598425
O O7 0.631521 0.172709 0.564817
O O8 0.007403 0.398013 0.288070
O O9 0.507670 0.492408 0.714773
O O10 0.940722 0.633961 0.440799
O O11 0.023376 0.794770 0.412616
O O12 0.600632 0.265882 0.832144
O O13 0.120378 0.947580 0.703343
O O14 0.000000 0.000000 0.500000
O O15 0.669840 0.428109 0.227028
O O16 0.958250 0.841222 0.698542
O O17 0.500000 0.500000 0.000000
#
# Coordination Sequence:
#
# PCOD8039873 Si02
#       8
#     2   2   2   2   2   2   2   2
#     4  10  20  35  59  85 113 151 191 236 280 341
#     4  11  20  36  59  84 119 151 186 236 292 344
#     4  10  19  38  62  86 116 152 192 235 280 341
#     4  10  18  35  57  83 119 148 184 236 290 341
#     4   9  20  40  61  79 112 161 195 228 280 342
#     4  11  19  33  56  92 113 140 192 239 289 330
#     4  11  23  40  56  80 119 158 193 229 289 343
#     4  12  23  36  57  86 119 147 190 242 291 343
#
# _framework density 19.939343999999998
#
# number of rings (size 3 to 8) (size 9 to 14) (size 15 to 20)
#    0.000    1.500    3.750    3.750    1.750    0.500 
#    0.000    6.875    0.000    3.750    0.000    0.000 
#    0.000    0.000    0.000    0.000    0.000    0.000 
#
# Total GULP energy -198338.836364 kJ/mol
# GULP energy per Si atom -12396.177273 kJ/mol
# Density = 1.989396 g / cm^3
# Si number density = 19.939344 Si / 1000 Ang^3
#
#
#
# Elastic Constant Matrix: (Units=GPa)
#
#
# Indices 1 2 3 4 5 6 
#
# 1 52.7488 20.9517 19.2960 4.8247 7.9655 -8.3488
# 2 20.9517 109.7375 9.1094 4.2011 3.1362 -14.7674
# 3 19.2960 9.1094 74.9498 -1.7475 3.7168 0.6154
# 4 4.8247 4.2011 -1.7475 20.5630 -4.0759 5.9994
# 5 7.9655 3.1362 3.7168 -4.0759 22.0879 -2.7800
# 6 -8.3488 -14.7674 0.6154 5.9994 -2.7800 30.4871
#
#
#
# Elastic Compliance Matrix: (Units=1/GPa)
#
#
# Indices 1 2 3 4 5 6 
#
# 1 0.025606 -0.002838 -0.006097 -0.009680 -0.008727 0.006869
# 2 -0.002838 0.010489 -0.000640 -0.003015 -0.000300 0.004882
# 3 -0.006097 -0.000640 0.015099 0.003735 0.000059 -0.003014
# 4 -0.009680 -0.003015 0.003735 0.058520 0.012253 -0.014585
# 5 -0.008727 -0.000300 0.000059 0.012253 0.050673 -0.000327
# 6 0.006869 0.004882 -0.003014 -0.014585 -0.000327 0.039948
#
#
# Mechanical properties :
#
#
# Convention : Reuss Voigt Hill
#
# Bulk Modulus (GPa) = 31.20714 37.35005 34.27859
# Shear Modulus (GPa) = 21.72359 27.16621 24.44490
#
# Velocity S-wave (km/s) = 3.30431 3.69513 3.50517
# Velocity P-wave (km/s) = 5.49936 6.08094 5.79745
#
# Compressibility (1/GPa) = 0.03204395
#
# Stress axis : x y z
#
# Youngs Moduli (GPa) = 39.05360 95.34116 66.23169
#
# Poissons Ratio (x) = 0.27061 0.40379
# Poissons Ratio (y) = 0.11085 0.04236
# Poissons Ratio (z) = 0.23810 0.06098
#
# Static dielectric constant tensor:
#      x y z
#    x 4.051470 0.180730 0.317440 
#    y 0.180730 4.100750 0.108150 
#    z 0.317440 0.108150 3.405430 
# 
# 
# High freq. dielectric constant tensor:
#      x y z
#    x 1.759280 -0.006680 0.017580 
#    y -0.006680 1.793160 0.001290 
#    z 0.017580 0.001290 1.754170 
# 
# From -- ./inp_files/218081.got.cif
#   From: 2010.06.25/outbox.cif.g09.slc.cpg/sg2_110_cif.got.tgz:218081.got - 2010.06.27 13:26:56.
