data_PCOD8039862
_publ_section_title
;
Structure prediction by ZEFSAII (Michael W. Deem and Ramdas Pophale) SiO2 
 PCOD8039862
Probable space group: P -1
;
_chemical_formula_sum "Si O2"
_cell_formula_units_Z 16
_cell_length_a 21.421481
_cell_length_b 8.756923
_cell_length_c 6.570081
_cell_angle_alpha 123.896240
_cell_angle_beta 134.881236
_cell_angle_gamma 56.689136
_cell_volume 699.022513
_symmetry_space_group_name_H-M "P -1"
_symmetry_group_IT_number 2
_symmetry_cell_setting 'triclinic'
loop_
_space_group_symop_operation_xyz
x,y,z
-x,-y,-z
loop_
_atom_site_type_symbol
_atom_site_label
_atom_site_fract_x
_atom_site_fract_y
_atom_site_fract_z
Si Si1 0.389976 0.224507 0.549854
Si Si2 0.123023 0.417187 0.622294
Si Si3 0.877845 0.315025 0.532257
Si Si4 0.401081 0.889761 0.031058
Si Si5 0.710568 0.839590 0.341664
Si Si6 0.282194 0.613995 0.477956
Si Si7 0.168156 0.890169 0.098981
Si Si8 0.972460 0.231662 0.079120
O O1 0.493688 0.222742 0.836041
O O2 0.333115 0.255327 0.650747
O O3 0.347751 0.401949 0.433907
O O4 0.385461 0.025636 0.292765
O O5 0.094714 0.525570 0.422685
O O6 0.232580 0.321778 0.804394
O O7 0.098627 0.566314 0.861564
O O8 0.071183 0.248721 0.394010
O O9 0.792711 0.405813 0.546816
O O10 0.963553 0.218307 0.804089
O O11 0.851611 0.157886 0.211929
O O12 0.341710 0.741192 0.814687
O O13 0.370855 0.012219 0.848763
O O14 0.788795 0.932829 0.679053
O O15 0.238322 0.710955 0.238272
O O16 0.068353 0.934148 0.025726
#
# Coordination Sequence:
#
# PCOD8039862 Si02
#       8
#     2   2   2   2   2   2   2   2
#     4  11  22  39  61  85 116 157 195 235 297 345
#     4  10  20  34  57  85 114 149 194 234 283 347
#     4  10  18  35  57  81 113 149 194 235 280 344
#     4  10  24  39  57  88 122 147 193 249 285 347
#     4  11  22  38  59  85 116 150 192 240 290 343
#     4  10  20  37  60  84 116 156 193 233 291 346
#     4   9  21  36  55  85 118 149 190 239 286 339
#     4   9  20  36  55  84 115 153 187 237 285 337
#
# _framework density 22.889104
#
# number of rings (size 3 to 8) (size 9 to 14) (size 15 to 20)
#    0.000    2.000    1.250    1.875    5.250    0.500 
#    0.000    0.625    0.000    8.250    0.000    0.000 
#    0.000    0.000    0.000    0.000    0.000    0.000 
#
# Total GULP energy -198380.673771 kJ/mol
# GULP energy per Si atom -12398.792111 kJ/mol
# Density = 2.283701 g / cm^3
# Si number density = 22.889104 Si / 1000 Ang^3
#
#
#
# Elastic Constant Matrix: (Units=GPa)
#
#
# Indices 1 2 3 4 5 6 
#
# 1 81.2834 15.1309 20.1201 -7.1408 3.5111 -9.4922
# 2 15.1309 63.4158 -1.5837 -8.7269 -0.6356 0.8832
# 3 20.1201 -1.5837 96.4670 -6.7995 -0.1807 2.3751
# 4 -7.1408 -8.7269 -6.7995 26.3523 5.3525 4.0181
# 5 3.5111 -0.6356 -0.1807 5.3525 36.0941 0.8833
# 6 -9.4922 0.8832 2.3751 4.0181 0.8833 33.3364
#
#
#
# Elastic Compliance Matrix: (Units=1/GPa)
#
#
# Indices 1 2 3 4 5 6 
#
# 1 0.014409 -0.003353 -0.003046 0.001733 -0.001837 0.004248
# 2 -0.003353 0.017402 0.001432 0.005585 -0.000135 -0.002187
# 3 -0.003046 0.001432 0.011278 0.002872 0.000002 -0.002055
# 4 0.001733 0.005585 0.002872 0.043035 -0.006318 -0.004879
# 5 -0.001837 -0.000135 0.000002 -0.006318 0.028831 -0.000522
# 6 0.004248 -0.002187 -0.002055 -0.004879 -0.000522 0.032013
#
#
# Mechanical properties :
#
#
# Convention : Reuss Voigt Hill
#
# Bulk Modulus (GPa) = 30.16091 34.27784 32.21937
# Shear Modulus (GPa) = 29.77011 32.98981 31.37996
#
# Velocity S-wave (km/s) = 3.61033 3.80055 3.70666
# Velocity P-wave (km/s) = 5.53036 5.85380 5.69438
#
# Compressibility (1/GPa) = 0.03315550
#
# Stress axis : x y z
#
# Youngs Moduli (GPa) = 69.40336 57.46329 88.66748
#
# Poissons Ratio (x) = 0.19267 0.27009
# Poissons Ratio (y) = 0.23271 -0.12700
# Poissons Ratio (z) = 0.21141 -0.08230
#
# Static dielectric constant tensor:
#      x y z
#    x 4.139280 -0.142390 0.240740 
#    y -0.142390 4.197560 0.083990 
#    z 0.240740 0.083990 4.161490 
# 
# 
# High freq. dielectric constant tensor:
#      x y z
#    x 1.900730 -0.007670 0.013510 
#    y -0.007670 1.910560 0.008330 
#    z 0.013510 0.008330 1.909150 
# 
# From -- ./inp_files/47125.got.cif
#   From: 2010.06.25/outbox.cif.g09.slc.cpg/sg2_24_cif.got.tgz:47125.got - 2010.06.27 13:26:56.
