data_PCOD8039555
_publ_section_title
;
Structure prediction by ZEFSAII (Michael W. Deem and Ramdas Pophale) SiO2 
 PCOD8039555
Probable space group: P -1
;
_chemical_formula_sum "Si O2"
_cell_formula_units_Z 16
_cell_length_a 11.183799
_cell_length_b 16.277196
_cell_length_c 15.301823
_cell_angle_alpha 154.800745
_cell_angle_beta 118.645515
_cell_angle_gamma 77.209146
_cell_volume 856.372114
_symmetry_space_group_name_H-M "P -1"
_symmetry_group_IT_number 2
_symmetry_cell_setting 'triclinic'
loop_
_space_group_symop_operation_xyz
x,y,z
-x,-y,-z
loop_
_atom_site_type_symbol
_atom_site_label
_atom_site_fract_x
_atom_site_fract_y
_atom_site_fract_z
Si Si1 0.477509 0.540305 0.345928
Si Si2 0.760663 0.954692 0.152669
Si Si3 0.684993 0.655083 0.680037
Si Si4 0.218685 0.582393 0.402167
Si Si5 0.672450 0.429335 0.991086
Si Si6 0.850766 0.178742 0.836394
Si Si7 0.612308 0.702337 0.359635
Si Si8 0.939078 0.922475 0.500850
O O1 0.659055 0.693966 0.606812
O O2 0.339461 0.578234 0.369902
O O3 0.511686 0.612910 0.327719
O O4 0.399873 0.264171 0.065576
O O5 0.920538 0.035387 0.343021
O O6 0.730124 0.155484 0.323654
O O7 0.786922 0.889203 0.000775
O O8 0.500000 0.500000 0.500000
O O9 0.760176 0.501742 0.575881
O O10 0.028164 0.406979 0.141990
O O11 0.662117 0.527130 0.176450
O O12 0.799663 0.646708 0.183123
O O13 0.725599 0.253421 0.852796
O O14 0.496587 0.287019 0.744383
O O15 0.865131 0.068033 0.645477
O O16 0.774959 0.970917 0.683132
O O17 0.000000 0.000000 0.500000
#
# Coordination Sequence:
#
# PCOD8039555 Si02
#       8
#     2   2   2   2   2   2   2   2
#     4  10  21  37  58  86 112 146 187 237 275 325
#     4  10  18  34  56  83 116 140 181 233 280 326
#     4   8  18  34  56  82 113 147 181 229 285 325
#     4  10  19  34  61  85 110 147 185 231 281 330
#     4  10  22  38  58  79 112 159 182 219 283 335
#     4  11  21  38  59  82 114 151 186 223 281 336
#     4  10  23  40  56  79 118 149 190 225 272 339
#     4  11  21  33  56  87 114 140 180 234 276 323
#
# _framework density 18.683467
#
# number of rings (size 3 to 8) (size 9 to 14) (size 15 to 20)
#    0.000    2.250    3.750    1.125    0.000    7.000 
#    0.000    0.625    0.000    1.500    0.000    0.000 
#    0.000    0.000    0.000    0.000    0.000    0.000 
#
# Total GULP energy -198267.886740 kJ/mol
# GULP energy per Si atom -12391.742921 kJ/mol
# Density = 1.864094 g / cm^3
# Si number density = 18.683467 Si / 1000 Ang^3
#
#
#
# Elastic Constant Matrix: (Units=GPa)
#
#
# Indices 1 2 3 4 5 6 
#
# 1 88.7220 49.1884 32.9036 10.1440 -11.6921 -10.7543
# 2 49.1884 70.8120 35.3487 0.9700 -11.4963 -8.8072
# 3 32.9036 35.3487 85.9106 11.6425 -9.5861 -8.4569
# 4 10.1440 0.9700 11.6425 27.4338 -7.5559 -1.5738
# 5 -11.6921 -11.4963 -9.5861 -7.5559 25.4829 13.1427
# 6 -10.7543 -8.8072 -8.4569 -1.5738 13.1427 28.4321
#
#
#
# Elastic Compliance Matrix: (Units=1/GPa)
#
#
# Indices 1 2 3 4 5 6 
#
# 1 0.019845 -0.012793 -0.001239 -0.006352 -0.000620 0.003110
# 2 -0.012793 0.027286 -0.006816 0.008522 0.007014 -0.001185
# 3 -0.001239 -0.006816 0.015885 -0.006069 -0.000526 0.002052
# 4 -0.006352 0.008522 -0.006069 0.044880 0.015076 -0.006053
# 5 -0.000620 0.007014 -0.000526 0.015076 0.059145 -0.024724
# 6 0.003110 -0.001185 0.002052 -0.006053 -0.024724 0.047685
#
#
# Mechanical properties :
#
#
# Convention : Reuss Voigt Hill
#
# Bulk Modulus (GPa) = 46.90653 53.36955 50.13804
# Shear Modulus (GPa) = 18.97335 24.80334 21.88835
#
# Velocity S-wave (km/s) = 3.19017 3.64752 3.42648
# Velocity P-wave (km/s) = 6.22334 6.80928 6.52289
#
# Compressibility (1/GPa) = 0.02131899
#
# Stress axis : x y z
#
# Youngs Moduli (GPa) = 50.39081 36.64926 62.95314
#
# Poissons Ratio (x) = 0.46887 0.07799
# Poissons Ratio (y) = 0.64467 0.42909
# Poissons Ratio (z) = 0.06242 0.24980
#
# Static dielectric constant tensor:
#      x y z
#    x 3.396050 -0.120830 -0.060090 
#    y -0.120830 3.817470 -0.403980 
#    z -0.060090 -0.403980 3.840210 
# 
# 
# High freq. dielectric constant tensor:
#      x y z
#    x 1.712560 -0.019420 0.001350 
#    y -0.019420 1.710780 -0.003080 
#    z 0.001350 -0.003080 1.736990 
# 
# From -- ./inp_files/521129.got.cif
#   From: 2010.06.25/outbox.cif.g09.slc.cpg/sg2_261_cif.got.tgz:521129.got - 2010.06.27 13:26:56.
