data_PCOD8039335
_publ_section_title
;
Structure prediction by ZEFSAII (Michael W. Deem and Ramdas Pophale) SiO2 
 PCOD8039335
Probable space group: P -1
;
_chemical_formula_sum "Si O2"
_cell_formula_units_Z 16
_cell_length_a 10.987168
_cell_length_b 7.528369
_cell_length_c 11.417026
_cell_angle_alpha 79.336743
_cell_angle_beta 128.129150
_cell_angle_gamma 91.196614
_cell_volume 724.685011
_symmetry_space_group_name_H-M "P -1"
_symmetry_group_IT_number 2
_symmetry_cell_setting 'triclinic'
loop_
_space_group_symop_operation_xyz
x,y,z
-x,-y,-z
loop_
_atom_site_type_symbol
_atom_site_label
_atom_site_fract_x
_atom_site_fract_y
_atom_site_fract_z
Si Si1 0.106242 0.348470 0.742819
Si Si2 0.629731 0.127953 0.354538
Si Si3 0.370001 0.629569 0.062435
Si Si4 0.430436 0.242718 0.021374
Si Si5 0.080327 0.724971 0.565675
Si Si6 0.434699 0.502665 0.591267
Si Si7 0.026165 0.583167 0.881386
Si Si8 0.799574 0.765225 0.562531
O O1 0.146889 0.518530 0.666237
O O2 0.031860 0.417768 0.812909
O O3 0.979936 0.252412 0.607089
O O4 0.262015 0.207026 0.874883
O O5 0.488425 0.110529 0.180789
O O6 0.774199 0.161673 0.352414
O O7 0.595555 0.289423 0.408429
O O8 0.667982 0.938688 0.470278
O O9 0.408481 0.443380 0.038066
O O10 0.441965 0.614179 0.236849
O O11 0.446640 0.779046 0.011539
O O12 0.183583 0.680798 0.957029
O O13 0.940556 0.805360 0.557119
O O14 0.500000 0.500000 0.500000
O O15 0.275007 0.410211 0.508623
O O16 0.875512 0.726626 0.741348
O O17 0.000000 0.500000 0.000000
#
# Coordination Sequence:
#
# PCOD8039335 Si02
#       8
#     2   2   2   2   2   2   2   2
#     4   9  17  31  56  82 110 150 190 229 278 337
#     4  11  22  37  60  87 116 148 185 236 289 339
#     4   9  17  31  55  80 106 146 188 227 276 333
#     4   9  16  31  53  81 110 141 183 231 284 330
#     4  10  18  33  57  87 117 144 184 238 291 337
#     4  11  23  40  60  81 114 157 195 232 276 330
#     4  10  19  33  54  80 111 149 189 228 275 332
#     4  11  23  38  60  88 114 147 191 234 284 344
#
# _framework density 22.078557
#
# number of rings (size 3 to 8) (size 9 to 14) (size 15 to 20)
#    0.000    2.000    0.000    7.875    0.000    0.500 
#    0.000    3.750    0.000    5.250    0.000    0.000 
#    0.000    0.000    0.000    0.000    0.000    0.000 
#
# Total GULP energy -198337.005647 kJ/mol
# GULP energy per Si atom -12396.062853 kJ/mol
# Density = 2.202830 g / cm^3
# Si number density = 22.078557 Si / 1000 Ang^3
#
#
#
# Elastic Constant Matrix: (Units=GPa)
#
#
# Indices 1 2 3 4 5 6 
#
# 1 77.3414 15.9594 53.0700 -4.8624 -10.9599 -5.4778
# 2 15.9594 36.3285 38.2426 -13.8305 2.7938 -13.2397
# 3 53.0700 38.2426 211.5060 -15.1898 5.5414 -12.4899
# 4 -4.8624 -13.8305 -15.1898 30.4226 -4.5286 4.2257
# 5 -10.9599 2.7938 5.5414 -4.5286 43.2791 0.7694
# 6 -5.4778 -13.2397 -12.4899 4.2257 0.7694 15.1550
#
#
#
# Elastic Compliance Matrix: (Units=1/GPa)
#
#
# Indices 1 2 3 4 5 6 
#
# 1 0.016995 -0.004427 -0.003669 -0.000246 0.005050 -0.000936
# 2 -0.004427 0.055353 -0.005426 0.016028 -0.002997 0.037968
# 3 -0.003669 -0.005426 0.006643 0.000132 -0.001406 -0.000557
# 4 -0.000246 0.016028 0.000132 0.040271 0.003053 0.002638
# 5 0.005050 -0.002997 -0.001406 0.003053 0.025150 -0.004080
# 6 -0.000936 0.037968 -0.000557 0.002638 -0.004080 0.097829
#
#
# Mechanical properties :
#
#
# Convention : Reuss Voigt Hill
#
# Bulk Modulus (GPa) = 19.25047 59.96888 39.60968
# Shear Modulus (GPa) = 17.44591 32.29827 24.87209
#
# Velocity S-wave (km/s) = 2.81405 3.82891 3.36002
# Velocity P-wave (km/s) = 4.39278 6.83871 5.74737
#
# Compressibility (1/GPa) = 0.05194680
#
# Stress axis : x y z
#
# Youngs Moduli (GPa) = 58.84203 18.06593 150.53212
#
# Poissons Ratio (x) = 0.07998 0.55231
# Poissons Ratio (y) = 0.26049 0.81677
# Poissons Ratio (z) = 0.21590 0.09802
#
# Static dielectric constant tensor:
#      x y z
#    x 3.803050 -0.013390 0.275740 
#    y -0.013390 3.497170 0.024600 
#    z 0.275740 0.024600 4.629360 
# 
# 
# High freq. dielectric constant tensor:
#      x y z
#    x 1.848970 -0.003080 0.012520 
#    y -0.003080 1.818380 0.005940 
#    z 0.012520 0.005940 1.899350 
# 
# From -- ./inp_files/414553.got.cif
#   From: 2010.06.25/outbox.cif.g09.slc.cpg/sg2_208_cif.got.tgz:414553.got - 2010.06.27 13:26:56.
