data_PCOD8039388
_publ_section_title
;
Structure prediction by ZEFSAII (Michael W. Deem and Ramdas Pophale) SiO2 
 PCOD8039388
Probable space group: P -1
;
_chemical_formula_sum "Si O2"
_cell_formula_units_Z 16
_cell_length_a 9.483660
_cell_length_b 17.185775
_cell_length_c 12.676735
_cell_angle_alpha 24.982712
_cell_angle_beta 95.571322
_cell_angle_gamma 89.936195
_cell_volume 848.745575
_symmetry_space_group_name_H-M "P -1"
_symmetry_group_IT_number 2
_symmetry_cell_setting 'triclinic'
loop_
_space_group_symop_operation_xyz
x,y,z
-x,-y,-z
loop_
_atom_site_type_symbol
_atom_site_label
_atom_site_fract_x
_atom_site_fract_y
_atom_site_fract_z
Si Si1 0.623266 0.269716 0.724983
Si Si2 0.700868 0.009799 0.851125
Si Si3 0.613959 0.955416 0.272551
Si Si4 0.062432 0.847666 0.435655
Si Si5 0.702283 0.600514 0.432669
Si Si6 0.852572 0.633944 0.601266
Si Si7 0.904583 0.291973 0.172668
Si Si8 0.833557 0.988157 0.405993
O O1 0.697095 0.134623 0.802717
O O2 0.712771 0.433759 0.551732
O O3 0.456742 0.362539 0.570133
O O4 0.620729 0.152317 0.975937
O O5 0.827648 0.044470 0.742822
O O6 0.550759 0.069546 0.702926
O O7 0.734008 0.788976 0.150996
O O8 0.678274 0.953803 0.398062
O O9 0.704610 0.786469 0.418347
O O10 0.141157 0.708035 0.707032
O O11 0.992033 0.730377 0.487395
O O12 0.930984 0.000651 0.292060
O O13 0.826890 0.532147 0.615060
O O14 0.879310 0.501224 0.869242
O O15 0.806113 0.179326 0.235788
O O16 0.075559 0.185791 0.303370
#
# Coordination Sequence:
#
# PCOD8039388 Si02
#       8
#     2   2   2   2   2   2   2   2
#     4  10  19  35  55  83 108 143 185 214 264 321
#     4  11  20  38  52  82 120 136 170 229 279 307
#     4  10  18  33  59  78 105 146 181 219 261 321
#     4   9  21  34  54  78 111 141 171 228 279 303
#     4  10  20  34  59  80 105 149 182 216 259 329
#     4  11  18  34  58  80 100 146 192 212 258 328
#     4   9  18  35  59  77 104 139 191 222 257 320
#     4   8  18  36  56  77  98 146 183 225 257 316
#
# _framework density 18.85135
#
# number of rings (size 3 to 8) (size 9 to 14) (size 15 to 20)
#    0.750    1.500    2.500    1.875    0.000    0.500 
#    2.250    1.875    0.000    0.000    0.000    0.000 
#    0.000    0.000    0.000    0.000    0.000    0.000 
#
# Total GULP energy -198259.719927 kJ/mol
# GULP energy per Si atom -12391.232495 kJ/mol
# Density = 1.880844 g / cm^3
# Si number density = 18.851350 Si / 1000 Ang^3
#
#
#
# Elastic Constant Matrix: (Units=GPa)
#
#
# Indices 1 2 3 4 5 6 
#
# 1 69.8578 41.0616 34.7410 1.2844 -16.6639 19.3442
# 2 41.0616 108.6672 35.3762 -9.0945 -10.2617 37.9207
# 3 34.7410 35.3762 88.4198 -7.9544 -12.0823 9.5262
# 4 1.2844 -9.0945 -7.9544 28.3376 3.0206 2.5684
# 5 -16.6639 -10.2617 -12.0823 3.0206 23.7389 -0.8006
# 6 19.3442 37.9207 9.5262 2.5684 -0.8006 29.9463
#
#
#
# Elastic Compliance Matrix: (Units=1/GPa)
#
#
# Indices 1 2 3 4 5 6 
#
# 1 0.025203 -0.003419 -0.006120 -0.004543 0.013365 -0.009257
# 2 -0.003419 0.020728 -0.003294 0.007687 0.003111 -0.023567
# 3 -0.006120 -0.003294 0.015211 0.003026 0.001741 0.003073
# 4 -0.004543 0.007687 0.003026 0.040245 -0.003828 -0.011316
# 5 0.013365 0.003111 0.001741 -0.003828 0.053841 -0.011358
# 6 -0.009257 -0.023567 0.003073 -0.011316 -0.011358 0.068905
#
#
# Mechanical properties :
#
#
# Convention : Reuss Voigt Hill
#
# Bulk Modulus (GPa) = 28.18752 54.36693 41.27723
# Shear Modulus (GPa) = 19.11144 26.78896 22.95020
#
# Velocity S-wave (km/s) = 3.18747 3.77379 3.49295
# Velocity P-wave (km/s) = 5.34150 6.92034 6.18153
#
# Compressibility (1/GPa) = 0.03547669
#
# Stress axis : x y z
#
# Youngs Moduli (GPa) = 39.67856 48.24443 65.74123
#
# Poissons Ratio (x) = 0.16493 0.40231
# Poissons Ratio (y) = 0.13565 0.21656
# Poissons Ratio (z) = 0.24282 0.15892
#
# Static dielectric constant tensor:
#      x y z
#    x 3.149840 0.373540 0.164600 
#    y 0.373540 3.495110 -0.070560 
#    z 0.164600 -0.070560 3.307270 
# 
# 
# High freq. dielectric constant tensor:
#      x y z
#    x 1.694650 0.040080 0.014770 
#    y 0.040080 1.737830 -0.009450 
#    z 0.014770 -0.009450 1.720740 
# 
# From -- ./inp_files/507831.got.cif
#   From: 2010.06.25/outbox.cif.g09.slc.cpg/sg2_254_cif.got.tgz:507831.got - 2010.06.27 13:26:56.
