data_PCOD8039682
_publ_section_title
;
Structure prediction by ZEFSAII (Michael W. Deem and Ramdas Pophale) SiO2 
 PCOD8039682
Probable space group: P -1
;
_chemical_formula_sum "Si O2"
_cell_formula_units_Z 16
_cell_length_a 9.181801
_cell_length_b 11.966927
_cell_length_c 13.632422
_cell_angle_alpha 89.144797
_cell_angle_beta 114.797978
_cell_angle_gamma 141.557101
_cell_volume 702.935850
_symmetry_space_group_name_H-M "P -1"
_symmetry_group_IT_number 2
_symmetry_cell_setting 'triclinic'
loop_
_space_group_symop_operation_xyz
x,y,z
-x,-y,-z
loop_
_atom_site_type_symbol
_atom_site_label
_atom_site_fract_x
_atom_site_fract_y
_atom_site_fract_z
Si Si1 0.026404 0.173027 0.692320
Si Si2 0.213070 0.208093 0.334106
Si Si3 0.624935 0.133868 0.179860
Si Si4 0.243682 0.305797 0.544274
Si Si5 0.752953 0.434259 0.735624
Si Si6 0.684467 0.473711 0.924079
Si Si7 0.354594 0.071132 0.930385
Si Si8 0.790134 0.194428 0.778836
O O1 0.006467 0.178161 0.568839
O O2 0.387471 0.377291 0.824031
O O3 0.882501 0.196467 0.701083
O O4 0.808432 0.938314 0.662551
O O5 0.067882 0.179300 0.392761
O O6 0.557076 0.460892 0.410919
O O7 0.011535 0.126786 0.185137
O O8 0.987363 0.381851 0.274566
O O9 0.536654 0.971374 0.097361
O O10 0.515645 0.051748 0.262293
O O11 0.429294 0.113139 0.067110
O O12 0.440083 0.308181 0.613875
O O13 0.851557 0.545892 0.866816
O O14 0.713197 0.277889 0.737801
O O15 0.561103 0.288494 0.938478
O O16 0.939541 0.674407 0.067668
#
# Coordination Sequence:
#
# PCOD8039682 Si02
#       8
#     2   2   2   2   2   2   2   2
#     4  10  24  39  59  87 126 155 193 243 298 356
#     4  10  21  41  65  89 110 149 211 250 289 336
#     4  11  21  32  58  89 124 152 187 242 297 340
#     4  10  22  41  70  85 109 154 207 256 285 336
#     4  11  21  37  62  91 117 155 206 241 286 345
#     4  10  19  37  57  86 120 160 199 240 280 351
#     4  10  18  34  59  91 116 147 197 251 280 342
#     4  12  23  37  55  90 132 160 184 233 305 364
#
# _framework density 22.761679999999998
#
# number of rings (size 3 to 8) (size 9 to 14) (size 15 to 20)
#    0.000    1.500    3.750    2.625    1.750    1.000 
#    0.000    1.875    0.000    2.250    0.000    0.000 
#    0.000    0.000    0.000    0.000    0.000    0.000 
#
# Total GULP energy -198337.110960 kJ/mol
# GULP energy per Si atom -12396.069435 kJ/mol
# Density = 2.270987 g / cm^3
# Si number density = 22.761680 Si / 1000 Ang^3
#
#
#
# Elastic Constant Matrix: (Units=GPa)
#
#
# Indices 1 2 3 4 5 6 
#
# 1 85.4820 41.6050 15.6712 -10.9099 -14.1533 10.4563
# 2 41.6050 85.6188 13.5494 -10.6220 0.8006 15.4422
# 3 15.6712 13.5494 26.6444 -5.7181 -8.1161 -0.2129
# 4 -10.9099 -10.6220 -5.7181 27.0741 1.1015 -4.9220
# 5 -14.1533 0.8006 -8.1161 1.1015 13.7717 -3.0672
# 6 10.4563 15.4422 -0.2129 -4.9220 -3.0672 23.1596
#
#
#
# Elastic Compliance Matrix: (Units=1/GPa)
#
#
# Indices 1 2 3 4 5 6 
#
# 1 0.020382 -0.009919 0.000496 0.003740 0.021760 0.001093
# 2 -0.009919 0.020641 -0.010919 0.000447 -0.020540 -0.012010
# 3 0.000496 -0.010919 0.055952 0.008843 0.036595 0.014297
# 4 0.003740 0.000447 0.008843 0.041624 0.007465 0.007930
# 5 0.021760 -0.020540 0.036595 0.007465 0.122029 0.021955
# 6 0.001093 -0.012010 0.014297 0.007930 0.021955 0.055418
#
#
# Mechanical properties :
#
#
# Convention : Reuss Voigt Hill
#
# Bulk Modulus (GPa) = 17.76524 37.71073 27.73798
# Shear Modulus (GPa) = 13.31583 21.26238 17.28911
#
# Velocity S-wave (km/s) = 2.42132 3.05967 2.75902
# Velocity P-wave (km/s) = 3.95461 5.39312 4.72888
#
# Compressibility (1/GPa) = 0.05628970
#
# Stress axis : x y z
#
# Youngs Moduli (GPa) = 49.06393 48.44612 17.87259
#
# Poissons Ratio (x) = 0.48055 -0.00886
# Poissons Ratio (y) = 0.48668 0.19515
# Poissons Ratio (z) = -0.02433 0.52899
#
# Static dielectric constant tensor:
#      x y z
#    x 3.669810 -0.001990 0.120700 
#    y -0.001990 4.341700 -0.259030 
#    z 0.120700 -0.259030 4.350820 
# 
# 
# High freq. dielectric constant tensor:
#      x y z
#    x 1.851650 -0.005150 0.012370 
#    y -0.005150 1.916880 -0.011490 
#    z 0.012370 -0.011490 1.889820 
# 
# From -- ./inp_files/304566.got.cif
#   From: 2010.06.25/outbox.cif.g09.slc.cpg/sg2_153_cif.got.tgz:304566.got - 2010.06.27 13:26:56.
