data_PCOD8039860
_publ_section_title
;
Structure prediction by ZEFSAII (Michael W. Deem and Ramdas Pophale) SiO2 
 PCOD8039860
Probable space group: P -1
;
_chemical_formula_sum "Si O2"
_cell_formula_units_Z 14
_cell_length_a 13.258075
_cell_length_b 11.515706
_cell_length_c 13.803865
_cell_angle_alpha 94.189412
_cell_angle_beta 21.779916
_cell_angle_gamma 83.297604
_cell_volume 675.980352
_symmetry_space_group_name_H-M "P -1"
_symmetry_group_IT_number 2
_symmetry_cell_setting 'triclinic'
loop_
_space_group_symop_operation_xyz
x,y,z
-x,-y,-z
loop_
_atom_site_type_symbol
_atom_site_label
_atom_site_fract_x
_atom_site_fract_y
_atom_site_fract_z
Si Si1 0.300286 0.849948 0.848798
Si Si2 0.427309 0.788916 0.246807
Si Si3 0.508469 0.567672 0.595072
Si Si4 0.167225 0.246031 0.495790
Si Si5 0.307192 0.024200 0.494343
Si Si6 0.240488 0.149914 0.215636
Si Si7 0.173693 0.505559 0.059782
O O1 0.365905 0.727385 0.711426
O O2 0.493988 0.778450 0.770927
O O3 0.429366 0.944148 0.695204
O O4 0.935746 0.947348 0.201043
O O5 0.552051 0.637798 0.159500
O O6 0.061704 0.854777 0.552439
O O7 0.462316 0.871968 0.309552
O O8 0.630048 0.789156 0.975632
O O9 0.500000 0.500000 0.500000
O O10 0.283730 0.552556 0.870915
O O11 0.864949 0.497094 0.309894
O O12 0.129551 0.124176 0.567728
O O13 0.150352 0.245621 0.395287
O O14 0.893749 0.389037 0.787077
O O15 0.500000 0.000000 0.000000
#
# Coordination Sequence:
#
# PCOD8039860 Si02
#       7
#     2   2   2   2   2   2   2
#     4   9  18  34  58  86 106 147 198 234 281 340
#     4  12  25  37  57  89 124 159 191 256 295 324
#     4  11  21  40  69  91 111 148 197 243 288 373
#     4   9  21  34  59  78 117 159 201 235 273 342
#     4  10  18  35  57  80 110 163 193 230 279 343
#     4  12  23  36  59  86 118 161 220 237 267 339
#     4  11  24  41  59  91 124 149 188 244 317 346
#
# _framework density 20.710663
#
# number of rings (size 3 to 8) (size 9 to 14) (size 15 to 20)
#    0.857    0.571    2.857    3.429    2.000    1.143 
#    0.000    0.000    0.000    5.143    0.000    0.000 
#    0.000    0.000    0.000    0.000    0.000    0.000 
#
# Total GULP energy -173571.083354 kJ/mol
# GULP energy per Si atom -12397.934525 kJ/mol
# Density = 2.066352 g / cm^3
# Si number density = 20.710663 Si / 1000 Ang^3
#
#
#
# Elastic Constant Matrix: (Units=GPa)
#
#
# Indices 1 2 3 4 5 6 
#
# 1 50.7011 25.4510 30.4945 9.9047 15.6412 18.8185
# 2 25.4510 100.6606 46.8987 15.1551 13.8641 20.0425
# 3 30.4945 46.8987 132.9123 -5.3360 14.9702 13.7260
# 4 9.9047 15.1551 -5.3360 46.0249 10.9970 2.7819
# 5 15.6412 13.8641 14.9702 10.9970 23.3460 6.4921
# 6 18.8185 20.0425 13.7260 2.7819 6.4921 15.4209
#
#
#
# Elastic Compliance Matrix: (Units=1/GPa)
#
#
# Indices 1 2 3 4 5 6 
#
# 1 0.043059 0.003082 -0.005049 -0.005167 -0.012221 -0.045980
# 2 0.003082 0.015940 -0.004441 -0.005034 -0.000970 -0.019209
# 3 -0.005049 -0.004441 0.010504 0.004460 -0.003750 0.003358
# 4 -0.005167 -0.005034 0.004460 0.027279 -0.011732 0.008897
# 5 -0.012221 -0.000970 -0.003750 -0.011732 0.060610 -0.003888
# 6 -0.045980 -0.019209 0.003358 0.008897 -0.003888 0.142966
#
#
# Mechanical properties :
#
#
# Convention : Reuss Voigt Hill
#
# Bulk Modulus (GPa) = 17.64084 54.44027 36.04056
# Shear Modulus (GPa) = 15.05706 29.05370 22.05538
#
# Velocity S-wave (km/s) = 2.69926 3.74951 3.26686
# Velocity P-wave (km/s) = 4.27211 6.71478 5.62757
#
# Compressibility (1/GPa) = 0.05668664
#
# Stress axis : x y z
#
# Youngs Moduli (GPa) = 23.22392 62.73345 95.20421
#
# Poissons Ratio (x) = -0.19332 0.48070
# Poissons Ratio (y) = -0.07157 0.42278
# Poissons Ratio (z) = 0.11726 0.27858
#
# Static dielectric constant tensor:
#      x y z
#    x 3.224400 0.246260 0.107050 
#    y 0.246260 3.731360 -0.058250 
#    z 0.107050 -0.058250 3.825960 
# 
# 
# High freq. dielectric constant tensor:
#      x y z
#    x 1.773650 0.024390 0.007770 
#    y 0.024390 1.812670 -0.001680 
#    z 0.007770 -0.001680 1.826330 
# 
# From -- ./inp_files/530606.got.cif
#   From: 2010.06.25/outbox.cif.g09.slc.cpg/sg2_266_cif.got.tgz:530606.got - 2010.06.27 13:26:56.
