data_PCOD8039999
_publ_section_title
;
Structure prediction by ZEFSAII (Michael W. Deem and Ramdas Pophale) SiO2 
 PCOD8039999
Probable space group: P -1
;
_chemical_formula_sum "Si O2"
_cell_formula_units_Z 14
_cell_length_a 9.178297
_cell_length_b 9.514830
_cell_length_c 14.871018
_cell_angle_alpha 72.458246
_cell_angle_beta 38.144065
_cell_angle_gamma 80.826177
_cell_volume 758.150113
_symmetry_space_group_name_H-M "P -1"
_symmetry_group_IT_number 2
_symmetry_cell_setting 'triclinic'
loop_
_space_group_symop_operation_xyz
x,y,z
-x,-y,-z
loop_
_atom_site_type_symbol
_atom_site_label
_atom_site_fract_x
_atom_site_fract_y
_atom_site_fract_z
Si Si1 0.327184 0.853852 0.201845
Si Si2 0.835786 0.887913 0.874739
Si Si3 0.083931 0.647043 0.714661
Si Si4 0.003776 0.666478 0.264102
Si Si5 0.120509 0.073608 0.838839
Si Si6 0.613436 0.235617 0.619350
Si Si7 0.478784 0.453036 0.416439
O O1 0.225041 0.721347 0.209953
O O2 0.257392 0.822445 0.345354
O O3 0.223015 0.004666 0.198108
O O4 0.612821 0.867745 0.054455
O O5 0.883400 0.731173 0.840792
O O6 0.069352 0.957662 0.803450
O O7 0.199045 0.743248 0.556551
O O8 0.284381 0.625781 0.699149
O O9 0.957135 0.490507 0.768091
O O10 0.988932 0.777886 0.166150
O O11 0.770463 0.656424 0.445633
O O12 0.400172 0.113947 0.712530
O O13 0.000000 0.000000 0.000000
O O14 0.524865 0.392188 0.664940
O O15 0.500000 0.500000 0.500000
#
# Coordination Sequence:
#
# PCOD8039999 Si02
#       7
#     2   2   2   2   2   2   2
#     4  10  21  37  52  79 113 150 178 207 272 338
#     4  10  23  35  54  81 113 144 178 220 270 320
#     4  10  19  36  59  83 107 135 185 233 264 305
#     4   9  18  36  59  77 109 146 177 217 275 323
#     4  11  18  34  58  80 102 151 182 210 265 327
#     4  10  18  35  61  79 107 141 185 223 261 322
#     4   8  15  32  56  81  99 137 181 219 267 308
#
# _framework density 18.465999
#
# number of rings (size 3 to 8) (size 9 to 14) (size 15 to 20)
#    0.000    2.571    5.714    0.000    0.000    4.000 
#    0.000    2.857    3.143    0.000    0.000    0.000 
#    0.000    0.000    0.000    0.000    0.000    0.000 
#
# Total GULP energy -173492.798759 kJ/mol
# GULP energy per Si atom -12392.342768 kJ/mol
# Density = 1.842397 g / cm^3
# Si number density = 18.465999 Si / 1000 Ang^3
#
#
#
# Elastic Constant Matrix: (Units=GPa)
#
#
# Indices 1 2 3 4 5 6 
#
# 1 79.2357 22.1501 11.8181 -7.3157 -2.4815 1.2849
# 2 22.1501 86.8160 10.8007 4.6237 -16.7187 7.3740
# 3 11.8181 10.8007 30.5109 -11.8110 -6.9124 2.2664
# 4 -7.3157 4.6237 -11.8110 29.8287 1.8816 -7.1655
# 5 -2.4815 -16.7187 -6.9124 1.8816 18.9677 -4.2678
# 6 1.2849 7.3740 2.2664 -7.1655 -4.2678 19.4124
#
#
#
# Elastic Compliance Matrix: (Units=1/GPa)
#
#
# Indices 1 2 3 4 5 6 
#
# 1 0.014514 -0.004149 -0.003681 0.003322 -0.003070 0.001596
# 2 -0.004149 0.016157 -0.003770 -0.007065 0.011803 -0.005436
# 3 -0.003681 -0.003770 0.044823 0.018052 0.012034 0.005752
# 4 0.003322 -0.007065 0.018052 0.046818 0.000116 0.017663
# 5 -0.003070 0.011803 0.012034 0.000116 0.069253 0.009583
# 6 0.001596 -0.005436 0.005752 0.017663 0.009583 0.061428
#
#
# Mechanical properties :
#
#
# Convention : Reuss Voigt Hill
#
# Bulk Modulus (GPa) = 19.12257 31.78893 25.45575
# Shear Modulus (GPa) = 17.02858 23.76133 20.39496
#
# Velocity S-wave (km/s) = 3.04000 3.59104 3.32695
# Velocity P-wave (km/s) = 4.76447 5.86910 5.34539
#
# Compressibility (1/GPa) = 0.05229423
#
# Stress axis : x y z
#
# Youngs Moduli (GPa) = 68.89828 61.89269 22.31016
#
# Poissons Ratio (x) = 0.25679 0.08213
# Poissons Ratio (y) = 0.28585 0.08410
# Poissons Ratio (z) = 0.25363 0.23331
#
# Static dielectric constant tensor:
#      x y z
#    x 3.753720 -0.363020 -0.369610 
#    y -0.363020 3.727060 -0.449490 
#    z -0.369610 -0.449490 3.838760 
# 
# 
# High freq. dielectric constant tensor:
#      x y z
#    x 1.717130 -0.006570 -0.008780 
#    y -0.006570 1.698450 -0.034530 
#    z -0.008780 -0.034530 1.697920 
# 
# From -- ./inp_files/182347.got.cif
#   From: 2010.06.25/outbox.cif.g09.slc.cpg/sg2_92_cif.got.tgz:182347.got - 2010.06.27 13:26:56.
