data_PCOD8039011
_publ_section_title
;
Structure prediction by ZEFSAII (Michael W. Deem and Ramdas Pophale) SiO2 
 PCOD8039011
Probable space group: P -1
;
_chemical_formula_sum "Si O2"
_cell_formula_units_Z 16
_cell_length_a 12.527320
_cell_length_b 9.315143
_cell_length_c 13.649583
_cell_angle_alpha 74.921857
_cell_angle_beta 89.525527
_cell_angle_gamma 142.939635
_cell_volume 860.738157
_symmetry_space_group_name_H-M "P -1"
_symmetry_group_IT_number 2
_symmetry_cell_setting 'triclinic'
loop_
_space_group_symop_operation_xyz
x,y,z
-x,-y,-z
loop_
_atom_site_type_symbol
_atom_site_label
_atom_site_fract_x
_atom_site_fract_y
_atom_site_fract_z
Si Si1 0.241517 0.632302 0.970089
Si Si2 0.419225 0.319604 0.815501
Si Si3 0.398250 0.453596 0.601423
Si Si4 0.153571 0.841710 0.026921
Si Si5 0.240866 0.498307 0.202042
Si Si6 0.338745 0.141756 0.318089
Si Si7 0.995390 0.030613 0.608114
Si Si8 0.336124 0.922044 0.191440
O O1 0.232159 0.791902 0.974713
O O2 0.207561 0.487391 0.089238
O O3 0.444416 0.834144 0.885135
O O4 0.075643 0.409384 0.931368
O O5 0.348441 0.265518 0.713801
O O6 0.550046 0.325079 0.813400
O O7 0.543736 0.607055 0.797475
O O8 0.243485 0.092420 0.931166
O O9 0.500000 0.500000 0.500000
O O10 0.543215 0.738920 0.601631
O O11 0.205886 0.313675 0.594766
O O12 0.222289 0.908073 0.126446
O O13 0.231795 0.642862 0.236108
O O14 0.079158 0.201581 0.294535
O O15 0.320909 0.963776 0.295313
O O16 0.131543 0.970745 0.371855
O O17 0.000000 0.000000 0.500000
#
# Coordination Sequence:
#
# PCOD8039011 Si02
#       8
#     2   2   2   2   2   2   2   2
#     4  10  19  31  55  79 115 152 183 216 264 320
#     4   9  17  34  53  80 102 144 194 214 257 328
#     4  10  19  37  60  78 103 134 186 231 270 317
#     4  10  18  32  52  81 111 152 189 211 259 331
#     4  10  18  35  59  82 105 153 184 218 267 325
#     4   9  23  34  56  85 108 147 175 230 279 321
#     4  11  20  39  63  79 102 138 191 232 267 323
#     4  11  20  37  52  81 127 141 172 229 276 317
#
# _framework density 18.588695999999999
#
# number of rings (size 3 to 8) (size 9 to 14) (size 15 to 20)
#    0.750    1.250    3.750    1.500    0.000    1.500 
#    0.000    1.250    0.000    1.500    0.000    0.000 
#    0.000    0.000    0.000    0.000    0.000    0.000 
#
# Total GULP energy -198314.556381 kJ/mol
# GULP energy per Si atom -12394.659774 kJ/mol
# Density = 1.854639 g / cm^3
# Si number density = 18.588696 Si / 1000 Ang^3
#
#
#
# Elastic Constant Matrix: (Units=GPa)
#
#
# Indices 1 2 3 4 5 6 
#
# 1 72.5437 46.5012 14.3769 10.8736 -10.3980 18.5940
# 2 46.5012 93.2552 16.3268 22.0547 -17.5874 24.3321
# 3 14.3769 16.3268 33.7529 6.7284 -7.3086 3.1417
# 4 10.8736 22.0547 6.7284 29.0905 0.8957 -0.5539
# 5 -10.3980 -17.5874 -7.3086 0.8957 24.9192 3.6368
# 6 18.5940 24.3321 3.1417 -0.5539 3.6368 39.6983
#
#
#
# Elastic Compliance Matrix: (Units=1/GPa)
#
#
# Indices 1 2 3 4 5 6 
#
# 1 0.021573 -0.007674 -0.003960 -0.001534 0.003269 -0.005409
# 2 -0.007674 0.025629 -0.000650 -0.017210 0.017342 -0.013892
# 3 -0.003960 -0.000650 0.034881 -0.006384 0.008550 -0.001380
# 4 -0.001534 -0.017210 -0.006384 0.050314 -0.018536 0.014172
# 5 0.003269 0.017342 0.008550 -0.018536 0.059616 -0.018557
# 6 -0.005409 -0.013892 -0.001380 0.014172 -0.018557 0.038245
#
#
# Mechanical properties :
#
#
# Convention : Reuss Voigt Hill
#
# Bulk Modulus (GPa) = 17.38651 39.32907 28.35779
# Shear Modulus (GPa) = 18.24848 26.89806 22.57327
#
# Velocity S-wave (km/s) = 3.13660 3.80809 3.48854
# Velocity P-wave (km/s) = 4.74250 6.36701 5.61383
#
# Compressibility (1/GPa) = 0.05751585
#
# Stress axis : x y z
#
# Youngs Moduli (GPa) = 46.35370 39.01879 28.66914
#
# Poissons Ratio (x) = 0.29941 0.11354
# Poissons Ratio (y) = 0.35570 0.01863
# Poissons Ratio (z) = 0.18357 0.02535
#
# Static dielectric constant tensor:
#      x y z
#    x 3.309130 0.272510 0.105660 
#    y 0.272510 3.413430 -0.014540 
#    z 0.105660 -0.014540 3.275020 
# 
# 
# High freq. dielectric constant tensor:
#      x y z
#    x 1.708130 0.024400 0.003060 
#    y 0.024400 1.718040 -0.000010 
#    z 0.003060 -0.000010 1.703510 
# 
# From -- ./inp_files/515383.got.cif
#   From: 2010.06.25/outbox.cif.g09.slc.cpg/sg2_258_cif.got.tgz:515383.got - 2010.06.27 13:26:56.
