data_PCOD8039451
_publ_section_title
;
Structure prediction by ZEFSAII (Michael W. Deem and Ramdas Pophale) SiO2 
 PCOD8039451
Probable space group: P -1
;
_chemical_formula_sum "Si O2"
_cell_formula_units_Z 16
_cell_length_a 10.888066
_cell_length_b 9.170942
_cell_length_c 17.743070
_cell_angle_alpha 117.229155
_cell_angle_beta 137.334552
_cell_angle_gamma 94.259994
_cell_volume 781.253029
_symmetry_space_group_name_H-M "P -1"
_symmetry_group_IT_number 2
_symmetry_cell_setting 'triclinic'
loop_
_space_group_symop_operation_xyz
x,y,z
-x,-y,-z
loop_
_atom_site_type_symbol
_atom_site_label
_atom_site_fract_x
_atom_site_fract_y
_atom_site_fract_z
Si Si1 0.907725 0.460237 0.249141
Si Si2 0.351963 0.308102 0.574903
Si Si3 0.925463 0.300501 0.370514
Si Si4 0.691217 0.437316 0.878557
Si Si5 0.786276 0.191139 0.757503
Si Si6 0.976855 0.874117 0.384738
Si Si7 0.629546 0.287723 0.573397
Si Si8 0.540795 0.804190 0.131014
O O1 0.828393 0.300000 0.245541
O O2 0.987793 0.690495 0.368226
O O3 0.144085 0.514641 0.330503
O O4 0.673575 0.333873 0.059555
O O5 0.512526 0.454412 0.757139
O O6 0.525890 0.374572 0.597292
O O7 0.170260 0.342164 0.479753
O O8 0.199980 0.050755 0.469424
O O9 0.000000 0.500000 0.500000
O O10 0.704370 0.068304 0.256839
O O11 0.748215 0.331912 0.819867
O O12 0.572789 0.266617 0.853898
O O13 0.930185 0.689848 0.072198
O O14 0.749024 0.214092 0.658759
O O15 0.597865 0.926999 0.629872
O O16 0.721794 0.757722 0.197362
O O17 0.000000 0.000000 0.500000
#
# Coordination Sequence:
#
# PCOD8039451 Si02
#       8
#     2   2   2   2   2   2   2   2
#     4  12  23  41  64  90 123 164 203 252 304 359
#     4  10  22  40  60  92 122 155 201 253 299 363
#     4  11  27  44  62  83 123 171 206 241 303 374
#     4  10  18  33  62  89 129 147 200 246 306 351
#     4   9  18  32  55  99 121 155 185 255 302 360
#     4  11  21  37  63  92 125 160 203 250 297 358
#     4  10  20  35  62  88 125 150 202 247 311 352
#     4  11  23  39  61  94 123 156 204 256 304 353
#
# _framework density 20.479918999999999
#
# number of rings (size 3 to 8) (size 9 to 14) (size 15 to 20)
#    0.000    1.500    2.500    4.500    1.750    0.500 
#    0.000    1.250    0.000    1.500    0.000    0.000 
#    0.000    0.000    0.000    0.000    0.000    0.000 
#
# Total GULP energy -198336.981977 kJ/mol
# GULP energy per Si atom -12396.061374 kJ/mol
# Density = 2.043331 g / cm^3
# Si number density = 20.479919 Si / 1000 Ang^3
#
#
#
# Elastic Constant Matrix: (Units=GPa)
#
#
# Indices 1 2 3 4 5 6 
#
# 1 75.2839 27.3404 39.7053 0.2354 3.1379 4.7425
# 2 27.3404 76.4519 34.3553 -9.4620 0.3631 2.0860
# 3 39.7053 34.3553 142.8143 -5.5660 11.5688 3.0557
# 4 0.2354 -9.4620 -5.5660 21.2612 3.1980 1.0271
# 5 3.1379 0.3631 11.5688 3.1980 29.3624 1.1422
# 6 4.7425 2.0860 3.0557 1.0271 1.1422 29.9065
#
#
#
# Elastic Compliance Matrix: (Units=1/GPa)
#
#
# Indices 1 2 3 4 5 6 
#
# 1 0.017099 -0.004803 -0.003693 -0.003219 0.000111 -0.001893
# 2 -0.004803 0.016756 -0.002467 0.006801 0.000553 -0.000410
# 3 -0.003693 -0.002467 0.008961 0.001789 -0.003297 -0.000094
# 4 -0.003219 0.006801 0.001789 0.051548 -0.005994 -0.001688
# 5 0.000111 0.000553 -0.003297 -0.005994 0.036025 -0.000889
# 6 -0.001893 -0.000410 -0.000094 -0.001688 -0.000889 0.033868
#
#
# Mechanical properties :
#
#
# Convention : Reuss Voigt Hill
#
# Bulk Modulus (GPa) = 47.86376 55.26135 51.56255
# Shear Modulus (GPa) = 25.88719 28.98263 27.43491
#
# Velocity S-wave (km/s) = 3.55917 3.76596 3.66403
# Velocity P-wave (km/s) = 6.34918 6.77877 6.56749
#
# Compressibility (1/GPa) = 0.02089263
#
# Stress axis : x y z
#
# Youngs Moduli (GPa) = 58.48128 59.67863 111.59643
#
# Poissons Ratio (x) = 0.28663 0.41208
# Poissons Ratio (y) = 0.28088 0.27526
# Poissons Ratio (z) = 0.21595 0.14720
#
# Static dielectric constant tensor:
#      x y z
#    x 3.614810 0.164120 0.243040 
#    y 0.164120 3.554110 -0.209750 
#    z 0.243040 -0.209750 4.270280 
# 
# 
# High freq. dielectric constant tensor:
#      x y z
#    x 1.801280 0.013250 0.010240 
#    y 0.013250 1.765420 -0.010000 
#    z 0.010240 -0.010000 1.819690 
# 
# From -- ./inp_files/239116.got.cif
#   From: 2010.06.25/outbox.cif.g09.slc.cpg/sg2_120_cif.got.tgz:239116.got - 2010.06.27 13:26:56.
