data_PCOD8039699
_publ_section_title
;
Structure prediction by ZEFSAII (Michael W. Deem and Ramdas Pophale) SiO2 
 PCOD8039699
Probable space group: P -1
;
_chemical_formula_sum "Si O2"
_cell_formula_units_Z 16
_cell_length_a 16.488978
_cell_length_b 11.412312
_cell_length_c 8.988783
_cell_angle_alpha 105.498239
_cell_angle_beta 48.736585
_cell_angle_gamma 67.132842
_cell_volume 767.082947
_symmetry_space_group_name_H-M "P -1"
_symmetry_group_IT_number 2
_symmetry_cell_setting 'triclinic'
loop_
_space_group_symop_operation_xyz
x,y,z
-x,-y,-z
loop_
_atom_site_type_symbol
_atom_site_label
_atom_site_fract_x
_atom_site_fract_y
_atom_site_fract_z
Si Si1 0.676795 0.584610 0.381828
Si Si2 0.519238 0.721089 0.325348
Si Si3 0.084190 0.535712 0.717611
Si Si4 0.228695 0.763431 0.399697
Si Si5 0.986471 0.673848 0.276538
Si Si6 0.125075 0.608844 0.383199
Si Si7 0.814325 0.941911 0.331399
Si Si8 0.521891 0.518087 0.746873
O O1 0.550896 0.752662 0.462767
O O2 0.735706 0.620995 0.458711
O O3 0.578267 0.556008 0.558763
O O4 0.851105 0.395960 0.015594
O O5 0.472861 0.621277 0.374014
O O6 0.364754 0.922885 0.492433
O O7 0.687237 0.582415 0.974313
O O8 0.114246 0.525798 0.504129
O O9 0.990900 0.489194 0.840559
O O10 0.965890 0.752065 0.985016
O O11 0.091691 0.780451 0.522690
O O12 0.349454 0.581352 0.303783
O O13 0.145396 0.950862 0.649667
O O14 0.334042 0.716302 0.110112
O O15 0.977227 0.706370 0.474725
O O16 0.814247 0.874326 0.469933
#
# Coordination Sequence:
#
# PCOD8039699 Si02
#       8
#     2   2   2   2   2   2   2   2
#     4  10  18  34  60  84 106 156 193 222 281 349
#     4   9  20  36  58  87 118 144 190 237 285 340
#     4  11  22  40  61  80 115 159 197 230 279 340
#     4   9  18  33  58  90 118 141 181 242 291 337
#     4  10  23  41  58  79 118 159 196 230 280 337
#     4  10  20  40  63  83 109 160 193 224 289 352
#     4  10  21  38  57  86 125 142 180 253 287 322
#     4   9  16  32  57  85 118 150 181 227 292 352
#
# _framework density 20.858241
#
# number of rings (size 3 to 8) (size 9 to 14) (size 15 to 20)
#    0.000    2.250    1.250    3.000    0.000    1.000 
#    4.500    6.250    2.750    0.000    0.000    0.000 
#    0.000    0.000    0.000    0.000    0.000    0.000 
#
# Total GULP energy -198231.887948 kJ/mol
# GULP energy per Si atom -12389.492997 kJ/mol
# Density = 2.081077 g / cm^3
# Si number density = 20.858241 Si / 1000 Ang^3
#
#
#
# Elastic Constant Matrix: (Units=GPa)
#
#
# Indices 1 2 3 4 5 6 
#
# 1 122.2009 63.0244 26.8296 0.6940 5.1549 -34.7820
# 2 63.0244 101.6834 35.2130 -1.2281 -0.9134 -30.5785
# 3 26.8296 35.2130 36.7154 -3.4294 -1.3992 -5.7389
# 4 0.6940 -1.2281 -3.4294 24.2781 -2.7460 5.2660
# 5 5.1549 -0.9134 -1.3992 -2.7460 22.9075 0.1449
# 6 -34.7820 -30.5785 -5.7389 5.2660 0.1449 50.2946
#
#
#
# Elastic Compliance Matrix: (Units=1/GPa)
#
#
# Indices 1 2 3 4 5 6 
#
# 1 0.013822 -0.005172 -0.004610 -0.003112 -0.004011 0.006226
# 2 -0.005172 0.020352 -0.014788 -0.002425 0.000735 0.007362
# 3 -0.004610 -0.014788 0.044439 0.007854 0.004154 -0.007943
# 4 -0.003112 -0.002425 0.007854 0.044607 0.006477 -0.007420
# 5 -0.004011 0.000735 0.004154 0.006477 0.045633 -0.002662
# 6 0.006226 0.007362 -0.007943 -0.007420 -0.002662 0.028542
#
#
# Mechanical properties :
#
#
# Convention : Reuss Voigt Hill
#
# Bulk Modulus (GPa) = 33.93012 56.74821 45.33916
# Shear Modulus (GPa) = 19.50393 28.53154 24.01773
#
# Velocity S-wave (km/s) = 3.06121 3.70250 3.39702
# Velocity P-wave (km/s) = 5.36628 6.74860 6.09675
#
# Compressibility (1/GPa) = 0.02947234
#
# Stress axis : x y z
#
# Youngs Moduli (GPa) = 72.35101 49.13497 22.50284
#
# Poissons Ratio (x) = 0.25411 0.10375
# Poissons Ratio (y) = 0.37417 0.33277
# Poissons Ratio (z) = 0.33357 0.72661
#
# Static dielectric constant tensor:
#      x y z
#    x 4.196440 -0.401480 0.001250 
#    y -0.401480 3.770220 -0.152090 
#    z 0.001250 -0.152090 3.356940 
# 
# 
# High freq. dielectric constant tensor:
#      x y z
#    x 1.833170 -0.020300 0.003530 
#    y -0.020300 1.806910 -0.023990 
#    z 0.003530 -0.023990 1.774070 
# 
# From -- ./inp_files/216424.got.cif
#   From: 2010.06.25/outbox.cif.g09.slc.cpg/sg2_109_cif.got.tgz:216424.got - 2010.06.27 13:26:56.
