data_PCOD8039668
_publ_section_title
;
Structure prediction by ZEFSAII (Michael W. Deem and Ramdas Pophale) SiO2 
 PCOD8039668
Probable space group: P -1
;
_chemical_formula_sum "Si O2"
_cell_formula_units_Z 16
_cell_length_a 14.703459
_cell_length_b 29.075137
_cell_length_c 7.906304
_cell_angle_alpha 139.019740
_cell_angle_beta 40.972441
_cell_angle_gamma 159.040874
_cell_volume 774.629607
_symmetry_space_group_name_H-M "P -1"
_symmetry_group_IT_number 2
_symmetry_cell_setting 'triclinic'
loop_
_space_group_symop_operation_xyz
x,y,z
-x,-y,-z
loop_
_atom_site_type_symbol
_atom_site_label
_atom_site_fract_x
_atom_site_fract_y
_atom_site_fract_z
Si Si1 0.882455 0.110695 0.243508
Si Si2 0.386695 0.611563 0.758031
Si Si3 0.316593 0.387950 0.584811
Si Si4 0.507319 0.992359 0.717296
Si Si5 0.869296 0.278276 0.032771
Si Si6 0.175972 0.109609 0.914365
Si Si7 0.390001 0.803807 0.507843
Si Si8 0.842161 0.356227 0.959370
O O1 0.776533 0.097654 0.181435
O O2 0.096657 0.253349 0.415986
O O3 0.632494 0.999583 0.410004
O O4 0.990100 0.077735 0.967624
O O5 0.512970 0.590261 0.469615
O O6 0.152279 0.497060 0.900644
O O7 0.617959 0.748885 0.907622
O O8 0.283788 0.619161 0.774250
O O9 0.500000 0.500000 0.500000
O O10 0.173902 0.386923 0.893799
O O11 0.458063 0.915813 0.723855
O O12 0.700066 0.136276 0.896559
O O13 0.775372 0.282312 0.012690
O O14 0.817368 0.300078 0.338402
O O15 0.338791 0.119753 0.615624
O O16 0.000000 0.000000 0.000000
O O17 0.268369 0.726954 0.287139
#
# Coordination Sequence:
#
# PCOD8039668 Si02
#       8
#     2   2   2   2   2   2   2   2
#     4   9  18  32  59  86 105 156 190 226 290 337
#     4   9  20  35  60  85 112 152 192 234 281 339
#     4  10  18  34  59  85 115 148 188 235 287 338
#     4  10  19  34  55  85 118 146 194 235 278 341
#     4  11  23  37  60  86 116 153 191 235 284 339
#     4  10  19  35  59  86 115 148 191 234 285 339
#     4  11  22  38  60  86 115 153 192 234 285 338
#     4  10  20  40  61  82 115 153 194 232 282 340
#
# _framework density 20.655033
#
# number of rings (size 3 to 8) (size 9 to 14) (size 15 to 20)
#    0.000    2.000    2.500    2.625    1.750    0.000 
#    0.000    8.125    0.000    0.000    0.000    0.000 
#    0.000    0.000    0.000    0.000    0.000    0.000 
#
# Total GULP energy -198225.182075 kJ/mol
# GULP energy per Si atom -12389.073880 kJ/mol
# Density = 2.060802 g / cm^3
# Si number density = 20.655033 Si / 1000 Ang^3
#
#
#
# Elastic Constant Matrix: (Units=GPa)
#
#
# Indices 1 2 3 4 5 6 
#
# 1 127.5830 40.4809 75.0160 -29.3831 -33.6915 -6.4320
# 2 40.4809 97.8213 36.3563 -18.3469 -11.7184 -3.3187
# 3 75.0160 36.3563 86.4405 -35.9109 -23.5765 -7.9152
# 4 -29.3831 -18.3469 -35.9109 36.0300 7.3228 -7.0754
# 5 -33.6915 -11.7184 -23.5765 7.3228 41.1262 -9.7420
# 6 -6.4320 -3.3187 -7.9152 -7.0754 -9.7420 30.4043
#
#
#
# Elastic Compliance Matrix: (Units=1/GPa)
#
#
# Indices 1 2 3 4 5 6 
#
# 1 0.017873 -0.001736 -0.012076 0.000674 0.007843 0.003117
# 2 -0.001736 0.012424 -0.002318 0.002717 0.000591 0.001207
# 3 -0.012076 -0.002318 0.040818 0.030950 0.011789 0.018798
# 4 0.000674 0.002717 0.030950 0.063062 0.014424 0.027793
# 5 0.007843 0.000591 0.011789 0.014424 0.040070 0.020988
# 6 0.003117 0.001207 0.018798 0.027793 0.020988 0.051768
#
#
# Mechanical properties :
#
#
# Convention : Reuss Voigt Hill
#
# Bulk Modulus (GPa) = 25.73759 68.39459 47.06609
# Shear Modulus (GPa) = 18.43474 32.17820 25.30647
#
# Velocity S-wave (km/s) = 2.99072 3.95129 3.50408
# Velocity P-wave (km/s) = 4.94102 7.34858 6.26160
#
# Compressibility (1/GPa) = 0.03885368
#
# Stress axis : x y z
#
# Youngs Moduli (GPa) = 55.95142 80.48829 24.49887
#
# Poissons Ratio (x) = 0.13976 0.29584
# Poissons Ratio (y) = 0.09716 0.05680
# Poissons Ratio (z) = 0.67566 0.18660
#
# Static dielectric constant tensor:
#      x y z
#    x 3.923140 0.083310 -0.727340 
#    y 0.083310 4.006950 -0.378690 
#    z -0.727340 -0.378690 3.958720 
# 
# 
# High freq. dielectric constant tensor:
#      x y z
#    x 1.800400 -0.003220 -0.048590 
#    y -0.003220 1.819030 -0.008660 
#    z -0.048590 -0.008660 1.779740 
# 
# From -- ./inp_files/321066.got.cif
#   From: 2010.06.25/outbox.cif.g09.slc.cpg/sg2_161_cif.got.tgz:321066.got - 2010.06.27 13:26:56.
