data_PCOD8039589
_publ_section_title
;
Structure prediction by ZEFSAII (Michael W. Deem and Ramdas Pophale) SiO2 
 PCOD8039589
Probable space group: P -1
;
_chemical_formula_sum "Si O2"
_cell_formula_units_Z 16
_cell_length_a 12.581706
_cell_length_b 8.152024
_cell_length_c 12.075547
_cell_angle_alpha 95.020470
_cell_angle_beta 38.054769
_cell_angle_gamma 95.632424
_cell_volume 759.665449
_symmetry_space_group_name_H-M "P -1"
_symmetry_group_IT_number 2
_symmetry_cell_setting 'triclinic'
loop_
_space_group_symop_operation_xyz
x,y,z
-x,-y,-z
loop_
_atom_site_type_symbol
_atom_site_label
_atom_site_fract_x
_atom_site_fract_y
_atom_site_fract_z
Si Si1 0.119448 0.667150 0.511971
Si Si2 0.126451 0.811555 0.088078
Si Si3 0.230888 0.813398 0.763510
Si Si4 0.879416 0.506707 0.272401
Si Si5 0.742155 0.575111 0.783001
Si Si6 0.576178 0.363137 0.083930
Si Si7 0.190951 0.999584 0.588417
Si Si8 0.565983 0.700429 0.575579
O O1 0.127596 0.533505 0.594253
O O2 0.226223 0.596575 0.318078
O O3 0.204772 0.843504 0.487530
O O4 0.918147 0.687866 0.647764
O O5 0.042711 0.628885 0.122433
O O6 0.176644 0.886477 0.930785
O O7 0.296894 0.790764 0.022694
O O8 0.999377 0.929119 0.262631
O O9 0.103579 0.658372 0.823059
O O10 0.222001 0.956275 0.688852
O O11 0.425582 0.752774 0.604833
O O12 0.702028 0.593365 0.392312
O O13 0.595543 0.679530 0.850340
O O14 0.677498 0.523016 0.956072
O O15 0.523069 0.403385 0.256318
O O16 0.335493 0.136980 0.442525
#
# Coordination Sequence:
#
# PCOD8039589 Si02
#       8
#     2   2   2   2   2   2   2   2
#     4  10  20  37  61  83 108 146 193 224 283 325
#     4  10  20  36  56  83 116 147 183 229 276 327
#     4  10  20  34  57  82 115 148 190 220 276 325
#     4  10  18  34  57  84 111 146 193 226 269 327
#     4  10  20  38  62  84 108 142 188 242 280 316
#     4  10  20  36  59  82 111 143 182 236 280 320
#     4  10  22  37  57  80 119 152 180 220 281 344
#     4  10  20  36  56  83 116 147 183 229 276 327
#
# _framework density 21.061902
#
# number of rings (size 3 to 8) (size 9 to 14) (size 15 to 20)
#    0.000    2.000    2.500    1.500    0.000    0.000 
#    0.000    8.750    5.500    0.000    0.000    0.000 
#    0.000    0.000    0.000    0.000    0.000    0.000 
#
# Total GULP energy -198384.869516 kJ/mol
# GULP energy per Si atom -12399.054345 kJ/mol
# Density = 2.101396 g / cm^3
# Si number density = 21.061902 Si / 1000 Ang^3
#
#
#
# Elastic Constant Matrix: (Units=GPa)
#
#
# Indices 1 2 3 4 5 6 
#
# 1 86.0223 18.5501 28.4035 6.6670 -15.1647 -19.5804
# 2 18.5501 52.9677 21.6708 0.8754 5.1006 0.1811
# 3 28.4035 21.6708 72.8380 -4.5953 -9.2019 -4.4500
# 4 6.6670 0.8754 -4.5953 16.2759 -6.7592 -1.0980
# 5 -15.1647 5.1006 -9.2019 -6.7592 31.1844 5.1267
# 6 -19.5804 0.1811 -4.4500 -1.0980 5.1267 31.7773
#
#
#
# Elastic Compliance Matrix: (Units=1/GPa)
#
#
# Indices 1 2 3 4 5 6 
#
# 1 0.017603 -0.004752 -0.004561 -0.005419 0.005306 0.009192
# 2 -0.004752 0.024404 -0.007060 -0.005319 -0.009082 -0.002774
# 3 -0.004561 -0.007060 0.019100 0.010484 0.006987 -0.000860
# 4 -0.005419 -0.005319 0.010484 0.074133 0.017749 -0.002143
# 5 0.005306 -0.009082 0.006987 0.017749 0.042358 -0.001921
# 6 0.009192 -0.002774 -0.000860 -0.002143 -0.001921 0.037264
#
#
# Mechanical properties :
#
#
# Convention : Reuss Voigt Hill
#
# Bulk Modulus (GPa) = 35.25895 38.78631 37.02263
# Shear Modulus (GPa) = 19.45074 25.39445 22.42259
#
# Velocity S-wave (km/s) = 3.04222 3.47609 3.26637
# Velocity P-wave (km/s) = 5.39602 5.87931 5.64285
#
# Compressibility (1/GPa) = 0.02836159
#
# Stress axis : x y z
#
# Youngs Moduli (GPa) = 56.80849 40.97663 52.35711
#
# Poissons Ratio (x) = 0.19471 0.23878
# Poissons Ratio (y) = 0.26994 0.36965
# Poissons Ratio (z) = 0.25908 0.28930
#
# Static dielectric constant tensor:
#      x y z
#    x 3.895710 -0.258900 -0.192650 
#    y -0.258900 3.449120 -0.070630 
#    z -0.192650 -0.070630 3.762490 
# 
# 
# High freq. dielectric constant tensor:
#      x y z
#    x 1.829480 -0.023880 -0.013430 
#    y -0.023880 1.790870 -0.006000 
#    z -0.013430 -0.006000 1.826620 
# 
# From -- ./inp_files/195748.got.cif
#   From: 2010.06.25/outbox.cif.g09.slc.cpg/sg2_98_cif.got.tgz:195748.got - 2010.06.27 13:26:56.
