data_PCOD8039951
_publ_section_title
;
Structure prediction by ZEFSAII (Michael W. Deem and Ramdas Pophale) SiO2 
 PCOD8039951
Probable space group: P -1
;
_chemical_formula_sum "Si O2"
_cell_formula_units_Z 16
_cell_length_a 16.529731
_cell_length_b 8.840916
_cell_length_c 12.396410
_cell_angle_alpha 105.259128
_cell_angle_beta 29.832057
_cell_angle_gamma 91.765346
_cell_volume 792.384619
_symmetry_space_group_name_H-M "P -1"
_symmetry_group_IT_number 2
_symmetry_cell_setting 'triclinic'
loop_
_space_group_symop_operation_xyz
x,y,z
-x,-y,-z
loop_
_atom_site_type_symbol
_atom_site_label
_atom_site_fract_x
_atom_site_fract_y
_atom_site_fract_z
Si Si1 0.880775 0.311270 0.658152
Si Si2 0.210638 0.326692 0.222911
Si Si3 0.907355 0.035248 0.413957
Si Si4 0.772095 0.327266 0.011857
Si Si5 0.471478 0.845750 0.686045
Si Si6 0.461232 0.969885 0.161119
Si Si7 0.154797 0.394214 0.886552
Si Si8 0.849004 0.824942 0.953525
O O1 0.834444 0.474579 0.662298
O O2 0.852519 0.154304 0.606403
O O3 0.747443 0.388265 0.927693
O O4 0.093630 0.257023 0.423754
O O5 0.417509 0.228133 0.991143
O O6 0.166536 0.297644 0.144843
O O7 0.735893 0.004609 0.570762
O O8 0.055934 0.850044 0.233854
O O9 0.986077 0.120869 0.248094
O O10 0.604188 0.299990 0.246377
O O11 0.796794 0.464077 0.085457
O O12 0.671606 0.752506 0.394700
O O13 0.476177 0.912286 0.813707
O O14 0.340089 0.003254 0.791417
O O15 0.500000 0.000000 0.000000
O O16 0.096994 0.284835 0.019143
O O17 0.000000 0.500000 0.000000
#
# Coordination Sequence:
#
# PCOD8039951 Si02
#       8
#     2   2   2   2   2   2   2   2
#     4  10  18  35  59  87 117 156 202 230 290 355
#     4   9  19  34  59  87 117 160 198 232 290 365
#     4  10  21  36  60  92 120 156 195 245 299 349
#     4  11  21  39  63  86 118 156 202 243 291 359
#     4  10  23  42  63  87 117 164 206 232 297 370
#     4  11  21  38  59  92 128 154 191 248 300 342
#     4  12  24  41  62  92 118 152 200 263 306 340
#     4   9  20  43  62  84 119 162 201 242 295 367
#
# _framework density 20.192214
#
# number of rings (size 3 to 8) (size 9 to 14) (size 15 to 20)
#    0.000    1.750    1.250    4.125    0.000    0.500 
#    2.250    6.875    0.000    0.000    0.000    0.000 
#    0.000    0.000    0.000    0.000    0.000    0.000 
#
# Total GULP energy -198269.793226 kJ/mol
# GULP energy per Si atom -12391.862077 kJ/mol
# Density = 2.014626 g / cm^3
# Si number density = 20.192214 Si / 1000 Ang^3
#
#
#
# Elastic Constant Matrix: (Units=GPa)
#
#
# Indices 1 2 3 4 5 6 
#
# 1 86.9621 38.8285 33.2301 -4.5286 1.3185 -13.8343
# 2 38.8285 96.2021 27.0821 -2.3386 0.8636 0.3951
# 3 33.2301 27.0821 93.0995 -2.4750 -5.2985 -11.5343
# 4 -4.5286 -2.3386 -2.4750 33.2131 7.8203 8.5680
# 5 1.3185 0.8636 -5.2985 7.8203 27.7823 -3.1761
# 6 -13.8343 0.3951 -11.5343 8.5680 -3.1761 27.6301
#
#
#
# Elastic Compliance Matrix: (Units=1/GPa)
#
#
# Indices 1 2 3 4 5 6 
#
# 1 0.016436 -0.005708 -0.003381 -0.000083 -0.000438 0.006875
# 2 -0.005708 0.013484 -0.002529 0.001602 -0.001629 -0.004791
# 3 -0.003381 -0.002529 0.013474 -0.001839 0.003896 0.004986
# 4 -0.000083 0.001602 -0.001839 0.036437 -0.012200 -0.013534
# 5 -0.000438 -0.001629 0.003896 -0.012200 0.041383 0.009971
# 6 0.006875 -0.004791 0.004986 -0.013534 0.009971 0.047128
#
#
# Mechanical properties :
#
#
# Convention : Reuss Voigt Hill
#
# Bulk Modulus (GPa) = 49.60882 52.72724 51.16803
# Shear Modulus (GPa) = 25.21467 29.53329 27.37398
#
# Velocity S-wave (km/s) = 3.53757 3.82855 3.68594
# Velocity P-wave (km/s) = 6.42709 6.76115 6.59624
#
# Compressibility (1/GPa) = 0.02015771
#
# Stress axis : x y z
#
# Youngs Moduli (GPa) = 60.84155 74.16318 74.21546
#
# Poissons Ratio (x) = 0.42334 0.25096
# Poissons Ratio (y) = 0.34730 0.18766
# Poissons Ratio (z) = 0.20573 0.18752
#
# Static dielectric constant tensor:
#      x y z
#    x 3.430460 -0.033620 -0.025370 
#    y -0.033620 3.780920 -0.024820 
#    z -0.025370 -0.024820 3.865850 
# 
# 
# High freq. dielectric constant tensor:
#      x y z
#    x 1.758080 0.001760 0.004100 
#    y 0.001760 1.803330 0.003750 
#    z 0.004100 0.003750 1.797630 
# 
# From -- ./inp_files/201975.got.cif
#   From: 2010.06.25/outbox.cif.g09.slc.cpg/sg2_101_cif.got.tgz:201975.got - 2010.06.27 13:26:56.
