data_PCOD8039994
_publ_section_title
;
Structure prediction by ZEFSAII (Michael W. Deem and Ramdas Pophale) SiO2 
 PCOD8039994
Probable space group: P -1
;
_chemical_formula_sum "Si O2"
_cell_formula_units_Z 16
_cell_length_a 11.355637
_cell_length_b 10.756428
_cell_length_c 11.404087
_cell_angle_alpha 110.409070
_cell_angle_beta 90.235811
_cell_angle_gamma 41.150041
_cell_volume 779.993236
_symmetry_space_group_name_H-M "P -1"
_symmetry_group_IT_number 2
_symmetry_cell_setting 'triclinic'
loop_
_space_group_symop_operation_xyz
x,y,z
-x,-y,-z
loop_
_atom_site_type_symbol
_atom_site_label
_atom_site_fract_x
_atom_site_fract_y
_atom_site_fract_z
Si Si1 0.142704 0.478559 0.546452
Si Si2 0.698833 0.227718 0.017620
Si Si3 0.587521 0.289267 0.783811
Si Si4 0.979534 0.145974 0.439254
Si Si5 0.010572 0.171233 0.946385
Si Si6 0.442132 0.969992 0.606178
Si Si7 0.252009 0.391645 0.780735
Si Si8 0.874491 0.958053 0.355883
O O1 0.353788 0.264886 0.414166
O O2 0.145893 0.461219 0.679891
O O3 0.000000 0.500000 0.500000
O O4 0.069189 0.693050 0.595351
O O5 0.517619 0.472289 0.154802
O O6 0.789299 0.041090 0.049452
O O7 0.618939 0.225361 0.900830
O O8 0.867013 0.176263 0.957535
O O9 0.444935 0.307610 0.734073
O O10 0.793993 0.106176 0.657685
O O11 0.834683 0.153230 0.411502
O O12 0.960133 0.209763 0.596184
O O13 0.055183 0.159586 0.807435
O O14 0.906081 0.399506 0.065364
O O15 0.316101 0.952133 0.574678
O O16 0.500000 0.000000 0.500000
O O17 0.324091 0.181242 0.758617
#
# Coordination Sequence:
#
# PCOD8039994 Si02
#       8
#     2   2   2   2   2   2   2   2
#     4  11  22  40  67  92 121 161 213 254 297 376
#     4   9  19  34  60  88 130 159 194 252 297 372
#     4  10  18  35  60  93 121 162 203 242 306 365
#     4  11  22  38  61  92 127 167 202 250 319 355
#     4  10  20  38  59  93 125 163 204 246 310 362
#     4  10  22  43  60  86 116 161 210 256 306 363
#     4  10  21  36  69  89 119 169 205 250 301 372
#     4  11  24  40  59  91 130 161 201 267 305 364
#
# _framework density 20.512998
#
# number of rings (size 3 to 8) (size 9 to 14) (size 15 to 20)
#    0.000    1.750    1.250    4.500    3.500    1.000 
#    4.500    0.000    0.000    2.250    0.000    0.000 
#    0.000    0.000    0.000    0.000    0.000    0.000 
#
# Total GULP energy -198318.687160 kJ/mol
# GULP energy per Si atom -12394.917947 kJ/mol
# Density = 2.046631 g / cm^3
# Si number density = 20.512998 Si / 1000 Ang^3
#
#
#
# Elastic Constant Matrix: (Units=GPa)
#
#
# Indices 1 2 3 4 5 6 
#
# 1 137.2127 34.6375 40.9723 10.5068 13.6360 -5.9667
# 2 34.6375 88.8629 51.5535 25.5207 0.7476 -8.9057
# 3 40.9723 51.5535 105.2505 -0.6392 7.8332 -4.7666
# 4 10.5068 25.5207 -0.6392 30.2745 -1.7303 9.5500
# 5 13.6360 0.7476 7.8332 -1.7303 27.0178 -5.7743
# 6 -5.9667 -8.9057 -4.7666 9.5500 -5.7743 23.7155
#
#
#
# Elastic Compliance Matrix: (Units=1/GPa)
#
#
# Indices 1 2 3 4 5 6 
#
# 1 0.009003 -0.000584 -0.002889 -0.003537 -0.003480 0.002042
# 2 -0.000584 0.033401 -0.015726 -0.035897 0.007061 0.025410
# 3 -0.002889 -0.015726 0.018272 0.017950 -0.004676 -0.011326
# 4 -0.003537 -0.035897 0.017950 0.078383 -0.006806 -0.043983
# 5 -0.003480 0.007061 -0.004676 -0.006806 0.042468 0.013917
# 6 0.002042 0.025410 -0.011326 -0.043983 0.013917 0.071046
#
#
# Mechanical properties :
#
#
# Convention : Reuss Voigt Hill
#
# Bulk Modulus (GPa) = 44.88394 65.07254 54.97824
# Shear Modulus (GPa) = 16.75620 29.81242 23.28431
#
# Velocity S-wave (km/s) = 2.86117 3.81641 3.37278
# Velocity P-wave (km/s) = 5.73091 7.15622 6.48285
#
# Compressibility (1/GPa) = 0.02227968
#
# Stress axis : x y z
#
# Youngs Moduli (GPa) = 111.06844 29.93966 54.72706
#
# Poissons Ratio (x) = 0.01748 0.15810
# Poissons Ratio (y) = 0.06484 0.86062
# Poissons Ratio (z) = 0.32087 0.47082
#
# Static dielectric constant tensor:
#      x y z
#    x 3.677800 -0.032350 0.253070 
#    y -0.032350 4.016260 0.259870 
#    z 0.253070 0.259870 3.818740 
# 
# 
# High freq. dielectric constant tensor:
#      x y z
#    x 1.793180 -0.009310 0.020580 
#    y -0.009310 1.797540 0.007890 
#    z 0.020580 0.007890 1.796620 
# 
# From -- ./inp_files/426340.got.cif
#   From: 2010.06.25/outbox.cif.g09.slc.cpg/sg2_214_cif.got.tgz:426340.got - 2010.06.27 13:26:56.
