data_PCOD8039904
_publ_section_title
;
Structure prediction by ZEFSAII (Michael W. Deem and Ramdas Pophale) SiO2 
 PCOD8039904
Probable space group: P -1
;
_chemical_formula_sum "Si O2"
_cell_formula_units_Z 16
_cell_length_a 8.800082
_cell_length_b 17.060007
_cell_length_c 9.227889
_cell_angle_alpha 123.054484
_cell_angle_beta 43.933708
_cell_angle_gamma 95.148841
_cell_volume 687.600262
_symmetry_space_group_name_H-M "P -1"
_symmetry_group_IT_number 2
_symmetry_cell_setting 'triclinic'
loop_
_space_group_symop_operation_xyz
x,y,z
-x,-y,-z
loop_
_atom_site_type_symbol
_atom_site_label
_atom_site_fract_x
_atom_site_fract_y
_atom_site_fract_z
Si Si1 0.839546 0.158084 0.643215
Si Si2 0.453398 0.886618 0.811972
Si Si3 0.529700 0.393314 0.560434
Si Si4 0.096145 0.057056 0.653413
Si Si5 0.907765 0.779036 0.961879
Si Si6 0.191607 0.317326 0.812523
Si Si7 0.731825 0.877396 0.881571
Si Si8 0.355463 0.627050 0.863705
O O1 0.048495 0.115343 0.588676
O O2 0.982774 0.153175 0.391861
O O3 0.631381 0.284476 0.952237
O O4 0.722514 0.077237 0.627426
O O5 0.561516 0.793558 0.525180
O O6 0.618332 0.835893 0.793982
O O7 0.164676 0.927242 0.089294
O O8 0.459999 0.990001 0.841177
O O9 0.274311 0.406861 0.824416
O O10 0.521368 0.507536 0.703010
O O11 0.522009 0.370921 0.371684
O O12 0.786996 0.291304 0.348604
O O13 0.188631 0.113153 0.761649
O O14 0.837124 0.698873 0.013319
O O15 0.755015 0.817969 0.956710
O O16 0.932842 0.347927 0.936627
#
# Coordination Sequence:
#
# PCOD8039904 Si02
#       8
#     2   2   2   2   2   2   2   2
#     4  10  18  35  58  83 115 160 193 239 297 354
#     4  10  19  36  59  84 118 159 203 240 291 370
#     4  10  21  37  60  93 117 153 205 257 290 350
#     4  10  19  35  60  88 121 152 200 241 296 365
#     4  11  22  39  58  90 127 156 192 253 305 346
#     4  11  19  37  62  86 121 157 203 245 298 352
#     4  10  22  36  56  87 123 160 195 245 302 358
#     4  10  19  36  64  90 115 156 208 249 292 349
#
# _framework density 23.269333
#
# number of rings (size 3 to 8) (size 9 to 14) (size 15 to 20)
#    0.000    1.750    5.000    0.375    0.000    2.500 
#    2.250    0.625    0.000    0.750    0.000    0.000 
#    0.000    0.000    0.000    0.000    0.000    0.000 
#
# Total GULP energy -198350.032782 kJ/mol
# GULP energy per Si atom -12396.877049 kJ/mol
# Density = 2.321637 g / cm^3
# Si number density = 23.269333 Si / 1000 Ang^3
#
#
#
# Elastic Constant Matrix: (Units=GPa)
#
#
# Indices 1 2 3 4 5 6 
#
# 1 47.5897 42.8853 12.2982 -2.7798 0.8679 -11.1755
# 2 42.8853 96.0817 33.9871 3.2511 3.1590 -4.5853
# 3 12.2982 33.9871 69.6251 17.0685 9.5879 -4.6383
# 4 -2.7798 3.2511 17.0685 42.0286 8.9408 4.1565
# 5 0.8679 3.1590 9.5879 8.9408 20.9725 -1.1624
# 6 -11.1755 -4.5853 -4.6383 4.1565 -1.1624 29.5385
#
#
#
# Elastic Compliance Matrix: (Units=1/GPa)
#
#
# Indices 1 2 3 4 5 6 
#
# 1 0.039582 -0.017884 0.002082 0.001955 -0.000051 0.012249
# 2 -0.017884 0.020788 -0.007534 0.000633 0.000518 -0.004791
# 3 0.002082 -0.007534 0.020277 -0.006773 -0.005137 0.003553
# 4 0.001955 0.000633 -0.006773 0.029171 -0.009777 -0.004715
# 5 -0.000051 0.000518 -0.005137 -0.009777 0.054275 0.002766
# 6 0.012249 -0.004791 0.003553 -0.004715 0.002766 0.039075
#
#
# Mechanical properties :
#
#
# Convention : Reuss Voigt Hill
#
# Bulk Modulus (GPa) = 29.43296 43.51529 36.47413
# Shear Modulus (GPa) = 19.14496 26.78297 22.96397
#
# Velocity S-wave (km/s) = 2.87148 3.39632 3.14487
# Velocity P-wave (km/s) = 4.86520 5.84134 5.37547
#
# Compressibility (1/GPa) = 0.03397551
#
# Stress axis : x y z
#
# Youngs Moduli (GPa) = 25.26388 48.10467 49.31649
#
# Poissons Ratio (x) = 0.86028 -0.10267
# Poissons Ratio (y) = 0.45181 0.37156
# Poissons Ratio (z) = -0.05260 0.36243
#
# Static dielectric constant tensor:
#      x y z
#    x 3.526470 0.187090 -0.011770 
#    y 0.187090 4.448560 0.042330 
#    z -0.011770 0.042330 4.489740 
# 
# 
# High freq. dielectric constant tensor:
#      x y z
#    x 1.861660 0.015910 -0.009990 
#    y 0.015910 1.927270 -0.013040 
#    z -0.009990 -0.013040 1.930150 
# 
# From -- ./inp_files/215417.got.cif
#   From: 2010.06.25/outbox.cif.g09.slc.cpg/sg2_108_cif.got.tgz:215417.got - 2010.06.27 13:26:56.
