data_PCOD8039730
_publ_section_title
;
Structure prediction by ZEFSAII (Michael W. Deem and Ramdas Pophale) SiO2 
 PCOD8039730
Probable space group: P -1
;
_chemical_formula_sum "Si O2"
_cell_formula_units_Z 16
_cell_length_a 16.466358
_cell_length_b 12.825998
_cell_length_c 11.215443
_cell_angle_alpha 115.520236
_cell_angle_beta 22.458065
_cell_angle_gamma 111.660290
_cell_volume 813.661810
_symmetry_space_group_name_H-M "P -1"
_symmetry_group_IT_number 2
_symmetry_cell_setting 'triclinic'
loop_
_space_group_symop_operation_xyz
x,y,z
-x,-y,-z
loop_
_atom_site_type_symbol
_atom_site_label
_atom_site_fract_x
_atom_site_fract_y
_atom_site_fract_z
Si Si1 0.806201 0.659544 0.839465
Si Si2 0.139355 0.239484 0.781153
Si Si3 0.329852 0.145309 0.715026
Si Si4 0.573812 0.660188 0.734865
Si Si5 0.813206 0.441842 0.869071
Si Si6 0.585906 0.306282 0.774508
Si Si7 0.743606 0.113215 0.283048
Si Si8 0.881522 0.464237 0.327203
O O1 0.739984 0.570688 0.986079
O O2 0.045106 0.628919 0.457146
O O3 0.800316 0.786368 0.968893
O O4 0.643796 0.651605 0.946820
O O5 0.289197 0.211997 0.678922
O O6 0.290822 0.243277 0.461689
O O7 0.976017 0.141288 0.935508
O O8 0.004452 0.363804 0.033193
O O9 0.579782 0.138311 0.407842
O O10 0.244151 0.019565 0.759368
O O11 0.718302 0.541587 0.505436
O O12 0.396496 0.626738 0.862518
O O13 0.455338 0.713757 0.039793
O O14 0.946943 0.452220 0.813348
O O15 0.679454 0.188711 0.524958
O O16 0.751146 0.405023 0.580993
#
# Coordination Sequence:
#
# PCOD8039730 Si02
#       8
#     2   2   2   2   2   2   2   2
#     4  10  18  34  61  85 109 146 197 236 269 325
#     4  11  24  38  58  86 119 150 183 234 292 339
#     4  10  20  41  64  87 106 144 200 239 279 332
#     4  12  24  36  53  88 124 152 183 225 290 344
#     4  11  21  32  56  84 114 153 184 232 275 325
#     4  10  19  37  60  83 113 149 195 236 272 332
#     4   9  22  40  68  82 106 145 198 245 278 326
#     4  11  21  38  56  83 117 156 195 226 269 342
#
# _framework density 19.664190000000001
#
# number of rings (size 3 to 8) (size 9 to 14) (size 15 to 20)
#    0.000    1.500    3.750    2.625    1.750    1.500 
#    0.000    0.625    0.000    2.250    0.000    0.000 
#    0.000    0.000    0.000    0.000    0.000    0.000 
#
# Total GULP energy -198407.961702 kJ/mol
# GULP energy per Si atom -12400.497606 kJ/mol
# Density = 1.961943 g / cm^3
# Si number density = 19.664190 Si / 1000 Ang^3
#
#
#
# Elastic Constant Matrix: (Units=GPa)
#
#
# Indices 1 2 3 4 5 6 
#
# 1 74.7089 28.4960 44.8646 -17.2171 -8.1341 14.2224
# 2 28.4960 80.1638 44.9259 -5.2435 -1.1048 13.1111
# 3 44.8646 44.9259 92.3175 -26.7797 -2.5974 4.5606
# 4 -17.2171 -5.2435 -26.7797 30.2933 -2.1363 -3.5386
# 5 -8.1341 -1.1048 -2.5974 -2.1363 25.2225 -6.6171
# 6 14.2224 13.1111 4.5606 -3.5386 -6.6171 20.2262
#
#
#
# Elastic Compliance Matrix: (Units=1/GPa)
#
#
# Indices 1 2 3 4 5 6 
#
# 1 0.022366 -0.000975 -0.008613 0.003869 0.003651 -0.011281
# 2 -0.000975 0.021070 -0.011988 -0.009439 -0.004981 -0.013550
# 3 -0.008613 -0.011988 0.025327 0.017156 0.004021 0.012433
# 4 0.003869 -0.009439 0.017156 0.050809 0.009969 0.011680
# 5 0.003651 -0.004981 0.004021 0.009969 0.046226 0.016621
# 6 -0.011281 -0.013550 0.012433 0.011680 0.016621 0.070835
#
#
# Mechanical properties :
#
#
# Convention : Reuss Voigt Hill
#
# Bulk Modulus (GPa) = 39.04627 53.75145 46.39886
# Shear Modulus (GPa) = 17.34173 23.74199 20.54186
#
# Velocity S-wave (km/s) = 2.97289 3.47850 3.23558
# Velocity P-wave (km/s) = 5.62883 6.59752 6.13233
#
# Compressibility (1/GPa) = 0.02561064
#
# Stress axis : x y z
#
# Youngs Moduli (GPa) = 44.71032 47.46114 39.48313
#
# Poissons Ratio (x) = 0.04629 0.34005
# Poissons Ratio (y) = 0.04361 0.47334
# Poissons Ratio (z) = 0.38507 0.56899
#
# Static dielectric constant tensor:
#      x y z
#    x 3.515580 0.098500 -0.266660 
#    y 0.098500 3.457400 0.031980 
#    z -0.266660 0.031980 3.621870 
# 
# 
# High freq. dielectric constant tensor:
#      x y z
#    x 1.766500 0.011760 -0.025410 
#    y 0.011760 1.745090 0.007280 
#    z -0.025410 0.007280 1.762730 
# 
# From -- ./inp_files/282852.got.cif
#   From: 2010.06.25/outbox.cif.g09.slc.cpg/sg2_142_cif.got.tgz:282852.got - 2010.06.27 13:26:56.
