data_PCOD8039202
_publ_section_title
;
Structure prediction by ZEFSAII (Michael W. Deem and Ramdas Pophale) SiO2 
 PCOD8039202
Probable space group: P -1
;
_chemical_formula_sum "Si O2"
_cell_formula_units_Z 14
_cell_length_a 7.011336
_cell_length_b 17.152501
_cell_length_c 13.419399
_cell_angle_alpha 44.104452
_cell_angle_beta 47.272843
_cell_angle_gamma 69.133958
_cell_volume 797.523614
_symmetry_space_group_name_H-M "P -1"
_symmetry_group_IT_number 2
_symmetry_cell_setting 'triclinic'
loop_
_space_group_symop_operation_xyz
x,y,z
-x,-y,-z
loop_
_atom_site_type_symbol
_atom_site_label
_atom_site_fract_x
_atom_site_fract_y
_atom_site_fract_z
Si Si1 0.254706 0.328555 0.479474
Si Si2 0.197081 0.492653 0.848071
Si Si3 0.550124 0.843844 0.566493
Si Si4 0.989266 0.246798 0.069848
Si Si5 0.788764 0.664375 0.288776
Si Si6 0.821797 0.420874 0.436357
Si Si7 0.138317 0.976505 0.572045
O O1 0.496785 0.445005 0.289764
O O2 0.351576 0.222543 0.496637
O O3 0.146840 0.289004 0.664758
O O4 0.017125 0.349829 0.476938
O O5 0.103261 0.553688 0.729540
O O6 0.186051 0.359773 0.947066
O O7 0.000000 0.500000 0.000000
O O8 0.418013 0.943173 0.476420
O O9 0.321604 0.754420 0.795047
O O10 0.799216 0.906929 0.490491
O O11 0.053369 0.131244 0.199802
O O12 0.027982 0.248274 0.935324
O O13 0.852002 0.539325 0.377379
O O14 0.481551 0.656482 0.375906
O O15 0.000000 0.000000 0.500000
#
# Coordination Sequence:
#
# PCOD8039202 Si02
#       7
#     2   2   2   2   2   2   2
#     4  11  20  34  57  81 114 145 175 215 273 316
#     4  10  18  33  50  82 116 136 170 225 262 309
#     4   9  20  36  56  82 104 133 184 229 262 319
#     4   9  18  37  54  78 108 139 182 222 262 319
#     4   9  19  36  51  75 117 147 174 219 257 319
#     4   9  20  34  51  76 116 154 178 202 263 331
#     4   9  19  39  59  75 105 140 177 227 283 308
#
# _framework density 17.554338999999999
#
# number of rings (size 3 to 8) (size 9 to 14) (size 15 to 20)
#    0.857    1.714    1.429    1.286    0.000    4.000 
#    7.714    0.714    0.000    1.714    0.000    0.000 
#    0.000    0.000    0.000    0.000    0.000    0.000 
#
# Total GULP energy -173536.450660 kJ/mol
# GULP energy per Si atom -12395.460761 kJ/mol
# Density = 1.751438 g / cm^3
# Si number density = 17.554339 Si / 1000 Ang^3
#
#
#
# Elastic Constant Matrix: (Units=GPa)
#
#
# Indices 1 2 3 4 5 6 
#
# 1 92.6741 37.6605 29.3999 4.3754 16.9979 5.6937
# 2 37.6605 99.5763 43.4325 12.9105 8.7997 16.1694
# 3 29.3999 43.4325 82.1436 15.3020 21.5946 8.2211
# 4 4.3754 12.9105 15.3020 35.6795 7.6110 -1.6674
# 5 16.9979 8.7997 21.5946 7.6110 20.4859 1.4594
# 6 5.6937 16.1694 8.2211 -1.6674 1.4594 24.2499
#
#
#
# Elastic Compliance Matrix: (Units=1/GPa)
#
#
# Indices 1 2 3 4 5 6 
#
# 1 0.014689 -0.004872 -0.000421 0.002441 -0.010611 0.000749
# 2 -0.004872 0.016159 -0.006967 -0.004020 0.006504 -0.007937
# 3 -0.000421 -0.006967 0.021463 -0.002846 -0.018108 -0.001638
# 4 0.002441 -0.004020 -0.002846 0.032793 -0.009904 0.005923
# 5 -0.010611 0.006504 -0.018108 -0.009904 0.077668 -0.001062
# 6 0.000749 -0.007937 -0.001638 0.005923 -0.001062 0.047380
#
#
# Mechanical properties :
#
#
# Convention : Reuss Voigt Hill
#
# Bulk Modulus (GPa) = 35.98384 55.04222 45.51303
# Shear Modulus (GPa) = 20.49722 27.00981 23.75351
#
# Velocity S-wave (km/s) = 3.42079 3.92681 3.68250
# Velocity P-wave (km/s) = 6.01211 7.20993 6.63809
#
# Compressibility (1/GPa) = 0.02779025
#
# Stress axis : x y z
#
# Youngs Moduli (GPa) = 68.07769 61.88420 46.59237
#
# Poissons Ratio (x) = 0.30151 0.01963
# Poissons Ratio (y) = 0.33168 0.32461
# Poissons Ratio (z) = 0.02869 0.43114
#
# Static dielectric constant tensor:
#      x y z
#    x 3.032680 0.173180 -0.034790 
#    y 0.173180 3.192190 0.084260 
#    z -0.034790 0.084260 3.270220 
# 
# 
# High freq. dielectric constant tensor:
#      x y z
#    x 1.663130 0.015030 0.001250 
#    y 0.015030 1.671090 0.009310 
#    z 0.001250 0.009310 1.670530 
# 
# From -- ./inp_files/368899.got.cif
#   From: 2010.06.25/outbox.cif.g09.slc.cpg/sg2_185_cif.got.tgz:368899.got - 2010.06.27 13:26:56.
