data_PCOD8039139
_publ_section_title
;
Structure prediction by ZEFSAII (Michael W. Deem and Ramdas Pophale) SiO2 
 PCOD8039139
Probable space group: P -1
;
_chemical_formula_sum "Si O2"
_cell_formula_units_Z 16
_cell_length_a 13.692718
_cell_length_b 18.915633
_cell_length_c 9.345875
_cell_angle_alpha 84.667696
_cell_angle_beta 71.856733
_cell_angle_gamma 22.814711
_cell_volume 758.159616
_symmetry_space_group_name_H-M "P -1"
_symmetry_group_IT_number 2
_symmetry_cell_setting 'triclinic'
loop_
_space_group_symop_operation_xyz
x,y,z
-x,-y,-z
loop_
_atom_site_type_symbol
_atom_site_label
_atom_site_fract_x
_atom_site_fract_y
_atom_site_fract_z
Si Si1 0.634288 0.198604 0.541943
Si Si2 0.811573 0.231478 0.509755
Si Si3 0.679877 0.702149 0.524403
Si Si4 0.693667 0.776764 0.225035
Si Si5 0.125769 0.692306 0.758752
Si Si6 0.583967 0.096687 0.110905
Si Si7 0.639434 0.671252 0.081746
Si Si8 0.279328 0.154903 0.202624
O O1 0.741570 0.207389 0.447866
O O2 0.370699 0.339818 0.528781
O O3 0.533592 0.269997 0.743474
O O4 0.934476 0.949877 0.448967
O O5 0.482749 0.468785 0.685526
O O6 0.953819 0.198394 0.348107
O O7 0.671984 0.770911 0.402152
O O8 0.401072 0.889449 0.733005
O O9 0.000000 0.500000 0.500000
O O10 0.641732 0.743848 0.152041
O O11 0.436802 0.005925 0.284860
O O12 0.037600 0.577677 0.059543
O O13 0.057778 0.658343 0.723798
O O14 0.904855 0.849248 0.966804
O O15 0.285977 0.235272 0.214417
O O16 0.526540 0.202635 0.017096
O O17 0.500000 0.000000 0.000000
#
# Coordination Sequence:
#
# PCOD8039139 Si02
#       8
#     2   2   2   2   2   2   2   2
#     4  10  22  38  61  87 112 154 209 246 285 340
#     4  10  21  38  63  85 110 156 209 253 274 334
#     4  11  23  37  58  89 129 154 189 241 310 356
#     4  10  19  33  54  85 117 157 185 235 290 355
#     4  10  20  36  58  89 114 150 204 247 295 334
#     4  11  21  37  57  90 125 156 184 245 308 357
#     4  10  18  32  58  81 116 149 201 238 286 341
#     4  10  20  33  59  90 118 149 194 246 297 348
#
# _framework density 21.103733999999999
#
# number of rings (size 3 to 8) (size 9 to 14) (size 15 to 20)
#    0.000    1.750    5.000    0.750    5.250    0.500 
#    0.000    1.250    0.000    0.000    0.000    0.000 
#    0.000    0.000    0.000    0.000    0.000    0.000 
#
# Total GULP energy -198234.208823 kJ/mol
# GULP energy per Si atom -12389.638051 kJ/mol
# Density = 2.105570 g / cm^3
# Si number density = 21.103734 Si / 1000 Ang^3
#
#
#
# Elastic Constant Matrix: (Units=GPa)
#
#
# Indices 1 2 3 4 5 6 
#
# 1 67.4238 -7.6903 18.3420 -11.4498 -9.1305 -5.4049
# 2 -7.6903 52.4100 17.3754 -8.8423 -0.8881 -13.7367
# 3 18.3420 17.3754 114.1183 -8.8255 -1.3446 -10.2627
# 4 -11.4498 -8.8423 -8.8255 35.3005 -2.5140 -6.2649
# 5 -9.1305 -0.8881 -1.3446 -2.5140 23.1259 0.9848
# 6 -5.4049 -13.7367 -10.2627 -6.2649 0.9848 25.9393
#
#
#
# Elastic Compliance Matrix: (Units=1/GPa)
#
#
# Indices 1 2 3 4 5 6 
#
# 1 0.020257 0.008315 -0.002748 0.010318 0.008866 0.009693
# 2 0.008315 0.028334 -0.002955 0.012670 0.004791 0.018446
# 3 -0.002748 -0.002955 0.009928 0.001181 -0.000582 0.002098
# 4 0.010318 0.012670 0.001181 0.038992 0.008083 0.018438
# 5 0.008866 0.004791 -0.000582 0.008083 0.047588 0.004300
# 6 0.009693 0.018446 0.002098 0.018438 0.004300 0.055460
#
#
# Mechanical properties :
#
#
# Convention : Reuss Voigt Hill
#
# Bulk Modulus (GPa) = 15.68819 32.22293 23.95556
# Shear Modulus (GPa) = 23.08595 30.60146 26.84370
#
# Velocity S-wave (km/s) = 3.31104 3.81208 3.57036
# Velocity P-wave (km/s) = 4.69759 5.88880 5.32660
#
# Compressibility (1/GPa) = 0.06374222
#
# Stress axis : x y z
#
# Youngs Moduli (GPa) = 49.36484 35.29353 100.72938
#
# Poissons Ratio (x) = -0.29346 0.27679
# Poissons Ratio (y) = -0.41046 0.29768
# Poissons Ratio (z) = 0.13565 0.10430
#
# Static dielectric constant tensor:
#      x y z
#    x 3.541390 -0.265090 -0.259470 
#    y -0.265090 3.767850 -0.092230 
#    z -0.259470 -0.092230 4.139020 
# 
# 
# High freq. dielectric constant tensor:
#      x y z
#    x 1.798140 0.013720 -0.030640 
#    y 0.013720 1.830070 0.013030 
#    z -0.030640 0.013030 1.814680 
# 
# From -- ./inp_files/319356.got.cif
#   From: 2010.06.25/outbox.cif.g09.slc.cpg/sg2_160_cif.got.tgz:319356.got - 2010.06.27 13:26:56.
