data_PCOD8039936
_publ_section_title
;
Structure prediction by ZEFSAII (Michael W. Deem and Ramdas Pophale) SiO2 
 PCOD8039936
Probable space group: P -1
;
_chemical_formula_sum "Si O2"
_cell_formula_units_Z 14
_cell_length_a 9.570073
_cell_length_b 11.749127
_cell_length_c 14.457432
_cell_angle_alpha 31.659041
_cell_angle_beta 57.548107
_cell_angle_gamma 60.483648
_cell_volume 717.605050
_symmetry_space_group_name_H-M "P -1"
_symmetry_group_IT_number 2
_symmetry_cell_setting 'triclinic'
loop_
_space_group_symop_operation_xyz
x,y,z
-x,-y,-z
loop_
_atom_site_type_symbol
_atom_site_label
_atom_site_fract_x
_atom_site_fract_y
_atom_site_fract_z
Si Si1 0.386767 0.849247 0.016340
Si Si2 0.273678 0.346783 0.697006
Si Si3 0.738733 0.310480 0.095077
Si Si4 0.513995 0.509188 0.638332
Si Si5 0.381154 0.874121 0.564762
Si Si6 0.930937 0.224249 0.913668
Si Si7 0.396249 0.223079 0.181072
O O1 0.434878 0.736388 0.175049
O O2 0.243542 0.705286 0.123772
O O3 0.547385 0.844872 0.895578
O O4 0.319171 0.097682 0.883590
O O5 0.351587 0.504740 0.634046
O O6 0.338159 0.395702 0.537962
O O7 0.072794 0.393212 0.734747
O O8 0.763175 0.208089 0.260418
O O9 0.558898 0.262697 0.154573
O O10 0.888244 0.204830 0.051484
O O11 0.740238 0.572288 0.916165
O O12 0.480380 0.660579 0.634366
O O13 0.500000 0.000000 0.500000
O O14 0.309896 0.027857 0.399329
O O15 0.000000 0.000000 0.000000
#
# Coordination Sequence:
#
# PCOD8039936 Si02
#       7
#     2   2   2   2   2   2   2
#     4  10  18  35  59  83 105 142 189 228 266 319
#     4  10  22  38  53  81 120 145 176 224 277 335
#     4   9  17  31  51  78 103 140 177 225 273 308
#     4  11  21  35  58  84 108 148 185 224 275 320
#     4  10  19  30  53  84 105 134 187 233 261 312
#     4   9  20  36  56  79 115 145 178 225 277 326
#     4   9  16  29  52  80 106 129 181 234 262 305
#
# _framework density 19.509338
#
# number of rings (size 3 to 8) (size 9 to 14) (size 15 to 20)
#    0.000    2.286    2.857    0.429    4.000    0.571 
#    0.000    3.571    0.000    0.857    0.000    0.000 
#    0.000    0.000    0.000    0.000    0.000    0.000 
#
# Total GULP energy -173499.321562 kJ/mol
# GULP energy per Si atom -12392.808683 kJ/mol
# Density = 1.946493 g / cm^3
# Si number density = 19.509338 Si / 1000 Ang^3
#
#
#
# Elastic Constant Matrix: (Units=GPa)
#
#
# Indices 1 2 3 4 5 6 
#
# 1 42.5972 22.7899 21.7484 19.3454 -8.4079 3.4471
# 2 22.7899 119.1379 41.1154 21.1722 -6.4422 -2.7389
# 3 21.7484 41.1154 129.5583 21.0012 8.2879 -8.4252
# 4 19.3454 21.1722 21.0012 38.0105 -2.8735 -2.7497
# 5 -8.4079 -6.4422 8.2879 -2.8735 21.6399 0.2263
# 6 3.4471 -2.7389 -8.4252 -2.7497 0.2263 17.7540
#
#
#
# Elastic Compliance Matrix: (Units=1/GPa)
#
#
# Indices 1 2 3 4 5 6 
#
# 1 0.037882 -0.002420 -0.004854 -0.015101 0.013983 -0.012549
# 2 -0.002420 0.010423 -0.002582 -0.002912 0.002761 0.000366
# 3 -0.004854 -0.002582 0.010472 -0.002023 -0.006989 0.005289
# 4 -0.015101 -0.002912 -0.002023 0.037178 -0.001099 0.007295
# 5 0.013983 0.002761 -0.006989 -0.001099 0.055065 -0.006478
# 6 -0.012549 0.000366 0.005289 0.007295 -0.006478 0.062541
#
#
# Mechanical properties :
#
#
# Convention : Reuss Voigt Hill
#
# Bulk Modulus (GPa) = 25.59866 51.40010 38.49938
# Shear Modulus (GPa) = 20.30090 29.19019 24.74555
#
# Velocity S-wave (km/s) = 3.22929 3.87229 3.56532
# Velocity P-wave (km/s) = 5.20136 6.81150 6.06014
#
# Compressibility (1/GPa) = 0.03906454
#
# Stress axis : x y z
#
# Youngs Moduli (GPa) = 26.39757 95.94209 95.49498
#
# Poissons Ratio (x) = 0.23220 0.46351
# Poissons Ratio (y) = 0.06389 0.24659
# Poissons Ratio (z) = 0.12813 0.24775
#
# Static dielectric constant tensor:
#      x y z
#    x 3.342670 0.052910 -0.072750 
#    y 0.052910 3.571010 0.238190 
#    z -0.072750 0.238190 3.958520 
# 
# 
# High freq. dielectric constant tensor:
#      x y z
#    x 1.706670 0.017950 0.000980 
#    y 0.017950 1.761990 0.011980 
#    z 0.000980 0.011980 1.765920 
# 
# From -- ./inp_files/181779.got.cif
#   From: 2010.06.25/outbox.cif.g09.slc.cpg/sg2_91_cif.got.tgz:181779.got - 2010.06.27 13:26:56.
