data_PCOD8039506
_publ_section_title
;
Structure prediction by ZEFSAII (Michael W. Deem and Ramdas Pophale) SiO2 
 PCOD8039506
Probable space group: P -1
;
_chemical_formula_sum "Si O2"
_cell_formula_units_Z 14
_cell_length_a 14.166049
_cell_length_b 10.917638
_cell_length_c 9.622921
_cell_angle_alpha 130.418358
_cell_angle_beta 68.444491
_cell_angle_gamma 78.567162
_cell_volume 829.858216
_symmetry_space_group_name_H-M "P -1"
_symmetry_group_IT_number 2
_symmetry_cell_setting 'triclinic'
loop_
_space_group_symop_operation_xyz
x,y,z
-x,-y,-z
loop_
_atom_site_type_symbol
_atom_site_label
_atom_site_fract_x
_atom_site_fract_y
_atom_site_fract_z
Si Si1 0.134325 0.269077 0.600633
Si Si2 0.804764 0.038475 0.865768
Si Si3 0.066666 0.817695 0.936479
Si Si4 0.725738 0.629147 0.595972
Si Si5 0.271827 0.115943 0.991672
Si Si6 0.534186 0.287286 0.282833
Si Si7 0.889396 0.720352 0.064667
O O1 0.242672 0.271953 0.468630
O O2 0.172333 0.221243 0.706123
O O3 0.131058 0.094040 0.406184
O O4 0.990965 0.477614 0.812275
O O5 0.858521 0.160961 0.965599
O O6 0.649476 0.193518 0.038398
O O7 0.834383 0.887740 0.869157
O O8 0.165398 0.613867 0.644010
O O9 0.959585 0.820519 0.076190
O O10 0.000000 0.000000 0.000000
O O11 0.587410 0.684614 0.691911
O O12 0.718559 0.721179 0.817344
O O13 0.227624 0.189224 0.912564
O O14 0.406947 0.882383 0.748812
O O15 0.500000 0.500000 0.500000
#
# Coordination Sequence:
#
# PCOD8039506 Si02
#       7
#     2   2   2   2   2   2   2
#     4   9  21  34  53  74 107 141 165 211 256 313
#     4   9  19  32  53  79  98 134 172 209 261 297
#     4  11  19  30  53  82 102 134 168 216 258 298
#     4  10  19  33  56  76 103 133 176 209 260 305
#     4   9  19  31  54  77  99 136 171 216 247 299
#     4  10  18  34  54  79 104 128 173 221 258 298
#     4  10  20  36  50  76 111 133 173 207 257 309
#
# _framework density 16.870353000000001
#
# number of rings (size 3 to 8) (size 9 to 14) (size 15 to 20)
#    0.857    1.429    2.857    0.429    2.000    2.286 
#    0.000    0.714    0.000    0.857    0.000    0.000 
#    0.000    0.000    0.000    0.000    0.000    0.000 
#
# Total GULP energy -173487.445283 kJ/mol
# GULP energy per Si atom -12391.960377 kJ/mol
# Density = 1.683195 g / cm^3
# Si number density = 16.870353 Si / 1000 Ang^3
#
#
#
# Elastic Constant Matrix: (Units=GPa)
#
#
# Indices 1 2 3 4 5 6 
#
# 1 112.6920 46.8421 42.8107 7.3239 10.9987 -2.6215
# 2 46.8421 77.3478 50.5579 8.2056 10.5861 -14.3297
# 3 42.8107 50.5579 95.0263 14.3376 21.4292 -4.3299
# 4 7.3239 8.2056 14.3376 25.7171 4.6883 4.1249
# 5 10.9987 10.5861 21.4292 4.6883 28.6508 1.4960
# 6 -2.6215 -14.3297 -4.3299 4.1249 1.4960 25.1692
#
#
#
# Elastic Compliance Matrix: (Units=1/GPa)
#
#
# Indices 1 2 3 4 5 6 
#
# 1 0.012394 -0.006604 -0.002102 0.000324 -0.000650 -0.002845
# 2 -0.006604 0.026099 -0.009886 -0.003033 0.000106 0.012961
# 3 -0.002102 -0.009886 0.019568 -0.005299 -0.009253 -0.001062
# 4 0.000324 -0.003033 -0.005299 0.044621 -0.001830 -0.009809
# 5 -0.000650 0.000106 -0.009253 -0.001830 0.042534 -0.003828
# 6 -0.002845 0.012961 -0.001062 -0.009809 -0.003828 0.048466
#
#
# Mechanical properties :
#
#
# Convention : Reuss Voigt Hill
#
# Bulk Modulus (GPa) = 47.90153 62.83194 55.36673
# Shear Modulus (GPa) = 21.02403 25.56446 23.29425
#
# Velocity S-wave (km/s) = 3.53400 3.89697 3.71992
# Velocity P-wave (km/s) = 6.71623 7.58771 7.16523
#
# Compressibility (1/GPa) = 0.02087616
#
# Stress axis : x y z
#
# Youngs Moduli (GPa) = 80.68716 38.31634 51.10470
#
# Poissons Ratio (x) = 0.25306 0.10740
# Poissons Ratio (y) = 0.53289 0.50521
# Poissons Ratio (z) = 0.16957 0.37879
#
# Static dielectric constant tensor:
#      x y z
#    x 3.200780 0.103770 0.123830 
#    y 0.103770 3.074000 0.180980 
#    z 0.123830 0.180980 3.215120 
# 
# 
# High freq. dielectric constant tensor:
#      x y z
#    x 1.652260 0.006340 0.009860 
#    y 0.006340 1.624900 0.022420 
#    z 0.009860 0.022420 1.646750 
# 
# From -- ./inp_files/167613.got.cif
#   From: 2010.06.25/outbox.cif.g09.slc.cpg/sg2_84_cif.got.tgz:167613.got - 2010.06.27 13:26:56.
