data_PCOD8039519
_publ_section_title
;
Structure prediction by ZEFSAII (Michael W. Deem and Ramdas Pophale) SiO2 
 PCOD8039519
Probable space group: P -1
;
_chemical_formula_sum "Si O2"
_cell_formula_units_Z 16
_cell_length_a 16.038202
_cell_length_b 9.393129
_cell_length_c 13.179576
_cell_angle_alpha 76.175014
_cell_angle_beta 26.731657
_cell_angle_gamma 86.239709
_cell_volume 816.040068
_symmetry_space_group_name_H-M "P -1"
_symmetry_group_IT_number 2
_symmetry_cell_setting 'triclinic'
loop_
_space_group_symop_operation_xyz
x,y,z
-x,-y,-z
loop_
_atom_site_type_symbol
_atom_site_label
_atom_site_fract_x
_atom_site_fract_y
_atom_site_fract_z
Si Si1 0.682159 0.706879 0.985457
Si Si2 0.497944 0.804564 0.769432
Si Si3 0.504586 0.414158 0.357085
Si Si4 0.234935 0.549896 0.742936
Si Si5 0.765353 0.807495 0.662267
Si Si6 0.589791 0.160376 0.635358
Si Si7 0.137121 0.831534 0.480768
Si Si8 0.108383 0.682436 0.331328
O O1 0.555452 0.536925 0.189680
O O2 0.612945 0.833602 0.098372
O O3 0.645658 0.708787 0.904262
O O4 0.908138 0.740020 0.760167
O O5 0.545327 0.751489 0.616072
O O6 0.636708 0.768256 0.708485
O O7 0.544659 0.987359 0.674075
O O8 0.273720 0.710257 0.060872
O O9 0.311729 0.423904 0.623367
O O10 0.692348 0.443762 0.221488
O O11 0.335678 0.721860 0.558762
O O12 0.000000 0.500000 0.000000
O O13 0.957141 0.762216 0.439807
O O14 0.824528 0.986196 0.601440
O O15 0.754769 0.209959 0.534371
O O16 0.209880 0.770069 0.309524
O O17 0.000000 0.500000 0.500000
#
# Coordination Sequence:
#
# PCOD8039519 Si02
#       8
#     2   2   2   2   2   2   2   2
#     4  10  18  34  55  78 111 150 184 217 259 321
#     4  11  22  37  54  85 118 140 181 226 268 325
#     4  10  23  38  58  82 107 139 179 231 282 324
#     4  10  22  43  62  79 102 138 186 231 281 336
#     4  10  21  34  53  80 116 155 181 214 263 318
#     4  10  21  35  60  82 104 148 185 224 277 321
#     4  10  19  34  53  80 114 150 188 216 257 322
#     4  11  22  33  53  83 117 154 185 218 261 312
#
# _framework density 19.60688
#
# number of rings (size 3 to 8) (size 9 to 14) (size 15 to 20)
#    0.000    1.750    0.000    6.000    0.000    7.500 
#    0.000    0.625    0.000    0.000    0.000    0.000 
#    0.000    0.000    0.000    0.000    0.000    0.000 
#
# Total GULP energy -198438.557570 kJ/mol
# GULP energy per Si atom -12402.409848 kJ/mol
# Density = 1.956225 g / cm^3
# Si number density = 19.606880 Si / 1000 Ang^3
#
#
#
# Elastic Constant Matrix: (Units=GPa)
#
#
# Indices 1 2 3 4 5 6 
#
# 1 72.9527 52.0637 26.8527 11.1878 5.5401 7.1302
# 2 52.0637 109.2416 29.0506 13.0582 3.8449 13.2779
# 3 26.8527 29.0506 77.6604 12.3588 -3.8535 11.3047
# 4 11.1878 13.0582 12.3588 23.2476 0.1414 4.0050
# 5 5.5401 3.8449 -3.8535 0.1414 21.3145 2.6359
# 6 7.1302 13.2779 11.3047 4.0050 2.6359 31.5446
#
#
#
# Elastic Compliance Matrix: (Units=1/GPa)
#
#
# Indices 1 2 3 4 5 6 
#
# 1 0.022670 -0.009201 -0.004237 -0.003658 -0.005118 0.001159
# 2 -0.009201 0.014609 -0.001424 -0.002462 -0.000084 -0.003239
# 3 -0.004237 -0.001424 0.016557 -0.005284 0.004896 -0.004115
# 4 -0.003658 -0.002462 -0.005284 0.049404 0.000427 -0.002551
# 5 -0.005118 -0.000084 0.004896 0.000427 0.049734 -0.004772
# 6 0.001159 -0.003239 -0.004115 -0.002551 -0.004772 0.035000
#
#
# Mechanical properties :
#
#
# Convention : Reuss Voigt Hill
#
# Bulk Modulus (GPa) = 41.47498 52.86540 47.17019
# Shear Modulus (GPa) = 22.14971 25.34720 23.74846
#
# Velocity S-wave (km/s) = 3.36473 3.59941 3.48405
# Velocity P-wave (km/s) = 6.02449 6.65549 6.34784
#
# Compressibility (1/GPa) = 0.02411092
#
# Stress axis : x y z
#
# Youngs Moduli (GPa) = 44.11125 68.45133 60.39672
#
# Poissons Ratio (x) = 0.62982 0.25592
# Poissons Ratio (y) = 0.40587 0.08601
# Poissons Ratio (z) = 0.18692 0.09748
#
# Static dielectric constant tensor:
#      x y z
#    x 3.690710 -0.109770 -0.073650 
#    y -0.109770 3.711940 0.197460 
#    z -0.073650 0.197460 3.555560 
# 
# 
# High freq. dielectric constant tensor:
#      x y z
#    x 1.763750 -0.010400 -0.003830 
#    y -0.010400 1.772650 0.009600 
#    z -0.003830 0.009600 1.758770 
# 
# From -- ./inp_files/202277.got.cif
#   From: 2010.06.25/outbox.cif.g09.slc.cpg/sg2_102_cif.got.tgz:202277.got - 2010.06.27 13:26:56.
