data_PCOD8039915
_publ_section_title
;
Structure prediction by ZEFSAII (Michael W. Deem and Ramdas Pophale) SiO2 
 PCOD8039915
Probable space group: P -1
;
_chemical_formula_sum "Si O2"
_cell_formula_units_Z 16
_cell_length_a 9.056742
_cell_length_b 15.333187
_cell_length_c 14.234181
_cell_angle_alpha 151.287636
_cell_angle_beta 67.841254
_cell_angle_gamma 93.979701
_cell_volume 711.704842
_symmetry_space_group_name_H-M "P -1"
_symmetry_group_IT_number 2
_symmetry_cell_setting 'triclinic'
loop_
_space_group_symop_operation_xyz
x,y,z
-x,-y,-z
loop_
_atom_site_type_symbol
_atom_site_label
_atom_site_fract_x
_atom_site_fract_y
_atom_site_fract_z
Si Si1 0.017666 0.108751 0.191349
Si Si2 0.769828 0.953342 0.382707
Si Si3 0.720435 0.861655 0.966504
Si Si4 0.350493 0.287646 0.701616
Si Si5 0.610455 0.653963 0.456674
Si Si6 0.019544 0.765760 0.968055
Si Si7 0.624331 0.346281 0.910731
Si Si8 0.394002 0.452598 0.248904
O O1 0.817263 0.309289 0.477169
O O2 0.108659 0.903827 0.049433
O O3 0.145183 0.200751 0.218595
O O4 0.000000 0.000000 0.000000
O O5 0.786956 0.750305 0.240441
O O6 0.951471 0.838243 0.160132
O O7 0.572474 0.114187 0.521848
O O8 0.780938 0.095227 0.597616
O O9 0.843802 0.815415 0.989085
O O10 0.552397 0.125008 0.239083
O O11 0.625928 0.724827 0.859188
O O12 0.350584 0.249842 0.554762
O O13 0.265836 0.549669 0.977503
O O14 0.540819 0.493885 0.303286
O O15 0.808788 0.501149 0.326532
O O16 0.500000 0.500000 0.000000
O O17 0.475172 0.359538 0.036380
#
# Coordination Sequence:
#
# PCOD8039915 Si02
#       8
#     2   2   2   2   2   2   2   2
#     4  10  20  42  67  90 120 164 206 257 314 367
#     4  10  18  35  58  86 120 164 204 244 299 362
#     4  11  23  43  66  90 123 165 209 258 309 365
#     4   9  18  33  57  84 118 160 202 246 298 360
#     4  11  22  42  61  92 132 161 201 258 311 362
#     4  11  23  40  65  92 127 165 206 255 309 367
#     4   9  18  29  56  88 113 156 202 239 296 361
#     4  11  21  41  67  89 124 165 203 256 312 366
#
# _framework density 22.481228999999999
#
# number of rings (size 3 to 8) (size 9 to 14) (size 15 to 20)
#    0.000    1.750    3.750    2.625    3.500    1.000 
#    2.250    3.125    0.000    0.000    0.000    0.000 
#    0.000    0.000    0.000    0.000    0.000    0.000 
#
# Total GULP energy -198267.300504 kJ/mol
# GULP energy per Si atom -12391.706282 kJ/mol
# Density = 2.243006 g / cm^3
# Si number density = 22.481229 Si / 1000 Ang^3
#
#
#
# Elastic Constant Matrix: (Units=GPa)
#
#
# Indices 1 2 3 4 5 6 
#
# 1 37.6671 36.1320 28.3715 10.2208 3.5923 20.5204
# 2 36.1320 124.4627 33.5543 6.2978 -2.7921 43.8943
# 3 28.3715 33.5543 109.4517 8.3542 -10.5812 -1.7519
# 4 10.2208 6.2978 8.3542 37.2078 4.1135 5.1147
# 5 3.5923 -2.7921 -10.5812 4.1135 24.5978 7.8337
# 6 20.5204 43.8943 -1.7519 5.1147 7.8337 29.7149
#
#
#
# Elastic Compliance Matrix: (Units=1/GPa)
#
#
# Indices 1 2 3 4 5 6 
#
# 1 0.067999 0.005214 -0.019404 -0.007796 0.001051 -0.054740
# 2 0.005214 0.024264 -0.008397 0.000967 0.011999 -0.043268
# 3 -0.019404 -0.008397 0.017333 -0.000922 0.000980 0.026726
# 4 -0.007796 0.000967 -0.000922 0.029524 -0.004050 -0.000114
# 5 0.001051 0.011999 0.000980 -0.004050 0.053050 -0.031681
# 6 -0.054740 -0.043268 0.026726 -0.000114 -0.031681 0.145316
#
#
# Mechanical properties :
#
#
# Convention : Reuss Voigt Hill
#
# Bulk Modulus (GPa) = 15.52246 51.96635 33.74440
# Shear Modulus (GPa) = 12.37208 29.87236 21.12222
#
# Velocity S-wave (km/s) = 2.34846 3.64918 3.06853
# Velocity P-wave (km/s) = 3.77800 6.39695 5.25330
#
# Compressibility (1/GPa) = 0.06442278
#
# Stress axis : x y z
#
# Youngs Moduli (GPa) = 14.70609 41.21336 57.69214
#
# Poissons Ratio (x) = -0.21489 1.11948
# Poissons Ratio (y) = -0.07668 0.48442
# Poissons Ratio (z) = 0.28536 0.34605
#
# Static dielectric constant tensor:
#      x y z
#    x 3.848270 0.339240 0.346350 
#    y 0.339240 4.415810 -0.116490 
#    z 0.346350 -0.116490 4.340380 
# 
# 
# High freq. dielectric constant tensor:
#      x y z
#    x 1.841060 0.020880 0.008820 
#    y 0.020880 1.901200 -0.000070 
#    z 0.008820 -0.000070 1.889880 
# 
# From -- ./inp_files/505743.got.cif
#   From: 2010.06.25/outbox.cif.g09.slc.cpg/sg2_253_cif.got.tgz:505743.got - 2010.06.27 13:26:56.
