data_PCOD8039207
_publ_section_title
;
Structure prediction by ZEFSAII (Michael W. Deem and Ramdas Pophale) SiO2 
 PCOD8039207
Probable space group: P -1
;
_chemical_formula_sum "Si O2"
_cell_formula_units_Z 16
_cell_length_a 20.138827
_cell_length_b 11.226810
_cell_length_c 25.643260
_cell_angle_alpha 143.534940
_cell_angle_beta 21.108707
_cell_angle_gamma 153.637612
_cell_volume 908.823584
_symmetry_space_group_name_H-M "P -1"
_symmetry_group_IT_number 2
_symmetry_cell_setting 'triclinic'
loop_
_space_group_symop_operation_xyz
x,y,z
-x,-y,-z
loop_
_atom_site_type_symbol
_atom_site_label
_atom_site_fract_x
_atom_site_fract_y
_atom_site_fract_z
Si Si1 0.574359 0.655209 0.412482
Si Si2 0.808474 0.570242 0.568523
Si Si3 0.580262 0.047067 0.609295
Si Si4 0.717535 0.621614 0.123678
Si Si5 0.657291 0.905542 0.607187
Si Si6 0.778311 0.481887 0.139981
Si Si7 0.074219 0.795755 0.837081
Si Si8 0.730237 0.317365 0.430649
O O1 0.674620 0.912314 0.464361
O O2 0.805793 0.714424 0.233526
O O3 0.380095 0.578244 0.483007
O O4 0.416353 0.368350 0.459480
O O5 0.578671 0.555551 0.726725
O O6 0.859219 0.492259 0.449893
O O7 0.050859 0.876046 0.514424
O O8 0.758493 0.364351 0.576155
O O9 0.297271 0.885366 0.742788
O O10 0.594448 0.029676 0.654621
O O11 0.773793 0.515655 0.093266
O O12 0.871728 0.941361 0.130999
O O13 0.816133 0.592328 0.987489
O O14 0.485520 0.815993 0.753004
O O15 0.000000 0.500000 0.000000
O O16 0.057967 0.640650 0.743892
O O17 0.500000 0.000000 0.500000
#
# Coordination Sequence:
#
# PCOD8039207 Si02
#       8
#     2   2   2   2   2   2   2   2
#     4   9  19  32  56  78 101 140 180 227 258 314
#     4  11  20  33  60  78 114 140 179 225 271 318
#     4  10  18  35  56  80 106 140 183 224 263 315
#     4  10  18  33  51  83 107 140 176 222 275 312
#     4  10  22  33  51  85 109 144 176 223 268 325
#     4  10  20  33  54  77 109 142 180 220 268 322
#     4   9  19  30  57  82 105 134 184 230 257 312
#     4  11  16  34  55  83 103 138 184 221 263 315
#
# _framework density 17.605177000000001
#
# number of rings (size 3 to 8) (size 9 to 14) (size 15 to 20)
#    0.750    1.250    5.000    1.500    0.000    2.000 
#    0.000    0.000    2.750    4.500    0.000    0.000 
#    0.000    0.000    0.000    0.000    0.000    0.000 
#
# Total GULP energy -198279.105497 kJ/mol
# GULP energy per Si atom -12392.444094 kJ/mol
# Density = 1.756511 g / cm^3
# Si number density = 17.605177 Si / 1000 Ang^3
#
#
#
# Elastic Constant Matrix: (Units=GPa)
#
#
# Indices 1 2 3 4 5 6 
#
# 1 99.6830 20.2381 41.0338 -4.4105 3.3958 -24.9749
# 2 20.2381 48.4648 36.1724 -4.1863 -5.1178 -7.5077
# 3 41.0338 36.1724 119.0757 3.9559 11.9082 -6.2498
# 4 -4.4105 -4.1863 3.9559 26.9534 0.1100 -1.1557
# 5 3.3958 -5.1178 11.9082 0.1100 25.0183 4.0524
# 6 -24.9749 -7.5077 -6.2498 -1.1557 4.0524 26.7231
#
#
#
# Elastic Compliance Matrix: (Units=1/GPa)
#
#
# Indices 1 2 3 4 5 6 
#
# 1 0.015749 -0.001291 -0.004152 0.003595 -0.002701 0.013950
# 2 -0.001291 0.030879 -0.010003 0.006172 0.010613 0.003787
# 3 -0.004152 -0.010003 0.013631 -0.004312 -0.007539 -0.002546
# 4 0.003595 0.006172 -0.004312 0.039511 0.001758 0.005528
# 5 -0.002701 0.010613 -0.007539 0.001758 0.047454 -0.008426
# 6 0.013950 0.003787 -0.002546 0.005528 -0.008426 0.052443
#
#
# Mechanical properties :
#
#
# Convention : Reuss Voigt Hill
#
# Bulk Modulus (GPa) = 34.05217 51.34578 42.69898
# Shear Modulus (GPa) = 20.80309 27.05759 23.93034
#
# Velocity S-wave (km/s) = 3.44124 3.92460 3.69084
# Velocity P-wave (km/s) = 5.93073 7.05444 6.51685
#
# Compressibility (1/GPa) = 0.02936670
#
# Stress axis : x y z
#
# Youngs Moduli (GPa) = 63.49455 32.38454 73.36168
#
# Poissons Ratio (x) = 0.04182 0.30461
# Poissons Ratio (y) = 0.08199 0.73383
# Poissons Ratio (z) = 0.26364 0.32394
#
# Static dielectric constant tensor:
#      x y z
#    x 3.437760 -0.245140 0.210670 
#    y -0.245140 3.087630 0.166850 
#    z 0.210670 0.166850 3.320310 
# 
# 
# High freq. dielectric constant tensor:
#      x y z
#    x 1.684660 -0.030200 0.008460 
#    y -0.030200 1.651160 0.013120 
#    z 0.008460 0.013120 1.672250 
# 
# From -- ./inp_files/596420.got.cif
#   From: 2010.06.25/outbox.cif.g09.slc.cpg/sg2_299_cif.got.tgz:596420.got - 2010.06.27 13:26:56.
