data_PCOD8039267
_publ_section_title
;
Structure prediction by ZEFSAII (Michael W. Deem and Ramdas Pophale) SiO2 
 PCOD8039267
Probable space group: P -1
;
_chemical_formula_sum "Si O2"
_cell_formula_units_Z 16
_cell_length_a 11.604550
_cell_length_b 11.529716
_cell_length_c 10.988696
_cell_angle_alpha 48.235519
_cell_angle_beta 133.897915
_cell_angle_gamma 129.702244
_cell_volume 746.158768
_symmetry_space_group_name_H-M "P -1"
_symmetry_group_IT_number 2
_symmetry_cell_setting 'triclinic'
loop_
_space_group_symop_operation_xyz
x,y,z
-x,-y,-z
loop_
_atom_site_type_symbol
_atom_site_label
_atom_site_fract_x
_atom_site_fract_y
_atom_site_fract_z
Si Si1 0.836439 0.298092 0.404197
Si Si2 0.933172 0.126012 0.163857
Si Si3 0.192968 0.417020 0.685053
Si Si4 0.284860 0.794584 0.876520
Si Si5 0.350625 0.220640 0.783900
Si Si6 0.354218 0.057694 0.406841
Si Si7 0.272501 0.135911 0.533769
Si Si8 0.893275 0.827935 0.988291
O O1 0.742142 0.390654 0.361230
O O2 0.780372 0.318445 0.210696
O O3 0.794845 0.108143 0.544784
O O4 0.037386 0.384641 0.500218
O O5 0.844444 0.251364 0.070836
O O6 0.081857 0.113801 0.370209
O O7 0.013194 0.207668 0.038197
O O8 0.800439 0.943063 0.170330
O O9 0.340458 0.370412 0.757327
O O10 0.129287 0.317008 0.832552
O O11 0.286323 0.977240 0.723254
O O12 0.468079 0.796468 0.048283
O O13 0.334349 0.269303 0.595360
O O14 0.500000 0.000000 0.500000
O O15 0.398284 0.169606 0.484342
O O16 0.290311 0.157864 0.189240
O O17 0.000000 0.000000 0.000000
#
# Coordination Sequence:
#
# PCOD8039267 Si02
#       8
#     2   2   2   2   2   2   2   2
#     4  10  22  40  56  82 112 154 190 226 280 335
#     4  10  18  33  55  79 112 143 190 231 273 330
#     4  11  22  38  59  82 114 150 193 227 276 340
#     4  10  20  32  52  82 111 145 184 233 283 326
#     4  11  19  31  54  83 112 143 184 237 277 328
#     4  10  21  36  58  86 117 144 180 233 286 333
#     4   9  18  32  53  81 108 146 188 226 276 324
#     4  11  20  34  57  87 110 144 189 233 277 323
#
# _framework density 21.443155999999998
#
# number of rings (size 3 to 8) (size 9 to 14) (size 15 to 20)
#    0.000    1.750    2.500    5.250    3.500    1.500 
#    0.000    0.625    0.000    0.750    0.000    0.000 
#    0.000    0.000    0.000    0.000    0.000    0.000 
#
# Total GULP energy -198284.986955 kJ/mol
# GULP energy per Si atom -12392.811685 kJ/mol
# Density = 2.139435 g / cm^3
# Si number density = 21.443156 Si / 1000 Ang^3
#
#
#
# Elastic Constant Matrix: (Units=GPa)
#
#
# Indices 1 2 3 4 5 6 
#
# 1 128.1321 18.0004 58.3482 18.6726 21.3442 -36.9968
# 2 18.0004 43.7375 28.4217 10.0687 -1.8739 -27.7598
# 3 58.3482 28.4217 117.2648 27.2149 13.0092 -11.5247
# 4 18.6726 10.0687 27.2149 28.5983 -3.4731 -1.8058
# 5 21.3442 -1.8739 13.0092 -3.4731 41.6548 -1.6338
# 6 -36.9968 -27.7598 -11.5247 -1.8058 -1.6338 30.2847
#
#
#
# Elastic Compliance Matrix: (Units=1/GPa)
#
#
# Indices 1 2 3 4 5 6 
#
# 1 0.045448 0.071304 -0.020945 -0.029281 -0.011645 0.110536
# 2 0.071304 0.182150 -0.042191 -0.057063 -0.010744 0.234033
# 3 -0.020945 -0.042191 0.023061 0.003058 -0.000282 -0.055319
# 4 -0.029281 -0.057063 0.003058 0.067770 0.013911 -0.082121
# 5 -0.011645 -0.010744 -0.000282 0.013911 0.029886 -0.021740
# 6 0.110536 0.234033 -0.055319 -0.082121 -0.021740 0.355454
#
#
# Mechanical properties :
#
#
# Convention : Reuss Voigt Hill
#
# Bulk Modulus (GPa) = 3.74542 55.40834 29.57688
# Shear Modulus (GPa) = 6.43972 32.39850 19.41911
#
# Velocity S-wave (km/s) = 1.73484 3.89125 3.01260
# Velocity P-wave (km/s) = 2.40070 6.78858 5.09157
#
# Compressibility (1/GPa) = 0.26699297
#
# Stress axis : x y z
#
# Youngs Moduli (GPa) = 22.00302 5.48999 43.36397
#
# Poissons Ratio (x) = -0.39146 0.90827
# Poissons Ratio (y) = -1.56890 1.82959
# Poissons Ratio (z) = 0.46086 0.23163
#
# Static dielectric constant tensor:
#      x y z
#    x 4.308440 -0.572310 -0.168400 
#    y -0.572310 3.760060 0.279420 
#    z -0.168400 0.279420 3.600830 
# 
# 
# High freq. dielectric constant tensor:
#      x y z
#    x 1.846730 -0.043690 0.006730 
#    y -0.043690 1.808340 0.020880 
#    z 0.006730 0.020880 1.841820 
# 
# From -- ./inp_files/252371.got.cif
#   From: 2010.06.25/outbox.cif.g09.slc.cpg/sg2_127_cif.got.tgz:252371.got - 2010.06.27 13:26:56.
