data_PCOD8039501
_publ_section_title
;
Structure prediction by ZEFSAII (Michael W. Deem and Ramdas Pophale) SiO2 
 PCOD8039501
Probable space group: P -1
;
_chemical_formula_sum "Si O2"
_cell_formula_units_Z 16
_cell_length_a 15.064080
_cell_length_b 9.274589
_cell_length_c 8.374467
_cell_angle_alpha 116.551727
_cell_angle_beta 48.103879
_cell_angle_gamma 113.726821
_cell_volume 769.522057
_symmetry_space_group_name_H-M "P -1"
_symmetry_group_IT_number 2
_symmetry_cell_setting 'triclinic'
loop_
_space_group_symop_operation_xyz
x,y,z
-x,-y,-z
loop_
_atom_site_type_symbol
_atom_site_label
_atom_site_fract_x
_atom_site_fract_y
_atom_site_fract_z
Si Si1 0.572293 0.461639 0.203464
Si Si2 0.698683 0.424222 0.734916
Si Si3 0.265140 0.718200 0.887663
Si Si4 0.090748 0.635597 0.320778
Si Si5 0.252767 0.869456 0.664466
Si Si6 0.997358 0.719871 0.783765
Si Si7 0.293698 0.422473 0.516713
Si Si8 0.751093 0.779865 0.251996
O O1 0.617516 0.308248 0.163514
O O2 0.435259 0.469072 0.418885
O O3 0.656555 0.631764 0.224770
O O4 0.580260 0.433688 0.988722
O O5 0.811202 0.438960 0.726046
O O6 0.677090 0.253489 0.579908
O O7 0.721902 0.575179 0.654606
O O8 0.288802 0.868822 0.809508
O O9 0.223960 0.558014 0.748186
O O10 0.155647 0.743038 0.151259
O O11 0.007585 0.474165 0.270559
O O12 0.019141 0.744250 0.576518
O O13 0.108731 0.818570 0.795013
O O14 0.296515 0.050197 0.634613
O O15 0.878693 0.788724 0.014444
O O16 0.238899 0.250325 0.581939
#
# Coordination Sequence:
#
# PCOD8039501 Si02
#       8
#     2   2   2   2   2   2   2   2
#     4  10  19  37  59  76 104 138 181 220 257 307
#     4   9  18  37  55  79 106 135 178 217 261 313
#     4   9  17  35  51  79 105 137 176 211 257 311
#     4   9  17  33  57  78 103 141 176 219 248 310
#     4  10  22  33  54  79 113 139 168 217 266 314
#     4  10  18  34  54  76 109 141 173 210 268 303
#     4  10  19  34  59  80  99 139 183 220 254 311
#     4  11  20  37  52  81 109 138 173 222 262 303
#
# _framework density 20.792126
#
# number of rings (size 3 to 8) (size 9 to 14) (size 15 to 20)
#    0.000    2.250    3.750    2.250    0.000    0.500 
#    4.500   10.625    0.000    0.000    0.000    0.000 
#    0.000    0.000    0.000    0.000    0.000    0.000 
#
# Total GULP energy -198259.514650 kJ/mol
# GULP energy per Si atom -12391.219666 kJ/mol
# Density = 2.074480 g / cm^3
# Si number density = 20.792126 Si / 1000 Ang^3
#
#
#
# Elastic Constant Matrix: (Units=GPa)
#
#
# Indices 1 2 3 4 5 6 
#
# 1 57.2530 30.1972 17.8012 -8.4585 14.3368 -8.9092
# 2 30.1972 95.2019 36.2709 -8.0662 10.7656 -31.8681
# 3 17.8012 36.2709 125.1752 -16.5244 13.7880 -12.7079
# 4 -8.4585 -8.0662 -16.5244 18.3495 -5.7539 7.0602
# 5 14.3368 10.7656 13.7880 -5.7539 29.6987 -16.7643
# 6 -8.9092 -31.8681 -12.7079 7.0602 -16.7643 30.1303
#
#
#
# Elastic Compliance Matrix: (Units=1/GPa)
#
#
# Indices 1 2 3 4 5 6 
#
# 1 0.025680 -0.010582 0.000798 0.008433 -0.014950 -0.013557
# 2 -0.010582 0.023022 -0.004526 -0.005381 0.013755 0.028226
# 3 0.000798 -0.004526 0.010274 0.007977 -0.004588 -0.004640
# 4 0.008433 -0.005381 0.007977 0.069160 -0.002155 -0.017238
# 5 -0.014950 0.013755 -0.004588 -0.002155 0.061995 0.043191
# 6 -0.013557 0.028226 -0.004640 -0.017238 0.043191 0.085148
#
#
# Mechanical properties :
#
#
# Convention : Reuss Voigt Hill
#
# Bulk Modulus (GPa) = 32.94325 49.57431 41.25878
# Shear Modulus (GPa) = 15.92267 28.52642 22.22454
#
# Velocity S-wave (km/s) = 2.77032 3.70805 3.27294
# Velocity P-wave (km/s) = 5.10993 6.49826 5.84546
#
# Compressibility (1/GPa) = 0.03035523
#
# Stress axis : x y z
#
# Youngs Moduli (GPa) = 38.94142 43.43664 97.33186
#
# Poissons Ratio (x) = 0.45967 -0.07768
# Poissons Ratio (y) = 0.41210 0.44051
# Poissons Ratio (z) = -0.03108 0.19659
#
# Static dielectric constant tensor:
#      x y z
#    x 3.650470 -0.287740 0.227370 
#    y -0.287740 3.423490 -0.250950 
#    z 0.227370 -0.250950 4.294320 
# 
# 
# High freq. dielectric constant tensor:
#      x y z
#    x 1.793980 -0.016370 0.009760 
#    y -0.016370 1.764180 -0.020650 
#    z 0.009760 -0.020650 1.834840 
# 
# From -- ./inp_files/282893.got.cif
#   From: 2010.06.25/outbox.cif.g09.slc.cpg/sg2_142_cif.got.tgz:282893.got - 2010.06.27 13:26:56.
