data_PCOD8039797
_publ_section_title
;
Structure prediction by ZEFSAII (Michael W. Deem and Ramdas Pophale) SiO2 
 PCOD8039797
Probable space group: P -1
;
_chemical_formula_sum "Si O2"
_cell_formula_units_Z 16
_cell_length_a 17.992210
_cell_length_b 23.078777
_cell_length_c 7.126501
_cell_angle_alpha 139.104479
_cell_angle_beta 124.113506
_cell_angle_gamma 29.158950
_cell_volume 897.054419
_symmetry_space_group_name_H-M "P -1"
_symmetry_group_IT_number 2
_symmetry_cell_setting 'triclinic'
loop_
_space_group_symop_operation_xyz
x,y,z
-x,-y,-z
loop_
_atom_site_type_symbol
_atom_site_label
_atom_site_fract_x
_atom_site_fract_y
_atom_site_fract_z
Si Si1 0.765148 0.875283 0.198003
Si Si2 0.822855 0.048253 0.363199
Si Si3 0.041782 0.939787 0.703007
Si Si4 0.666746 0.907540 0.548062
Si Si5 0.046630 0.749551 0.145457
Si Si6 0.438310 0.868464 0.753175
Si Si7 0.194907 0.446644 0.565524
Si Si8 0.867415 0.648561 0.491192
O O1 0.915578 0.818033 0.270759
O O2 0.742557 0.872189 0.373575
O O3 0.607639 0.050764 0.314984
O O4 0.800801 0.758517 0.843102
O O5 0.837482 0.086256 0.277848
O O6 0.639157 0.166639 0.425306
O O7 0.877908 0.069813 0.663141
O O8 0.944997 0.862983 0.092485
O O9 0.125366 0.773383 0.408891
O O10 0.000000 0.000000 0.000000
O O11 0.500000 0.000000 0.500000
O O12 0.781448 0.742191 0.405338
O O13 0.643210 0.011595 0.899648
O O14 0.177531 0.567544 0.842285
O O15 0.629846 0.712898 0.663206
O O16 0.170107 0.422965 0.680081
O O17 0.057373 0.514537 0.405806
#
# Coordination Sequence:
#
# PCOD8039797 Si02
#       8
#     2   2   2   2   2   2   2   2
#     4   9  18  35  54  74 102 136 193 219 250 298
#     4   8  18  34  54  82  97 129 181 212 263 312
#     4   9  17  33  61  78  99 128 174 223 261 311
#     4  11  21  33  54  78 104 141 193 222 254 299
#     4   8  17  33  52  78  99 135 168 214 258 314
#     4  10  20  33  55  79 108 143 172 225 264 308
#     4  10  18  35  53  73 114 144 175 210 273 317
#     4   9  20  36  53  71 105 154 180 220 256 305
#
# _framework density 17.836152999999999
#
# number of rings (size 3 to 8) (size 9 to 14) (size 15 to 20)
#    0.750    2.000    0.000    2.250    1.750    2.000 
#    0.000   13.125    0.000    0.750    0.000    0.000 
#    0.000    0.000    0.000    0.000    0.000    0.000 
#
# Total GULP energy -198223.127749 kJ/mol
# GULP energy per Si atom -12388.945484 kJ/mol
# Density = 1.779556 g / cm^3
# Si number density = 17.836153 Si / 1000 Ang^3
#
#
#
# Elastic Constant Matrix: (Units=GPa)
#
#
# Indices 1 2 3 4 5 6 
#
# 1 109.2881 46.4453 23.4452 -4.3013 1.4329 14.0975
# 2 46.4453 98.7315 21.6226 -0.7629 -10.1080 1.0764
# 3 23.4452 21.6226 42.8413 -5.3443 -2.9398 15.4807
# 4 -4.3013 -0.7629 -5.3443 26.6357 7.4621 -2.5110
# 5 1.4329 -10.1080 -2.9398 7.4621 27.1944 -2.3655
# 6 14.0975 1.0764 15.4807 -2.5110 -2.3655 34.3132
#
#
#
# Elastic Compliance Matrix: (Units=1/GPa)
#
#
# Indices 1 2 3 4 5 6 
#
# 1 0.012848 -0.005819 -0.002653 0.002135 -0.004062 -0.004023
# 2 -0.005819 0.014747 -0.005944 -0.003048 0.006402 0.004828
# 3 -0.002653 -0.005944 0.033200 0.005092 -0.001043 -0.013401
# 4 0.002135 -0.003048 0.005092 0.042203 -0.012349 -0.000841
# 5 -0.004062 0.006402 -0.001043 -0.012349 0.042989 0.003999
# 6 -0.004023 0.004828 -0.013401 -0.000841 0.003999 0.036905
#
#
# Mechanical properties :
#
#
# Convention : Reuss Voigt Hill
#
# Bulk Modulus (GPa) = 31.28617 48.20969 39.74793
# Shear Modulus (GPa) = 22.48418 28.25185 25.36801
#
# Velocity S-wave (km/s) = 3.55434 3.98422 3.77540
# Velocity P-wave (km/s) = 5.86714 6.94646 6.42949
#
# Compressibility (1/GPa) = 0.03196300
#
# Stress axis : x y z
#
# Youngs Moduli (GPa) = 77.83113 67.81207 30.12022
#
# Poissons Ratio (x) = 0.39457 0.07992
# Poissons Ratio (y) = 0.45286 0.17904
# Poissons Ratio (z) = 0.20652 0.40308
#
# Static dielectric constant tensor:
#      x y z
#    x 3.381720 0.103270 0.299000 
#    y 0.103270 3.291760 0.015560 
#    z 0.299000 0.015560 3.008700 
# 
# 
# High freq. dielectric constant tensor:
#      x y z
#    x 1.701260 0.007730 0.010740 
#    y 0.007730 1.674650 -0.001920 
#    z 0.010740 -0.001920 1.656640 
# 
# From -- ./inp_files/112508.got.cif
#   From: 2010.06.25/outbox.cif.g09.slc.cpg/sg2_57_cif.got.tgz:112508.got - 2010.06.27 13:26:56.
