data_PCOD8039254
_publ_section_title
;
Structure prediction by ZEFSAII (Michael W. Deem and Ramdas Pophale) SiO2 
 PCOD8039254
Probable space group: P -1
;
_chemical_formula_sum "Si O2"
_cell_formula_units_Z 16
_cell_length_a 11.565688
_cell_length_b 14.932329
_cell_length_c 11.821257
_cell_angle_alpha 120.598277
_cell_angle_beta 36.522526
_cell_angle_gamma 138.779232
_cell_volume 776.571311
_symmetry_space_group_name_H-M "P -1"
_symmetry_group_IT_number 2
_symmetry_cell_setting 'triclinic'
loop_
_space_group_symop_operation_xyz
x,y,z
-x,-y,-z
loop_
_atom_site_type_symbol
_atom_site_label
_atom_site_fract_x
_atom_site_fract_y
_atom_site_fract_z
Si Si1 0.579465 0.368556 0.393849
Si Si2 0.037252 0.215085 0.365415
Si Si3 0.071224 0.128096 0.960560
Si Si4 0.534097 0.637490 0.054702
Si Si5 0.082267 0.469704 0.161109
Si Si6 0.755750 0.188808 0.364715
Si Si7 0.502364 0.460626 0.293698
Si Si8 0.741524 0.913760 0.415767
O O1 0.539768 0.380516 0.301751
O O2 0.459574 0.415119 0.597084
O O3 0.426218 0.205280 0.432498
O O4 0.892917 0.473539 0.236924
O O5 0.206585 0.346490 0.402822
O O6 0.814287 0.197309 0.458680
O O7 0.228615 0.243074 0.135494
O O8 0.917113 0.070384 0.431162
O O9 0.369344 0.279036 0.849196
O O10 0.078303 0.104274 0.805558
O O11 0.849562 0.131741 0.168834
O O12 0.000000 0.000000 0.000000
O O13 0.275096 0.599289 0.180825
O O14 0.500000 0.500000 0.000000
O O15 0.900546 0.342210 0.306324
O O16 0.273288 0.467954 0.931605
O O17 0.445911 0.095039 0.534308
#
# Coordination Sequence:
#
# PCOD8039254 Si02
#       8
#     2   2   2   2   2   2   2   2
#     4  10  23  38  58  83 101 148 194 224 273 322
#     4  10  20  34  55  80 113 147 171 226 277 315
#     4  11  20  33  53  79 115 151 173 208 273 328
#     4  10  18  33  54  83 115 143 177 215 271 331
#     4  10  19  36  61  80 111 143 180 226 276 326
#     4  10  20  35  54  84 116 141 177 220 272 333
#     4  10  22  40  58  78 111 140 189 240 267 310
#     4  11  22  36  55  82 113 146 184 217 270 336
#
# _framework density 20.603389
#
# number of rings (size 3 to 8) (size 9 to 14) (size 15 to 20)
#    0.000    1.750    5.000    1.500    1.750    1.500 
#    0.000    2.500    0.000    0.000    0.000   11.375 
#    0.000    0.000    0.000    0.000    0.000    0.000 
#
# Total GULP energy -198229.159510 kJ/mol
# GULP energy per Si atom -12389.322469 kJ/mol
# Density = 2.055649 g / cm^3
# Si number density = 20.603389 Si / 1000 Ang^3
#
#
#
# Elastic Constant Matrix: (Units=GPa)
#
#
# Indices 1 2 3 4 5 6 
#
# 1 77.8112 14.2874 3.1813 -6.0647 -2.9265 -6.3405
# 2 14.2874 80.4744 4.2113 -17.5889 1.4691 2.6295
# 3 3.1813 4.2113 40.8235 -5.2835 -4.8831 1.8438
# 4 -6.0647 -17.5889 -5.2835 27.3144 -0.0833 2.1658
# 5 -2.9265 1.4691 -4.8831 -0.0833 25.0803 2.7282
# 6 -6.3405 2.6295 1.8438 2.1658 2.7282 16.9706
#
#
#
# Elastic Compliance Matrix: (Units=1/GPa)
#
#
# Indices 1 2 3 4 5 6 
#
# 1 0.013877 -0.002407 -0.000831 0.000948 0.001018 0.005363
# 2 -0.002407 0.015090 -0.000020 0.009521 -0.000665 -0.004343
# 3 -0.000831 -0.000020 0.026113 0.005243 0.005517 -0.004701
# 4 0.000948 0.009521 0.005243 0.044576 0.001552 -0.007629
# 5 0.001018 -0.000665 0.005517 0.001552 0.041876 -0.007046
# 6 0.005363 -0.004343 -0.004701 -0.007629 -0.007046 0.064219
#
#
# Mechanical properties :
#
#
# Convention : Reuss Voigt Hill
#
# Bulk Modulus (GPa) = 20.59124 26.94101 23.76613
# Shear Modulus (GPa) = 21.88622 25.70165 23.79393
#
# Velocity S-wave (km/s) = 3.26277 3.53575 3.40200
# Velocity P-wave (km/s) = 4.92037 5.45648 5.19534
#
# Compressibility (1/GPa) = 0.04856434
#
# Stress axis : x y z
#
# Youngs Moduli (GPa) = 72.06308 66.27061 38.29461
#
# Poissons Ratio (x) = 0.15949 0.03182
# Poissons Ratio (y) = 0.17343 0.00077
# Poissons Ratio (z) = 0.05987 0.00134
#
# Static dielectric constant tensor:
#      x y z
#    x 3.993140 0.145670 -0.255520 
#    y 0.145670 3.862060 -0.120380 
#    z -0.255520 -0.120380 3.797070 
# 
# 
# High freq. dielectric constant tensor:
#      x y z
#    x 1.788600 -0.001330 -0.006220 
#    y -0.001330 1.809120 -0.019570 
#    z -0.006220 -0.019570 1.787260 
# 
# From -- ./inp_files/171583.got.cif
#   From: 2010.06.25/outbox.cif.g09.slc.cpg/sg2_86_cif.got.tgz:171583.got - 2010.06.27 13:26:56.
