data_PCOD8039736
_publ_section_title
;
Structure prediction by ZEFSAII (Michael W. Deem and Ramdas Pophale) SiO2 
 PCOD8039736
Probable space group: P -1
;
_chemical_formula_sum "Si O2"
_cell_formula_units_Z 16
_cell_length_a 17.313281
_cell_length_b 9.203680
_cell_length_c 11.754585
_cell_angle_alpha 62.061213
_cell_angle_beta 28.087412
_cell_angle_gamma 55.725645
_cell_volume 726.797025
_symmetry_space_group_name_H-M "P -1"
_symmetry_group_IT_number 2
_symmetry_cell_setting 'triclinic'
loop_
_space_group_symop_operation_xyz
x,y,z
-x,-y,-z
loop_
_atom_site_type_symbol
_atom_site_label
_atom_site_fract_x
_atom_site_fract_y
_atom_site_fract_z
Si Si1 0.812497 0.436292 0.892872
Si Si2 0.385851 0.215464 0.839472
Si Si3 0.733508 0.136592 0.539158
Si Si4 0.837104 0.436575 0.363164
Si Si5 0.110655 0.563184 0.449545
Si Si6 0.148915 0.067426 0.327522
Si Si7 0.914524 0.048916 0.969940
Si Si8 0.789567 0.756083 0.160879
O O1 0.754520 0.473416 0.819977
O O2 0.801073 0.256124 0.024845
O O3 0.016970 0.419786 0.639083
O O4 0.687552 0.594244 0.074338
O O5 0.587814 0.120530 0.648492
O O6 0.377641 0.225408 0.709131
O O7 0.274466 0.091535 0.056915
O O8 0.724669 0.338606 0.479393
O O9 0.713728 0.069294 0.715489
O O10 0.926200 0.005434 0.304514
O O11 0.799597 0.426301 0.550459
O O12 0.777871 0.637579 0.326393
O O13 0.042483 0.339164 0.103561
O O14 0.953213 0.743646 0.553144
O O15 0.000000 0.000000 0.500000
O O16 0.787933 0.940153 0.146333
O O17 0.000000 0.000000 0.000000
#
# Coordination Sequence:
#
# PCOD8039736 Si02
#       8
#     2   2   2   2   2   2   2   2
#     4  10  21  36  61  91 123 160 202 260 305 368
#     4  11  24  40  61  95 132 160 202 256 324 370
#     4  11  23  38  63  94 125 164 205 262 314 367
#     4  10  19  36  62  89 115 166 217 248 296 374
#     4  10  18  34  61  88 120 153 212 253 301 355
#     4  11  18  37  65  91 118 164 215 250 294 377
#     4  11  23  40  66  93 120 163 223 254 300 369
#     4  10  21  38  63  87 121 166 211 253 301 379
#
# _framework density 22.014400999999999
#
# number of rings (size 3 to 8) (size 9 to 14) (size 15 to 20)
#    0.000    1.500    5.000    1.875    3.500    0.500 
#    0.000    1.250    2.750    0.000    0.000    0.000 
#    0.000    0.000    0.000    0.000    0.000    0.000 
#
# Total GULP energy -198326.463616 kJ/mol
# GULP energy per Si atom -12395.403976 kJ/mol
# Density = 2.196430 g / cm^3
# Si number density = 22.014401 Si / 1000 Ang^3
#
#
#
# Elastic Constant Matrix: (Units=GPa)
#
#
# Indices 1 2 3 4 5 6 
#
# 1 149.9626 35.1573 18.6323 -9.5005 -4.5152 -8.4578
# 2 35.1573 119.8607 18.7336 -25.3133 -4.5772 -2.0868
# 3 18.6323 18.7336 21.7383 -10.2169 -4.2984 -1.4389
# 4 -9.5005 -25.3133 -10.2169 21.1797 2.2001 3.7848
# 5 -4.5152 -4.5772 -4.2984 2.2001 37.6238 -3.4268
# 6 -8.4578 -2.0868 -1.4389 3.7848 -3.4268 33.1359
#
#
#
# Elastic Compliance Matrix: (Units=1/GPa)
#
#
# Indices 1 2 3 4 5 6 
#
# 1 0.007797 -0.001689 -0.005840 -0.001705 0.000332 0.001859
# 2 -0.001689 0.011872 -0.003155 0.012117 0.000063 -0.001198
# 3 -0.005840 -0.003155 0.066570 0.025424 0.004925 -0.001193
# 4 -0.001705 0.012117 0.025424 0.074565 -0.000839 -0.007172
# 5 0.000332 0.000063 0.004925 -0.000839 0.027534 0.003246
# 6 0.001859 -0.001198 -0.001193 -0.007172 0.003246 0.031681
#
#
# Mechanical properties :
#
#
# Convention : Reuss Voigt Hill
#
# Bulk Modulus (GPa) = 15.41521 48.51199 31.96360
# Shear Modulus (GPa) = 19.01061 32.99044 26.00053
#
# Velocity S-wave (km/s) = 2.94182 3.87536 3.44040
# Velocity P-wave (km/s) = 4.30773 6.48913 5.50751
#
# Compressibility (1/GPa) = 0.06487099
#
# Stress axis : x y z
#
# Youngs Moduli (GPa) = 128.25845 84.23044 15.02172
#
# Poissons Ratio (x) = 0.14229 0.08772
# Poissons Ratio (y) = 0.21667 0.04739
# Poissons Ratio (z) = 0.74899 0.26575
#
# Static dielectric constant tensor:
#      x y z
#    x 3.968340 0.096030 0.186930 
#    y 0.096030 4.156920 -0.311180 
#    z 0.186930 -0.311180 3.609040 
# 
# 
# High freq. dielectric constant tensor:
#      x y z
#    x 1.873210 0.005520 0.016700 
#    y 0.005520 1.869130 -0.026610 
#    z 0.016700 -0.026610 1.821430 
# 
# From -- ./inp_files/226540.got.cif
#   From: 2010.06.25/outbox.cif.g09.slc.cpg/sg2_114_cif.got.tgz:226540.got - 2010.06.27 13:26:56.
