data_PCOD8039907
_publ_section_title
;
Structure prediction by ZEFSAII (Michael W. Deem and Ramdas Pophale) SiO2 
 PCOD8039907
Probable space group: P -1
;
_chemical_formula_sum "Si O2"
_cell_formula_units_Z 16
_cell_length_a 15.604336
_cell_length_b 9.556268
_cell_length_c 18.983287
_cell_angle_alpha 29.485823
_cell_angle_beta 144.092266
_cell_angle_gamma 140.906335
_cell_volume 792.015605
_symmetry_space_group_name_H-M "P -1"
_symmetry_group_IT_number 2
_symmetry_cell_setting 'triclinic'
loop_
_space_group_symop_operation_xyz
x,y,z
-x,-y,-z
loop_
_atom_site_type_symbol
_atom_site_label
_atom_site_fract_x
_atom_site_fract_y
_atom_site_fract_z
Si Si1 0.263464 0.077112 0.519121
Si Si2 0.850705 0.251110 0.019957
Si Si3 0.069751 0.995401 0.677108
Si Si4 0.514351 0.826562 0.837833
Si Si5 0.267537 0.387997 0.529114
Si Si6 0.841264 0.945738 0.003422
Si Si7 0.412527 0.585812 0.288919
Si Si8 0.980571 0.418592 0.785387
O O1 0.250043 0.145281 0.562490
O O2 0.336626 0.380005 0.393694
O O3 0.092122 0.938144 0.438643
O O4 0.372611 0.849888 0.682897
O O5 0.848784 0.090162 0.162938
O O6 0.831900 0.007159 0.053052
O O7 0.713125 0.412601 0.854808
O O8 0.000000 0.500000 0.000000
O O9 0.042801 0.747849 0.707886
O O10 0.188039 0.268122 0.602196
O O11 0.522057 0.076543 0.792400
O O12 0.500000 0.500000 0.000000
O O13 0.678281 0.908600 0.873531
O O14 0.446884 0.526807 0.600180
O O15 0.181118 0.629687 0.339801
O O16 0.898472 0.651898 0.158125
O O17 0.962871 0.213415 0.932061
#
# Coordination Sequence:
#
# PCOD8039907 Si02
#       8
#     2   2   2   2   2   2   2   2
#     4  10  18  35  58  84 109 148 199 231 272 335
#     4  11  19  39  58  81 109 152 202 221 269 346
#     4  11  21  33  61  83 111 149 189 232 277 333
#     4  10  20  30  53  84 118 140 178 234 288 326
#     4  10  20  32  55  84 113 139 188 239 280 329
#     4  10  21  34  57  84 111 148 182 235 280 336
#     4  10  20  36  60  81 110 153 196 231 271 341
#     4  10  19  35  57  83 112 140 185 238 288 319
#
# _framework density 20.201623000000001
#
# number of rings (size 3 to 8) (size 9 to 14) (size 15 to 20)
#    0.000    1.750    2.500    6.000    5.250    0.500 
#    0.000    0.625    0.000    0.750    0.000    0.000 
#    0.000    0.000    0.000    0.000    0.000    0.000 
#
# Total GULP energy -198223.425294 kJ/mol
# GULP energy per Si atom -12388.964081 kJ/mol
# Density = 2.015564 g / cm^3
# Si number density = 20.201623 Si / 1000 Ang^3
#
#
#
# Elastic Constant Matrix: (Units=GPa)
#
#
# Indices 1 2 3 4 5 6 
#
# 1 100.0222 36.6340 55.5545 20.2015 10.5491 21.6820
# 2 36.6340 42.1309 34.4282 16.3549 3.3999 14.8484
# 3 55.5545 34.4282 138.7173 30.0326 12.5803 5.0930
# 4 20.2015 16.3549 30.0326 41.2943 12.4539 6.5346
# 5 10.5491 3.3999 12.5803 12.4539 51.2590 2.4680
# 6 21.6820 14.8484 5.0930 6.5346 2.4680 23.7863
#
#
#
# Elastic Compliance Matrix: (Units=1/GPa)
#
#
# Indices 1 2 3 4 5 6 
#
# 1 0.017891 -0.008028 -0.004633 -0.000155 -0.001488 -0.010107
# 2 -0.008028 0.044181 -0.005745 -0.007501 0.002785 -0.017260
# 3 -0.004633 -0.005745 0.011284 -0.004527 -0.000658 0.006705
# 4 -0.000155 -0.007501 -0.004527 0.032839 -0.006213 -0.002584
# 5 -0.001488 0.002785 -0.000658 -0.006213 0.021337 -0.000748
# 6 -0.010107 -0.017260 0.006705 -0.002584 -0.000748 0.061380
#
#
# Mechanical properties :
#
#
# Convention : Reuss Voigt Hill
#
# Bulk Modulus (GPa) = 27.36452 59.34487 43.35469
# Shear Modulus (GPa) = 21.01679 33.55150 27.28415
#
# Velocity S-wave (km/s) = 3.22895 4.07975 3.67903
# Velocity P-wave (km/s) = 5.24181 7.18558 6.28924
#
# Compressibility (1/GPa) = 0.03654367
#
# Stress axis : x y z
#
# Youngs Moduli (GPa) = 55.89541 22.63411 88.62240
#
# Poissons Ratio (x) = 0.18171 0.41057
# Poissons Ratio (y) = 0.44873 0.50914
# Poissons Ratio (z) = 0.25896 0.13003
#
# Static dielectric constant tensor:
#      x y z
#    x 3.742810 0.466100 0.408050 
#    y 0.466100 3.553100 0.404020 
#    z 0.408050 0.404020 4.126380 
# 
# 
# High freq. dielectric constant tensor:
#      x y z
#    x 1.774130 0.041200 0.013440 
#    y 0.041200 1.749020 0.015450 
#    z 0.013440 0.015450 1.805010 
# 
# From -- ./inp_files/256832.got.cif
#   From: 2010.06.25/outbox.cif.g09.slc.cpg/sg2_129_cif.got.tgz:256832.got - 2010.06.27 13:26:56.
