data_PCOD8039861
_publ_section_title
;
Structure prediction by ZEFSAII (Michael W. Deem and Ramdas Pophale) SiO2 
 PCOD8039861
Probable space group: P -1
;
_chemical_formula_sum "Si O2"
_cell_formula_units_Z 16
_cell_length_a 21.098684
_cell_length_b 12.558789
_cell_length_c 14.277827
_cell_angle_alpha 137.783481
_cell_angle_beta 146.289408
_cell_angle_gamma 25.163312
_cell_volume 891.578158
_symmetry_space_group_name_H-M "P -1"
_symmetry_group_IT_number 2
_symmetry_cell_setting 'triclinic'
loop_
_space_group_symop_operation_xyz
x,y,z
-x,-y,-z
loop_
_atom_site_type_symbol
_atom_site_label
_atom_site_fract_x
_atom_site_fract_y
_atom_site_fract_z
Si Si1 0.578875 0.283728 0.240979
Si Si2 0.711962 0.521678 0.851130
Si Si3 0.089286 0.225231 0.124047
Si Si4 0.107839 0.120277 0.869355
Si Si5 0.202935 0.227748 0.890141
Si Si6 0.700771 0.470918 0.595477
Si Si7 0.598463 0.421107 0.167151
Si Si8 0.519622 0.158501 0.594068
O O1 0.397044 0.446734 0.180817
O O2 0.695084 0.300646 0.437507
O O3 0.516217 0.395869 0.131464
O O4 0.713405 0.988866 0.219870
O O5 0.655046 0.507353 0.672756
O O6 0.666847 0.757955 0.940985
O O7 0.928589 0.269300 0.975876
O O8 0.001108 0.495595 0.207405
O O9 0.269258 0.017206 0.271785
O O10 0.156266 0.124268 0.035154
O O11 0.195574 0.162964 0.942193
O O12 0.895810 0.337412 0.732867
O O13 0.194567 0.856068 0.777058
O O14 0.561041 0.732852 0.538060
O O15 0.585154 0.617034 0.313268
O O16 0.500000 0.500000 0.000000
O O17 0.500000 0.000000 0.500000
#
# Coordination Sequence:
#
# PCOD8039861 Si02
#       8
#     2   2   2   2   2   2   2   2
#     4  10  20  36  55  84 108 139 187 221 265 317
#     4   9  20  36  57  78 106 148 186 214 260 324
#     4   9  19  32  55  79 109 140 181 214 270 314
#     4  10  18  35  57  81 107 138 188 216 269 322
#     4   9  19  30  60  80 104 140 184 224 259 310
#     4  10  22  34  57  81 110 144 175 230 270 311
#     4  10  21  36  57  79 110 142 174 226 271 319
#     4  11  22  33  53  84 114 137 176 225 279 314
#
# _framework density 17.945706999999999
#
# number of rings (size 3 to 8) (size 9 to 14) (size 15 to 20)
#    0.750    1.500    1.250    1.875    1.750    5.500 
#    0.000    2.500    2.750    0.750    0.000    0.000 
#    0.000    0.000    0.000    0.000    0.000    0.000 
#
# Total GULP energy -198238.182151 kJ/mol
# GULP energy per Si atom -12389.886384 kJ/mol
# Density = 1.790486 g / cm^3
# Si number density = 17.945707 Si / 1000 Ang^3
#
#
#
# Elastic Constant Matrix: (Units=GPa)
#
#
# Indices 1 2 3 4 5 6 
#
# 1 98.2353 27.8355 35.0042 -12.3345 -7.6389 -4.3114
# 2 27.8355 100.9584 30.7527 -4.7122 -13.2064 -2.8583
# 3 35.0042 30.7527 71.5745 -8.3886 -8.9446 6.8344
# 4 -12.3345 -4.7122 -8.3886 33.5142 1.5401 1.4841
# 5 -7.6389 -13.2064 -8.9446 1.5401 20.3252 1.5491
# 6 -4.3114 -2.8583 6.8344 1.4841 1.5491 15.8722
#
#
#
# Elastic Compliance Matrix: (Units=1/GPa)
#
#
# Indices 1 2 3 4 5 6 
#
# 1 0.013420 -0.001464 -0.006028 0.002939 0.000788 0.005626
# 2 -0.001464 0.012393 -0.004265 -0.000253 0.005403 0.003167
# 3 -0.006028 -0.004265 0.020831 0.002709 0.004847 -0.012102
# 4 0.002939 -0.000253 0.002709 0.031712 -0.000013 -0.003377
# 5 0.000788 0.005403 0.004847 -0.000013 0.055623 -0.006328
# 6 0.005626 0.003167 -0.012102 -0.003377 -0.006328 0.071246
#
#
# Mechanical properties :
#
#
# Convention : Reuss Voigt Hill
#
# Bulk Modulus (GPa) = 43.23802 50.88368 47.06085
# Shear Modulus (GPa) = 21.14620 25.75405 23.45012
#
# Velocity S-wave (km/s) = 3.43642 3.79239 3.61879
# Velocity P-wave (km/s) = 6.31597 6.89870 6.61376
#
# Compressibility (1/GPa) = 0.02312779
#
# Stress axis : x y z
#
# Youngs Moduli (GPa) = 74.51700 80.69319 48.00531
#
# Poissons Ratio (x) = 0.11815 0.28938
# Poissons Ratio (y) = 0.10911 0.20476
# Poissons Ratio (z) = 0.44920 0.34419
#
# Static dielectric constant tensor:
#      x y z
#    x 3.210750 -0.124990 -0.118170 
#    y -0.124990 3.524800 0.151930 
#    z -0.118170 0.151930 3.244970 
# 
# 
# High freq. dielectric constant tensor:
#      x y z
#    x 1.680310 -0.007710 -0.003380 
#    y -0.007710 1.698990 0.009750 
#    z -0.003380 0.009750 1.683440 
# 
# From -- ./inp_files/540863.got.cif
#   From: 2010.06.25/outbox.cif.g09.slc.cpg/sg2_271_cif.got.tgz:540863.got - 2010.06.27 13:26:56.
