data_PCOD8039373
_publ_section_title
;
Structure prediction by ZEFSAII (Michael W. Deem and Ramdas Pophale) SiO2 
 PCOD8039373
Probable space group: P -1
;
_chemical_formula_sum "Si O2"
_cell_formula_units_Z 16
_cell_length_a 9.362089
_cell_length_b 12.065090
_cell_length_c 13.147836
_cell_angle_alpha 137.664796
_cell_angle_beta 55.112728
_cell_angle_gamma 122.625022
_cell_volume 802.021125
_symmetry_space_group_name_H-M "P -1"
_symmetry_group_IT_number 2
_symmetry_cell_setting 'triclinic'
loop_
_space_group_symop_operation_xyz
x,y,z
-x,-y,-z
loop_
_atom_site_type_symbol
_atom_site_label
_atom_site_fract_x
_atom_site_fract_y
_atom_site_fract_z
Si Si1 0.473885 0.377090 0.022132
Si Si2 0.133120 0.890710 0.416202
Si Si3 0.862856 0.445656 0.929603
Si Si4 0.646616 0.055271 0.061465
Si Si5 0.877451 0.107293 0.344628
Si Si6 0.537304 0.998341 0.284144
Si Si7 0.847240 0.767487 0.837214
Si Si8 0.989808 0.785318 0.006511
O O1 0.659960 0.405197 0.027118
O O2 0.423795 0.188394 0.869461
O O3 0.500000 0.500000 0.000000
O O4 0.310486 0.395584 0.177751
O O5 0.097740 0.718881 0.251046
O O6 0.099771 0.836695 0.510091
O O7 0.335837 0.995826 0.397960
O O8 0.000000 0.000000 0.500000
O O9 0.879524 0.599123 0.947990
O O10 0.000000 0.500000 0.000000
O O11 0.798174 0.211395 0.064254
O O12 0.563701 0.094366 0.229600
O O13 0.500000 0.000000 0.000000
O O14 0.748554 0.905804 0.929836
O O15 0.013208 0.251991 0.322335
O O16 0.676002 0.096292 0.377627
O O17 0.925929 0.923361 0.196092
O O18 0.963610 0.832815 0.932770
#
# Coordination Sequence:
#
# PCOD8039373 Si02
#       8
#     2   2   2   2   2   2   2   2
#     4  10  18  33  58  90 118 147 193 248 292 348
#     4  11  26  40  58  85 122 161 200 243 301 357
#     4  11  24  39  59  87 121 157 199 245 301 351
#     4  10  20  31  59  95 121 149 200 246 291 349
#     4  11  19  39  62  88 119 153 196 247 298 358
#     4  10  20  36  58  87 116 154 202 236 293 359
#     4  10  19  34  59  92 118 149 198 243 298 349
#     4  11  19  37  65  89 118 153 198 253 293 348
#
# _framework density 19.949598000000002
#
# number of rings (size 3 to 8) (size 9 to 14) (size 15 to 20)
#    0.000    1.500    5.000    1.875    8.750    0.000 
#    0.000    0.625    0.000    1.500    0.000    0.000 
#    0.000    0.000    0.000    0.000    0.000    0.000 
#
# Total GULP energy -198268.798353 kJ/mol
# GULP energy per Si atom -12391.799897 kJ/mol
# Density = 1.990419 g / cm^3
# Si number density = 19.949598 Si / 1000 Ang^3
#
#
#
# Elastic Constant Matrix: (Units=GPa)
#
#
# Indices 1 2 3 4 5 6 
#
# 1 155.4989 47.2429 53.1898 -16.8908 15.1144 23.0583
# 2 47.2429 106.1082 36.9016 -17.0327 -6.2646 25.5978
# 3 53.1898 36.9016 78.4541 -19.3828 7.9389 12.1475
# 4 -16.8908 -17.0327 -19.3828 31.3679 0.5877 -7.5249
# 5 15.1144 -6.2646 7.9389 0.5877 32.7519 -5.1948
# 6 23.0583 25.5978 12.1475 -7.5249 -5.1948 35.9391
#
#
#
# Elastic Compliance Matrix: (Units=1/GPa)
#
#
# Indices 1 2 3 4 5 6 
#
# 1 0.009581 -0.002001 -0.004403 0.000534 -0.004341 -0.003750
# 2 -0.002001 0.013763 -0.003911 0.002430 0.003479 -0.006186
# 3 -0.004403 -0.003911 0.019885 0.007863 -0.003677 0.000004
# 4 0.000534 0.002430 0.007863 0.039147 -0.001883 0.003193
# 5 -0.004341 0.003479 -0.003677 -0.001883 0.035115 0.006231
# 6 -0.003750 -0.006186 0.000004 0.003193 0.006231 0.036204
#
#
# Mechanical properties :
#
#
# Convention : Reuss Voigt Hill
#
# Bulk Modulus (GPa) = 44.24840 68.30329 56.27584
# Shear Modulus (GPa) = 27.49435 33.52691 30.51063
#
# Velocity S-wave (km/s) = 3.71643 4.10394 3.91498
# Velocity P-wave (km/s) = 6.37527 7.53450 6.97899
#
# Compressibility (1/GPa) = 0.02259969
#
# Stress axis : x y z
#
# Youngs Moduli (GPa) = 104.37727 72.65885 50.28970
#
# Poissons Ratio (x) = 0.14535 0.22141
# Poissons Ratio (y) = 0.20881 0.19669
# Poissons Ratio (z) = 0.45954 0.28418
#
# Static dielectric constant tensor:
#      x y z
#    x 2.971690 0.061830 0.112190 
#    y 0.061830 4.129400 -0.337260 
#    z 0.112190 -0.337260 3.232220 
# 
# 
# High freq. dielectric constant tensor:
#      x y z
#    x 1.800110 0.015860 0.000320 
#    y 0.015860 1.786250 -0.031300 
#    z 0.000320 -0.031300 1.730390 
# 
# From -- ./inp_files/259972.got.cif
#   From: 2010.06.25/outbox.cif.g09.slc.cpg/sg2_130_cif.got.tgz:259972.got - 2010.06.27 13:26:56.
