data_PCOD8039347
_publ_section_title
;
Structure prediction by ZEFSAII (Michael W. Deem and Ramdas Pophale) SiO2 
 PCOD8039347
Probable space group: P -1
;
_chemical_formula_sum "Si O2"
_cell_formula_units_Z 12
_cell_length_a 12.890597
_cell_length_b 10.181134
_cell_length_c 10.339352
_cell_angle_alpha 41.964665
_cell_angle_beta 130.263943
_cell_angle_gamma 135.730927
_cell_volume 614.220444
_symmetry_space_group_name_H-M "P -1"
_symmetry_group_IT_number 2
_symmetry_cell_setting 'triclinic'
loop_
_space_group_symop_operation_xyz
x,y,z
-x,-y,-z
loop_
_atom_site_type_symbol
_atom_site_label
_atom_site_fract_x
_atom_site_fract_y
_atom_site_fract_z
Si Si1 0.175420 0.655276 0.054503
Si Si2 0.570673 0.893851 0.535032
Si Si3 0.653481 0.251191 0.141079
Si Si4 0.300816 0.128732 0.902341
Si Si5 0.672596 0.654355 0.983198
Si Si6 0.367889 0.491340 0.492394
O O1 0.268038 0.747907 0.929949
O O2 0.193135 0.867588 0.993734
O O3 0.239905 0.513426 0.288724
O O4 0.000000 0.500000 0.000000
O O5 0.433983 0.682572 0.512972
O O6 0.500000 0.000000 0.500000
O O7 0.670810 0.073535 0.377075
O O8 0.681845 0.819399 0.754650
O O9 0.739338 0.493708 0.100226
O O10 0.524764 0.823787 0.971580
O O11 0.238252 0.205587 0.921602
O O12 0.287744 0.255877 0.672282
O O13 0.500000 0.500000 0.000000
O O14 0.500000 0.500000 0.500000
#
# Coordination Sequence:
#
# PCOD8039347 Si02
#       6
#     2   2   2   2   2   2
#     4  12  26  41  56  85 126 161 194 240 292 346
#     4  12  18  30  60  94 116 141 190 250 294 335
#     4  11  20  36  60  89 116 151 194 242 286 347
#     4  11  20  37  63  88 116 150 200 246 288 345
#     4  10  18  33  57  96 115 139 191 254 290 336
#     4  12  21  35  62  88 112 154 200 241 289 342
#
# _framework density 19.536961999999999
#
# number of rings (size 3 to 8) (size 9 to 14) (size 15 to 20)
#    0.000    0.667   10.000    1.500    0.000    0.667 
#    0.000    0.833    0.000    7.000    0.000    0.000 
#    0.000    0.000    0.000    0.000    0.000    0.000 
#
# Total GULP energy -148821.161074 kJ/mol
# GULP energy per Si atom -12401.763423 kJ/mol
# Density = 1.949249 g / cm^3
# Si number density = 19.536962 Si / 1000 Ang^3
#
#
#
# Elastic Constant Matrix: (Units=GPa)
#
#
# Indices 1 2 3 4 5 6 
#
# 1 19.6411 33.7137 23.4238 10.8682 -0.1414 -0.8935
# 2 33.7137 128.6434 35.0492 0.2956 8.9084 -9.2232
# 3 23.4238 35.0492 172.8275 -16.7538 -15.1320 11.7427
# 4 10.8682 0.2956 -16.7538 33.8260 -3.6516 -3.1821
# 5 -0.1414 8.9084 -15.1320 -3.6516 24.6051 1.4689
# 6 -0.8935 -9.2232 11.7427 -3.1821 1.4689 23.5917
#
#
#
# Elastic Compliance Matrix: (Units=1/GPa)
#
#
# Indices 1 2 3 4 5 6 
#
# 1 0.208667 -0.046943 -0.027084 -0.081839 -0.010167 -0.007374
# 2 -0.046943 0.019904 0.003181 0.016761 -0.003444 0.006896
# 3 -0.027084 0.003181 0.011202 0.014722 0.007998 -0.003870
# 4 -0.081839 0.016761 0.014722 0.064671 0.011867 0.004110
# 5 -0.010167 -0.003444 0.007998 0.011867 0.048938 -0.007159
# 6 -0.007374 0.006896 -0.003870 0.004110 -0.007159 0.047731
#
#
# Mechanical properties :
#
#
# Convention : Reuss Voigt Hill
#
# Bulk Modulus (GPa) = 10.19574 56.16505 33.18039
# Shear Modulus (GPa) = 8.68814 31.66626 20.17720
#
# Velocity S-wave (km/s) = 2.11108 4.03033 3.21716
# Velocity P-wave (km/s) = 3.34249 7.10413 5.55162
#
# Compressibility (1/GPa) = 0.09808021
#
# Stress axis : x y z
#
# Youngs Moduli (GPa) = 4.79233 50.24211 89.26831
#
# Poissons Ratio (x) = 2.35852 2.41772
# Poissons Ratio (y) = 0.22497 -0.28393
# Poissons Ratio (z) = 0.12979 -0.15980
#
# Static dielectric constant tensor:
#      x y z
#    x 2.084890 -1.624530 0.472910 
#    y -1.624530 3.188840 0.495720 
#    z 0.472910 0.495720 3.553440 
# 
# 
# High freq. dielectric constant tensor:
#      x y z
#    x 1.714080 -0.042370 -0.027110 
#    y -0.042370 1.769010 -0.014950 
#    z -0.027110 -0.014950 1.777940 
# 
# From -- ./inp_files/291755.got.cif
#   From: 2010.06.25/outbox.cif.g09.slc.cpg/sg2_146_cif.got.tgz:291755.got - 2010.06.27 13:26:56.
