data_PCOD8039236
_publ_section_title
;
Structure prediction by ZEFSAII (Michael W. Deem and Ramdas Pophale) SiO2 
 PCOD8039236
Probable space group: P -1
;
_chemical_formula_sum "Si O2"
_cell_formula_units_Z 16
_cell_length_a 11.450218
_cell_length_b 9.171697
_cell_length_c 12.874104
_cell_angle_alpha 128.408100
_cell_angle_beta 90.126767
_cell_angle_gamma 120.719392
_cell_volume 801.775229
_symmetry_space_group_name_H-M "P -1"
_symmetry_group_IT_number 2
_symmetry_cell_setting 'triclinic'
loop_
_space_group_symop_operation_xyz
x,y,z
-x,-y,-z
loop_
_atom_site_type_symbol
_atom_site_label
_atom_site_fract_x
_atom_site_fract_y
_atom_site_fract_z
Si Si1 0.746569 0.803218 0.671131
Si Si2 0.964149 0.658819 0.121388
Si Si3 0.745395 0.987833 0.095141
Si Si4 0.300455 0.697535 0.891828
Si Si5 0.510615 0.911894 0.190105
Si Si6 0.442133 0.649874 0.673669
Si Si7 0.070452 0.229301 0.178464
Si Si8 0.261815 0.446541 0.097947
O O1 0.620839 0.768954 0.731996
O O2 0.662982 0.621644 0.493374
O O3 0.839892 0.751142 0.713966
O O4 0.869102 0.075003 0.742775
O O5 0.873218 0.540501 0.178394
O O6 0.859162 0.674653 0.051235
O O7 0.000000 0.500000 0.000000
O O8 0.692745 0.081816 0.049497
O O9 0.928947 0.206541 0.208308
O O10 0.664228 0.950987 0.188247
O O11 0.698016 0.726794 0.951339
O O12 0.368306 0.627971 0.774685
O O13 0.408501 0.800547 0.036866
O O14 0.417243 0.723932 0.200967
O O15 0.558450 0.174629 0.328175
O O16 0.187617 0.465457 0.208793
O O17 0.000000 0.000000 0.000000
#
# Coordination Sequence:
#
# PCOD8039236 Si02
#       8
#     2   2   2   2   2   2   2   2
#     4  11  22  40  58  84 118 156 195 241 286 360
#     4  11  21  36  61  91 116 145 196 249 285 337
#     4  10  18  33  53  86 112 144 185 233 297 329
#     4  10  22  35  61  89 116 153 197 246 281 339
#     4  10  21  36  57  86 118 149 196 241 278 347
#     4  10  23  39  59  81 119 161 193 233 298 338
#     4  10  20  32  58  83 111 149 190 236 291 342
#     4  10  20  32  55  89 113 144 188 242 288 335
#
# _framework density 19.955717
#
# number of rings (size 3 to 8) (size 9 to 14) (size 15 to 20)
#    0.000    1.750    2.500    4.125    8.750    0.500 
#    0.000    3.125    0.000    0.000    0.000    0.000 
#    0.000    0.000    0.000    0.000    0.000    0.000 
#
# Total GULP energy -198289.468743 kJ/mol
# GULP energy per Si atom -12393.091796 kJ/mol
# Density = 1.991030 g / cm^3
# Si number density = 19.955717 Si / 1000 Ang^3
#
#
#
# Elastic Constant Matrix: (Units=GPa)
#
#
# Indices 1 2 3 4 5 6 
#
# 1 111.6302 48.5144 18.3923 2.8345 -11.8388 32.7271
# 2 48.5144 149.3991 30.3187 15.9091 -7.3547 38.7308
# 3 18.3923 30.3187 49.7385 15.6162 -7.4440 12.7720
# 4 2.8345 15.9091 15.6162 24.9743 -0.6035 5.0173
# 5 -11.8388 -7.3547 -7.4440 -0.6035 19.4667 1.2721
# 6 32.7271 38.7308 12.7720 5.0173 1.2721 44.1007
#
#
#
# Elastic Compliance Matrix: (Units=1/GPa)
#
#
# Indices 1 2 3 4 5 6 
#
# 1 0.013075 -0.001711 -0.001247 0.002234 0.007441 -0.008309
# 2 -0.001711 0.009832 -0.002400 -0.003241 0.002072 -0.006362
# 3 -0.001247 -0.002400 0.029362 -0.015669 0.009336 -0.003958
# 4 0.002234 -0.003241 -0.015669 0.051550 -0.004258 -0.000016
# 5 0.007441 0.002072 0.009336 -0.004258 0.060855 -0.011316
# 6 -0.008309 -0.006362 -0.003958 -0.000016 -0.011316 0.035903
#
#
# Mechanical properties :
#
#
# Convention : Reuss Voigt Hill
#
# Bulk Modulus (GPa) = 24.06415 56.13541 40.09978
# Shear Modulus (GPa) = 22.20812 31.94449 27.07630
#
# Velocity S-wave (km/s) = 3.33959 4.00530 3.68750
# Velocity P-wave (km/s) = 5.19186 7.04138 6.18613
#
# Compressibility (1/GPa) = 0.04155559
#
# Stress axis : x y z
#
# Youngs Moduli (GPa) = 76.48032 101.70582 34.05778
#
# Poissons Ratio (x) = 0.17398 0.04245
# Poissons Ratio (y) = 0.13083 0.08173
# Poissons Ratio (z) = 0.09534 0.24407
#
# Static dielectric constant tensor:
#      x y z
#    x 4.116260 0.511400 -0.043680 
#    y 0.511400 4.245850 0.148590 
#    z -0.043680 0.148590 3.108780 
# 
# 
# High freq. dielectric constant tensor:
#      x y z
#    x 1.799370 0.020140 -0.002630 
#    y 0.020140 1.794760 0.010430 
#    z -0.002630 0.010430 1.717960 
# 
# From -- ./inp_files/387362.got.cif
#   From: 2010.06.25/outbox.cif.g09.slc.cpg/sg2_194_cif.got.tgz:387362.got - 2010.06.27 13:26:56.
