data_PCOD8039415
_publ_section_title
;
Structure prediction by ZEFSAII (Michael W. Deem and Ramdas Pophale) SiO2 
 PCOD8039415
Probable space group: P -1
;
_chemical_formula_sum "Si O2"
_cell_formula_units_Z 16
_cell_length_a 13.981209
_cell_length_b 9.404083
_cell_length_c 21.383968
_cell_angle_alpha 47.055101
_cell_angle_beta 159.473480
_cell_angle_gamma 128.960396
_cell_volume 721.183892
_symmetry_space_group_name_H-M "P -1"
_symmetry_group_IT_number 2
_symmetry_cell_setting 'triclinic'
loop_
_space_group_symop_operation_xyz
x,y,z
-x,-y,-z
loop_
_atom_site_type_symbol
_atom_site_label
_atom_site_fract_x
_atom_site_fract_y
_atom_site_fract_z
Si Si1 0.365857 0.741288 0.532373
Si Si2 0.959260 0.543651 0.269069
Si Si3 0.131206 0.394681 0.191796
Si Si4 0.527107 0.395128 0.813661
Si Si5 0.473907 0.352527 0.585042
Si Si6 0.781341 0.928352 0.564057
Si Si7 0.524813 0.438033 0.947523
Si Si8 0.655413 0.007185 0.157463
O O1 0.660329 0.739410 0.680906
O O2 0.332160 0.550667 0.612323
O O3 0.118196 0.736823 0.331034
O O4 0.352127 0.933904 0.506969
O O5 0.770670 0.572106 0.082654
O O6 0.199620 0.384928 0.448627
O O7 0.761135 0.479401 0.223566
O O8 0.263427 0.605255 0.223408
O O9 0.081737 0.268688 0.262481
O O10 0.837084 0.428760 0.969113
O O11 0.444929 0.177237 0.808977
O O12 0.506075 0.439431 0.861250
O O13 0.500000 0.500000 0.500000
O O14 0.457678 0.135029 0.611659
O O15 0.021033 0.031064 0.643051
O O16 0.583492 0.219900 0.078543
O O17 0.500000 0.000000 0.000000
#
# Coordination Sequence:
#
# PCOD8039415 Si02
#       8
#     2   2   2   2   2   2   2   2
#     4  11  24  36  59  94 125 148 198 256 298 345
#     4  10  20  35  59  89 118 150 200 246 289 342
#     4  10  20  38  62  81 118 162 204 239 290 357
#     4  11  22  39  60  89 123 163 189 243 315 346
#     4   9  18  35  59  83 115 155 196 243 288 341
#     4  11  19  37  61  90 114 158 203 241 298 353
#     4  10  19  36  62  84 118 159 204 237 284 367
#     4  10  18  33  60  85 113 154 198 240 280 366
#
# _framework density 22.185742000000001
#
# number of rings (size 3 to 8) (size 9 to 14) (size 15 to 20)
#    0.000    1.750    3.750    3.000    0.000    2.000 
#    0.000    1.250   11.000    0.000    0.000    0.000 
#    0.000    0.000    0.000    0.000    0.000    0.000 
#
# Total GULP energy -198240.835307 kJ/mol
# GULP energy per Si atom -12390.052207 kJ/mol
# Density = 2.213525 g / cm^3
# Si number density = 22.185742 Si / 1000 Ang^3
#
#
#
# Elastic Constant Matrix: (Units=GPa)
#
#
# Indices 1 2 3 4 5 6 
#
# 1 66.0586 32.3132 21.5028 10.6080 18.0116 -14.7100
# 2 32.3132 126.2608 44.5070 26.8115 0.5424 -22.5281
# 3 21.5028 44.5070 76.3748 29.5536 11.5339 -3.7788
# 4 10.6080 26.8115 29.5536 32.4550 8.2703 -4.5695
# 5 18.0116 0.5424 11.5339 8.2703 24.1479 -1.2913
# 6 -14.7100 -22.5281 -3.7788 -4.5695 -1.2913 39.3787
#
#
#
# Elastic Compliance Matrix: (Units=1/GPa)
#
#
# Indices 1 2 3 4 5 6 
#
# 1 0.023745 -0.004961 -0.002301 0.003679 -0.017457 0.005665
# 2 -0.004961 0.012973 -0.004769 -0.006146 0.008041 0.004661
# 3 -0.002301 -0.004769 0.023052 -0.015758 -0.003968 -0.003334
# 4 0.003679 -0.006146 -0.015758 0.052633 -0.012997 0.002027
# 5 -0.017457 0.008041 -0.003968 -0.012997 0.060501 -0.001826
# 6 0.005665 0.004661 -0.003334 0.002027 -0.001826 0.030033
#
#
# Mechanical properties :
#
#
# Convention : Reuss Voigt Hill
#
# Bulk Modulus (GPa) = 28.00490 51.70447 39.85468
# Shear Modulus (GPa) = 20.92916 30.55439 25.74177
#
# Velocity S-wave (km/s) = 3.07475 3.71510 3.40999
# Velocity P-wave (km/s) = 5.02551 6.46208 5.78854
#
# Compressibility (1/GPa) = 0.03570804
#
# Stress axis : x y z
#
# Youngs Moduli (GPa) = 42.11488 77.08300 43.38033
#
# Poissons Ratio (x) = 0.38242 0.09982
# Poissons Ratio (y) = 0.20894 0.20687
# Poissons Ratio (z) = 0.09691 0.36758
#
# Static dielectric constant tensor:
#      x y z
#    x 4.031250 -0.040830 0.236940 
#    y -0.040830 5.057220 1.162400 
#    z 0.236940 1.162400 4.707830 
# 
# 
# High freq. dielectric constant tensor:
#      x y z
#    x 1.869620 -0.020570 0.022520 
#    y -0.020570 1.858960 0.041050 
#    z 0.022520 0.041050 1.855720 
# 
# From -- ./inp_files/305712.got.cif
#   From: 2010.06.25/outbox.cif.g09.slc.cpg/sg2_153_cif.got.tgz:305712.got - 2010.06.27 13:26:56.
