data_PCOD8039121
_publ_section_title
;
Structure prediction by ZEFSAII (Michael W. Deem and Ramdas Pophale) SiO2 
 PCOD8039121
Probable space group: P -1
;
_chemical_formula_sum "Si O2"
_cell_formula_units_Z 14
_cell_length_a 13.970506
_cell_length_b 9.094160
_cell_length_c 11.691555
_cell_angle_alpha 57.452690
_cell_angle_beta 86.110384
_cell_angle_gamma 43.648777
_cell_volume 720.384173
_symmetry_space_group_name_H-M "P -1"
_symmetry_group_IT_number 2
_symmetry_cell_setting 'triclinic'
loop_
_space_group_symop_operation_xyz
x,y,z
-x,-y,-z
loop_
_atom_site_type_symbol
_atom_site_label
_atom_site_fract_x
_atom_site_fract_y
_atom_site_fract_z
Si Si1 0.635139 0.884158 0.689421
Si Si2 0.270969 0.500065 0.872162
Si Si3 0.689595 0.195383 0.143799
Si Si4 0.511733 0.134910 0.821767
Si Si5 0.714541 0.135624 0.914573
Si Si6 0.440481 0.834549 0.650791
Si Si7 0.039928 0.634862 0.974395
O O1 0.543789 0.840198 0.689494
O O2 0.816510 0.571139 0.855324
O O3 0.523142 0.160232 0.674944
O O4 0.654855 0.972011 0.538267
O O5 0.244213 0.725634 0.838836
O O6 0.323280 0.443428 0.756984
O O7 0.100045 0.649726 0.849223
O O8 0.429536 0.155808 0.052948
O O9 0.700610 0.020310 0.307813
O O10 0.500000 0.500000 0.000000
O O11 0.780035 0.021443 0.088778
O O12 0.646686 0.049296 0.915540
O O13 0.567009 0.490570 0.758552
O O14 0.872134 0.968155 0.898695
O O15 0.000000 0.500000 0.000000
#
# Coordination Sequence:
#
# PCOD8039121 Si02
#       7
#     2   2   2   2   2   2   2
#     4  10  22  38  57  80 121 148 185 227 287 336
#     4  10  19  31  53  82 113 141 184 231 278 316
#     4  10  18  33  54  83 109 141 192 234 264 323
#     4  10  18  32  57  84 105 148 189 230 270 328
#     4  11  20  34  61  87 109 144 192 235 276 324
#     4  10  22  38  57  85 111 153 188 232 273 333
#     4  11  21  36  55  89 116 144 180 239 285 325
#
# _framework density 19.434076000000001
#
# number of rings (size 3 to 8) (size 9 to 14) (size 15 to 20)
#    0.000    1.714    5.714    3.429    2.000    2.857 
#    0.000    0.714    0.000    3.429    0.000    0.000 
#    0.000    0.000    0.000    0.000    0.000    0.000 
#
# Total GULP energy -173466.074423 kJ/mol
# GULP energy per Si atom -12390.433887 kJ/mol
# Density = 1.938984 g / cm^3
# Si number density = 19.434076 Si / 1000 Ang^3
#
#
#
# Elastic Constant Matrix: (Units=GPa)
#
#
# Indices 1 2 3 4 5 6 
#
# 1 103.0992 23.7617 20.9925 13.0918 -11.7516 -6.6742
# 2 23.7617 65.9100 11.2267 14.2002 -1.5158 -23.7803
# 3 20.9925 11.2267 45.7680 12.0155 -5.7526 5.7896
# 4 13.0918 14.2002 12.0155 23.3491 -2.9935 1.2374
# 5 -11.7516 -1.5158 -5.7526 -2.9935 21.6676 3.5306
# 6 -6.6742 -23.7803 5.7896 1.2374 3.5306 41.1032
#
#
#
# Elastic Compliance Matrix: (Units=1/GPa)
#
#
# Indices 1 2 3 4 5 6 
#
# 1 0.012007 -0.002917 -0.003563 -0.002512 0.004948 0.000414
# 2 -0.002917 0.025219 -0.004024 -0.013124 -0.005230 0.015528
# 3 -0.003563 -0.004024 0.028422 -0.009136 0.005224 -0.007084
# 4 -0.002512 -0.013124 -0.009136 0.057999 0.004752 -0.008868
# 5 0.004948 -0.005230 0.005224 0.004752 0.051742 -0.007546
# 6 0.000414 0.015528 -0.007084 -0.008868 -0.007546 0.035293
#
#
# Mechanical properties :
#
#
# Convention : Reuss Voigt Hill
#
# Bulk Modulus (GPa) = 22.40163 36.30433 29.35298
# Shear Modulus (GPa) = 20.27818 27.81040 24.04429
#
# Velocity S-wave (km/s) = 3.23373 3.78698 3.52123
# Velocity P-wave (km/s) = 5.04922 6.15166 5.62750
#
# Compressibility (1/GPa) = 0.04463962
#
# Stress axis : x y z
#
# Youngs Moduli (GPa) = 83.28505 39.65222 35.18441
#
# Poissons Ratio (x) = 0.11568 0.12535
# Poissons Ratio (y) = 0.24297 0.14159
# Poissons Ratio (z) = 0.29671 0.15957
#
# Static dielectric constant tensor:
#      x y z
#    x 3.840840 -0.133220 -0.225520 
#    y -0.133220 4.822030 0.844260 
#    z -0.225520 0.844260 3.818280 
# 
# 
# High freq. dielectric constant tensor:
#      x y z
#    x 1.769560 0.002380 -0.016830 
#    y 0.002380 1.765910 0.036850 
#    z -0.016830 0.036850 1.701370 
# 
# From -- ./inp_files/182564.got.cif
#   From: 2010.06.25/outbox.cif.g09.slc.cpg/sg2_92_cif.got.tgz:182564.got - 2010.06.27 13:26:56.
