data_PCOD8039651
_publ_section_title
;
Structure prediction by ZEFSAII (Michael W. Deem and Ramdas Pophale) SiO2 
 PCOD8039651
Probable space group: P -1
;
_chemical_formula_sum "Si O2"
_cell_formula_units_Z 16
_cell_length_a 16.703456
_cell_length_b 11.628775
_cell_length_c 16.459154
_cell_angle_alpha 47.061932
_cell_angle_beta 148.145968
_cell_angle_gamma 152.867267
_cell_volume 731.467190
_symmetry_space_group_name_H-M "P -1"
_symmetry_group_IT_number 2
_symmetry_cell_setting 'triclinic'
loop_
_space_group_symop_operation_xyz
x,y,z
-x,-y,-z
loop_
_atom_site_type_symbol
_atom_site_label
_atom_site_fract_x
_atom_site_fract_y
_atom_site_fract_z
Si Si1 0.021001 0.280829 0.151226
Si Si2 0.945122 0.413131 0.584410
Si Si3 0.309197 0.586300 0.409304
Si Si4 0.609709 0.976684 0.718820
Si Si5 0.175455 0.759019 0.760467
Si Si6 0.724141 0.312082 0.956759
Si Si7 0.720787 0.810920 0.019295
Si Si8 0.830217 0.001832 0.741969
O O1 0.245109 0.455349 0.328786
O O2 0.147267 0.432030 0.099834
O O3 0.866272 0.989231 0.141768
O O4 0.806209 0.224864 0.020856
O O5 0.669342 0.248526 0.455185
O O6 0.952812 0.232883 0.677626
O O7 0.000000 0.500000 0.500000
O O8 0.160369 0.662835 0.707346
O O9 0.074774 0.346245 0.383063
O O10 0.313944 0.780904 0.308690
O O11 0.565596 0.725426 0.602689
O O12 0.791268 0.047175 0.774781
O O13 0.596636 0.859269 0.845118
O O14 0.417709 0.075586 0.809428
O O15 0.195059 0.637598 0.903861
O O16 0.945605 0.940106 0.089468
O O17 0.500000 0.500000 0.000000
#
# Coordination Sequence:
#
# PCOD8039651 Si02
#       8
#     2   2   2   2   2   2   2   2
#     4  10  22  39  62  90 126 164 209 254 319 365
#     4  11  22  34  63  95 127 159 208 266 305 364
#     4  10  20  41  69  94 123 160 212 266 307 368
#     4  11  21  42  64  92 125 167 212 253 317 373
#     4  10  18  34  58  95 126 151 204 262 316 358
#     4   9  20  35  62  94 121 161 203 272 305 361
#     4  12  27  42  61  92 131 169 209 256 314 383
#     4  11  23  41  62  92 129 175 202 254 319 379
#
# _framework density 21.873843999999998
#
# number of rings (size 3 to 8) (size 9 to 14) (size 15 to 20)
#    0.000    1.500    2.500    4.125    7.000    0.500 
#    0.000    0.000    0.000    1.500    0.000    0.000 
#    0.000    0.000    0.000    0.000    0.000    0.000 
#
# Total GULP energy -198280.110804 kJ/mol
# GULP energy per Si atom -12392.506925 kJ/mol
# Density = 2.182406 g / cm^3
# Si number density = 21.873844 Si / 1000 Ang^3
#
#
#
# Elastic Constant Matrix: (Units=GPa)
#
#
# Indices 1 2 3 4 5 6 
#
# 1 90.5196 36.3091 13.9388 7.6085 -22.3330 -1.2968
# 2 36.3091 96.4176 30.4356 21.1713 -10.6244 2.4492
# 3 13.9388 30.4356 68.9931 15.4825 -4.6164 -5.7234
# 4 7.6085 21.1713 15.4825 26.7019 -3.6241 -7.2071
# 5 -22.3330 -10.6244 -4.6164 -3.6241 43.7741 4.5284
# 6 -1.2968 2.4492 -5.7234 -7.2071 4.5284 35.0317
#
#
#
# Elastic Compliance Matrix: (Units=1/GPa)
#
#
# Indices 1 2 3 4 5 6 
#
# 1 0.014530 -0.004798 -0.000589 0.000895 0.006245 0.000154
# 2 -0.004798 0.015784 -0.004095 -0.009787 0.000558 -0.004036
# 3 -0.000589 -0.004095 0.018038 -0.006554 -0.000129 0.001880
# 4 0.000895 -0.009787 -0.006554 0.051586 0.000608 0.010181
# 5 0.006245 0.000558 -0.000129 0.000608 0.026527 -0.003133
# 6 0.000154 -0.004036 0.001880 0.010181 -0.003133 0.031640
#
#
# Mechanical properties :
#
#
# Convention : Reuss Voigt Hill
#
# Bulk Modulus (GPa) = 34.02748 46.36638 40.19693
# Shear Modulus (GPa) = 26.75725 32.78466 29.77095
#
# Velocity S-wave (km/s) = 3.50130 3.87564 3.69322
# Velocity P-wave (km/s) = 5.65115 6.42423 6.05005
#
# Compressibility (1/GPa) = 0.02938801
#
# Stress axis : x y z
#
# Youngs Moduli (GPa) = 68.82134 63.35498 55.43931
#
# Poissons Ratio (x) = 0.30399 0.03266
# Poissons Ratio (y) = 0.33022 0.22701
# Poissons Ratio (z) = 0.04054 0.25943
#
# Static dielectric constant tensor:
#      x y z
#    x 3.903700 0.186120 0.096560 
#    y 0.186120 3.832500 0.345120 
#    z 0.096560 0.345120 4.180400 
# 
# 
# High freq. dielectric constant tensor:
#      x y z
#    x 1.858340 0.013920 -0.010260 
#    y 0.013920 1.841140 0.033050 
#    z -0.010260 0.033050 1.857370 
# 
# From -- ./inp_files/575965.got.cif
#   From: 2010.06.25/outbox.cif.g09.slc.cpg/sg2_288_cif.got.tgz:575965.got - 2010.06.27 13:26:56.
