data_PCOD8039241
_publ_section_title
;
Structure prediction by ZEFSAII (Michael W. Deem and Ramdas Pophale) SiO2 
 PCOD8039241
Probable space group: P -1
;
_chemical_formula_sum "Si O2"
_cell_formula_units_Z 16
_cell_length_a 5.132388
_cell_length_b 20.386782
_cell_length_c 11.667272
_cell_angle_alpha 58.183667
_cell_angle_beta 66.344745
_cell_angle_gamma 96.549952
_cell_volume 863.053487
_symmetry_space_group_name_H-M "P -1"
_symmetry_group_IT_number 2
_symmetry_cell_setting 'triclinic'
loop_
_space_group_symop_operation_xyz
x,y,z
-x,-y,-z
loop_
_atom_site_type_symbol
_atom_site_label
_atom_site_fract_x
_atom_site_fract_y
_atom_site_fract_z
Si Si1 0.854390 0.900745 0.636401
Si Si2 0.445774 0.540905 0.355386
Si Si3 0.406822 0.760607 0.444895
Si Si4 0.263481 0.802700 0.674457
Si Si5 0.941976 0.379879 0.526015
Si Si6 0.497987 0.195670 0.004557
Si Si7 0.080757 0.291820 0.966942
Si Si8 0.086361 0.791930 0.275426
O O1 0.580652 0.855147 0.636885
O O2 0.121241 0.867582 0.599183
O O3 0.730169 0.882946 0.805662
O O4 0.000000 0.000000 0.500000
O O5 0.500000 0.500000 0.500000
O O6 0.252926 0.595353 0.369011
O O7 0.754906 0.606616 0.175954
O O8 0.258263 0.465010 0.367893
O O9 0.335582 0.757923 0.593601
O O10 0.257254 0.662265 0.515735
O O11 0.250015 0.813385 0.352470
O O12 0.779740 0.810170 0.310005
O O13 0.012551 0.727791 0.864975
O O14 0.029495 0.309021 0.637541
O O15 0.300447 0.243514 0.938063
O O16 0.653191 0.158808 0.912748
O O17 0.769266 0.260260 0.976620
#
# Coordination Sequence:
#
# PCOD8039241 Si02
#       8
#     2   2   2   2   2   2   2   2
#     4  10  21  37  62  87 109 135 171 226 278 318
#     4  11  19  31  50  79 113 137 181 241 279 295
#     4  10  20  34  54  77 108 148 191 206 262 325
#     4  10  21  38  58  81 110 147 178 214 260 339
#     4   9  20  29  50  77 103 144 179 226 268 306
#     4  10  18  34  54  82 106 134 180 225 271 314
#     4  10  20  32  52  77 108 140 182 225 269 316
#     4  10  18  33  54  77 104 141 186 226 253 317
#
# _framework density 18.538827999999999
#
# number of rings (size 3 to 8) (size 9 to 14) (size 15 to 20)
#    0.750    1.250    1.250    4.125    1.750    0.000 
#    0.000    0.625    0.000    6.000    0.000    0.000 
#    0.000    0.000    0.000    0.000    0.000    0.000 
#
# Total GULP energy -198268.097979 kJ/mol
# GULP energy per Si atom -12391.756124 kJ/mol
# Density = 1.849663 g / cm^3
# Si number density = 18.538828 Si / 1000 Ang^3
#
#
#
# Elastic Constant Matrix: (Units=GPa)
#
#
# Indices 1 2 3 4 5 6 
#
# 1 102.2946 19.7117 27.0126 -6.2447 -13.0170 -0.1095
# 2 19.7117 55.3439 43.1416 4.9865 -4.3399 4.5396
# 3 27.0126 43.1416 120.6433 -7.9281 -11.8617 -0.0037
# 4 -6.2447 4.9865 -7.9281 33.6338 1.3221 1.7120
# 5 -13.0170 -4.3399 -11.8617 1.3221 33.9797 4.6499
# 6 -0.1095 4.5396 -0.0037 1.7120 4.6499 21.6113
#
#
#
# Elastic Compliance Matrix: (Units=1/GPa)
#
#
# Indices 1 2 3 4 5 6 
#
# 1 0.011209 -0.003228 -0.000863 0.002228 0.003521 -0.000199
# 2 -0.003228 0.027786 -0.009663 -0.006724 -0.000073 -0.005306
# 3 -0.000863 -0.009663 0.012446 0.004049 0.002461 0.001177
# 4 0.002228 -0.006724 0.004049 0.032145 0.000321 -0.001191
# 5 0.003521 -0.000073 0.002461 0.000321 0.032574 -0.007000
# 6 -0.000199 -0.005306 0.001177 -0.001191 -0.007000 0.048986
#
#
# Mechanical properties :
#
#
# Convention : Reuss Voigt Hill
#
# Bulk Modulus (GPa) = 41.78169 50.89042 46.33606
# Shear Modulus (GPa) = 24.92135 30.40604 27.66370
#
# Velocity S-wave (km/s) = 3.67042 4.05424 3.86710
# Velocity P-wave (km/s) = 6.36781 7.03037 6.70728
#
# Compressibility (1/GPa) = 0.02393393
#
# Stress axis : x y z
#
# Youngs Moduli (GPa) = 89.21034 35.98920 80.35006
#
# Poissons Ratio (x) = 0.11618 0.06933
# Poissons Ratio (y) = 0.28798 0.77639
# Poissons Ratio (z) = 0.07698 0.34775
#
# Static dielectric constant tensor:
#      x y z
#    x 3.572880 0.043130 -0.098440 
#    y 0.043130 3.029680 0.047800 
#    z -0.098440 0.047800 3.483390 
# 
# 
# High freq. dielectric constant tensor:
#      x y z
#    x 1.738640 0.006550 -0.006940 
#    y 0.006550 1.675790 0.006080 
#    z -0.006940 0.006080 1.711140 
# 
# From -- ./inp_files/369830.got.cif
#   From: 2010.06.25/outbox.cif.g09.slc.cpg/sg2_185_cif.got.tgz:369830.got - 2010.06.27 13:26:56.
