data_PCOD8039144
_publ_section_title
;
Structure prediction by ZEFSAII (Michael W. Deem and Ramdas Pophale) SiO2 
 PCOD8039144
Probable space group: P -1
;
_chemical_formula_sum "Si O2"
_cell_formula_units_Z 14
_cell_length_a 11.896050
_cell_length_b 22.514975
_cell_length_c 8.599021
_cell_angle_alpha 146.544519
_cell_angle_beta 36.701068
_cell_angle_gamma 139.556463
_cell_volume 728.560483
_symmetry_space_group_name_H-M "P -1"
_symmetry_group_IT_number 2
_symmetry_cell_setting 'triclinic'
loop_
_space_group_symop_operation_xyz
x,y,z
-x,-y,-z
loop_
_atom_site_type_symbol
_atom_site_label
_atom_site_fract_x
_atom_site_fract_y
_atom_site_fract_z
Si Si1 0.633134 0.067779 0.723593
Si Si2 0.871948 0.312411 0.437033
Si Si3 0.003261 0.551831 0.779539
Si Si4 0.387774 0.709953 0.618899
Si Si5 0.998387 0.963059 0.597559
Si Si6 0.754935 0.105342 0.326162
Si Si7 0.811587 0.712819 0.208569
O O1 0.739447 0.115272 0.549143
O O2 0.778996 0.026109 0.581226
O O3 0.448535 0.961890 0.671868
O O4 0.562919 0.163927 0.097426
O O5 0.932089 0.440224 0.721767
O O6 0.689755 0.294521 0.481327
O O7 0.812880 0.230983 0.470469
O O8 0.054296 0.286095 0.088895
O O9 0.000000 0.500000 0.500000
O O10 0.224687 0.627898 0.732716
O O11 0.854797 0.629961 0.113256
O O12 0.584791 0.670725 0.318878
O O13 0.863951 0.836460 0.494210
O O14 0.000000 0.000000 0.500000
O O15 0.920781 0.044391 0.972622
#
# Coordination Sequence:
#
# PCOD8039144 Si02
#       7
#     2   2   2   2   2   2   2
#     4  11  23  38  54  81 115 149 179 222 278 328
#     4  10  21  36  55  83 111 139 185 229 266 325
#     4   8  18  34  53  82 111 137 180 228 272 316
#     4  10  18  34  59  79 108 143 182 226 267 322
#     4  12  21  36  59  84 109 139 189 229 271 326
#     4  11  24  37  54  83 115 147 180 222 278 327
#     4  10  18  32  58  84 104 138 183 225 274 309
#
# _framework density 19.215975
#
# number of rings (size 3 to 8) (size 9 to 14) (size 15 to 20)
#    0.000    2.000    5.714    0.429    2.000    6.286 
#    0.000    0.714    0.000    0.857    0.000    0.000 
#    0.000    0.000    0.000    0.000    0.000    0.000 
#
# Total GULP energy -173564.982469 kJ/mol
# GULP energy per Si atom -12397.498748 kJ/mol
# Density = 1.917224 g / cm^3
# Si number density = 19.215975 Si / 1000 Ang^3
#
#
#
# Elastic Constant Matrix: (Units=GPa)
#
#
# Indices 1 2 3 4 5 6 
#
# 1 80.3643 42.5209 20.9019 -2.5207 -24.1622 14.5875
# 2 42.5209 99.3720 32.6221 16.2306 -25.4805 -11.7407
# 3 20.9019 32.6221 40.7367 8.2944 -25.5235 0.7680
# 4 -2.5207 16.2306 8.2944 35.5481 2.0899 -13.5545
# 5 -24.1622 -25.4805 -25.5235 2.0899 30.3911 -6.6917
# 6 14.5875 -11.7407 0.7680 -13.5545 -6.6917 34.4421
#
#
#
# Elastic Compliance Matrix: (Units=1/GPa)
#
#
# Indices 1 2 3 4 5 6 
#
# 1 0.020965 -0.008570 0.001418 0.000807 0.008445 -0.009874
# 2 -0.008570 0.019418 -0.006097 -0.004690 0.006842 0.009868
# 3 0.001418 -0.006097 0.062974 -0.014829 0.049872 -0.000229
# 4 0.000807 -0.004690 -0.014829 0.038743 -0.016095 0.010510
# 5 0.008445 0.006842 0.049872 -0.016095 0.090296 0.008853
# 6 -0.009874 0.009868 -0.000229 0.010510 0.008853 0.042442
#
#
# Mechanical properties :
#
#
# Convention : Reuss Voigt Hill
#
# Bulk Modulus (GPa) = 13.01062 45.84030 29.42546
# Shear Modulus (GPa) = 15.29263 28.37146 21.83204
#
# Velocity S-wave (km/s) = 2.82410 3.84663 3.37432
# Velocity P-wave (km/s) = 4.17367 6.60574 5.52519
#
# Compressibility (1/GPa) = 0.07686031
#
# Stress axis : x y z
#
# Youngs Moduli (GPa) = 47.69787 51.49823 15.87965
#
# Poissons Ratio (x) = 0.44132 -0.02252
# Poissons Ratio (y) = 0.40875 0.09682
# Poissons Ratio (z) = -0.06765 0.31399
#
# Static dielectric constant tensor:
#      x y z
#    x 3.395810 -0.035510 -0.323380 
#    y -0.035510 4.045210 0.482340 
#    z -0.323380 0.482340 3.743390 
# 
# 
# High freq. dielectric constant tensor:
#      x y z
#    x 1.730110 0.012890 -0.023840 
#    y 0.012890 1.750850 0.019610 
#    z -0.023840 0.019610 1.740630 
# 
# From -- ./inp_files/284517.got.cif
#   From: 2010.06.25/outbox.cif.g09.slc.cpg/sg2_143_cif.got.tgz:284517.got - 2010.06.27 13:26:56.
