data_PCOD8039322
_publ_section_title
;
Structure prediction by ZEFSAII (Michael W. Deem and Ramdas Pophale) SiO2 
 PCOD8039322
Probable space group: P -1
;
_chemical_formula_sum "Si O2"
_cell_formula_units_Z 16
_cell_length_a 9.142666
_cell_length_b 22.068560
_cell_length_c 11.814953
_cell_angle_alpha 147.935375
_cell_angle_beta 64.418111
_cell_angle_gamma 132.421665
_cell_volume 872.681432
_symmetry_space_group_name_H-M "P -1"
_symmetry_group_IT_number 2
_symmetry_cell_setting 'triclinic'
loop_
_space_group_symop_operation_xyz
x,y,z
-x,-y,-z
loop_
_atom_site_type_symbol
_atom_site_label
_atom_site_fract_x
_atom_site_fract_y
_atom_site_fract_z
Si Si1 0.886509 0.910659 0.782366
Si Si2 0.416625 0.686656 0.112284
Si Si3 0.455464 0.849579 0.798461
Si Si4 0.718598 0.920338 0.226064
Si Si5 0.887078 0.655149 0.331755
Si Si6 0.176528 0.793248 0.260035
Si Si7 0.601949 0.131153 0.911862
Si Si8 0.325602 0.781231 0.494310
O O1 0.678239 0.887200 0.792002
O O2 0.826429 0.749895 0.553202
O O3 0.046600 0.006084 0.775545
O O4 0.000000 0.000000 0.000000
O O5 0.647401 0.794463 0.145045
O O6 0.287445 0.729642 0.165252
O O7 0.423970 0.717849 0.292972
O O8 0.312612 0.517119 0.856416
O O9 0.320598 0.741938 0.566256
O O10 0.327730 0.781731 0.853094
O O11 0.500000 0.000000 0.000000
O O12 0.557491 0.849690 0.061766
O O13 0.700942 0.038923 0.472708
O O14 0.942827 0.688294 0.230090
O O15 0.087744 0.698089 0.401634
O O16 0.190368 0.797206 0.123959
O O17 0.474391 0.957044 0.701484
#
# Coordination Sequence:
#
# PCOD8039322 Si02
#       8
#     2   2   2   2   2   2   2   2
#     4  11  19  36  55  78 102 132 177 217 252 315
#     4  10  17  30  52  82 108 135 170 217 256 301
#     4  10  21  31  52  80 103 137 169 215 266 305
#     4  10  16  29  56  81 103 131 176 221 252 287
#     4  10  20  31  56  83 101 134 177 213 261 300
#     4   9  15  27  53  80 105 128 174 221 244 288
#     4  10  14  28  50  79 102 133 173 209 255 293
#     4  10  16  31  49  80 112 133 166 215 256 304
#
# _framework density 18.334295999999998
#
# number of rings (size 3 to 8) (size 9 to 14) (size 15 to 20)
#    0.000    2.000    6.250    3.000    0.000    0.000 
#    0.000    1.875    0.000    6.750    6.500    0.000 
#    0.000    0.000    0.000    0.000    0.000    0.000 
#
# Total GULP energy -198220.706651 kJ/mol
# GULP energy per Si atom -12388.794166 kJ/mol
# Density = 1.829257 g / cm^3
# Si number density = 18.334296 Si / 1000 Ang^3
#
#
#
# Elastic Constant Matrix: (Units=GPa)
#
#
# Indices 1 2 3 4 5 6 
#
# 1 57.1547 31.0274 27.5463 -16.7188 -0.6913 -4.8550
# 2 31.0274 120.6728 70.0641 -15.1896 4.2027 -11.9657
# 3 27.5463 70.0641 101.2362 -9.0521 3.1641 -5.1162
# 4 -16.7188 -15.1896 -9.0521 37.6242 -0.5369 8.3236
# 5 -0.6913 4.2027 3.1641 -0.5369 15.1115 -11.2357
# 6 -4.8550 -11.9657 -5.1162 8.3236 -11.2357 19.9229
#
#
#
# Elastic Compliance Matrix: (Units=1/GPa)
#
#
# Indices 1 2 3 4 5 6 
#
# 1 0.023384 -0.002746 -0.003780 0.007901 0.004719 0.002439
# 2 -0.002746 0.015214 -0.009412 0.001072 0.003131 0.007370
# 3 -0.003780 -0.009412 0.017300 -0.000375 -0.004580 -0.004558
# 4 0.007901 0.001072 -0.000375 0.034503 -0.012935 -0.019237
# 5 0.004719 0.003131 -0.004580 -0.012935 0.122985 0.076617
# 6 0.002439 0.007370 -0.004558 -0.019237 0.076617 0.105290
#
#
# Mechanical properties :
#
#
# Convention : Reuss Voigt Hill
#
# Bulk Modulus (GPa) = 41.62817 59.59325 50.61071
# Shear Modulus (GPa) = 13.94466 24.56011 19.25239
#
# Velocity S-wave (km/s) = 2.76085 3.66399 3.24400
# Velocity P-wave (km/s) = 5.73737 7.10451 6.45722
#
# Compressibility (1/GPa) = 0.02402220
#
# Stress axis : x y z
#
# Youngs Moduli (GPa) = 42.76376 65.72801 57.80412
#
# Poissons Ratio (x) = 0.18046 0.21853
# Poissons Ratio (y) = 0.11741 0.54406
# Poissons Ratio (z) = 0.16167 0.61864
#
# Static dielectric constant tensor:
#      x y z
#    x 3.024500 -0.241120 0.194980 
#    y -0.241120 4.051340 -0.499960 
#    z 0.194980 -0.499960 3.445770 
# 
# 
# High freq. dielectric constant tensor:
#      x y z
#    x 1.660310 -0.009090 -0.005960 
#    y -0.009090 1.718930 -0.023130 
#    z -0.005960 -0.023130 1.698850 
# 
# From -- ./inp_files/254121.got.cif
#   From: 2010.06.25/outbox.cif.g09.slc.cpg/sg2_128_cif.got.tgz:254121.got - 2010.06.27 13:26:56.
