data_PCOD8039592
_publ_section_title
;
Structure prediction by ZEFSAII (Michael W. Deem and Ramdas Pophale) SiO2 
 PCOD8039592
Probable space group: P -1
;
_chemical_formula_sum "Si O2"
_cell_formula_units_Z 12
_cell_length_a 10.224264
_cell_length_b 8.905494
_cell_length_c 16.866688
_cell_angle_alpha 124.587367
_cell_angle_beta 32.102110
_cell_angle_gamma 115.850110
_cell_volume 668.358655
_symmetry_space_group_name_H-M "P -1"
_symmetry_group_IT_number 2
_symmetry_cell_setting 'triclinic'
loop_
_space_group_symop_operation_xyz
x,y,z
-x,-y,-z
loop_
_atom_site_type_symbol
_atom_site_label
_atom_site_fract_x
_atom_site_fract_y
_atom_site_fract_z
Si Si1 0.226671 0.789041 0.577928
Si Si2 0.067034 0.326175 0.860127
Si Si3 0.276972 0.927499 0.862517
Si Si4 0.740160 0.016564 0.932404
Si Si5 0.431281 0.507324 0.629017
Si Si6 0.541074 0.952973 0.349362
O O1 0.320625 0.570966 0.470758
O O2 0.288505 0.877405 0.487456
O O3 0.402589 0.865115 0.578018
O O4 0.938183 0.841519 0.758128
O O5 0.211133 0.379432 0.723173
O O6 0.230482 0.195513 0.796303
O O7 0.838888 0.212297 0.918839
O O8 0.000000 0.500000 0.000000
O O9 0.328987 0.708461 0.770452
O O10 0.472242 0.007000 0.725741
O O11 0.328029 0.999197 0.945120
O O12 0.000000 0.000000 0.000000
O O13 0.500000 0.000000 0.000000
O O14 0.500000 0.500000 0.500000
#
# Coordination Sequence:
#
# PCOD8039592 Si02
#       6
#     2   2   2   2   2   2
#     4   9  18  34  53  81 113 148 183 233 283 330
#     4  10  18  34  57  85 109 145 191 234 273 331
#     4  12  19  34  58  89 110 147 194 231 273 341
#     4  11  23  38  57  83 120 154 182 233 294 337
#     4  11  19  30  59  91 110 136 197 245 271 317
#     4   9  17  30  56  83 109 140 191 235 273 322
#
# _framework density 17.954431
#
# number of rings (size 3 to 8) (size 9 to 14) (size 15 to 20)
#    0.000    1.667    6.667    1.000    0.000    0.000 
#    0.000    1.667    0.000    7.000    0.000    0.000 
#    0.000    0.000    0.000    0.000    0.000    0.000 
#
# Total GULP energy -148689.795068 kJ/mol
# GULP energy per Si atom -12390.816256 kJ/mol
# Density = 1.791357 g / cm^3
# Si number density = 17.954431 Si / 1000 Ang^3
#
#
#
# Elastic Constant Matrix: (Units=GPa)
#
#
# Indices 1 2 3 4 5 6 
#
# 1 99.0338 44.7232 59.2285 -13.5704 4.0595 -8.4128
# 2 44.7232 95.4539 55.4415 -3.4703 -0.6253 -19.6289
# 3 59.2285 55.4415 124.0753 -2.2577 1.6442 -10.2444
# 4 -13.5704 -3.4703 -2.2577 46.1750 -18.1105 6.9994
# 5 4.0595 -0.6253 1.6442 -18.1105 26.6003 -6.9311
# 6 -8.4128 -19.6289 -10.2444 6.9994 -6.9311 24.8463
#
#
#
# Elastic Compliance Matrix: (Units=1/GPa)
#
#
# Indices 1 2 3 4 5 6 
#
# 1 0.015930 -0.004261 -0.005746 0.004502 0.000506 -0.001469
# 2 -0.004261 0.017847 -0.005023 -0.000274 0.004283 0.011857
# 3 -0.005746 -0.005023 0.012997 -0.001948 -0.001480 -0.000419
# 4 0.004502 -0.000274 -0.001948 0.031069 0.019876 -0.002703
# 5 0.000506 0.004283 -0.001480 0.019876 0.054511 0.012552
# 6 -0.001469 0.011857 -0.000419 -0.002703 0.012552 0.053208
#
#
# Mechanical properties :
#
#
# Convention : Reuss Voigt Hill
#
# Bulk Modulus (GPa) = 59.83723 70.81659 65.32691
# Shear Modulus (GPa) = 22.60466 30.13566 26.37016
#
# Velocity S-wave (km/s) = 3.55209 4.10134 3.83656
# Velocity P-wave (km/s) = 7.08680 7.87121 7.48928
#
# Compressibility (1/GPa) = 0.01671200
#
# Stress axis : x y z
#
# Youngs Moduli (GPa) = 62.77524 56.03271 76.94226
#
# Poissons Ratio (x) = 0.23876 0.44213
# Poissons Ratio (y) = 0.26750 0.38650
# Poissons Ratio (z) = 0.36072 0.28146
#
# Static dielectric constant tensor:
#      x y z
#    x 2.866080 -0.376670 0.173390 
#    y -0.376670 2.487010 -0.508860 
#    z 0.173390 -0.508860 3.594250 
# 
# 
# High freq. dielectric constant tensor:
#      x y z
#    x 1.631660 -0.041650 0.011940 
#    y -0.041650 1.693580 0.006260 
#    z 0.011940 0.006260 1.729600 
# 
# From -- ./inp_files/145327.got.cif
#   From: 2010.06.25/outbox.cif.g09.slc.cpg/sg2_73_cif.got.tgz:145327.got - 2010.06.27 13:26:56.
