data_PCOD8039434
_publ_section_title
;
Structure prediction by ZEFSAII (Michael W. Deem and Ramdas Pophale) SiO2 
 PCOD8039434
Probable space group: P -1
;
_chemical_formula_sum "Si O2"
_cell_formula_units_Z 16
_cell_length_a 11.814593
_cell_length_b 13.621573
_cell_length_c 11.500131
_cell_angle_alpha 53.883390
_cell_angle_beta 52.638882
_cell_angle_gamma 96.572128
_cell_volume 805.330622
_symmetry_space_group_name_H-M "P -1"
_symmetry_group_IT_number 2
_symmetry_cell_setting 'triclinic'
loop_
_space_group_symop_operation_xyz
x,y,z
-x,-y,-z
loop_
_atom_site_type_symbol
_atom_site_label
_atom_site_fract_x
_atom_site_fract_y
_atom_site_fract_z
Si Si1 0.969494 0.102774 0.078535
Si Si2 0.295982 0.978425 0.899823
Si Si3 0.009328 0.142439 0.442320
Si Si4 0.327197 0.647443 0.519555
Si Si5 0.355702 0.449832 0.470177
Si Si6 0.183963 0.358635 0.961885
Si Si7 0.107498 0.217201 0.588374
Si Si8 0.373726 0.933202 0.244087
O O1 0.790367 0.066558 0.146353
O O2 0.903151 0.922142 0.250081
O O3 0.192640 0.255425 0.768248
O O4 0.993816 0.169980 0.146597
O O5 0.431824 0.184022 0.704892
O O6 0.449986 0.957656 0.837563
O O7 0.106391 0.846776 0.202099
O O8 0.135041 0.227340 0.425693
O O9 0.769213 0.037034 0.681463
O O10 0.135745 0.312994 0.159660
O O11 0.000000 0.000000 0.500000
O O12 0.321350 0.562044 0.466415
O O13 0.191837 0.502453 0.810675
O O14 0.231748 0.720738 0.496097
O O15 0.592962 0.559180 0.270378
O O16 0.302870 0.412008 0.390642
O O17 0.500000 0.000000 0.000000
#
# Coordination Sequence:
#
# PCOD8039434 Si02
#       8
#     2   2   2   2   2   2   2   2
#     4  10  18  33  60  96 118 157 204 255 290 351
#     4   9  18  35  65  87 115 150 211 249 293 347
#     4  12  25  40  61  90 122 166 202 245 309 367
#     4   9  19  36  61  88 118 157 199 245 305 345
#     4  10  20  32  59  94 121 154 200 251 303 343
#     4  11  21  35  59  87 132 159 200 245 304 359
#     4  11  19  35  60  91 124 157 206 250 290 361
#     4  10  22  40  68  88 118 159 204 252 306 356
#
# _framework density 19.867616999999999
#
# number of rings (size 3 to 8) (size 9 to 14) (size 15 to 20)
#    0.750    1.000    2.500    5.250    1.750    1.000 
#    0.000    1.250    0.000    0.000    0.000    0.000 
#    0.000    0.000    0.000    0.000    0.000    0.000 
#
# Total GULP energy -198224.217286 kJ/mol
# GULP energy per Si atom -12389.013580 kJ/mol
# Density = 1.982240 g / cm^3
# Si number density = 19.867617 Si / 1000 Ang^3
#
#
#
# Elastic Constant Matrix: (Units=GPa)
#
#
# Indices 1 2 3 4 5 6 
#
# 1 114.1016 53.1295 33.4158 7.7182 -6.0389 11.5541
# 2 53.1295 90.6601 24.4306 -7.2444 2.7256 19.2185
# 3 33.4158 24.4306 57.9618 2.5594 7.9682 2.0171
# 4 7.7182 -7.2444 2.5594 26.5081 5.7583 -4.3132
# 5 -6.0389 2.7256 7.9682 5.7583 31.1586 0.6654
# 6 11.5541 19.2185 2.0171 -4.3132 0.6654 43.7009
#
#
#
# Elastic Compliance Matrix: (Units=1/GPa)
#
#
# Indices 1 2 3 4 5 6 
#
# 1 0.015123 -0.007822 -0.005950 -0.007576 0.006561 -0.001131
# 2 -0.007822 0.018129 -0.002785 0.007487 -0.003667 -0.004981
# 3 -0.005950 -0.002785 0.022708 0.000581 -0.006865 0.001912
# 4 -0.007576 0.007487 0.000581 0.044756 -0.010613 0.003263
# 5 0.006561 -0.003667 -0.006865 -0.010613 0.037433 -0.001423
# 6 -0.001131 -0.004981 0.001912 0.003263 -0.001423 0.025628
#
#
# Mechanical properties :
#
#
# Convention : Reuss Voigt Hill
#
# Bulk Modulus (GPa) = 43.76960 53.85279 48.81119
# Shear Modulus (GPa) = 24.44903 30.39005 27.41954
#
# Velocity S-wave (km/s) = 3.51179 3.91529 3.71902
# Velocity P-wave (km/s) = 6.20661 6.89956 6.56224
#
# Compressibility (1/GPa) = 0.02284691
#
# Stress axis : x y z
#
# Youngs Moduli (GPa) = 66.12438 55.16015 44.03685
#
# Poissons Ratio (x) = 0.43146 0.26201
# Poissons Ratio (y) = 0.51722 0.12264
# Poissons Ratio (z) = 0.39342 0.15362
#
# Static dielectric constant tensor:
#      x y z
#    x 3.796380 0.293400 0.055040 
#    y 0.293400 3.588820 -0.145780 
#    z 0.055040 -0.145780 3.423800 
# 
# 
# High freq. dielectric constant tensor:
#      x y z
#    x 1.780930 0.018580 0.006800 
#    y 0.018580 1.755580 -0.010550 
#    z 0.006800 -0.010550 1.748540 
# 
# From -- ./inp_files/431175.got.cif
#   From: 2010.06.25/outbox.cif.g09.slc.cpg/sg2_216_cif.got.tgz:431175.got - 2010.06.27 13:26:56.
