data_PCOD8039988
_publ_section_title
;
Structure prediction by ZEFSAII (Michael W. Deem and Ramdas Pophale) SiO2 
 PCOD8039988
Probable space group: P -1
;
_chemical_formula_sum "Si O2"
_cell_formula_units_Z 16
_cell_length_a 12.112094
_cell_length_b 8.911008
_cell_length_c 11.359240
_cell_angle_alpha 50.378985
_cell_angle_beta 122.824547
_cell_angle_gamma 104.792830
_cell_volume 785.819513
_symmetry_space_group_name_H-M "P -1"
_symmetry_group_IT_number 2
_symmetry_cell_setting 'triclinic'
loop_
_space_group_symop_operation_xyz
x,y,z
-x,-y,-z
loop_
_atom_site_type_symbol
_atom_site_label
_atom_site_fract_x
_atom_site_fract_y
_atom_site_fract_z
Si Si1 0.562256 0.667938 0.883252
Si Si2 0.046049 0.552194 0.257365
Si Si3 0.703085 0.677632 0.367567
Si Si4 0.203255 0.232893 0.880920
Si Si5 0.644413 0.104813 0.215233
Si Si6 0.570835 0.388658 0.827288
Si Si7 0.165630 0.807083 0.019102
Si Si8 0.918741 0.181343 0.297045
O O1 0.454669 0.864254 0.744699
O O2 0.576013 0.598124 0.790779
O O3 0.500000 0.500000 0.000000
O O4 0.705925 0.701822 0.994858
O O5 0.186572 0.485513 0.433050
O O6 0.062283 0.709790 0.086864
O O7 0.944648 0.652513 0.246526
O O8 0.989825 0.371339 0.254777
O O9 0.739490 0.714160 0.236674
O O10 0.562617 0.595060 0.335119
O O11 0.693981 0.875975 0.339241
O O12 0.201797 0.000501 0.007080
O O13 0.772142 0.218448 0.252426
O O14 0.567267 0.203118 0.006638
O O15 0.700483 0.347953 0.840842
O O16 0.095969 0.869998 0.823009
O O17 0.000000 0.000000 0.500000
#
# Coordination Sequence:
#
# PCOD8039988 Si02
#       8
#     2   2   2   2   2   2   2   2
#     4  10  19  33  63  94 113 144 203 267 300 341
#     4  12  26  39  57  93 129 165 196 246 311 365
#     4  12  21  37  63  92 121 154 207 261 293 353
#     4  12  21  40  63  89 121 161 212 249 300 352
#     4  10  18  35  60  91 116 148 197 259 303 345
#     4  10  20  37  63  90 116 158 204 251 306 347
#     4  11  24  42  63  84 128 168 199 241 307 376
#     4  11  21  40  64  92 117 155 208 251 299 355
#
# _framework density 20.360908999999999
#
# number of rings (size 3 to 8) (size 9 to 14) (size 15 to 20)
#    0.000    1.000    6.250    4.500    0.000    0.500 
#    0.000    0.000    0.000    1.500    0.000    0.000 
#    0.000    0.000    0.000    0.000    0.000    0.000 
#
# Total GULP energy -198423.029919 kJ/mol
# GULP energy per Si atom -12401.439370 kJ/mol
# Density = 2.031457 g / cm^3
# Si number density = 20.360909 Si / 1000 Ang^3
#
#
#
# Elastic Constant Matrix: (Units=GPa)
#
#
# Indices 1 2 3 4 5 6 
#
# 1 80.1396 35.2265 34.9574 -2.3003 18.1070 -1.6615
# 2 35.2265 115.5424 29.1731 11.3562 4.5385 4.8349
# 3 34.9574 29.1731 78.1931 9.1551 22.5709 12.7336
# 4 -2.3003 11.3562 9.1551 22.4805 8.2178 13.6745
# 5 18.1070 4.5385 22.5709 8.2178 28.7096 -5.2441
# 6 -1.6615 4.8349 12.7336 13.6745 -5.2441 29.1778
#
#
#
# Elastic Compliance Matrix: (Units=1/GPa)
#
#
# Indices 1 2 3 4 5 6 
#
# 1 0.020294 -0.006071 -0.003248 0.016019 -0.015084 -0.006639
# 2 -0.006071 0.012316 -0.004828 -0.014030 0.011212 0.008311
# 3 -0.003248 -0.004828 0.025005 0.013867 -0.024695 -0.021235
# 4 0.016019 -0.014030 0.013867 0.110362 -0.062387 -0.065750
# 5 -0.015084 0.011212 -0.024695 -0.062387 0.089599 0.053402
# 6 -0.006639 0.008311 -0.021235 -0.065750 0.053402 0.082197
#
#
# Mechanical properties :
#
#
# Convention : Reuss Voigt Hill
#
# Bulk Modulus (GPa) = 34.10541 52.50991 43.30766
# Shear Modulus (GPa) = 13.23315 27.70813 20.47064
#
# Velocity S-wave (km/s) = 2.55214 3.69297 3.17423
# Velocity P-wave (km/s) = 5.04691 6.63548 5.89495
#
# Compressibility (1/GPa) = 0.02932086
#
# Stress axis : x y z
#
# Youngs Moduli (GPa) = 49.27575 81.19805 39.99269
#
# Poissons Ratio (x) = 0.49298 0.12989
# Poissons Ratio (y) = 0.29917 0.19307
# Poissons Ratio (z) = 0.16004 0.39199
#
# Static dielectric constant tensor:
#      x y z
#    x 3.979720 -0.263030 0.437370 
#    y -0.263030 4.032590 -0.035460 
#    z 0.437370 -0.035460 3.510140 
# 
# 
# High freq. dielectric constant tensor:
#      x y z
#    x 1.797150 -0.002890 0.033980 
#    y -0.002890 1.806630 0.003930 
#    z 0.033980 0.003930 1.765880 
# 
# From -- ./inp_files/188672.got.cif
#   From: 2010.06.25/outbox.cif.g09.slc.cpg/sg2_95_cif.got.tgz:188672.got - 2010.06.27 13:26:56.
