data_PCOD8039131
_publ_section_title
;
Structure prediction by ZEFSAII (Michael W. Deem and Ramdas Pophale) SiO2 
 PCOD8039131
Probable space group: P -1
;
_chemical_formula_sum "Si O2"
_cell_formula_units_Z 16
_cell_length_a 19.997559
_cell_length_b 13.400672
_cell_length_c 12.199189
_cell_angle_alpha 127.843031
_cell_angle_beta 151.487576
_cell_angle_gamma 33.282703
_cell_volume 759.399939
_symmetry_space_group_name_H-M "P -1"
_symmetry_group_IT_number 2
_symmetry_cell_setting 'triclinic'
loop_
_space_group_symop_operation_xyz
x,y,z
-x,-y,-z
loop_
_atom_site_type_symbol
_atom_site_label
_atom_site_fract_x
_atom_site_fract_y
_atom_site_fract_z
Si Si1 0.206161 0.963506 0.961717
Si Si2 0.381461 0.451331 0.802041
Si Si3 0.910007 0.373004 0.714084
Si Si4 0.124512 0.752380 0.816258
Si Si5 0.279391 0.686997 0.234877
Si Si6 0.676632 0.061501 0.491379
Si Si7 0.185452 0.405473 0.068703
Si Si8 0.864507 0.824959 0.805093
O O1 0.142567 0.874708 0.865116
O O2 0.994330 0.171374 0.728454
O O3 0.420532 0.795234 0.074549
O O4 0.277288 0.020000 0.191698
O O5 0.219759 0.569511 0.755367
O O6 0.247363 0.523568 0.546607
O O7 0.500000 0.500000 0.000000
O O8 0.768414 0.534362 0.720357
O O9 0.130842 0.303248 0.960933
O O10 0.270194 0.643547 0.066274
O O11 0.854881 0.909437 0.547596
O O12 0.500000 0.500000 0.500000
O O13 0.244229 0.861270 0.292901
O O14 0.075576 0.770804 0.064415
O O15 0.407372 0.250245 0.203072
O O16 0.709727 0.932540 0.546766
O O17 0.963974 0.613748 0.824711
#
# Coordination Sequence:
#
# PCOD8039131 Si02
#       8
#     2   2   2   2   2   2   2   2
#     4  10  19  37  60  81 119 157 185 239 289 334
#     4  10  23  39  57  83 120 158 195 236 283 345
#     4  10  23  41  58  87 118 155 204 230 281 350
#     4  10  21  36  55  90 120 147 191 241 294 349
#     4  11  19  32  58  89 120 146 183 249 299 342
#     4  11  19  35  57  87 116 149 185 240 304 340
#     4  10  22  37  61  88 116 154 191 245 283 339
#     4  10  18  32  57  88 117 145 186 241 293 341
#
# _framework density 21.069268000000001
#
# number of rings (size 3 to 8) (size 9 to 14) (size 15 to 20)
#    0.000    1.750    3.750    1.500    1.750    3.000 
#    2.250    4.375    0.000    3.750    0.000    0.000 
#    0.000    0.000    0.000    0.000    0.000    0.000 
#
# Total GULP energy -198260.527613 kJ/mol
# GULP energy per Si atom -12391.282976 kJ/mol
# Density = 2.102131 g / cm^3
# Si number density = 21.069268 Si / 1000 Ang^3
#
#
#
# Elastic Constant Matrix: (Units=GPa)
#
#
# Indices 1 2 3 4 5 6 
#
# 1 68.8317 41.7623 10.1841 -6.0157 2.7159 -7.8432
# 2 41.7623 103.1255 29.1685 -22.1198 2.8071 -20.8201
# 3 10.1841 29.1685 55.0534 -7.8186 -3.4169 -5.0536
# 4 -6.0157 -22.1198 -7.8186 20.8017 -5.6881 5.0355
# 5 2.7159 2.8071 -3.4169 -5.6881 29.4510 -9.4062
# 6 -7.8432 -20.8201 -5.0536 5.0355 -9.4062 36.5936
#
#
#
# Elastic Compliance Matrix: (Units=1/GPa)
#
#
# Indices 1 2 3 4 5 6 
#
# 1 0.019576 -0.009038 0.000381 -0.004143 -0.001964 -0.000829
# 2 -0.009038 0.019613 -0.005652 0.015343 0.003588 0.007252
# 3 0.000381 -0.005652 0.021821 0.003240 0.003791 0.000408
# 4 -0.004143 0.015343 0.003240 0.067408 0.013073 0.002374
# 5 -0.001964 0.003588 0.003791 0.013073 0.040166 0.010670
# 6 -0.000829 0.007252 0.000408 0.002374 0.010670 0.033748
#
#
# Mechanical properties :
#
#
# Convention : Reuss Voigt Hill
#
# Bulk Modulus (GPa) = 30.87148 43.24894 37.06021
# Shear Modulus (GPa) = 20.68255 27.09563 23.88909
#
# Velocity S-wave (km/s) = 3.13652 3.59001 3.37090
# Velocity P-wave (km/s) = 5.27268 6.14458 5.72525
#
# Compressibility (1/GPa) = 0.03239236
#
# Stress axis : x y z
#
# Youngs Moduli (GPa) = 51.08178 50.98600 45.82697
#
# Poissons Ratio (x) = 0.46081 -0.01745
# Poissons Ratio (y) = 0.46167 0.25902
# Poissons Ratio (z) = -0.01945 0.28818
#
# Static dielectric constant tensor:
#      x y z
#    x 4.036280 -0.204300 -0.014720 
#    y -0.204300 4.196140 -0.338860 
#    z -0.014720 -0.338860 3.397130 
# 
# 
# High freq. dielectric constant tensor:
#      x y z
#    x 1.823450 0.000390 0.002440 
#    y 0.000390 1.821080 -0.028550 
#    z 0.002440 -0.028550 1.795610 
# 
# From -- ./inp_files/438536.got.cif
#   From: 2010.06.25/outbox.cif.g09.slc.cpg/sg2_220_cif.got.tgz:438536.got - 2010.06.27 13:26:56.
