data_PCOD8039984
_publ_section_title
;
Structure prediction by ZEFSAII (Michael W. Deem and Ramdas Pophale) SiO2 
 PCOD8039984
Probable space group: P -1
;
_chemical_formula_sum "Si O2"
_cell_formula_units_Z 16
_cell_length_a 9.171265
_cell_length_b 11.673669
_cell_length_c 17.366427
_cell_angle_alpha 138.848820
_cell_angle_beta 139.622830
_cell_angle_gamma 38.970759
_cell_volume 696.107244
_symmetry_space_group_name_H-M "P -1"
_symmetry_group_IT_number 2
_symmetry_cell_setting 'triclinic'
loop_
_space_group_symop_operation_xyz
x,y,z
-x,-y,-z
loop_
_atom_site_type_symbol
_atom_site_label
_atom_site_fract_x
_atom_site_fract_y
_atom_site_fract_z
Si Si1 0.379151 0.766125 0.550713
Si Si2 0.560128 0.825365 0.086286
Si Si3 0.591858 0.863461 0.289695
Si Si4 0.528902 0.361722 0.174753
Si Si5 0.132445 0.513837 0.314927
Si Si6 0.790859 0.089700 0.278039
Si Si7 0.739255 0.217953 0.772389
Si Si8 0.966748 0.593757 0.931851
O O1 0.249523 0.651626 0.396138
O O2 0.684328 0.619846 0.609941
O O3 0.230041 0.822125 0.601203
O O4 0.332936 0.960493 0.583500
O O5 0.458776 0.883446 0.162473
O O6 0.837623 0.637281 0.111947
O O7 0.596857 0.998101 0.147062
O O8 0.371204 0.773737 0.931879
O O9 0.388160 0.892196 0.287706
O O10 0.842566 0.650817 0.296320
O O11 0.713240 0.262293 0.270360
O O12 0.487004 0.582470 0.256089
O O13 0.248426 0.376661 0.077885
O O14 0.152919 0.357216 0.177779
O O15 0.083712 0.927363 0.296670
O O16 0.904915 0.271038 0.926250
#
# Coordination Sequence:
#
# PCOD8039984 Si02
#       8
#     2   2   2   2   2   2   2   2
#     4  10  22  40  66  88 107 154 209 245 276 331
#     4   9  18  33  55  82 116 149 195 237 277 348
#     4  10  23  39  59  88 123 154 185 241 302 346
#     4  11  19  33  57  85 118 158 191 236 288 340
#     4  10  21  40  65  85 114 151 205 245 278 337
#     4  11  20  34  61  86 115 150 200 241 283 339
#     4  11  23  37  56  93 126 150 183 236 305 361
#     4  10  18  35  60  88 117 151 191 241 290 341
#
# _framework density 22.984963
#
# number of rings (size 3 to 8) (size 9 to 14) (size 15 to 20)
#    0.000    1.750    3.750    1.500    0.000    5.500 
#    0.000    1.875    0.000    2.250    0.000    0.000 
#    0.000    0.000    0.000    0.000    0.000    0.000 
#
# Total GULP energy -198362.415797 kJ/mol
# GULP energy per Si atom -12397.650987 kJ/mol
# Density = 2.293265 g / cm^3
# Si number density = 22.984963 Si / 1000 Ang^3
#
#
#
# Elastic Constant Matrix: (Units=GPa)
#
#
# Indices 1 2 3 4 5 6 
#
# 1 87.7148 33.9494 5.9873 -0.5661 5.3098 1.4623
# 2 33.9494 71.7670 9.1973 12.6182 -1.2196 7.8098
# 3 5.9873 9.1973 42.5562 -3.0464 0.2936 -5.7333
# 4 -0.5661 12.6182 -3.0464 18.5742 0.2317 -7.3472
# 5 5.3098 -1.2196 0.2936 0.2317 10.7760 2.1879
# 6 1.4623 7.8098 -5.7333 -7.3472 2.1879 21.9690
#
#
#
# Elastic Compliance Matrix: (Units=1/GPa)
#
#
# Indices 1 2 3 4 5 6 
#
# 1 0.016201 -0.011199 0.002244 0.012028 -0.011324 0.008638
# 2 -0.011199 0.028975 -0.010307 -0.031486 0.014676 -0.024236
# 3 0.002244 -0.010307 0.029300 0.019205 -0.007199 0.018301
# 4 0.012028 -0.031486 0.019205 0.099114 -0.022456 0.050788
# 5 -0.011324 0.014676 -0.007199 -0.022456 0.105668 -0.024375
# 6 0.008638 -0.024236 0.018301 0.050788 -0.024375 0.077748
#
#
# Mechanical properties :
#
#
# Convention : Reuss Voigt Hill
#
# Bulk Modulus (GPa) = 27.81426 33.36733 30.59079
# Shear Modulus (GPa) = 12.26954 20.45743 16.36349
#
# Velocity S-wave (km/s) = 2.31293 2.98658 2.67108
# Velocity P-wave (km/s) = 4.38865 5.14212 4.78025
#
# Compressibility (1/GPa) = 0.03595279
#
# Stress axis : x y z
#
# Youngs Moduli (GPa) = 61.72512 34.51246 34.12949
#
# Poissons Ratio (x) = 0.38649 -0.07658
# Poissons Ratio (y) = 0.69123 0.35177
# Poissons Ratio (z) = -0.13850 0.35572
#
# Static dielectric constant tensor:
#      x y z
#    x 3.767360 -0.032980 -0.295540 
#    y -0.032980 4.190910 0.164530 
#    z -0.295540 0.164530 3.980980 
# 
# 
# High freq. dielectric constant tensor:
#      x y z
#    x 1.868800 0.000860 -0.024490 
#    y 0.000860 1.915950 0.010240 
#    z -0.024490 0.010240 1.890020 
# 
# From -- ./inp_files/398137.got.cif
#   From: 2010.06.25/outbox.cif.g09.slc.cpg/sg2_200_cif.got.tgz:398137.got - 2010.06.27 13:26:56.
