data_PCOD8039940
_publ_section_title
;
Structure prediction by ZEFSAII (Michael W. Deem and Ramdas Pophale) SiO2 
 PCOD8039940
Probable space group: P -1
;
_chemical_formula_sum "Si O2"
_cell_formula_units_Z 14
_cell_length_a 11.882921
_cell_length_b 8.648374
_cell_length_c 8.832822
_cell_angle_alpha 129.386591
_cell_angle_beta 106.472225
_cell_angle_gamma 73.009549
_cell_volume 665.009125
_symmetry_space_group_name_H-M "P -1"
_symmetry_group_IT_number 2
_symmetry_cell_setting 'triclinic'
loop_
_space_group_symop_operation_xyz
x,y,z
-x,-y,-z
loop_
_atom_site_type_symbol
_atom_site_label
_atom_site_fract_x
_atom_site_fract_y
_atom_site_fract_z
Si Si1 0.374227 0.445829 0.159204
Si Si2 0.835627 0.836362 0.566544
Si Si3 0.214860 0.521324 0.858344
Si Si4 0.624209 0.221036 0.046540
Si Si5 0.227044 0.195432 0.126997
Si Si6 0.393372 0.876429 0.367268
Si Si7 0.985279 0.119552 0.913434
O O1 0.498376 0.294759 0.121428
O O2 0.291048 0.384830 0.223921
O O3 0.402429 0.672273 0.344602
O O4 0.307376 0.422561 0.959855
O O5 0.859458 0.637846 0.347847
O O6 0.806740 0.785172 0.697482
O O7 0.724337 0.977665 0.538431
O O8 0.949241 0.956775 0.676680
O O9 0.286748 0.611588 0.804967
O O10 0.121730 0.695057 0.007901
O O11 0.607938 0.198777 0.849213
O O12 0.684641 0.009458 0.008968
O O13 0.109845 0.197738 0.977082
O O14 0.500000 0.000000 0.500000
O O15 0.000000 0.000000 0.000000
#
# Coordination Sequence:
#
# PCOD8039940 Si02
#       7
#     2   2   2   2   2   2   2
#     4  11  21  36  60  90 119 148 191 249 298 328
#     4  10  20  38  62  86 112 157 203 227 285 354
#     4  11  20  38  65  88 107 158 201 235 284 348
#     4  10  19  37  57  84 118 155 193 232 291 354
#     4  10  22  38  57  85 124 154 184 249 294 332
#     4  10  18  35  59  84 116 152 196 237 281 353
#     4  10  19  40  61  82 120 154 199 234 281 352
#
# _framework density 21.052343
#
# number of rings (size 3 to 8) (size 9 to 14) (size 15 to 20)
#    0.000    1.714    5.714    3.857    0.000    2.857 
#    0.000   10.000    0.000    0.000    0.000    0.000 
#    0.000    0.000    0.000    0.000    0.000    0.000 
#
# Total GULP energy -173526.205569 kJ/mol
# GULP energy per Si atom -12394.728969 kJ/mol
# Density = 2.100443 g / cm^3
# Si number density = 21.052343 Si / 1000 Ang^3
#
#
#
# Elastic Constant Matrix: (Units=GPa)
#
#
# Indices 1 2 3 4 5 6 
#
# 1 110.4889 44.8347 19.7956 11.1516 25.8672 1.9645
# 2 44.8347 70.5630 21.9302 14.4162 11.2921 -0.3182
# 3 19.7956 21.9302 92.8044 26.8809 25.4522 -0.3386
# 4 11.1516 14.4162 26.8809 21.9783 6.4731 9.3278
# 5 25.8672 11.2921 25.4522 6.4731 28.1117 -2.0186
# 6 1.9645 -0.3182 -0.3386 9.3278 -2.0186 31.2172
#
#
#
# Elastic Compliance Matrix: (Units=1/GPa)
#
#
# Indices 1 2 3 4 5 6 
#
# 1 0.014964 -0.008065 0.002437 -0.000905 -0.012639 -0.001544
# 2 -0.008065 0.021555 -0.000522 -0.011978 0.002313 0.004450
# 3 0.002437 -0.000522 0.022450 -0.026723 -0.015699 0.007055
# 4 -0.000905 -0.011978 -0.026723 0.097260 0.005356 -0.029070
# 5 -0.012639 0.002313 -0.015699 0.005356 0.059461 0.002893
# 6 -0.001544 0.004450 0.007055 -0.029070 0.002893 0.041126
#
#
# Mechanical properties :
#
#
# Convention : Reuss Voigt Hill
#
# Bulk Modulus (GPa) = 21.42715 49.66413 35.54564
# Shear Modulus (GPa) = 17.56391 28.74782 23.15587
#
# Velocity S-wave (km/s) = 2.89155 3.69933 3.32010
# Velocity P-wave (km/s) = 4.62042 6.47215 5.62303
#
# Compressibility (1/GPa) = 0.04666977
#
# Stress axis : x y z
#
# Youngs Moduli (GPa) = 66.82494 46.39190 44.54244
#
# Poissons Ratio (x) = 0.37415 -0.10853
# Poissons Ratio (y) = 0.53894 0.02325
# Poissons Ratio (z) = -0.16282 0.02421
#
# Static dielectric constant tensor:
#      x y z
#    x 3.851570 -0.265680 0.434880 
#    y -0.265680 3.933100 0.202680 
#    z 0.434880 0.202680 3.638110 
# 
# 
# High freq. dielectric constant tensor:
#      x y z
#    x 1.822710 -0.012620 0.032680 
#    y -0.012620 1.822480 0.022070 
#    z 0.032680 0.022070 1.800390 
# 
# From -- ./inp_files/178460.got.cif
#   From: 2010.06.25/outbox.cif.g09.slc.cpg/sg2_90_cif.got.tgz:178460.got - 2010.06.27 13:26:56.
